drugbank_target|Q54089 Bifunctional (p)ppGpp synthase/hydrolase RelA (DB02836; DB04315)
 OpenBabel12092119583D

  0  0  0     0  0            999 V3000
M  V30 BEGIN CTAB
M  V30 COUNTS 11875 11982 0 0 0
M  V30 BEGIN ATOM
M  V30 1 H -0.908 1.98254 -0.117106 0
M  V30 2 N 0 1.576 0 0
M  V30 3 C 0.933 2.03868 1.02534 0
M  V30 4 C 1.911 0.928543 1.3348 0
M  V30 5 O 3.095 1.19667 1.45644 0
M  V30 6 C 0.222 2.43627 2.35294 0
M  V30 7 C -0.732 3.65373 2.2001 0
M  V30 8 S 0.101 5.13292 1.52614 0
M  V30 9 C 1.257 5.56322 2.86805 0
M  V30 10 H 1.49 2.90518 0.631377 0
M  V30 11 H -0.977 1.52953 0.210867 0
M  V30 12 H 0.981 2.67203 3.11629 0
M  V30 13 H -0.358 1.57376 2.7183 0
M  V30 14 H -1.165 3.90944 3.18086 0
M  V30 15 H -1.563 3.418 1.51819 0
M  V30 16 H 0.729 5.58782 3.83104 0
M  V30 17 H 1.672 6.56266 2.65933 0
M  V30 18 H 2.08 4.83886 2.90714 0
M  V30 19 N 1.4781 -0.272755 1.55222 0
M  V30 20 C 2.4411 -1.32041 1.87344 0
M  V30 21 C 3.4411 -1.42342 0.74803 0
M  V30 22 O 4.6311 -1.41488 1.0162 0
M  V30 23 C 1.7631 -2.70173 2.07893 0
M  V30 24 H 2.9561 -1.04789 2.80997 0
M  V30 25 H 0.5091 -0.51083 1.47717 0
M  V30 26 H 1.2441 -3.02605 1.16622 0
M  V30 27 H 1.0291 -2.64082 2.89833 0
M  V30 28 H 2.5191 -3.45869 2.34017 0
M  V30 29 N 2.9562 -1.48159 -0.537278 0
M  V30 30 C 3.9032 -1.62138 -1.64256 0
M  V30 31 C 4.8732 -0.463668 -1.59497 0
M  V30 32 O 6.0582 -0.686241 -1.78032 0
M  V30 33 C 3.1982 -1.66028 -3.02537 0
M  V30 34 C 2.3112 -2.92855 -3.17585 0
M  V30 35 C 1.4462 -2.87952 -4.46382 0
M  V30 36 C 0.4852 -4.09516 -4.54932 0
M  V30 37 N -0.3778 -4.02733 -5.75109 0
M  V30 38 H 4.4622 -2.56529 -1.51647 0
M  V30 39 H 1.9992 -1.27224 -0.738414 0
M  V30 40 H 3.9572 -1.66265 -3.82638 0
M  V30 41 H 2.5872 -0.751331 -3.13934 0
M  V30 42 H 1.6392 -3.02395 -2.30784 0
M  V30 43 H 2.9512 -3.82822 -3.19764 0
M  V30 44 H 2.1052 -2.8655 -5.34765 0
M  V30 45 H 0.8442 -1.95702 -4.46712 0
M  V30 46 H -0.1508 -4.11201 -3.64957 0
M  V30 47 H 1.0742 -5.02917 -4.56346 0
M  V30 48 H -0.9798 -3.13299 -5.76351 0
M  V30 49 H -1.0628 -4.86397 -5.78752 0
M  V30 50 H 0.2052 -4.05379 -6.65799 0
M  V30 51 N 4.4343 0.785586 -1.36625 0
M  V30 52 C 5.3443 1.92964 -1.33425 0
M  V30 53 C 6.3603 1.72394 -0.235851 0
M  V30 54 O 7.5363 1.95866 -0.468878 0
M  V30 55 C 4.6013 3.27884 -1.12662 0
M  V30 56 C 3.6623 3.61204 -2.32013 0
M  V30 57 C 2.8953 4.89687 -2.12231 0
M  V30 58 O 3.1183 5.59704 -1.09945 0
M  V30 59 O 2.0523 5.21752 -3.00098 0
M  V30 60 H 5.8783 1.98613 -2.29753 0
M  V30 61 H 3.4633 0.926384 -1.17211 0
M  V30 62 H 5.3453 4.08614 -1.03016 0
M  V30 63 H 4.0203 3.23118 -0.193991 0
M  V30 64 H 2.9273 2.80765 -2.47228 0
M  V30 65 H 4.2603 3.70698 -3.23796 0
M  V30 66 N 5.9124 1.20967 1.01018 0
M  V30 67 C 7.1614 1.01796 1.74128 0
M  V30 68 C 7.4744 -0.449691 1.90361 0
M  V30 69 O 8.6804 -0.76068 2.60626 0
M  V30 70 C 7.1364 1.7727 3.13215 0
M  V30 71 C 6.7444 3.28171 3.04972 0
M  V30 72 C 8.4884 1.66489 3.90489 0
M  V30 73 C 6.3954 3.96156 4.39107 0
M  V30 74 H 5.3254 0.377276 0.652824 0
M  V30 75 H 7.9764 1.44651 1.12909 0
M  V30 76 H 6.3584 1.27205 3.75013 0
M  V30 77 H 7.5324 3.85499 2.52443 0
M  V30 78 H 5.8474 3.39437 2.41188 0
M  V30 79 H 8.4444 2.14617 4.89738 0
M  V30 80 H 8.7874 0.6222 4.11624 0
M  V30 81 H 9.3204 2.14003 3.35332 0
M  V30 82 H 6.0594 5.00604 4.23174 0
M  V30 83 H 5.5794 3.43617 4.91617 0
M  V30 84 H 7.2584 4.00774 5.07926 0
M  V30 85 N 7.3905 -1.2043 1.01659 0
M  V30 86 C 8.3385 -2.25249 0.580143 0
M  V30 87 C 9.3325 -1.65057 -0.381115 0
M  V30 88 O 10.5385 -1.78241 -0.251039 0
M  V30 89 H 6.9135 -0.732695 0.169299 0
M  V30 90 H 8.8845 -2.59389 1.47512 0
M  V30 91 C 7.6335 -3.47638 -0.065788 0
M  V30 92 H 6.9565 -3.94233 0.664874 0
M  V30 93 H 8.3965 -4.2268 -0.334282 0
M  V30 94 C 6.8555 -3.10447 -1.3086 0
M  V30 95 O 7.3855 -3.21981 -2.4019 0
M  V30 96 N 5.5915 -2.64996 -1.1927 0
M  V30 97 H 5.1385 -2.55811 -0.303064 0
M  V30 98 H 5.0965 -2.40482 -2.02523 0
M  V30 99 N 8.8686 -0.792821 -1.36206 0
M  V30 100 C 9.7986 -0.207853 -2.32573 0
M  V30 101 C 10.7796 0.659055 -1.56813 0
M  V30 102 O 11.9646 0.592176 -1.84951 0
M  V30 103 C 9.0946 0.655449 -3.41059 0
M  V30 104 C 8.0486 -0.111842 -4.27854 0
M  V30 105 C 7.3746 0.872274 -5.27537 0
M  V30 106 C 8.6746 -1.30299 -5.05786 0
M  V30 107 H 10.3686 -1.01294 -2.81744 0
M  V30 108 H 7.9146 -0.48854 -1.3546 0
M  V30 109 H 9.8676 1.07464 -4.07467 0
M  V30 110 H 8.5916 1.49328 -2.90463 0
M  V30 111 H 7.2506 -0.512053 -3.63006 0
M  V30 112 H 6.8986 1.70523 -4.73214 0
M  V30 113 H 6.5986 0.363291 -5.86476 0
M  V30 114 H 8.1226 1.28996 -5.96818 0
M  V30 115 H 9.5366 -0.959379 -5.65216 0
M  V30 116 H 7.9336 -1.7455 -5.74154 0
M  V30 117 H 9.0036 -2.09663 -4.37229 0
M  V30 118 N 10.3467 1.47872 -0.545128 0
M  V30 119 C 11.5747 2.06889 -0.021084 0
M  V30 120 C 11.9897 1.39955 1.2672 0
M  V30 121 O 11.3467 0.492036 1.75742 0
M  V30 122 C 11.3977 3.60996 0.190817 0
M  V30 123 O 11.1187 4.25419 -1.04644 0
M  V30 124 C 12.6197 4.36849 0.753521 0
M  V30 125 H 9.8397 0.669785 -0.0403635 0
M  V30 126 H 12.3837 1.90049 -0.755095 0
M  V30 127 H 10.5387 3.77391 0.87492 0
M  V30 128 H 10.9527 5.17785 -0.836611 0
M  V30 129 H 12.4267 5.45399 0.851139 0
M  V30 130 H 12.9037 4.02306 1.762 0
M  V30 131 H 13.5097 4.25169 0.105503 0
M  V30 132 N 11.8248 0.280983 1.55075 0
M  V30 133 C 13.0728 -0.333455 1.9933 0
M  V30 134 C 13.3938 -1.55937 1.17085 0
M  V30 135 O 12.6638 -1.94143 0.261805 0
M  V30 136 H 11.2438 -0.126197 0.736263 0
M  V30 137 H 13.9058 0.387678 1.91005 0
M  V30 138 H 13.0018 -0.619292 3.05894 0
M  V30 139 N 13.3029 -1.57598 0.00835791 0
M  V30 140 C 14.2129 -2.12385 -0.996487 0
M  V30 141 C 15.2289 -1.07108 -1.37127 0
M  V30 142 O 16.4049 -1.39055 -1.4569 0
M  V30 143 C 13.4699 -2.62314 -2.26699 0
M  V30 144 C 12.5309 -3.82225 -1.95456 0
M  V30 145 C 11.7639 -4.29763 -3.16449 0
M  V30 146 O 11.9869 -3.76584 -4.28416 0
M  V30 147 O 10.9209 -5.21832 -2.99958 0
M  V30 148 H 14.7469 -2.98479 -0.560725 0
M  V30 149 H 12.3319 -1.47903 -0.210987 0
M  V30 150 H 14.2139 -2.94589 -3.01322 0
M  V30 151 H 12.8889 -1.79313 -2.69497 0
M  V30 152 H 11.7959 -3.54909 -1.18282 0
M  V30 153 H 13.1289 -4.66324 -1.57489 0
M  V30 154 N 14.781 0.264519 -1.55364 0
M  V30 155 C 15.691 1.34902 -1.91934 0
M  V30 156 C 16.707 1.53595 -0.817593 0
M  V30 157 O 17.883 1.67558 -1.11742 0
M  V30 158 C 14.948 2.68676 -2.19121 0
M  V30 159 C 14.009 2.58657 -3.4263 0
M  V30 160 C 13.242 3.86051 -3.68511 0
M  V30 161 O 13.465 4.87126 -2.96757 0
M  V30 162 O 12.399 3.85744 -4.62045 0
M  V30 163 H 16.225 1.06883 -2.8427 0
M  V30 164 H 13.81 0.463775 -1.42019 0
M  V30 165 H 15.692 3.47759 -2.37995 0
M  V30 166 H 14.367 2.96463 -1.29966 0
M  V30 167 H 13.274 1.7792 -3.29082 0
M  V30 168 H 14.607 2.35818 -4.32031 0
M  V30 169 N 16.2591 1.48442 0.529413 0
M  V30 170 C 17.5051 1.5672 1.28711 0
M  V30 171 C 17.8381 0.2406 1.92704 0
M  V30 172 O 17.1131 -0.753454 1.79313 0
M  V30 173 C 17.3961 2.70587 2.37603 0
M  V30 174 C 17.2491 4.12953 1.78297 0
M  V30 175 C 18.5681 2.80212 3.39366 0
M  V30 176 H 15.6871 0.570474 0.466613 0
M  V30 177 H 18.3291 1.80617 0.589706 0
M  V30 178 H 16.4791 2.50342 2.97088 0
M  V30 179 H 18.1511 4.44639 1.22858 0
M  V30 180 H 16.3941 4.19927 1.0883 0
M  V30 181 H 17.0651 4.88448 2.57144 0
M  V30 182 H 19.5411 2.98553 2.89836 0
M  V30 183 H 18.4171 3.61611 4.12951 0
M  V30 184 H 18.6781 1.88393 3.99951 0
M  V30 185 N 17.7372 -0.778329 1.37039 0
M  V30 186 C 18.9832 -1.53892 1.32079 0
M  V30 187 C 19.3162 -1.9396 -0.0965386 0
M  V30 188 O 18.5912 -1.63568 -1.05242 0
M  V30 189 C 18.8742 -2.80847 2.25382 0
M  V30 190 C 18.7272 -2.47076 3.75864 0
M  V30 191 C 20.0462 -3.82741 2.1725 0
M  V30 192 H 17.1652 -0.558303 0.48111 0
M  V30 193 H 19.8072 -0.893397 1.67685 0
M  V30 194 H 17.9572 -3.35931 1.95148 0
M  V30 195 H 19.6292 -1.97957 4.16666 0
M  V30 196 H 17.8722 -1.79863 3.94755 0
M  V30 197 H 18.5432 -3.37798 4.36574 0
M  V30 198 H 21.0192 -3.37133 2.43887 0
M  V30 199 H 19.8952 -4.69303 2.84686 0
M  V30 200 H 20.1562 -4.2652 1.16331 0
M  V30 201 N 19.2153 -1.21501 -1.00376 0
M  V30 202 C 20.1783 -0.976927 -2.07337 0
M  V30 203 C 21.1783 0.0525322 -1.60714 0
M  V30 204 O 22.3683 -0.184869 -1.73216 0
M  V30 205 C 19.5003 -0.473423 -3.37597 0
M  V30 206 H 20.6933 -1.92587 -2.29892 0
M  V30 207 H 18.2463 -1.03217 -1.17371 0
M  V30 208 H 18.9813 0.480379 -3.20722 0
M  V30 209 H 18.7663 -1.216 -3.72768 0
M  V30 210 H 20.2563 -0.32675 -4.1632 0
M  V30 211 N 20.6934 1.19889 -1.02296 0
M  V30 212 C 21.6234 2.25141 -0.619174 0
M  V30 213 C 22.6044 1.66051 0.368915 0
M  V30 214 O 23.7894 1.92546 0.252941 0
M  V30 215 C 20.9194 3.4728 0.0368783 0
M  V30 216 C 19.8734 4.19005 -0.872865 0
M  V30 217 C 19.1994 5.34637 -0.0822402 0
M  V30 218 C 20.4994 4.74452 -2.18387 0
M  V30 219 H 22.1934 2.59171 -1.49903 0
M  V30 220 H 19.7394 1.24579 -0.722222 0
M  V30 221 H 21.6924 4.20098 0.330958 0
M  V30 222 H 20.4164 3.12433 0.95149 0
M  V30 223 H 19.0754 3.48061 -1.15105 0
M  V30 224 H 18.7234 4.96034 0.83422 0
M  V30 225 H 18.4234 5.83557 -0.688149 0
M  V30 226 H 19.9474 6.10255 0.205238 0
M  V30 227 H 21.3614 5.39055 -1.95172 0
M  V30 228 H 19.7584 5.33834 -2.74119 0
M  V30 229 H 20.8284 3.92844 -2.84257 0
M  V30 230 N 22.1715 0.800033 1.35784 0
M  V30 231 C 23.1345 0.211565 2.28221 0
M  V30 232 C 24.1345 -0.59728 1.49296 0
M  V30 233 O 25.3245 -0.416721 1.69142 0
M  V30 234 C 22.4565 -0.705846 3.33513 0
M  V30 235 H 23.6495 1.02677 2.81776 0
M  V30 236 H 21.2025 0.570211 1.45528 0
M  V30 237 H 21.9375 -1.54498 2.85133 0
M  V30 238 H 21.7225 -0.127655 3.91892 0
M  V30 239 H 23.2125 -1.11211 4.02519 0
M  V30 240 N 23.6496 -1.47581 0.552962 0
M  V30 241 C 24.6126 -2.28439 -0.186605 0
M  V30 242 C 25.6126 -1.36706 -0.84665 0
M  V30 243 O 26.8026 -1.59378 -0.703164 0
M  V30 244 C 23.9346 -3.16264 -1.2724 0
M  V30 245 H 25.1276 -2.95294 0.523609 0
M  V30 246 H 22.6806 -1.532 0.309745 0
M  V30 247 H 23.4156 -2.54091 -2.01514 0
M  V30 248 H 23.2006 -3.83769 -0.803968 0
M  V30 249 H 24.6906 -3.77198 -1.79196 0
M  V30 250 N 25.1277 -0.289203 -1.54924 0
M  V30 251 C 26.0747 0.592115 -2.23075 0
M  V30 252 C 27.0447 1.13881 -1.20915 0
M  V30 253 O 28.2297 1.18551 -1.495 0
M  V30 254 C 25.3697 1.76376 -2.96623 0
M  V30 255 C 24.4827 1.24959 -4.13533 0
M  V30 256 C 23.6177 2.38416 -4.74691 0
M  V30 257 C 22.6567 1.84072 -5.83767 0
M  V30 258 N 21.7937 2.91057 -6.38929 0
M  V30 259 H 26.6337 0.00432038 -2.98 0
M  V30 260 H 24.1707 -0.00963529 -1.47097 0
M  V30 261 H 26.1287 2.45268 -3.3749 0
M  V30 262 H 24.7587 2.32337 -2.24097 0
M  V30 263 H 23.8107 0.453307 -3.77689 0
M  V30 264 H 25.1227 0.811662 -4.92152 0
M  V30 265 H 24.2767 3.15276 -5.18349 0
M  V30 266 H 23.0157 2.8553 -3.95378 0
M  V30 267 H 22.0207 1.05697 -5.39545 0
M  V30 268 H 23.2457 1.37877 -6.64956 0
M  V30 269 H 21.1917 3.37526 -5.62505 0
M  V30 270 H 21.1087 2.51724 -7.12861 0
M  V30 271 H 22.3767 3.6785 -6.87246 0
M  V30 272 N 26.6058 1.57591 -0.0167156 0
M  V30 273 C 27.8358 1.95292 0.674149 0
M  V30 274 C 28.2438 0.891097 1.66901 0
M  V30 275 O 27.5868 -0.136908 1.83189 0
M  V30 276 C 27.6488 3.29072 1.44747 0
M  V30 277 C 27.3128 4.52879 0.612331 0
M  V30 278 C 28.3098 5.1979 -0.107126 0
M  V30 279 C 25.9948 4.99242 0.553381 0
M  V30 280 C 27.9888 6.31375 -0.874339 0
M  V30 281 C 25.6758 6.10713 -0.217546 0
M  V30 282 C 26.6738 6.76637 -0.930123 0
M  V30 283 O 26.3618 7.85969 -1.68844 0
M  V30 284 H 26.0938 0.648275 0.191615 0
M  V30 285 H 28.6478 2.05284 -0.0690148 0
M  V30 286 H 26.8778 3.15535 2.2355 0
M  V30 287 H 28.5668 3.51764 2.02526 0
M  V30 288 H 29.3328 4.84948 -0.0708392 0
M  V30 289 H 25.2118 4.47744 1.09757 0
M  V30 290 H 28.7558 6.82764 -1.43106 0
M  V30 291 H 24.6528 6.44994 -0.255593 0
M  V30 292 H 25.4208 8.02571 -1.6069 0
M  V30 293 N 28.0839 -0.256276 1.55502 0
M  V30 294 C 29.0169 -1.34321 1.84481 0
M  V30 295 C 29.9949 -1.46802 0.699131 0
M  V30 296 O 31.1789 -1.63165 0.943904 0
M  V30 297 C 28.3059 -2.71779 2.02123 0
M  V30 298 C 27.3519 -2.76496 3.24734 0
M  V30 299 S 28.1849 -2.3405 4.81644 0
M  V30 300 C 29.3409 -3.73452 5.02279 0
M  V30 301 H 29.5739 -1.09539 2.76385 0
M  V30 302 H 27.1069 -0.45678 1.47489 0
M  V30 303 H 29.0649 -3.50932 2.12972 0
M  V30 304 H 27.7259 -2.93803 1.11078 0
M  V30 305 H 26.9189 -3.77424 3.34016 0
M  V30 306 H 26.5209 -2.05379 3.12563 0
M  V30 307 H 28.8129 -4.6887 4.89047 0
M  V30 308 H 29.7559 -3.6911 6.04287 0
M  V30 309 H 30.1639 -3.6553 4.30172 0
M  V30 310 N 29.562 -1.4872 -0.521534 0
M  V30 311 C 30.51 -1.64328 -1.64618 0
M  V30 312 C 31.504 -0.50953 -1.61555 0
M  V30 313 O 32.71 -0.688525 -1.66311 0
M  V30 314 H 29.085 -0.517805 -0.545328 0
M  V30 315 H 31.056 -2.58767 -1.48601 0
M  V30 316 C 29.805 -1.70805 -3.02855 0
M  V30 317 H 29.128 -2.5741 -3.05909 0
M  V30 318 H 30.568 -1.85766 -3.81139 0
M  V30 319 C 29.027 -0.448479 -3.33902 0
M  V30 320 O 29.557 0.434928 -3.99339 0
M  V30 321 N 27.763 -0.317616 -2.88859 0
M  V30 322 H 27.31 -1.03748 -2.35784 0
M  V30 323 H 27.268 0.524113 -3.10001 0
M  V30 324 N 31.0401 0.771051 -1.3745 0
M  V30 325 C 31.9501 1.91538 -1.35464 0
M  V30 326 C 32.9661 1.72134 -0.254123 0
M  V30 327 O 34.1421 1.95358 -0.489626 0
M  V30 328 C 31.2071 3.26671 -1.16134 0
M  V30 329 C 30.2681 3.58723 -2.35831 0
M  V30 330 C 29.5011 4.87409 -2.17413 0
M  V30 331 O 29.7241 5.58506 -1.15876 0
M  V30 332 O 28.6581 5.18539 -3.05615 0
M  V30 333 H 32.4841 1.96165 -2.31847 0
M  V30 334 H 30.0691 0.9139 -1.18187 0
M  V30 335 H 31.9511 4.07499 -1.07345 0
M  V30 336 H 30.6261 3.22894 -0.228251 0
M  V30 337 H 29.5331 2.78127 -2.50192 0
M  V30 338 H 30.8661 3.67243 -3.27709 0
M  V30 339 N 32.5182 1.22032 0.997298 0
M  V30 340 C 33.7462 1.06841 1.7718 0
M  V30 341 C 34.1612 -0.381325 1.84909 0
M  V30 342 O 33.5182 -1.26437 1.31605 0
M  V30 343 C 33.5692 1.66814 3.20711 0
M  V30 344 O 33.2902 3.06116 3.13408 0
M  V30 345 C 34.7912 1.56838 4.14628 0
M  V30 346 H 32.0112 0.374782 0.556578 0
M  V30 347 H 34.5552 1.61532 1.2541 0
M  V30 348 H 32.7102 1.16196 3.69564 0
M  V30 349 H 33.1242 3.34926 4.0364 0
M  V30 350 H 34.5982 2.03532 5.13107 0
M  V30 351 H 35.0752 0.524155 4.36061 0
M  V30 352 H 35.6812 2.06741 3.7167 0
M  V30 353 N 33.9963 -1.19345 1.0293 0
M  V30 354 C 35.2733 -1.84811 0.640642 0
M  V30 355 C 35.6533 -1.91855 -0.88062 0
M  V30 356 O 35.0013 -1.43587 -1.7775 0
M  V30 357 C 35.2113 -3.23755 1.30321 0
M  V30 358 C 36.5593 -3.99912 1.42673 0
M  V30 359 O 37.5833 -3.33155 1.26041 0
M  V30 360 O 36.4423 -5.19494 1.6967 0
M  V30 361 H 33.5363 -0.796443 0.222726 0
M  V30 362 H 36.0823 -1.26831 1.12748 0
M  V30 363 H 34.8543 -3.13466 2.34211 0
M  V30 364 H 34.4773 -3.89381 0.804261 0
M  V30 365 N 35.4744 -0.807222 -1.35358 0
M  V30 366 C 36.4374 -0.223665 -2.28106 0
M  V30 367 C 37.4374 0.589354 -1.4961 0
M  V30 368 O 38.6274 0.407745 -1.69361 0
M  V30 369 C 35.7594 0.688149 -3.33882 0
M  V30 370 H 36.9524 -1.04169 -2.81227 0
M  V30 371 H 34.5054 -0.577921 -1.45223 0
M  V30 372 H 35.2404 1.52984 -2.85948 0
M  V30 373 H 35.0254 0.10687 -3.91954 0
M  V30 374 H 36.5154 1.09075 -4.03104 0
M  V30 375 N 36.9525 1.47285 -0.560781 0
M  V30 376 C 37.9155 2.28535 0.174488 0
M  V30 377 C 38.9155 1.37153 0.839388 0
M  V30 378 O 40.1055 1.59748 0.694702 0
M  V30 379 C 37.2375 3.16934 1.25561 0
M  V30 380 H 38.4305 2.95012 -0.539262 0
M  V30 381 H 35.9835 1.53034 -0.317865 0
M  V30 382 H 36.7185 2.55157 2.00164 0
M  V30 383 H 36.5035 3.8419 0.783604 0
M  V30 384 H 37.9935 3.78143 1.77193 0
M  V30 385 N 38.4306 0.297415 1.54768 0
M  V30 386 C 39.6776 -0.312913 2.00068 0
M  V30 387 C 40.0056 -1.54171 1.18582 0
M  V30 388 O 39.2606 -1.94108 0.249133 0
M  V30 389 C 39.5596 -0.717561 3.50123 0
M  V30 390 C 39.2256 0.409095 4.4904 0
M  V30 391 C 37.8876 0.718399 4.75807 0
M  V30 392 C 40.2396 1.16717 5.07963 0
M  V30 393 C 37.5676 1.78896 5.5876 0
M  V30 394 C 39.9196 2.22762 5.92081 0
M  V30 395 C 38.5836 2.54303 6.1716 0
M  V30 396 H 37.8536 -0.114503 0.7321 0
M  V30 397 H 40.5006 0.415767 1.86932 0
M  V30 398 H 38.8056 -1.52627 3.60849 0
M  V30 399 H 40.5026 -1.20091 3.82595 0
M  V30 400 H 37.0926 0.157918 4.28309 0
M  V30 401 H 41.2766 0.941466 4.87289 0
M  V30 402 H 36.5326 2.0381 5.7643 0
M  V30 403 H 40.7066 2.81962 6.36765 0
M  V30 404 H 38.3336 3.3739 6.81229 0
M  V30 405 N 39.9087 -1.5758 0.0250728 0
M  V30 406 C 41.1547 -1.91917 -0.655413 0
M  V30 407 C 41.4877 -0.901433 -1.72011 0
M  V30 408 O 40.7627 0.0764069 -1.9435 0
M  V30 409 C 41.0457 -3.36751 -1.27558 0
M  V30 410 C 40.8987 -4.49258 -0.220719 0
M  V30 411 C 42.2177 -3.81469 -2.19475 0
M  V30 412 H 39.3367 -0.697925 -0.23679 0
M  V30 413 H 41.9787 -1.89825 0.0815036 0
M  V30 414 H 40.1287 -3.38664 -1.90365 0
M  V30 415 H 41.8007 -4.59478 0.409601 0
M  V30 416 H 40.0437 -4.31415 0.454264 0
M  V30 417 H 40.7147 -5.47618 -0.694175 0
M  V30 418 H 43.1907 -3.81266 -1.66659 0
M  V30 419 H 42.0667 -4.83512 -2.59822 0
M  V30 420 H 42.3277 -3.16744 -3.08424 0
M  V30 421 N 41.3868 0.248026 -1.55636 0
M  V30 422 C 42.3338 1.30707 -1.90222 0
M  V30 423 C 43.3038 1.47881 -0.756332 0
M  V30 424 O 44.4888 1.61883 -1.00988 0
M  V30 425 C 41.6288 2.65769 -2.20138 0
M  V30 426 C 40.7418 2.56612 -3.47526 0
M  V30 427 C 39.8768 3.8402 -3.67017 0
M  V30 428 C 38.9158 3.69476 -4.8801 0
M  V30 429 N 38.0528 4.88774 -5.04029 0
M  V30 430 H 42.8928 1.00512 -2.80538 0
M  V30 431 H 40.4298 0.485055 -1.38873 0
M  V30 432 H 42.3878 3.44386 -2.35487 0
M  V30 433 H 41.0178 2.94115 -1.33027 0
M  V30 434 H 40.0698 1.69571 -3.40514 0
M  V30 435 H 41.3818 2.41774 -4.36287 0
M  V30 436 H 40.5358 4.7108 -3.8232 0
M  V30 437 H 39.2748 4.01754 -2.76487 0
M  V30 438 H 38.2798 2.80799 -4.72686 0
M  V30 439 H 39.5048 3.53238 -5.8 0
M  V30 440 H 37.4508 5.0687 -4.16435 0
M  V30 441 H 37.3678 4.76562 -5.86877 0
M  V30 442 H 38.6358 5.77335 -5.23741 0
M  V30 443 N 42.8649 1.48995 0.513639 0
M  V30 444 C 43.8119 1.6473 1.61656 0
M  V30 445 C 44.7819 0.488984 1.58739 0
M  V30 446 O 45.9669 0.714478 1.76918 0
M  V30 447 C 43.1069 1.7082 2.99858 0
M  V30 448 C 42.2199 2.9787 3.12885 0
M  V30 449 C 41.3549 2.95017 4.41744 0
M  V30 450 C 40.3939 4.16702 4.48359 0
M  V30 451 N 39.5309 4.11832 5.68629 0
M  V30 452 H 44.3709 2.58909 1.47547 0
M  V30 453 H 41.9079 1.28382 0.71808 0
M  V30 454 H 43.8659 1.72331 3.79944 0
M  V30 455 H 42.4959 0.801181 3.12699 0
M  V30 456 H 41.5479 3.06029 2.25944 0
M  V30 457 H 42.8599 3.8786 3.13633 0
M  V30 458 H 42.0139 2.95021 5.30139 0
M  V30 459 H 40.7529 2.02784 4.43542 0
M  V30 460 H 39.7579 4.16955 3.58369 0
M  V30 461 H 40.9829 5.10113 4.48287 0
M  V30 462 H 38.9289 3.22428 5.71293 0
M  V30 463 H 38.8459 4.95543 5.7094 0
M  V30 464 H 40.1139 4.1592 6.59266 0
M  V30 465 N 44.343 -0.763751 1.37857 0
M  V30 466 C 45.306 -1.85889 1.34081 0
M  V30 467 C 46.306 -1.58949 0.243277 0
M  V30 468 O 47.496 -1.66882 0.499589 0
M  V30 469 C 44.628 -3.23176 1.08489 0
M  V30 470 H 45.821 -1.90648 2.31502 0
M  V30 471 H 43.374 -0.964367 1.23003 0
M  V30 472 H 44.109 -3.24091 0.116318 0
M  V30 473 H 43.894 -3.44124 1.8794 0
M  V30 474 H 45.384 -4.03254 1.08517 0
M  V30 475 N 45.8211 -1.22559 -0.990812 0
M  V30 476 C 46.7511 -1.0218 -2.09956 0
M  V30 477 C 47.7321 0.0579394 -1.70001 0
M  V30 478 O 48.9171 -0.104684 -1.93918 0
M  V30 479 C 46.0471 -0.601023 -3.4206 0
M  V30 480 C 45.0011 -1.62694 -3.95872 0
M  V30 481 C 44.3271 -1.06193 -5.24049 0
M  V30 482 C 45.6271 -3.01743 -4.2632 0
M  V30 483 H 47.3211 -1.94916 -2.27262 0
M  V30 484 H 44.8671 -0.938566 -1.09211 0
M  V30 485 H 46.8201 -0.445561 -4.19038 0
M  V30 486 H 45.5441 0.362005 -3.24588 0
M  V30 487 H 44.2031 -1.77021 -3.21028 0
M  V30 488 H 43.8511 -0.0901903 -5.02919 0
M  V30 489 H 43.5511 -1.74732 -5.61019 0
M  V30 490 H 45.0751 -0.918092 -6.03658 0
M  V30 491 H 46.4891 -2.90777 -4.94087 0
M  V30 492 H 44.8861 -3.67425 -4.74467 0
M  V30 493 H 45.9561 -3.51518 -3.34011 0
M  V30 494 N 47.2992 1.18797 -1.03562 0
M  V30 495 C 48.5762 1.84469 -0.650434 0
M  V30 496 C 48.9562 1.92319 0.870433 0
M  V30 497 O 48.3042 1.44528 1.76986 0
M  V30 498 C 48.5142 3.2306 -1.32036 0
M  V30 499 C 49.8622 3.9915 -1.44792 0
M  V30 500 O 50.8862 3.32481 -1.27806 0
M  V30 501 O 49.7452 5.18587 -1.72423 0
M  V30 502 H 46.8392 0.795251 -0.226946 0
M  V30 503 H 49.3852 1.26231 -1.13419 0
M  V30 504 H 48.1572 3.1222 -2.3587 0
M  V30 505 H 47.7802 3.88949 -0.8249 0
M  V30 506 N 48.7773 0.814389 1.34928 0
M  V30 507 C 50.0073 0.41054 2.0248 0
M  V30 508 C 50.4153 -0.985625 1.61499 0
M  V30 509 O 49.7583 -1.64781 0.811976 0
M  V30 510 C 49.8203 0.423384 3.56998 0
M  V30 511 C 49.4843 1.77141 4.21272 0
M  V30 512 C 50.4813 2.73093 4.42398 0
M  V30 513 C 48.1663 2.05755 4.58225 0
M  V30 514 C 50.1603 3.95838 4.9959 0
M  V30 515 C 47.8473 3.28762 5.1513 0
M  V30 516 C 48.8453 4.23621 5.35755 0
M  V30 517 O 48.5333 5.44456 5.91458 0
M  V30 518 H 48.2653 0.163997 0.655806 0
M  V30 519 H 50.8193 1.10155 1.73364 0
M  V30 520 H 49.0493 -0.324276 3.85338 0
M  V30 521 H 50.7383 0.0407683 4.0588 0
M  V30 522 H 51.5043 2.5228 4.14222 0
M  V30 523 H 47.3833 1.32727 4.4148 0
M  V30 524 H 50.9273 4.69891 5.15605 0
M  V30 525 H 46.8243 3.49443 5.42734 0
M  V30 526 H 47.5923 5.4586 6.09901 0
M  V30 527 N 50.2554 -1.46986 0.568584 0
M  V30 528 C 51.2184 -2.28624 -0.162366 0
M  V30 529 C 52.2184 -1.37596 -0.832103 0
M  V30 530 O 53.4084 -1.60115 -0.68622 0
M  V30 531 C 50.5404 -3.17596 -1.23878 0
M  V30 532 H 51.7334 -2.94722 0.554899 0
M  V30 533 H 49.2864 -1.52863 0.325976 0
M  V30 534 H 50.0214 -2.56214 -1.98808 0
M  V30 535 H 49.8064 -3.846 -0.763219 0
M  V30 536 H 51.2964 -3.79078 -1.75185 0
M  V30 537 N 51.7335 -0.305618 -1.54608 0
M  V30 538 C 52.9615 0.304775 -2.04643 0
M  V30 539 C 53.3765 1.47167 -1.18268 0
M  V30 540 O 52.7335 1.81296 -0.209328 0
M  V30 541 C 52.7845 0.756564 -3.53495 0
M  V30 542 O 52.5055 -0.36389 -4.36586 0
M  V30 543 C 54.0065 1.43163 -4.19546 0
M  V30 544 H 51.2265 0.0655481 -0.667791 0
M  V30 545 H 53.7705 -0.446592 -1.99564 0
M  V30 546 H 51.9255 1.45794 -3.58919 0
M  V30 547 H 52.3395 -0.0113121 -5.24499 0
M  V30 548 H 53.8135 1.69886 -5.25207 0
M  V30 549 H 54.2905 2.37318 -3.69563 0
M  V30 550 H 54.8965 0.773307 -4.18211 0
M  V30 551 N 53.2116 1.57565 -0.0334293 0
M  V30 552 C 54.1746 2.09393 0.932048 0
M  V30 553 C 55.1746 1.00986 1.25134 0
M  V30 554 O 56.3646 1.27129 1.19096 0
M  V30 555 C 53.4966 2.56338 2.2473 0
M  V30 556 H 54.6896 2.95984 0.483085 0
M  V30 557 H 52.2426 1.54819 0.21468 0
M  V30 558 H 52.9776 1.7309 2.74245 0
M  V30 559 H 52.7626 3.35542 2.02865 0
M  V30 560 H 54.2526 2.96646 2.93923 0
M  V30 561 N 54.6897 -0.239769 1.55765 0
M  V30 562 C 55.6527 -1.28038 1.90103 0
M  V30 563 C 56.6527 -1.40723 0.778055 0
M  V30 564 O 57.8427 -1.39301 1.04599 0
M  V30 565 C 54.9747 -2.65702 2.13577 0
M  V30 566 H 56.1677 -0.988048 2.83157 0
M  V30 567 H 53.7207 -0.479382 1.48767 0
M  V30 568 H 54.4557 -3.00063 1.23015 0
M  V30 569 H 54.2407 -2.57875 2.95369 0
M  V30 570 H 55.7307 -3.40828 2.41301 0
M  V30 571 N 56.1678 -1.49265 -0.50573 0
M  V30 572 C 57.1178 -1.6198 -1.60457 0
M  V30 573 C 58.1018 -0.47568 -1.53708 0
M  V30 574 O 59.2938 -0.728392 -1.61318 0
M  V30 575 C 56.4228 -1.68526 -2.99089 0
M  V30 576 C 55.5088 -2.885 -3.10852 0
M  V30 577 N 55.8998 -4.12635 -2.92517 0
M  V30 578 C 54.1978 -2.86338 -3.41945 0
M  V30 579 C 54.8988 -4.93258 -3.08337 0
M  V30 580 N 53.8748 -4.26533 -3.37003 0
M  V30 581 H 57.6768 -2.55681 -1.44928 0
M  V30 582 H 55.1908 -1.45972 -0.711752 0
M  V30 583 H 57.1878 -1.75732 -3.78053 0
M  V30 584 H 55.8478 -0.759584 -3.1569 0
M  V30 585 H 56.8588 -4.42689 -2.68787 0
M  V30 586 H 53.5358 -2.03129 -3.64753 0
M  V30 587 H 54.9258 -6.01856 -2.98695 0
M  V30 588 N 57.6459 0.756429 -1.3826 0
M  V30 589 C 58.8929 1.51547 -1.34312 0
M  V30 590 C 59.2209 1.94382 0.0677144 0
M  V30 591 O 58.4759 1.65514 1.04421 0
M  V30 592 C 58.7749 2.78313 -2.24224 0
M  V30 593 C 58.4409 2.54455 -3.72241 0
M  V30 594 C 57.1029 2.47657 -4.12576 0
M  V30 595 C 59.4549 2.3354 -4.65949 0
M  V30 596 C 56.7829 2.17956 -5.44713 0
M  V30 597 C 59.1349 2.05359 -5.9834 0
M  V30 598 C 57.7989 1.97016 -6.37762 0
M  V30 599 H 57.0689 0.55455 -0.491482 0
M  V30 600 H 59.7159 0.870039 -1.70595 0
M  V30 601 H 58.0209 3.47492 -1.80987 0
M  V30 602 H 59.7179 3.36259 -2.18474 0
M  V30 603 H 56.3079 2.60616 -3.40261 0
M  V30 604 H 60.4919 2.37772 -4.35635 0
M  V30 605 H 55.7479 2.10003 -5.74203 0
M  V30 606 H 59.9219 1.88179 -6.70494 0
M  V30 607 H 57.5489 1.73766 -7.40074 0
M  V30 608 N 59.124 1.23083 0.984299 0
M  V30 609 C 60.354 1.08556 1.75781 0
M  V30 610 C 60.762 -0.366171 1.85623 0
M  V30 611 O 60.105 -1.26524 1.33182 0
M  V30 612 C 60.167 1.63208 3.20318 0
M  V30 613 C 59.831 3.11922 3.33997 0
M  V30 614 C 60.828 4.09259 3.2063 0
M  V30 615 C 58.513 3.51552 3.58771 0
M  V30 616 C 60.507 5.4421 3.31835 0
M  V30 617 C 58.194 4.86649 3.69616 0
M  V30 618 C 59.192 5.82787 3.56157 0
M  V30 619 O 58.88 7.15431 3.66626 0
M  V30 620 H 58.612 0.380713 0.5586 0
M  V30 621 H 61.166 1.63321 1.2456 0
M  V30 622 H 59.396 1.0286 3.72769 0
M  V30 623 H 61.085 1.44216 3.79416 0
M  V30 624 H 61.851 3.79984 3.01392 0
M  V30 625 H 57.73 2.77239 3.6832 0
M  V30 626 H 61.274 6.1923 3.21247 0
M  V30 627 H 57.171 5.15601 3.88363 0
M  V30 628 H 57.939 7.23127 3.83445 0
M  V30 629 N 60.6021 -1.18246 1.0419 0
M  V30 630 C 61.5341 -2.2142 0.592088 0
M  V30 631 C 62.5471 -1.59233 -0.338909 0
M  V30 632 O 63.7361 -1.78002 -0.133231 0
M  V30 633 C 60.8361 -3.38546 -0.154854 0
M  V30 634 C 60.0091 -4.3031 0.784328 0
M  V30 635 C 59.0681 -5.26138 0.0804583 0
M  V30 636 O 58.0941 -5.64738 0.711292 0
M  V30 637 N 59.2961 -5.68261 -1.18574 0
M  V30 638 H 62.0611 -2.60636 1.47949 0
M  V30 639 H 59.6221 -1.33044 0.922544 0
M  V30 640 H 61.6141 -3.99678 -0.635606 0
M  V30 641 H 60.1841 -2.98012 -0.943811 0
M  V30 642 H 59.4041 -3.66764 1.44491 0
M  V30 643 H 60.6921 -4.8852 1.42218 0
M  V30 644 H 60.0901 -5.38957 -1.71876 0
M  V30 645 H 58.6471 -6.31584 -1.61074 0
M  V30 646 N 62.0802 -0.821533 -1.34494 0
M  V30 647 C 63.3262 -0.409552 -1.98622 0
M  V30 648 C 63.6592 1.0244 -1.64984 0
M  V30 649 O 62.9342 1.71325 -0.920758 0
M  V30 650 C 63.2172 -0.610458 -3.54888 0
M  V30 651 C 63.0702 -2.09043 -3.98273 0
M  V30 652 C 64.3892 -0.0455379 -4.40076 0
M  V30 653 H 61.5082 -0.15028 -0.721516 0
M  V30 654 H 64.1502 -1.03384 -1.59411 0
M  V30 655 H 62.3002 -0.079044 -3.8842 0
M  V30 656 H 63.9722 -2.68537 -3.75081 0
M  V30 657 H 62.2152 -2.58139 -3.48635 0
M  V30 658 H 62.8862 -2.18182 -5.07051 0
M  V30 659 H 65.3622 -0.499557 -4.1309 0
M  V30 660 H 64.2382 -0.215922 -5.48475 0
M  V30 661 H 64.4992 1.04939 -4.29465 0
M  V30 662 N 63.5583 1.46682 -0.576371 0
M  V30 663 C 64.9743 1.57822 -0.237562 0
M  V30 664 C 65.1743 1.57237 1.26011 0
M  V30 665 O 64.2303 1.48596 2.04146 0
M  V30 666 C 65.5433 2.87499 -0.881168 0
M  V30 667 C 67.0913 3.01119 -0.85417 0
M  V30 668 C 67.5663 4.33524 -1.4772 0
M  V30 669 N 69.0573 4.40207 -1.44125 0
M  V30 670 C 69.7923 5.4126 -1.89276 0
M  V30 671 N 69.2883 6.49021 -2.42371 0
M  V30 672 N 71.0813 5.32422 -1.80231 0
M  V30 673 H 63.2323 1.45306 -1.54919 0
M  V30 674 H 65.4953 0.692733 -0.647167 0
M  V30 675 H 65.2013 2.9372 -1.93447 0
M  V30 676 H 65.0753 3.75224 -0.385592 0
M  V30 677 H 67.4623 2.94485 0.190491 0
M  V30 678 H 67.5433 2.14887 -1.3877 0
M  V30 679 H 67.1873 4.40916 -2.52103 0
M  V30 680 H 67.1173 5.1852 -0.918947 0
M  V30 681 H 69.6083 3.62931 -1.05307 0
M  V30 682 H 69.9213 7.2233 -2.74698 0
M  V30 683 H 68.2663 6.49858 -2.46393 0
M  V30 684 H 71.4573 4.47137 -1.38514 0
M  V30 685 H 71.6303 6.11034 -2.15735 0
M  V30 686 N 65.0364 0.313813 1.54444 0
M  V30 687 C 65.9834 -0.55655 2.23989 0
M  V30 688 C 66.9534 -1.11943 1.22711 0
M  V30 689 O 68.1384 -1.16158 1.51367 0
M  V30 690 C 65.2784 -1.71635 2.99392 0
M  V30 691 C 64.3914 -1.18364 4.15468 0
M  V30 692 C 63.5264 -2.30834 4.78424 0
M  V30 693 C 62.5654 -1.74762 5.86622 0
M  V30 694 N 61.7024 -2.80855 6.43479 0
M  V30 695 H 66.5424 0.0430893 2.97969 0
M  V30 696 H 64.0794 0.0330359 1.47063 0
M  V30 697 H 66.0374 -2.39868 3.41349 0
M  V30 698 H 64.6674 -2.28742 2.27765 0
M  V30 699 H 63.7194 -0.393163 3.78363 0
M  V30 700 H 65.0314 -0.733262 4.93381 0
M  V30 701 H 64.1854 -3.0699 5.23299 0
M  V30 702 H 62.9244 -2.79204 3.99871 0
M  V30 703 H 61.9294 -0.970995 5.41158 0
M  V30 704 H 63.1544 -1.2728 6.67066 0
M  V30 705 H 61.1004 -3.28535 5.67804 0
M  V30 706 H 61.0174 -2.40351 7.16776 0
M  V30 707 H 62.2854 -3.5687 6.93011 0
M  V30 708 N 66.5145 -1.57545 0.0417849 0
M  V30 709 C 67.7395 -1.97035 -0.647455 0
M  V30 710 C 68.1645 -0.918775 -1.64135 0
M  V30 711 O 67.5225 0.119006 -1.80909 0
M  V30 712 C 67.5705 -3.35609 -1.31905 0
M  V30 713 O 66.6745 -3.3287 -2.43457 0
M  V30 714 H 66.0155 -0.64211 -0.169086 0
M  V30 715 H 68.5455 -2.04318 0.107399 0
M  V30 716 H 68.5555 -3.72126 -1.67291 0
M  V30 717 H 67.2305 -4.11685 -0.590586 0
M  V30 718 H 65.8075 -3.08087 -2.10088 0
M  V30 719 N 67.9926 0.231505 -1.5589 0
M  V30 720 C 69.2406 0.955461 -1.78088 0
M  V30 721 C 69.5616 1.85262 -0.608533 0
M  V30 722 O 68.8316 1.92277 0.375035 0
M  V30 723 H 67.4116 0.355787 -0.656829 0
M  V30 724 H 70.0736 0.245751 -1.93344 0
M  V30 725 H 69.1696 1.56814 -2.69844 0
M  V30 726 N 69.4707 1.49531 0.497807 0
M  V30 727 C 70.3807 1.69176 1.62532 0
M  V30 728 C 71.3967 0.5744 1.64246 0
M  V30 729 O 72.5727 0.849497 1.82608 0
M  V30 730 C 69.6377 1.75695 2.98885 0
M  V30 731 C 68.6987 2.9929 3.07773 0
M  V30 732 C 67.9317 3.05488 4.37622 0
M  V30 733 O 68.1547 2.19192 5.26603 0
M  V30 734 O 67.0887 3.9798 4.51548 0
M  V30 735 H 70.9147 2.647 1.48887 0
M  V30 736 H 68.4997 1.3331 0.674441 0
M  V30 737 H 70.3817 1.82317 3.79919 0
M  V30 738 H 69.0567 0.8335 3.12785 0
M  V30 739 H 67.9637 2.98183 2.25915 0
M  V30 740 H 69.2967 3.91125 2.98801 0
M  V30 741 N 70.9488 -0.749086 1.3866 0
M  V30 742 C 72.3598 -1.32664 1.31366 0
M  V30 743 C 72.7108 -1.96179 -0.028484 0
M  V30 744 O 71.8358 -1.9537 -0.93057 0
M  V30 745 C 72.4308 -2.41219 2.37905 0
M  V30 746 C 70.9898 -2.94684 2.34176 0
M  V30 747 C 70.1368 -1.68108 2.20533 0
M  V30 748 H 73.0878 -0.547628 1.48952 0
M  V30 749 H 73.1088 -3.21268 2.0388 0
M  V30 750 H 72.6208 -1.94962 3.35576 0
M  V30 751 H 70.7218 -3.45258 1.401 0
M  V30 752 H 70.8348 -3.48757 3.2849 0
M  V30 753 H 69.1988 -1.91907 1.67463 0
M  V30 754 H 69.9818 -1.23923 3.20153 0
M  V30 755 N 72.4269 -1.23603 -0.977757 0
M  V30 756 C 73.6569 -1.09487 -1.75203 0
M  V30 757 C 74.0649 0.356321 -1.85814 0
M  V30 758 O 73.4079 1.25816 -1.33851 0
M  V30 759 C 73.4699 -1.64905 -3.19447 0
M  V30 760 C 73.1339 -3.13688 -3.32338 0
M  V30 761 C 74.1309 -4.10953 -3.18455 0
M  V30 762 C 71.8159 -3.53449 -3.56902 0
M  V30 763 C 73.8099 -5.45962 -3.28944 0
M  V30 764 C 71.4969 -4.88602 -3.6703 0
M  V30 765 C 72.4949 -5.84668 -3.53062 0
M  V30 766 O 72.1829 -7.17365 -3.62826 0
M  V30 767 H 71.9149 -0.38367 -0.556573 0
M  V30 768 H 74.4689 -1.6398 -1.23693 0
M  V30 769 H 72.6989 -1.04835 -3.72218 0
M  V30 770 H 74.3879 -1.46226 -3.78646 0
M  V30 771 H 75.1539 -3.81577 -2.99372 0
M  V30 772 H 71.0329 -2.79188 -3.66844 0
M  V30 773 H 74.5769 -6.20925 -3.17958 0
M  V30 774 H 70.4739 -5.17653 -3.85623 0
M  V30 775 H 71.2419 -7.2515 -3.79605 0
M  V30 776 N 73.905 1.17692 -1.04816 0
M  V30 777 C 75.154 1.87192 -0.751132 0
M  V30 778 C 75.467 1.8169 0.724441 0
M  V30 779 O 76.673 2.46625 1.13527 0
M  V30 780 C 75.129 3.35857 -1.29338 0
M  V30 781 C 74.737 3.4987 -2.79812 0
M  V30 782 C 76.481 4.10709 -1.07322 0
M  V30 783 C 74.388 4.92536 -3.27356 0
M  V30 784 H 73.318 0.701162 -0.277288 0
M  V30 785 H 75.969 1.32932 -1.26496 0
M  V30 786 H 74.351 3.89631 -0.707376 0
M  V30 787 H 75.525 3.06332 -3.44235 0
M  V30 788 H 73.84 2.88433 -3.00325 0
M  V30 789 H 76.437 5.15952 -1.4035 0
M  V30 790 H 76.78 4.16299 -0.0108001 0
M  V30 791 H 77.313 3.6313 -1.62423 0
M  V30 792 H 74.052 4.92119 -4.33012 0
M  V30 793 H 73.572 5.3676 -2.67673 0
M  V30 794 H 75.251 5.61288 -3.21815 0
M  V30 795 N 75.3831 0.828654 1.34056 0
M  V30 796 C 76.6291 0.42008 1.98402 0
M  V30 797 C 76.9621 -1.01564 1.65525 0
M  V30 798 O 76.2371 -1.70834 0.929831 0
M  V30 799 C 76.5201 0.62927 3.54559 0
M  V30 800 C 76.3731 2.11152 3.97159 0
M  V30 801 C 77.6921 0.0688756 4.40046 0
M  V30 802 H 74.8111 0.154104 0.720709 0
M  V30 803 H 77.4531 1.04228 1.5886 0
M  V30 804 H 75.6031 0.0996418 3.88372 0
M  V30 805 H 77.2751 2.70522 3.73651 0
M  V30 806 H 75.5181 2.59985 3.47261 0
M  V30 807 H 76.1891 2.20868 5.05887 0
M  V30 808 H 78.6651 0.521458 4.1282 0
M  V30 809 H 77.5411 0.245006 5.48353 0
M  V30 810 H 77.8021 -1.0266 4.30015 0
M  V30 811 N 76.8612 -1.46375 0.584142 0
M  V30 812 C 77.8112 -2.27371 -0.169232 0
M  V30 813 C 78.7952 -1.35955 -0.860523 0
M  V30 814 O 79.9872 -1.60119 -0.754382 0
M  V30 815 C 77.1162 -3.22334 -1.18134 0
M  V30 816 C 76.2022 -4.21235 -0.492088 0
M  V30 817 N 76.5932 -5.03766 0.453129 0
M  V30 818 C 74.8912 -4.39773 -0.742652 0
M  V30 819 C 75.5922 -5.75366 0.85609 0
M  V30 820 N 74.5682 -5.43214 0.204926 0
M  V30 821 H 78.3702 -2.88572 0.557097 0
M  V30 822 H 75.8842 -1.57242 0.406042 0
M  V30 823 H 77.8812 -3.79071 -1.73525 0
M  V30 824 H 76.5412 -2.62693 -1.90847 0
M  V30 825 H 77.5522 -5.11227 0.828723 0
M  V30 826 H 74.2292 -3.91279 -1.45625 0
M  V30 827 H 75.6192 -6.5172 1.63434 0
M  V30 828 N 78.3393 -0.321999 -1.54275 0
M  V30 829 C 79.7503 0.166384 -1.85957 0
M  V30 830 C 80.1013 1.51747 -1.24367 0
M  V30 831 O 79.2263 2.09317 -0.549124 0
M  V30 832 C 79.8213 0.308681 -3.37391 0
M  V30 833 C 78.3803 0.741286 -3.69028 0
M  V30 834 C 77.5273 -0.137937 -2.76957 0
M  V30 835 H 80.4783 -0.542335 -1.49146 0
M  V30 836 H 80.4993 1.13984 -3.63026 0
M  V30 837 H 80.0113 -0.674809 -3.82188 0
M  V30 838 H 78.1123 1.73458 -3.29762 0
M  V30 839 H 78.2253 0.546118 -4.75977 0
M  V30 840 H 76.5893 0.386251 -2.51754 0
M  V30 841 H 77.3723 -1.11816 -3.2458 0
M  V30 842 N 79.8174 1.5752 -0.0501392 0
M  V30 843 C 81.0664 1.91827 0.623328 0
M  V30 844 C 81.3794 0.930222 1.72065 0
M  V30 845 O 82.5854 1.1653 2.4522 0
M  V30 846 C 81.0414 3.40692 1.16003 0
M  V30 847 C 80.6494 4.479 0.0948811 0
M  V30 848 C 82.3934 3.84034 1.80881 0
M  V30 849 C 80.3004 5.87879 0.644411 0
M  V30 850 H 79.2304 0.715918 0.236596 0
M  V30 851 H 81.8814 1.83115 -0.118861 0
M  V30 852 H 80.2634 3.44405 1.9545 0
M  V30 853 H 81.4374 4.55775 -0.678675 0
M  V30 854 H 79.7524 4.13892 -0.45637 0
M  V30 855 H 82.3494 4.85984 2.22988 0
M  V30 856 H 82.6924 3.20225 2.6601 0
M  V30 857 H 83.2254 3.82833 1.0809 0
M  V30 858 H 79.9644 6.55282 -0.169229 0
M  V30 859 H 79.4844 5.83567 1.38598 0
M  V30 860 H 81.1634 6.37098 1.12763 0
M  V30 861 N 81.2955 -0.223234 1.56011 0
M  V30 862 C 82.2275 -1.30006 1.88762 0
M  V30 863 C 83.2405 -1.43129 0.775746 0
M  V30 864 O 84.4295 -1.44057 1.05403 0
M  V30 865 C 81.5295 -2.67589 2.07965 0
M  V30 866 C 80.7025 -2.76434 3.38973 0
M  V30 867 C 79.7615 -3.95019 3.47629 0
M  V30 868 O 78.7875 -3.83436 4.20672 0
M  V30 869 N 79.9895 -5.09249 2.78649 0
M  V30 870 H 82.7545 -1.02238 2.81722 0
M  V30 871 H 80.3155 -0.413278 1.56536 0
M  V30 872 H 82.3075 -3.45297 2.11073 0
M  V30 873 H 80.8775 -2.87964 1.21638 0
M  V30 874 H 80.0975 -1.85216 3.47978 0
M  V30 875 H 81.3855 -2.79313 4.25278 0
M  V30 876 H 80.7835 -5.21556 2.19081 0
M  V30 877 H 79.3405 -5.85007 2.8742 0
M  V30 878 N 82.7736 -1.49793 -0.48987 0
M  V30 879 C 84.0196 -1.60078 -1.24511 0
M  V30 880 C 84.3526 -0.291608 -1.91998 0
M  V30 881 O 83.6276 0.705647 -1.81248 0
M  V30 882 C 83.9106 -2.76791 -2.30345 0
M  V30 883 C 83.7636 -4.17535 -1.67286 0
M  V30 884 C 85.0826 -2.89111 -3.31817 0
M  V30 885 H 82.2016 -0.582645 -0.451324 0
M  V30 886 H 84.8436 -1.82117 -0.541612 0
M  V30 887 H 82.9936 -2.5813 -2.90346 0
M  V30 888 H 84.6656 -4.4774 -1.11026 0
M  V30 889 H 82.9086 -4.22665 -0.976577 0
M  V30 890 H 83.5796 -4.95094 -2.44103 0
M  V30 891 H 86.0556 -3.06133 -2.81819 0
M  V30 892 H 84.9316 -3.72433 -4.03219 0
M  V30 893 H 85.1926 -1.9893 -3.94815 0
M  V30 894 N 84.2517 0.741722 -1.39055 0
M  V30 895 C 85.2147 1.83733 -1.37021 0
M  V30 896 C 86.2147 1.58542 -0.268534 0
M  V30 897 O 87.4047 1.66067 -0.526076 0
M  V30 898 C 84.5367 3.2141 -1.13617 0
M  V30 899 H 85.7297 1.86941 -2.34506 0
M  V30 900 H 83.2827 0.944676 -1.24521 0
M  V30 901 H 84.0177 3.23865 -0.167863 0
M  V30 902 H 83.8027 3.4109 -1.93391 0
M  V30 903 H 85.2927 4.01477 -1.14918 0
M  V30 904 N 85.7298 1.2412 0.971189 0
M  V30 905 C 86.9778 1.07668 1.71032 0
M  V30 906 C 87.2988 -0.385797 1.91146 0
M  V30 907 O 86.5688 -1.27569 1.4867 0
M  V30 908 H 85.1488 0.395429 0.633755 0
M  V30 909 H 87.8108 1.55984 1.16855 0
M  V30 910 H 86.9068 1.57195 2.69622 0
M  V30 911 N 87.2079 -1.17134 1.05439 0
M  V30 912 C 88.4569 -1.86791 0.761049 0
M  V30 913 C 88.7699 -1.82072 -0.714795 0
M  V30 914 O 89.9759 -2.47223 -1.12218 0
M  V30 915 C 88.4319 -3.35166 1.31117 0
M  V30 916 C 88.0399 -3.48381 2.81664 0
M  V30 917 C 89.7839 -4.10134 1.09499 0
M  V30 918 C 87.6909 -4.90793 3.29964 0
M  V30 919 H 86.6209 -0.699681 0.281002 0
M  V30 920 H 89.2719 -1.3226 1.27199 0
M  V30 921 H 87.6539 -3.8925 0.72803 0
M  V30 922 H 88.8279 -3.04502 3.45855 0
M  V30 923 H 87.1429 -2.86836 3.01851 0
M  V30 924 H 89.7399 -5.152 1.43084 0
M  V30 925 H 90.0829 -4.16287 0.0328772 0
M  V30 926 H 90.6159 -3.62264 1.64346 0
M  V30 927 H 87.3549 -4.89816 4.35616 0
M  V30 928 H 86.8749 -5.35333 2.70516 0
M  V30 929 H 88.5539 -5.59573 3.24787 0
M  V30 930 N 88.686 -0.835752 -1.33615 0
M  V30 931 C 89.616 -0.281739 -2.31794 0
M  V30 932 C 90.597 0.608833 -1.58831 0
M  V30 933 O 91.782 0.533035 -1.86741 0
M  V30 934 C 88.912 0.546612 -3.42971 0
M  V30 935 C 87.866 -0.247904 -4.27281 0
M  V30 936 C 87.192 0.704001 -5.30045 0
M  V30 937 C 88.492 -1.46324 -5.01385 0
M  V30 938 H 90.186 -1.10206 -2.78379 0
M  V30 939 H 87.732 -0.531388 -1.33837 0
M  V30 940 H 89.685 0.944467 -4.1068 0
M  V30 941 H 88.409 1.40011 -2.95067 0
M  V30 942 H 87.068 -0.627281 -3.61194 0
M  V30 943 H 86.716 1.55381 -4.78399 0
M  V30 944 H 86.416 0.176524 -5.87335 0
M  V30 945 H 87.94 1.09944 -6.0062 0
M  V30 946 H 89.354 -1.13871 -5.61877 0
M  V30 947 H 87.751 -1.92728 -5.6831 0
M  V30 948 H 88.821 -2.23467 -4.30338 0
M  V30 949 N 90.1641 1.46063 -0.591896 0
M  V30 950 C 91.1271 2.28854 0.125973 0
M  V30 951 C 92.1271 1.38903 0.810107 0
M  V30 952 O 93.3171 1.61186 0.66066 0
M  V30 953 C 90.4491 3.19526 1.1881 0
M  V30 954 H 91.6421 2.93802 -0.601717 0
M  V30 955 H 89.1951 1.52325 -0.350254 0
M  V30 956 H 89.9301 2.59345 1.94707 0
M  V30 957 H 89.7151 3.85766 0.701936 0
M  V30 958 H 91.2051 3.81817 1.69132 0
M  V30 959 N 91.6422 0.330177 1.54103 0
M  V30 960 C 92.9192 -0.325007 1.92881 0
M  V30 961 C 93.2992 -1.6934 1.26045 0
M  V30 962 O 92.6472 -2.24855 0.406526 0
M  V30 963 C 92.8572 -0.410634 3.46576 0
M  V30 964 C 94.2052 -0.667801 4.19316 0
M  V30 965 O 95.2292 -0.49329 3.52768 0
M  V30 966 O 94.0882 -1.00491 5.37181 0
M  V30 967 H 91.1822 -0.186873 0.80561 0
M  V30 968 H 93.7282 0.380376 1.65382 0
M  V30 969 H 92.5002 0.550164 3.87413 0
M  V30 970 H 92.1232 -1.16333 3.802 0
M  V30 971 N 93.1203 -1.57491 0.0584922 0
M  V30 972 C 94.0503 -2.14988 -0.911178 0
M  V30 973 C 95.0313 -1.07343 -1.31952 0
M  V30 974 O 96.2163 -1.35318 -1.39294 0
M  V30 975 C 93.3463 -2.70078 -2.18347 0
M  V30 976 C 92.3003 -3.82771 -1.91495 0
M  V30 977 C 91.6263 -4.24408 -3.25241 0
M  V30 978 C 92.9263 -5.07592 -1.23075 0
M  V30 979 H 94.6203 -2.96263 -0.432246 0
M  V30 980 H 92.1663 -1.42512 -0.206469 0
M  V30 981 H 94.1193 -3.08943 -2.86587 0
M  V30 982 H 92.8433 -1.86005 -2.68458 0
M  V30 983 H 91.5023 -3.44389 -1.25664 0
M  V30 984 H 91.1503 -3.37275 -3.73168 0
M  V30 985 H 90.8503 -5.00366 -3.08071 0
M  V30 986 H 92.3743 -4.65879 -3.94701 0
M  V30 987 H 93.7883 -5.43857 -1.81362 0
M  V30 988 H 92.1853 -5.88741 -1.16207 0
M  V30 989 H 93.2553 -4.84454 -0.207847 0
M  V30 990 N 94.5984 0.214957 -1.56127 0
M  V30 991 C 95.5484 1.27006 -1.8935 0
M  V30 992 C 96.5324 1.41969 -0.757202 0
M  V30 993 O 97.7244 1.44673 -1.01973 0
M  V30 994 C 94.8534 2.61911 -2.2194 0
M  V30 995 C 93.9394 2.50822 -3.41978 0
M  V30 996 N 94.3304 2.09391 -4.60423 0
M  V30 997 C 92.6284 2.81765 -3.45723 0
M  V30 998 C 93.3294 2.09712 -5.42582 0
M  V30 999 N 92.3054 2.50454 -4.82466 0
M  V30 1000 H 96.1074 0.940734 -2.78437 0
M  V30 1001 H 93.6214 0.423492 -1.56781 0
M  V30 1002 H 95.6184 3.38096 -2.43919 0
M  V30 1003 H 94.2784 2.95684 -1.34169 0
M  V30 1004 H 95.2894 1.80416 -4.85459 0
M  V30 1005 H 91.9664 3.19865 -2.68314 0
M  V30 1006 H 93.3564 1.79748 -6.4741 0
M  V30 1007 N 96.0765 1.50051 0.48192 0
M  V30 1008 C 97.0065 1.71046 1.58951 0
M  V30 1009 C 97.9875 0.559288 1.60642 0
M  V30 1010 O 99.1725 0.797243 1.77081 0
M  V30 1011 C 96.3025 1.79462 2.97339 0
M  V30 1012 C 95.2565 2.94558 3.10515 0
M  V30 1013 C 94.5825 2.88105 4.50444 0
M  V30 1014 C 95.8825 4.35227 2.88747 0
M  V30 1015 H 97.5765 2.6378 1.41635 0
M  V30 1016 H 95.1225 1.26936 0.679942 0
M  V30 1017 H 97.0755 1.92734 3.74742 0
M  V30 1018 H 95.7995 0.833412 3.15788 0
M  V30 1019 H 94.4585 2.80918 2.35543 0
M  V30 1020 H 94.1065 1.89853 4.65795 0
M  V30 1021 H 93.8065 3.65366 4.60197 0
M  V30 1022 H 95.3305 3.03412 5.29881 0
M  V30 1023 H 96.7445 4.49449 3.55905 0
M  V30 1024 H 95.1415 5.13856 3.09955 0
M  V30 1025 H 96.2115 4.48347 1.84696 0
M  V30 1026 N 97.5546 -0.734337 1.39446 0
M  V30 1027 C 98.8316 -1.48579 1.27215 0
M  V30 1028 C 99.2116 -2.1077 -0.117968 0
M  V30 1029 O 98.5596 -1.98646 -1.12924 0
M  V30 1030 C 98.7696 -2.53667 2.39696 0
M  V30 1031 C 100.118 -3.20031 2.79044 0
M  V30 1032 O 101.142 -2.6398 2.39151 0
M  V30 1033 O 100.001 -4.21455 3.47905 0
M  V30 1034 H 97.0946 -0.659816 0.49857 0
M  V30 1035 H 99.6406 -0.768106 1.51322 0
M  V30 1036 H 98.4126 -2.06096 3.32626 0
M  V30 1037 H 98.0356 -3.32994 2.17258 0
M  V30 1038 N 99.0327 -1.24633 -0.964593 0
M  V30 1039 C 99.9957 -1.0424 -2.04124 0
M  V30 1040 C 100.996 0.00137563 -1.608 0
M  V30 1041 O 102.186 -0.239883 -1.7254 0
M  V30 1042 C 99.3177 -0.580588 -3.3592 0
M  V30 1043 H 100.511 -1.99803 -2.23649 0
M  V30 1044 H 98.0637 -1.06899 -1.14027 0
M  V30 1045 H 98.7987 0.3781 -3.22088 0
M  V30 1046 H 98.5837 -1.33398 -3.6871 0
M  V30 1047 H 100.074 -0.459034 -4.15069 0
M  V30 1048 N 100.511 1.16574 -1.06058 0
M  V30 1049 C 101.757 1.87324 -0.777022 0
M  V30 1050 C 102.09 1.81351 0.694645 0
M  V30 1051 O 101.365 1.22753 1.50871 0
M  V30 1052 C 101.648 3.36991 -1.26922 0
M  V30 1053 C 101.501 3.51667 -2.80447 0
M  V30 1054 C 102.82 4.3131 -0.87521 0
M  V30 1055 H 99.9388 0.680191 -0.28374 0
M  V30 1056 H 102.581 1.37036 -1.3161 0
M  V30 1057 H 100.731 3.79949 -0.81063 0
M  V30 1058 H 102.403 3.17664 -3.34495 0
M  V30 1059 H 100.646 2.93656 -3.19294 0
M  V30 1060 H 101.317 4.56766 -3.0995 0
M  V30 1061 H 103.793 3.9624 -1.27014 0
M  V30 1062 H 102.669 5.34545 -1.2471 0
M  V30 1063 H 102.93 4.41552 0.220071 0
M  V30 1064 N 101.989 0.842826 1.3317 0
M  V30 1065 C 103.217 0.454055 2.01856 0
M  V30 1066 C 103.632 -0.94587 1.63397 0
M  V30 1067 O 102.989 -1.61534 0.849302 0
M  V30 1068 C 103.04 0.569715 3.56982 0
M  V30 1069 O 102.761 1.91448 3.94055 0
M  V30 1070 C 104.262 0.178412 4.42941 0
M  V30 1071 H 101.482 0.17979 0.646465 0
M  V30 1072 H 104.026 1.1365 1.70012 0
M  V30 1073 H 102.181 -0.0648587 3.87346 0
M  V30 1074 H 102.595 1.90282 4.88767 0
M  V30 1075 H 104.069 0.310376 5.51127 0
M  V30 1076 H 104.546 -0.880056 4.30293 0
M  V30 1077 H 105.152 0.787579 4.17944 0
M  V30 1078 N 103.467 -1.45747 0.599634 0
M  V30 1079 C 104.713 -2.02592 0.0918643 0
M  V30 1080 C 105.046 -1.46806 -1.27128 0
M  V30 1081 O 104.321 -0.639658 -1.83681 0
M  V30 1082 C 104.604 -3.60073 0.0443398 0
M  V30 1083 C 104.457 -4.26208 1.43759 0
M  V30 1084 C 105.776 -4.35309 -0.647608 0
M  V30 1085 H 102.895 -0.736175 0.034857 0
M  V30 1086 H 105.537 -1.73694 0.770081 0
M  V30 1087 H 103.687 -3.84823 -0.533224 0
M  V30 1088 H 105.359 -4.12668 2.06162 0
M  V30 1089 H 103.602 -3.84916 2.00056 0
M  V30 1090 H 104.273 -5.35069 1.35665 0
M  V30 1091 H 106.749 -4.15805 -0.156776 0
M  V30 1092 H 105.625 -5.45038 -0.649942 0
M  V30 1093 H 105.886 -4.07598 -1.71219 0
M  V30 1094 N 104.945 -0.338344 -1.53925 0
M  V30 1095 C 105.908 0.508299 -2.23493 0
M  V30 1096 C 106.908 1.03175 -1.23335 0
M  V30 1097 O 108.098 0.921826 -1.47811 0
M  V30 1098 C 105.23 1.70754 -2.95052 0
M  V30 1099 H 106.423 -0.100058 -2.99733 0
M  V30 1100 H 103.976 -0.0896198 -1.56043 0
M  V30 1101 H 104.711 2.35474 -2.22986 0
M  V30 1102 H 104.496 1.33946 -3.68512 0
M  V30 1103 H 105.986 2.30818 -3.48013 0
M  V30 1104 N 106.423 1.57458 -0.0668435 0
M  V30 1105 C 107.663 1.95175 0.607116 0
M  V30 1106 C 108.027 0.946039 1.67075 0
M  V30 1107 O 109.228 1.2107 2.39991 0
M  V30 1108 C 107.499 3.37582 1.17358 0
M  V30 1109 S 109.058 3.97271 1.86336 0
M  V30 1110 H 105.876 0.682604 0.19893 0
M  V30 1111 H 108.478 1.95002 -0.139519 0
M  V30 1112 H 107.182 4.08566 0.387553 0
M  V30 1113 H 106.713 3.41288 1.95669 0
M  V30 1114 H 108.728 3.83772 3.14537 0
M  V30 1115 N 107.901 -0.206675 1.56239 0
M  V30 1116 C 109.149 -0.927007 1.79586 0
M  V30 1117 C 109.47 -1.8427 0.637929 0
M  V30 1118 O 108.74 -1.92849 -0.344398 0
M  V30 1119 H 107.32 -0.345292 0.662407 0
M  V30 1120 H 109.982 -0.21496 1.93711 0
M  V30 1121 H 109.078 -1.52501 2.72305 0
M  V30 1122 N 109.379 -1.50304 -0.473955 0
M  V30 1123 C 110.626 -1.6115 -1.22625 0
M  V30 1124 C 110.954 -0.310517 -1.92005 0
M  V30 1125 O 110.209 0.703419 -1.82621 0
M  V30 1126 C 110.508 -2.73938 -2.29549 0
M  V30 1127 C 110.174 -4.14519 -1.7744 0
M  V30 1128 C 108.836 -4.5277 -1.62949 0
M  V30 1129 C 111.188 -5.02392 -1.3875 0
M  V30 1130 C 108.516 -5.76639 -1.08187 0
M  V30 1131 C 110.868 -6.26805 -0.854309 0
M  V30 1132 C 109.532 -6.63861 -0.696011 0
M  V30 1133 H 108.802 -0.589691 -0.448715 0
M  V30 1134 H 111.449 -1.84228 -0.522705 0
M  V30 1135 H 109.754 -2.44937 -3.05799 0
M  V30 1136 H 111.451 -2.79534 -2.87509 0
M  V30 1137 H 108.041 -3.8434 -1.89685 0
M  V30 1138 H 112.225 -4.73474 -1.4878 0
M  V30 1139 H 107.481 -6.04027 -0.946666 0
M  V30 1140 H 111.655 -6.94258 -0.545843 0
M  V30 1141 H 109.282 -7.59722 -0.26952 0
M  V30 1142 N 110.857 0.726932 -1.39834 0
M  V30 1143 C 111.787 1.85405 -1.41941 0
M  V30 1144 C 112.768 1.67751 -0.281728 0
M  V30 1145 O 113.953 1.8795 -0.488717 0
M  V30 1146 C 111.083 3.23243 -1.2701 0
M  V30 1147 C 110.037 3.55549 -2.38262 0
M  V30 1148 C 109.363 4.9241 -2.08415 0
M  V30 1149 C 110.663 3.577 -3.80589 0
M  V30 1150 H 112.357 1.83899 -2.36266 0
M  V30 1151 H 109.903 0.883349 -1.13723 0
M  V30 1152 H 111.856 4.01775 -1.27103 0
M  V30 1153 H 110.58 3.25296 -0.291564 0
M  V30 1154 H 109.239 2.79351 -2.37399 0
M  V30 1155 H 108.887 4.91052 -1.0898 0
M  V30 1156 H 108.587 5.14992 -2.82943 0
M  V30 1157 H 110.111 5.73289 -2.10171 0
M  V30 1158 H 111.525 4.26293 -3.83337 0
M  V30 1159 H 109.922 3.91804 -4.54543 0
M  V30 1160 H 110.992 2.57328 -4.10987 0
M  V30 1161 N 112.336 1.25143 0.95797 0
M  V30 1162 C 113.286 1.01924 2.0395 0
M  V30 1163 C 114.27 -0.0427175 1.60843 0
M  V30 1164 O 115.462 0.17221 1.7616 0
M  V30 1165 C 112.591 0.636373 3.3735 0
M  V30 1166 C 111.677 1.73492 3.8699 0
M  V30 1167 N 112.068 2.96945 4.0946 0
M  V30 1168 C 110.366 1.61467 4.15746 0
M  V30 1169 C 111.067 3.68228 4.50315 0
M  V30 1170 N 110.043 2.95833 4.56053 0
M  V30 1171 H 113.845 1.95653 2.19311 0
M  V30 1172 H 111.359 1.15413 1.14253 0
M  V30 1173 H 113.356 0.451233 4.14451 0
M  V30 1174 H 112.016 -0.293621 3.2337 0
M  V30 1175 H 113.027 3.33025 3.96629 0
M  V30 1176 H 109.704 0.753394 4.10646 0
M  V30 1177 H 111.094 4.74178 4.76031 0
M  V30 1178 N 113.814 -1.1601 1.06675 0
M  V30 1179 C 115.091 -1.82679 0.699114 0
M  V30 1180 C 115.471 -1.94559 -0.819137 0
M  V30 1181 O 114.819 -1.49169 -1.73092 0
M  V30 1182 C 115.029 -3.19445 1.40555 0
M  V30 1183 C 116.377 -3.95171 1.55323 0
M  V30 1184 O 117.401 -3.28976 1.36577 0
M  V30 1185 O 116.26 -5.13833 1.86112 0
M  V30 1186 H 113.354 -0.788954 0.247951 0
M  V30 1187 H 115.9 -1.23179 1.16726 0
M  V30 1188 H 114.672 -3.05856 2.44065 0
M  V30 1189 H 114.295 -3.86625 0.927733 0
M  V30 1190 N 115.292 -0.849877 -1.32721 0
M  V30 1191 C 116.538 -0.451591 -1.97708 0
M  V30 1192 C 116.871 0.989175 -1.6712 0
M  V30 1193 O 116.146 1.69334 -0.956891 0
M  V30 1194 C 116.429 -0.685598 -3.53513 0
M  V30 1195 C 116.282 -2.17444 -3.93749 0
M  V30 1196 C 117.601 -0.138874 -4.39881 0
M  V30 1197 H 114.72 -0.16555 -0.718166 0
M  V30 1198 H 117.362 -1.06742 -1.57182 0
M  V30 1199 H 115.512 -0.161416 -3.88165 0
M  V30 1200 H 117.184 -2.76433 -3.693 0
M  V30 1201 H 115.427 -2.65476 -3.43081 0
M  V30 1202 H 116.098 -2.28888 -5.02309 0
M  V30 1203 H 118.574 -0.587068 -4.11938 0
M  V30 1204 H 117.45 -0.332213 -5.47894 0
M  V30 1205 H 117.711 0.95806 -4.31594 0
M  V30 1206 N 116.77 1.45427 -0.607355 0
M  V30 1207 C 118.016 2.0254 -0.102607 0
M  V30 1208 C 118.349 1.47478 1.26348 0
M  V30 1209 O 117.624 0.64939 1.83339 0
M  V30 1210 C 117.907 3.60044 -0.0634347 0
M  V30 1211 C 117.76 4.2544 -1.46017 0
M  V30 1212 C 119.079 4.35646 0.624514 0
M  V30 1213 H 116.198 0.73598 -0.0387607 0
M  V30 1214 H 118.84 1.73284 -0.779282 0
M  V30 1215 H 116.99 3.85101 0.512808 0
M  V30 1216 H 118.662 4.11569 -2.08347 0
M  V30 1217 H 116.905 3.83849 -2.02094 0
M  V30 1218 H 117.576 5.34342 -1.385 0
M  V30 1219 H 120.052 4.15882 0.134723 0
M  V30 1220 H 118.928 5.45376 0.621028 0
M  V30 1221 H 119.189 4.08501 1.69055 0
M  V30 1222 N 118.248 0.346503 1.53744 0
M  V30 1223 C 119.158 -0.517293 2.28826 0
M  V30 1224 C 120.174 -1.10935 1.3405 0
M  V30 1225 O 121.35 -1.1244 1.6709 0
M  V30 1226 C 118.415 -1.65098 3.04866 0
M  V30 1227 C 117.476 -1.0884 4.15274 0
M  V30 1228 C 116.709 -2.16806 4.87679 0
M  V30 1229 O 116.932 -3.3758 4.59778 0
M  V30 1230 O 115.866 -1.80934 5.74061 0
M  V30 1231 H 119.692 0.0931396 3.03557 0
M  V30 1232 H 117.277 0.111458 1.48984 0
M  V30 1233 H 119.159 -2.31053 3.5241 0
M  V30 1234 H 117.834 -2.24717 2.32989 0
M  V30 1235 H 116.741 -0.3933 3.72027 0
M  V30 1236 H 118.074 -0.537036 4.89261 0
M  V30 1237 N 119.726 -1.57421 0.075193 0
M  V30 1238 C 121.003 -1.85029 -0.634329 0
M  V30 1239 C 121.383 -0.968305 -1.87582 0
M  V30 1240 O 120.731 -0.0354749 -2.28472 0
M  V30 1241 C 120.941 -3.35286 -0.968742 0
M  V30 1242 C 122.289 -4.02875 -1.34077 0
M  V30 1243 O 123.313 -3.40051 -1.06037 0
M  V30 1244 O 122.172 -5.13691 -1.86506 0
M  V30 1245 H 119.266 -0.7645 -0.315387 0
M  V30 1246 H 121.812 -1.69366 0.106382 0
M  V30 1247 H 120.584 -3.91203 -0.0871376 0
M  V30 1248 H 120.207 -3.56223 -1.7661 0
M  V30 1249 N 121.204 0.198386 -1.56346 0
M  V30 1250 C 122.432 0.935572 -1.84539 0
M  V30 1251 C 122.847 1.76989 -0.657281 0
M  V30 1252 O 122.204 1.78626 0.374043 0
M  V30 1253 C 122.255 1.8344 -3.11499 0
M  V30 1254 O 121.976 1.03377 -4.25728 0
M  V30 1255 C 123.477 2.68355 -3.52846 0
M  V30 1256 H 120.697 0.273126 -0.612897 0
M  V30 1257 H 123.241 0.20663 -2.03453 0
M  V30 1258 H 121.396 2.51701 -2.94492 0
M  V30 1259 H 121.81 1.64599 -4.98003 0
M  V30 1260 H 123.284 3.27085 -4.44657 0
M  V30 1261 H 123.761 3.41901 -2.75681 0
M  V30 1262 H 124.367 2.05471 -3.72373 0
M  V30 1263 N 122.682 1.50554 0.465978 0
M  V30 1264 C 123.959 1.5232 1.22712 0
M  V30 1265 C 124.339 0.270807 2.09356 0
M  V30 1266 O 123.687 -0.745541 2.15995 0
M  V30 1267 C 123.897 2.82175 2.05374 0
M  V30 1268 C 125.245 3.33033 2.6339 0
M  V30 1269 O 126.269 2.83531 2.15612 0
M  V30 1270 O 125.128 4.19336 3.50456 0
M  V30 1271 H 122.222 0.611183 0.557122 0
M  V30 1272 H 124.768 1.62847 0.477381 0
M  V30 1273 H 123.54 3.64797 1.41558 0
M  V30 1274 H 123.163 2.74675 2.87471 0
M  V30 1275 N 124.16 -0.719506 1.40217 0
M  V30 1276 C 125.409 -1.47486 1.37589 0
M  V30 1277 C 125.722 -1.9559 -0.0201568 0
M  V30 1278 O 126.928 -2.70973 -0.169049 0
M  V30 1279 C 125.384 -2.66575 2.41796 0
M  V30 1280 C 124.992 -2.25358 3.87192 0
M  V30 1281 C 126.736 -3.4433 2.48269 0
M  V30 1282 C 124.643 -3.41262 4.83005 0
M  V30 1283 H 123.573 -0.553901 0.511576 0
M  V30 1284 H 126.224 -0.783427 1.65936 0
M  V30 1285 H 124.606 -3.3787 2.06543 0
M  V30 1286 H 125.78 -1.61509 4.31569 0
M  V30 1287 H 124.095 -1.60657 3.84159 0
M  V30 1288 H 126.692 -4.30569 3.17041 0
M  V30 1289 H 127.035 -3.87872 1.51198 0
M  V30 1290 H 127.568 -2.80076 2.82493 0
M  V30 1291 H 124.307 -3.02755 5.81394 0
M  V30 1292 H 123.827 -4.0404 4.43297 0
M  V30 1293 H 125.506 -4.07383 5.02641 0
M  V30 1294 N 125.638 -1.25649 -0.95132 0
M  V30 1295 C 126.866 -1.13343 -1.73092 0
M  V30 1296 C 127.281 0.312434 -1.86197 0
M  V30 1297 O 126.638 1.21465 -1.36207 0
M  V30 1298 C 126.689 -1.78602 -3.14299 0
M  V30 1299 O 126.41 -3.17537 -3.01831 0
M  V30 1300 C 127.911 -1.72119 -4.08522 0
M  V30 1301 H 125.131 -0.395181 -0.542285 0
M  V30 1302 H 127.675 -1.66076 -1.19328 0
M  V30 1303 H 125.83 -1.29832 -3.64996 0
M  V30 1304 H 126.244 -3.49676 -3.90931 0
M  V30 1305 H 127.718 -2.22435 -5.052 0
M  V30 1306 H 128.195 -0.685635 -4.33815 0
M  V30 1307 H 128.801 -2.20393 -3.63741 0
M  V30 1308 N 127.117 1.15442 -1.07289 0
M  V30 1309 C 128.047 2.22312 -0.714107 0
M  V30 1310 C 129.028 1.67467 0.298155 0
M  V30 1311 O 130.213 1.93445 0.171048 0
M  V30 1312 C 127.343 3.47124 -0.110448 0
M  V30 1313 C 126.297 4.14926 -1.04979 0
M  V30 1314 C 125.623 5.33807 -0.308924 0
M  V30 1315 C 126.923 4.64762 -2.38314 0
M  V30 1316 H 128.617 2.5258 -1.6076 0
M  V30 1317 H 126.163 1.21404 -0.77441 0
M  V30 1318 H 128.116 4.21124 0.152482 0
M  V30 1319 H 126.84 3.16187 0.81812 0
M  V30 1320 H 125.499 3.42866 -1.29764 0
M  V30 1321 H 125.147 4.99126 0.623084 0
M  V30 1322 H 124.847 5.80113 -0.935036 0
M  V30 1323 H 126.371 6.10576 -0.0537771 0
M  V30 1324 H 127.785 5.30292 -2.1786 0
M  V30 1325 H 126.182 5.21728 -2.96514 0
M  V30 1326 H 127.252 3.80434 -3.00663 0
M  V30 1327 N 128.595 0.856903 1.32268 0
M  V30 1328 C 129.872 0.382583 1.91822 0
M  V30 1329 C 130.252 -1.13407 1.78051 0
M  V30 1330 O 129.6 -1.95673 1.18001 0
M  V30 1331 C 129.81 0.849446 3.38505 0
M  V30 1332 C 131.158 0.867936 4.15634 0
M  V30 1333 O 132.182 0.794232 3.47232 0
M  V30 1334 O 131.041 0.972286 5.37781 0
M  V30 1335 H 128.135 0.112014 0.819379 0
M  V30 1336 H 130.681 0.943952 1.41024 0
M  V30 1337 H 129.453 1.89267 3.42482 0
M  V30 1338 H 129.076 0.265652 3.96712 0
M  V30 1339 N 130.073 -1.45103 0.615059 0
M  V30 1340 C 131.021 -2.32331 -0.111791 0
M  V30 1341 C 132.015 -1.46409 -0.852102 0
M  V30 1342 O 133.221 -1.62849 -0.766821 0
M  V30 1343 H 129.596 -0.749993 -0.0549072 0
M  V30 1344 H 131.567 -2.91407 0.642225 0
M  V30 1345 C 130.316 -3.3015 -1.09071 0
M  V30 1346 H 129.639 -3.96265 -0.530485 0
M  V30 1347 H 131.079 -3.93898 -1.56908 0
M  V30 1348 C 129.538 -2.57875 -2.168 0
M  V30 1349 O 130.068 -2.36567 -3.24652 0
M  V30 1350 N 128.274 -2.17884 -1.92289 0
M  V30 1351 H 127.821 -2.35413 -1.04587 0
M  V30 1352 H 127.779 -1.6985 -2.64572 0
M  V30 1353 N 131.551 -0.354651 -1.53558 0
M  V30 1354 C 132.8 0.239504 -2.00273 0
M  V30 1355 C 133.113 1.50759 -1.24623 0
M  V30 1356 O 134.319 2.17968 -1.61871 0
M  V30 1357 C 132.775 0.477341 -3.5672 0
M  V30 1358 C 132.383 -0.775488 -4.41237 0
M  V30 1359 C 134.127 1.02975 -4.11821 0
M  V30 1360 C 132.034 -0.507838 -5.89216 0
M  V30 1361 H 130.964 0.0932743 -0.748208 0
M  V30 1362 H 133.615 -0.471701 -1.77334 0
M  V30 1363 H 131.997 1.24953 -3.7577 0
M  V30 1364 H 133.171 -1.54963 -4.33962 0
M  V30 1365 H 131.486 -1.25033 -3.97185 0
M  V30 1366 H 134.083 1.24513 -5.2 0
M  V30 1367 H 134.426 1.98862 -3.65731 0
M  V30 1368 H 134.959 0.317994 -3.96527 0
M  V30 1369 H 131.698 -1.43674 -6.39561 0
M  V30 1370 H 131.218 0.228011 -5.99366 0
M  V30 1371 H 132.897 -0.129238 -6.46871 0
M  V30 1372 N 133.029 1.57378 -0.0835403 0
M  V30 1373 C 133.939 2.16897 0.894021 0
M  V30 1374 C 134.955 1.13528 1.31861 0
M  V30 1375 O 136.131 1.45848 1.3889 0
M  V30 1376 C 133.196 2.72831 2.13925 0
M  V30 1377 C 132.257 3.91115 1.76997 0
M  V30 1378 C 131.49 4.44371 2.95584 0
M  V30 1379 O 131.713 3.96596 4.09961 0
M  V30 1380 O 130.647 5.35549 2.74719 0
M  V30 1381 H 134.473 3.00814 0.417679 0
M  V30 1382 H 132.058 1.48741 0.140181 0
M  V30 1383 H 133.94 3.0863 2.86924 0
M  V30 1384 H 132.615 1.91967 2.60635 0
M  V30 1385 H 131.522 3.60148 1.01214 0
M  V30 1386 H 132.855 4.73307 1.3506 0
M  V30 1387 N 134.507 -0.190092 1.56449 0
M  V30 1388 C 135.754 -0.909705 1.80916 0
M  V30 1389 C 136.082 -1.83047 0.657583 0
M  V30 1390 O 135.337 -1.92428 -0.356356 0
M  V30 1391 C 135.636 -1.75382 3.1141 0
M  V30 1392 C 135.302 -0.983606 4.40041 0
M  V30 1393 C 133.964 -0.770967 4.74984 0
M  V30 1394 C 136.316 -0.442024 5.19322 0
M  V30 1395 C 133.644 -0.0053448 5.867 0
M  V30 1396 C 135.996 0.310412 6.31838 0
M  V30 1397 C 134.66 0.534023 6.6536 0
M  V30 1398 H 133.93 -0.332885 0.662019 0
M  V30 1399 H 136.577 -0.175762 1.90692 0
M  V30 1400 H 134.882 -2.55659 2.96893 0
M  V30 1401 H 136.579 -2.31331 3.27547 0
M  V30 1402 H 133.169 -1.15936 4.12622 0
M  V30 1403 H 137.353 -0.593693 4.92736 0
M  V30 1404 H 132.609 0.177825 6.11141 0
M  V30 1405 H 136.783 0.737419 6.92485 0
M  V30 1406 H 134.41 1.12918 7.51767 0
M  V30 1407 N 135.985 -1.50799 -0.457987 0
M  V30 1408 C 137.262 -1.52968 -1.21902 0
M  V30 1409 C 137.642 -0.281906 -2.09209 0
M  V30 1410 O 136.99 0.734076 -2.16388 0
M  V30 1411 C 137.2 -2.8326 -2.03875 0
M  V30 1412 C 138.548 -3.34425 -2.6162 0
M  V30 1413 O 139.572 -2.8467 -2.14106 0
M  V30 1414 O 138.431 -4.21188 -3.48228 0
M  V30 1415 H 135.525 -0.614129 -0.553873 0
M  V30 1416 H 138.071 -1.63098 -0.468739 0
M  V30 1417 H 136.843 -3.65543 -1.39621 0
M  V30 1418 H 136.466 -2.76195 -2.8601 0
M  V30 1419 N 137.463 0.71206 -1.40597 0
M  V30 1420 C 138.71 1.47197 -1.39065 0
M  V30 1421 C 139.038 1.94499 0.00583891 0
M  V30 1422 O 138.293 1.68752 0.99102 0
M  V30 1423 C 138.592 2.71039 -2.32965 0
M  V30 1424 C 138.258 2.42484 -3.80148 0
M  V30 1425 C 136.92 2.34406 -4.20247 0
M  V30 1426 C 139.272 2.18598 -4.73143 0
M  V30 1427 C 136.6 2.00516 -5.51371 0
M  V30 1428 C 138.952 1.8622 -6.0457 0
M  V30 1429 C 137.616 1.76626 -6.43708 0
M  V30 1430 H 136.886 0.538634 -0.508876 0
M  V30 1431 H 139.533 0.815325 -1.73276 0
M  V30 1432 H 137.838 3.41558 -1.91951 0
M  V30 1433 H 139.535 3.29138 -2.29061 0
M  V30 1434 H 136.125 2.49659 -3.4838 0
M  V30 1435 H 140.309 2.23793 -4.42979 0
M  V30 1436 H 135.565 1.91628 -5.80593 0
M  V30 1437 H 139.739 1.66752 -6.76141 0
M  V30 1438 H 137.366 1.50133 -7.45228 0
M  V30 1439 N 138.941 1.26152 0.944643 0
M  V30 1440 C 140.189 1.11271 1.6871 0
M  V30 1441 C 140.51 -0.345166 1.91921 0
M  V30 1442 O 139.78 -1.24387 1.51343 0
M  V30 1443 H 138.36 0.408783 0.625224 0
M  V30 1444 H 141.022 1.58427 1.1352 0
M  V30 1445 H 140.118 1.62879 2.66227 0
M  V30 1446 N 140.419 -1.14872 1.07899 0
M  V30 1447 C 141.366 -2.19791 0.704319 0
M  V30 1448 C 142.336 -1.63238 -0.306987 0
M  V30 1449 O 143.521 -1.8983 -0.192171 0
M  V30 1450 C 140.661 -3.44911 0.114244 0
M  V30 1451 C 139.774 -4.15637 1.1777 0
M  V30 1452 C 138.909 -5.28324 0.552037 0
M  V30 1453 C 137.948 -5.90875 1.59789 0
M  V30 1454 N 137.085 -6.95022 0.994404 0
M  V30 1455 H 141.925 -2.5119 1.60336 0
M  V30 1456 H 139.462 -1.23356 0.801352 0
M  V30 1457 H 141.42 -4.16477 -0.245544 0
M  V30 1458 H 140.05 -3.14011 -0.74813 0
M  V30 1459 H 139.102 -3.42512 1.65499 0
M  V30 1460 H 140.414 -4.5823 1.97046 0
M  V30 1461 H 139.568 -6.06538 0.1402 0
M  V30 1462 H 138.307 -4.86939 -0.272431 0
M  V30 1463 H 137.312 -5.11369 2.01945 0
M  V30 1464 H 138.537 -6.34337 2.42474 0
M  V30 1465 H 136.483 -6.55722 0.190939 0
M  V30 1466 H 136.4 -7.36073 1.72432 0
M  V30 1467 H 137.668 -7.77123 0.608253 0
M  V30 1468 N 141.898 -0.863906 -1.31812 0
M  V30 1469 C 143.175 -0.39275 -1.91616 0
M  V30 1470 C 143.555 1.12461 -1.7865 0
M  V30 1471 O 142.903 1.95045 -1.19037 0
M  V30 1472 C 143.113 -0.867385 -3.38049 0
M  V30 1473 C 144.461 -0.889966 -4.15168 0
M  V30 1474 O 145.485 -0.812635 -3.46806 0
M  V30 1475 O 144.344 -1.00079 -5.37258 0
M  V30 1476 H 141.438 -0.116358 -0.818773 0
M  V30 1477 H 143.984 -0.951418 -1.40521 0
M  V30 1478 H 142.756 -1.91081 -3.41473 0
M  V30 1479 H 142.379 -0.286687 -3.96565 0
M  V30 1480 N 143.376 1.44774 -0.622745 0
M  V30 1481 C 144.622 2.0242 -0.124083 0
M  V30 1482 C 144.955 1.4881 1.24777 0
M  V30 1483 O 144.23 0.668799 1.8264 0
M  V30 1484 C 144.513 3.59957 -0.101619 0
M  V30 1485 C 144.366 4.23867 -1.50521 0
M  V30 1486 C 145.685 4.36284 0.578272 0
M  V30 1487 H 142.804 0.735528 -0.0465645 0
M  V30 1488 H 145.446 1.72447 -0.797617 0
M  V30 1489 H 143.596 3.85623 0.471934 0
M  V30 1490 H 145.268 4.09336 -2.12701 0
M  V30 1491 H 143.511 3.81684 -2.06154 0
M  V30 1492 H 144.182 5.32843 -1.4416 0
M  V30 1493 H 146.658 4.16001 0.0906057 0
M  V30 1494 H 145.534 5.46004 0.563149 0
M  V30 1495 H 145.795 4.10271 1.64713 0
M  V30 1496 N 144.854 0.36279 1.53368 0
M  V30 1497 C 146.27 0.0116182 1.59596 0
M  V30 1498 C 146.47 -1.47012 1.37803 0
M  V30 1499 O 145.526 -2.23136 1.18181 0
M  V30 1500 C 146.839 0.465052 2.97082 0
M  V30 1501 C 148.387 0.419033 3.10182 0
M  V30 1502 C 148.862 0.848235 4.50077 0
M  V30 1503 N 150.353 0.803183 4.56183 0
M  V30 1504 C 151.088 1.107 5.62613 0
M  V30 1505 N 150.584 1.47996 6.76808 0
M  V30 1506 N 152.377 1.02998 5.52583 0
M  V30 1507 H 144.528 1.32775 1.65785 0
M  V30 1508 H 146.791 0.542518 0.777417 0
M  V30 1509 H 146.497 1.49892 3.18159 0
M  V30 1510 H 146.371 -0.149786 3.76902 0
M  V30 1511 H 148.758 -0.605696 2.88817 0
M  V30 1512 H 148.839 1.06933 2.32377 0
M  V30 1513 H 148.483 1.87107 4.7218 0
M  V30 1514 H 148.413 0.175218 5.26308 0
M  V30 1515 H 150.904 0.52838 3.74188 0
M  V30 1516 H 151.217 1.69613 7.53957 0
M  V30 1517 H 149.562 1.51859 6.78206 0
M  V30 1518 H 152.753 0.737817 4.62249 0
M  V30 1519 H 152.926 1.2701 6.35431 0
M  V30 1520 N 146.332 -1.57332 0.0918853 0
M  V30 1521 C 147.609 -1.85691 -0.614668 0
M  V30 1522 C 147.989 -0.988146 -1.86545 0
M  V30 1523 O 147.337 -0.0597055 -2.28422 0
M  V30 1524 C 147.547 -3.36294 -0.933126 0
M  V30 1525 C 148.895 -4.04275 -1.29796 0
M  V30 1526 O 149.919 -3.41157 -1.02424 0
M  V30 1527 O 148.778 -5.1564 -1.81047 0
M  V30 1528 H 145.872 -0.767802 -0.307261 0
M  V30 1529 H 148.418 -1.69244 0.12434 0
M  V30 1530 H 147.19 -3.91273 -0.0456404 0
M  V30 1531 H 146.813 -3.58076 -1.72822 0
M  V30 1532 N 147.81 0.181792 -1.56548 0
M  V30 1533 C 149.059 0.898348 -1.8059 0
M  V30 1534 C 149.372 1.83862 -0.667379 0
M  V30 1535 O 150.578 2.59678 -0.792446 0
M  V30 1536 C 149.034 1.64791 -3.19956 0
M  V30 1537 C 148.642 0.751789 -4.41647 0
M  V30 1538 C 150.386 2.35331 -3.53298 0
M  V30 1539 C 148.293 1.50098 -5.72035 0
M  V30 1540 H 147.223 0.339194 -0.673397 0
M  V30 1541 H 149.874 0.151413 -1.82874 0
M  V30 1542 H 148.256 2.43921 -3.11959 0
M  V30 1543 H 149.43 -0.0018076 -4.608 0
M  V30 1544 H 147.745 0.156562 -4.16106 0
M  V30 1545 H 150.342 2.91958 -4.47956 0
M  V30 1546 H 150.685 3.10164 -2.77676 0
M  V30 1547 H 151.218 1.63154 -3.62803 0
M  V30 1548 H 147.957 0.795175 -6.50659 0
M  V30 1549 H 147.477 2.22817 -5.56878 0
M  V30 1550 H 149.156 2.05125 -6.13622 0
M  V30 1551 N 149.288 1.51039 0.449983 0
M  V30 1552 C 150.534 1.63322 1.20223 0
M  V30 1553 C 150.867 0.34241 1.91158 0
M  V30 1554 O 150.142 -0.657344 1.83055 0
M  V30 1555 C 150.425 2.82801 2.22925 0
M  V30 1556 C 150.278 4.21823 1.56157 0
M  V30 1557 C 151.597 2.97807 3.24035 0
M  V30 1558 H 148.716 0.594407 0.435718 0
M  V30 1559 H 151.358 1.83489 0.493136 0
M  V30 1560 H 149.508 2.65738 2.834 0
M  V30 1561 H 151.18 4.50526 0.991162 0
M  V30 1562 H 149.423 4.25105 0.864172 0
M  V30 1563 H 150.094 5.01391 2.30891 0
M  V30 1564 H 152.57 3.13497 2.73603 0
M  V30 1565 H 151.446 3.82992 3.93202 0
M  V30 1566 H 151.707 2.09328 3.89402 0
M  V30 1567 N 150.766 -0.704594 1.40972 0
M  V30 1568 C 152.043 -1.45847 1.30338 0
M  V30 1569 C 152.423 -2.10973 -0.0732344 0
M  V30 1570 O 151.771 -2.00997 -1.08685 0
M  V30 1571 C 151.981 -2.48525 2.45023 0
M  V30 1572 C 153.329 -3.1404 2.8577 0
M  V30 1573 O 154.353 -2.58848 2.44696 0
M  V30 1574 O 153.212 -4.13981 3.56766 0
M  V30 1575 H 150.306 -0.649092 0.512454 0
M  V30 1576 H 152.852 -0.735836 1.52917 0
M  V30 1577 H 151.624 -1.98994 3.36923 0
M  V30 1578 H 151.247 -3.2831 2.24272 0
M  V30 1579 N 152.244 -1.26651 -0.937939 0
M  V30 1580 C 153.492 -1.12165 -1.68118 0
M  V30 1581 C 153.813 0.334983 -1.92101 0
M  V30 1582 O 153.083 1.23583 -1.52 0
M  V30 1583 H 151.663 -0.412093 -0.623048 0
M  V30 1584 H 154.325 -1.59027 -1.12678 0
M  V30 1585 H 153.421 -1.64289 -2.6536 0
M  V30 1586 N 153.722 1.14298 -1.08507 0
M  V30 1587 C 154.968 1.85633 -0.816581 0
M  V30 1588 C 155.301 1.82784 0.656021 0
M  V30 1589 O 154.576 1.25926 1.48233 0
M  V30 1590 C 154.859 3.34223 -1.34041 0
M  V30 1591 C 154.712 3.45639 -2.87843 0
M  V30 1592 C 156.031 4.29356 -0.9665 0
M  V30 1593 H 153.15 0.67402 -0.298104 0
M  V30 1594 H 155.792 1.34214 -1.34487 0
M  V30 1595 H 153.942 3.78144 -0.89104 0
M  V30 1596 H 155.614 3.10498 -3.41158 0
M  V30 1597 H 153.857 2.86817 -3.25451 0
M  V30 1598 H 154.528 4.50089 -3.19569 0
M  V30 1599 H 157.004 3.93457 -1.35391 0
M  V30 1600 H 155.88 5.3178 -1.3602 0
M  V30 1601 H 156.141 4.41919 0.126362 0
M  V30 1602 N 155.201 0.870884 1.31352 0
M  V30 1603 C 156.429 0.49677 2.00848 0
M  V30 1604 C 156.844 -0.910998 1.65367 0
M  V30 1605 O 156.201 -1.59696 0.883374 0
M  V30 1606 C 156.252 0.645308 3.55694 0
M  V30 1607 O 155.973 1.99764 3.89905 0
M  V30 1608 C 157.474 0.272326 4.42463 0
M  V30 1609 H 154.694 0.193462 0.642506 0
M  V30 1610 H 157.238 1.1723 1.67563 0
M  V30 1611 H 155.393 0.0173176 3.87396 0
M  V30 1612 H 155.807 2.00607 4.84621 0
M  V30 1613 H 157.281 0.427208 5.50344 0
M  V30 1614 H 157.758 -0.788587 4.32062 0
M  V30 1615 H 158.364 0.876054 4.1618 0
M  V30 1616 N 156.679 -1.44442 0.630414 0
M  V30 1617 C 157.626 -2.30678 -0.0749355 0
M  V30 1618 C 158.596 -1.4344 -0.837502 0
M  V30 1619 O 159.781 -1.72343 -0.818684 0
M  V30 1620 C 156.921 -3.28706 -1.05103 0
M  V30 1621 C 156.034 -4.31046 -0.286954 0
M  V30 1622 C 155.169 -5.16167 -1.2548 0
M  V30 1623 C 154.208 -6.10216 -0.479843 0
M  V30 1624 N 153.345 -6.88039 -1.39811 0
M  V30 1625 H 158.185 -2.90454 0.666386 0
M  V30 1626 H 155.722 -1.43107 0.340404 0
M  V30 1627 H 157.68 -3.84027 -1.63031 0
M  V30 1628 H 156.31 -2.70632 -1.75949 0
M  V30 1629 H 155.362 -3.78203 0.408243 0
M  V30 1630 H 156.674 -4.97794 0.316657 0
M  V30 1631 H 155.828 -5.76002 -1.90544 0
M  V30 1632 H 154.567 -4.49491 -1.89233 0
M  V30 1633 H 153.572 -5.49491 0.184295 0
M  V30 1634 H 154.797 -6.78928 0.152965 0
M  V30 1635 H 152.743 -6.24032 -2.02287 0
M  V30 1636 H 152.66 -7.51223 -0.848508 0
M  V30 1637 H 153.928 -7.52397 -2.03762 0
M  V30 1638 N 158.157 -0.370918 -1.53173 0
M  V30 1639 C 159.087 0.464847 -2.28826 0
M  V30 1640 C 160.068 1.07936 -1.31468 0
M  V30 1641 O 161.253 1.0956 -1.60344 0
M  V30 1642 C 158.383 1.60196 -3.08147 0
M  V30 1643 C 157.337 1.11443 -4.13237 0
M  V30 1644 C 156.663 2.3422 -4.80672 0
M  V30 1645 C 157.963 0.195384 -5.21934 0
M  V30 1646 H 159.657 -0.166329 -2.98938 0
M  V30 1647 H 157.203 -0.0814359 -1.4377 0
M  V30 1648 H 159.156 2.19332 -3.59822 0
M  V30 1649 H 157.88 2.26045 -2.35735 0
M  V30 1650 H 156.539 0.545727 -3.62515 0
M  V30 1651 H 156.187 2.98537 -4.04827 0
M  V30 1652 H 155.887 2.02269 -5.51689 0
M  V30 1653 H 157.411 2.94032 -5.35143 0
M  V30 1654 H 158.825 0.694375 -5.69079 0
M  V30 1655 H 157.222 -0.0335027 -6.00091 0
M  V30 1656 H 158.292 -0.760961 -4.78892 0
M  V30 1657 N 159.635 1.57281 -0.100228 0
M  V30 1658 C 160.883 1.94153 0.561157 0
M  V30 1659 C 161.204 0.983157 1.68401 0
M  V30 1660 O 160.474 0.0361132 1.95867 0
M  V30 1661 H 159.054 0.716791 0.210283 0
M  V30 1662 H 161.716 1.94202 -0.164765 0
M  V30 1663 H 160.812 2.96709 0.968008 0
M  V30 1664 N 161.113 -0.173488 1.56642 0
M  V30 1665 C 162.06 -1.21482 1.96242 0
M  V30 1666 C 163.03 -1.44104 0.826027 0
M  V30 1667 O 164.215 -1.5688 1.08597 0
M  V30 1668 C 161.355 -2.54964 2.32567 0
M  V30 1669 C 160.468 -2.39739 3.59373 0
M  V30 1670 C 159.603 -3.66072 3.84921 0
M  V30 1671 C 158.642 -3.45771 5.05083 0
M  V30 1672 N 157.779 -4.64169 5.26775 0
M  V30 1673 H 162.619 -0.870123 2.85014 0
M  V30 1674 H 160.156 -0.418245 1.41029 0
M  V30 1675 H 162.114 -3.32758 2.5165 0
M  V30 1676 H 160.744 -2.87433 1.46908 0
M  V30 1677 H 159.796 -1.53131 3.48217 0
M  V30 1678 H 161.108 -2.20683 4.47326 0
M  V30 1679 H 160.262 -4.52303 4.0436 0
M  V30 1680 H 159.001 -3.88105 2.9534 0
M  V30 1681 H 158.006 -2.57927 4.85545 0
M  V30 1682 H 159.231 -3.25163 5.96193 0
M  V30 1683 H 157.177 -4.86425 4.40144 0
M  V30 1684 H 157.094 -4.48019 6.08946 0
M  V30 1685 H 158.362 -5.51689 5.5069 0
M  V30 1686 N 162.591 -1.51276 -0.441967 0
M  V30 1687 C 163.837 -1.63958 -1.19355 0
M  V30 1688 C 164.17 -0.352543 -1.90973 0
M  V30 1689 O 163.445 0.647627 -1.83401 0
M  V30 1690 C 163.728 -2.83979 -2.21422 0
M  V30 1691 C 163.581 -4.22646 -1.53918 0
M  V30 1692 C 164.9 -2.99521 -3.22451 0
M  V30 1693 H 162.019 -0.596709 -0.432559 0
M  V30 1694 H 164.661 -1.83748 -0.483398 0
M  V30 1695 H 162.811 -2.67237 -2.81987 0
M  V30 1696 H 164.483 -4.51045 -0.967256 0
M  V30 1697 H 162.726 -4.25558 -0.841615 0
M  V30 1698 H 163.397 -5.02609 -2.28229 0
M  V30 1699 H 165.873 -3.14944 -2.71937 0
M  V30 1700 H 164.749 -3.85072 -3.91166 0
M  V30 1701 H 165.01 -2.11391 -3.88287 0
M  V30 1702 N 164.069 0.697108 -1.41344 0
M  V30 1703 C 164.979 1.84088 -1.45427 0
M  V30 1704 C 165.995 1.70545 -0.34501 0
M  V30 1705 O 167.171 1.92488 -0.592492 0
M  V30 1706 C 164.236 3.20056 -1.33286 0
M  V30 1707 C 163.297 3.45718 -2.54514 0
M  V30 1708 C 162.53 4.75199 -2.42944 0
M  V30 1709 O 162.753 5.51579 -1.45318 0
M  V30 1710 O 161.687 5.0161 -3.32672 0
M  V30 1711 H 165.513 1.836 -2.41919 0
M  V30 1712 H 163.098 0.849966 -1.22866 0
M  V30 1713 H 164.98 4.01236 -1.28794 0
M  V30 1714 H 163.655 3.2123 -0.39909 0
M  V30 1715 H 162.562 2.64474 -2.64583 0
M  V30 1716 H 163.895 3.49356 -3.46715 0
M  V30 1717 N 165.547 1.27147 0.931209 0
M  V30 1718 C 166.777 1.15914 1.71019 0
M  V30 1719 C 167.185 -0.287112 1.87009 0
M  V30 1720 O 166.528 -1.20761 1.38429 0
M  V30 1721 C 166.59 1.76647 3.13107 0
M  V30 1722 C 166.254 3.25807 3.20467 0
M  V30 1723 C 167.251 4.22489 3.02983 0
M  V30 1724 C 164.936 3.66452 3.43538 0
M  V30 1725 C 166.93 5.57794 3.08454 0
M  V30 1726 C 164.617 5.01888 3.48643 0
M  V30 1727 C 165.615 5.97369 3.31119 0
M  V30 1728 O 165.303 7.30337 3.35952 0
M  V30 1729 H 165.035 0.404062 0.54195 0
M  V30 1730 H 167.589 1.68457 1.17521 0
M  V30 1731 H 165.819 1.18578 3.68071 0
M  V30 1732 H 167.508 1.60179 3.72958 0
M  V30 1733 H 168.274 3.92425 2.85004 0
M  V30 1734 H 164.153 2.92611 3.5623 0
M  V30 1735 H 167.697 6.32298 2.94694 0
M  V30 1736 H 163.594 5.31609 3.66145 0
M  V30 1737 H 164.362 7.38739 3.5243 0
M  V30 1738 N 167.025 -1.13721 1.09112 0
M  V30 1739 C 167.972 -2.19031 0.727591 0
M  V30 1740 C 168.942 -1.63555 -0.289656 0
M  V30 1741 O 170.127 -1.90023 -0.172026 0
M  V30 1742 C 167.267 -3.4477 0.15082 0
M  V30 1743 C 166.38 -4.14365 1.22172 0
M  V30 1744 C 165.515 -5.27709 0.608042 0
M  V30 1745 C 164.554 -5.89147 1.66047 0
M  V30 1746 N 163.691 -6.93929 1.06806 0
M  V30 1747 H 168.531 -2.49475 1.62991 0
M  V30 1748 H 166.068 -1.22499 0.81439 0
M  V30 1749 H 168.026 -4.16714 -0.201358 0
M  V30 1750 H 166.656 -3.14787 -0.714783 0
M  V30 1751 H 165.708 -3.40737 1.69122 0
M  V30 1752 H 167.02 -4.56114 2.01895 0
M  V30 1753 H 166.174 -6.06355 0.204523 0
M  V30 1754 H 164.913 -4.872 -0.220769 0
M  V30 1755 H 163.918 -5.09198 2.07357 0
M  V30 1756 H 165.143 -6.31729 2.49189 0
M  V30 1757 H 163.089 -6.55483 0.260476 0
M  V30 1758 H 163.006 -7.34202 1.8023 0
M  V30 1759 H 164.274 -7.76434 0.690644 0
M  V30 1760 N 168.503 -0.877838 -1.30888 0
M  V30 1761 C 169.728 -0.506629 -2.01117 0
M  V30 1762 C 170.153 0.895564 -1.65412 0
M  V30 1763 O 169.511 1.5923 -0.866922 0
M  V30 1764 C 169.559 -0.680223 -3.54126 0
M  V30 1765 O 168.663 0.277033 -4.11468 0
M  V30 1766 H 168.004 -0.200518 -0.633 0
M  V30 1767 H 170.534 -1.18342 -1.66902 0
M  V30 1768 H 170.544 -0.5765 -4.03907 0
M  V30 1769 H 169.219 -1.70261 -3.79452 0
M  V30 1770 H 167.796 0.127606 -3.72682 0
M  V30 1771 N 169.982 1.44106 -0.638065 0
M  V30 1772 C 170.932 2.27843 0.0847285 0
M  V30 1773 C 171.916 1.39055 0.809471 0
M  V30 1774 O 173.108 1.62808 0.694435 0
M  V30 1775 C 170.237 3.26497 1.06089 0
M  V30 1776 C 169.323 4.22772 0.33541 0
M  V30 1777 N 169.714 5.01737 -0.639787 0
M  V30 1778 C 168.012 4.42227 0.578921 0
M  V30 1779 C 168.713 5.71792 -1.06904 0
M  V30 1780 N 167.689 5.42079 -0.406395 0
M  V30 1781 H 171.491 2.86305 -0.663814 0
M  V30 1782 H 169.005 1.55627 -0.464122 0
M  V30 1783 H 171.002 3.8525 1.59337 0
M  V30 1784 H 169.662 2.69595 1.80966 0
M  V30 1785 H 170.673 5.07799 -1.01789 0
M  V30 1786 H 167.35 3.96415 1.31003 0
M  V30 1787 H 168.74 6.45205 -1.8751 0
M  V30 1788 N 171.46 0.379036 1.52974 0
M  V30 1789 C 172.37 -0.468639 2.29872 0
M  V30 1790 C 173.386 -1.08067 1.36373 0
M  V30 1791 O 174.562 -1.08871 1.69438 0
M  V30 1792 C 171.627 -1.58594 3.083 0
M  V30 1793 C 170.688 -1.00007 4.17489 0
M  V30 1794 C 169.921 -2.06413 4.92168 0
M  V30 1795 O 170.144 -3.27751 4.66835 0
M  V30 1796 O 169.078 -1.68717 5.7777 0
M  V30 1797 H 172.904 0.157508 3.03291 0
M  V30 1798 H 170.489 0.143035 1.48714 0
M  V30 1799 H 172.371 -2.23525 3.57232 0
M  V30 1800 H 171.046 -2.19724 2.37703 0
M  V30 1801 H 169.953 -0.314299 3.72777 0
M  V30 1802 H 171.286 -0.433135 4.90291 0
M  V30 1803 N 172.938 -1.57226 0.108567 0
M  V30 1804 C 173.848 -2.18292 -0.859401 0
M  V30 1805 C 174.864 -1.15612 -1.30038 0
M  V30 1806 O 176.04 -1.48039 -1.36552 0
M  V30 1807 C 173.105 -2.762 -2.09558 0
M  V30 1808 C 172.166 -3.93881 -1.70752 0
M  V30 1809 C 171.399 -4.49018 -2.88477 0
M  V30 1810 O 171.622 -4.03068 -4.036 0
M  V30 1811 O 170.556 -5.39852 -2.66164 0
M  V30 1812 H 174.382 -3.01441 -0.369769 0
M  V30 1813 H 171.967 -1.48945 -0.1165 0
M  V30 1814 H 173.849 -3.13156 -2.81978 0
M  V30 1815 H 172.524 -1.96089 -2.57548 0
M  V30 1816 H 171.431 -3.61713 -0.954714 0
M  V30 1817 H 172.764 -4.75396 -1.27513 0
M  V30 1818 N 174.416 0.165178 -1.56732 0
M  V30 1819 C 175.348 1.22911 -1.93457 0
M  V30 1820 C 176.361 1.40152 -0.828333 0
M  V30 1821 O 177.55 1.40046 -1.10677 0
M  V30 1822 C 174.65 2.59686 -2.17753 0
M  V30 1823 C 173.823 2.63663 -3.48999 0
M  V30 1824 C 172.882 3.81845 -3.62051 0
M  V30 1825 O 171.908 3.67559 -4.34613 0
M  V30 1826 N 173.11 4.98557 -2.97357 0
M  V30 1827 H 175.875 0.917118 -2.85323 0
M  V30 1828 H 173.436 0.354895 -1.57962 0
M  V30 1829 H 175.428 3.37225 -2.23743 0
M  V30 1830 H 173.998 2.83251 -1.32242 0
M  V30 1831 H 173.218 1.72173 -3.54612 0
M  V30 1832 H 174.506 2.63336 -4.35352 0
M  V30 1833 H 173.904 5.13065 -2.38287 0
M  V30 1834 H 172.461 5.73936 -3.08934 0
M  V30 1835 N 175.894 1.51508 0.433938 0
M  V30 1836 C 176.824 1.76016 1.53429 0
M  V30 1837 C 177.805 0.610112 1.58782 0
M  V30 1838 O 178.99 0.853177 1.74455 0
M  V30 1839 C 176.12 1.88831 2.9148 0
M  V30 1840 C 175.074 3.04288 3.00987 0
M  V30 1841 C 174.4 3.0229 4.4105 0
M  V30 1842 C 175.7 4.44193 2.74754 0
M  V30 1843 H 177.394 2.68152 1.33171 0
M  V30 1844 H 174.94 1.29035 0.639214 0
M  V30 1845 H 176.893 2.04559 3.6842 0
M  V30 1846 H 175.617 0.933455 3.12976 0
M  V30 1847 H 174.276 2.8827 2.26486 0
M  V30 1848 H 173.924 2.04576 4.59519 0
M  V30 1849 H 173.624 3.79822 4.4834 0
M  V30 1850 H 175.148 3.20116 5.1996 0
M  V30 1851 H 176.562 4.60544 3.41426 0
M  V30 1852 H 174.959 5.23457 2.9345 0
M  V30 1853 H 176.029 4.53996 1.70339 0
M  V30 1854 N 177.372 -0.689602 1.41712 0
M  V30 1855 C 178.335 -1.78521 1.43746 0
M  V30 1856 C 179.335 -1.57436 0.327191 0
M  V30 1857 O 180.525 -1.64 0.587348 0
M  V30 1858 C 177.657 -3.16971 1.25467 0
M  V30 1859 H 178.85 -1.78108 2.41283 0
M  V30 1860 H 176.403 -0.89781 1.27942 0
M  V30 1861 H 177.138 -3.23019 0.287948 0
M  V30 1862 H 176.923 -3.33678 2.05917 0
M  V30 1863 H 178.413 -3.96935 1.2974 0
M  V30 1864 N 178.85 -1.27639 -0.924453 0
M  V30 1865 C 179.76 -1.12466 -2.05885 0
M  V30 1866 C 180.776 -0.053869 -1.73917 0
M  V30 1867 O 181.952 -0.261012 -1.99702 0
M  V30 1868 C 179.017 -0.776768 -3.37886 0
M  V30 1869 C 178.078 -1.92878 -3.83532 0
M  V30 1870 C 177.311 -1.59739 -5.09234 0
M  V30 1871 O 177.534 -0.506782 -5.68144 0
M  V30 1872 O 176.468 -2.43761 -5.50331 0
M  V30 1873 H 180.294 -2.07671 -2.21599 0
M  V30 1874 H 177.879 -1.06857 -1.04413 0
M  V30 1875 H 179.761 -0.596229 -4.17161 0
M  V30 1876 H 178.436 0.145732 -3.23372 0
M  V30 1877 H 177.343 -2.1644 -3.0513 0
M  V30 1878 H 178.676 -2.8316 -4.02593 0
M  V30 1879 N 180.328 1.1314 -1.09713 0
M  V30 1880 C 181.276 2.20717 -0.733934 0
M  V30 1881 C 182.27 1.6729 0.266506 0
M  V30 1882 O 183.476 1.79547 0.127656 0
M  V30 1883 H 179.851 0.719292 -0.21937 0
M  V30 1884 H 181.822 2.48611 -1.6503 0
M  V30 1885 C 180.571 3.47265 -0.173849 0
M  V30 1886 H 179.894 3.88716 -0.934873 0
M  V30 1887 H 181.334 4.23979 0.0423126 0
M  V30 1888 C 179.793 3.18724 1.09164 0
M  V30 1889 O 180.323 3.37762 2.17439 0
M  V30 1890 N 178.529 2.72583 1.00732 0
M  V30 1891 H 178.076 2.57291 0.126121 0
M  V30 1892 H 178.034 2.53862 1.85476 0
M  V30 1893 N 181.806 0.884767 1.30421 0
M  V30 1894 C 182.756 0.322846 2.25703 0
M  V30 1895 C 183.74 -0.548582 1.51259 0
M  V30 1896 O 184.932 -0.39304 1.72581 0
M  V30 1897 C 182.061 -0.461787 3.4018 0
M  V30 1898 C 181.147 0.423717 4.21978 0
M  V30 1899 N 181.538 1.52408 4.82292 0
M  V30 1900 C 179.836 0.218795 4.45463 0
M  V30 1901 C 180.537 2.07136 5.43571 0
M  V30 1902 N 179.513 1.36635 5.26148 0
M  V30 1903 H 183.315 1.16363 2.69883 0
M  V30 1904 H 180.829 0.73415 1.44859 0
M  V30 1905 H 182.826 -0.880985 4.07485 0
M  V30 1906 H 181.486 -1.30001 2.9754 0
M  V30 1907 H 182.497 1.90693 4.81515 0
M  V30 1908 H 179.174 -0.582275 4.1342 0
M  V30 1909 H 180.564 2.99538 6.01437 0
M  V30 1910 N 183.284 -1.43765 0.645699 0
M  V30 1911 C 184.7 -1.56509 0.312591 0
M  V30 1912 C 184.9 -1.6307 -1.18365 0
M  V30 1913 O 183.956 -1.58167 -1.96824 0
M  V30 1914 C 185.269 -2.82968 1.01733 0
M  V30 1915 C 186.817 -2.96701 0.996865 0
M  V30 1916 C 187.292 -4.25982 1.68236 0
M  V30 1917 N 188.783 -4.32829 1.64964 0
M  V30 1918 C 189.518 -5.31613 2.14885 0
M  V30 1919 N 189.014 -6.36718 2.73061 0
M  V30 1920 N 190.807 -5.23217 2.05428 0
M  V30 1921 H 182.958 -1.3775 1.61675 0
M  V30 1922 H 185.221 -0.661067 0.679481 0
M  V30 1923 H 184.927 -2.84156 2.0724 0
M  V30 1924 H 184.801 -3.72957 0.564177 0
M  V30 1925 H 187.188 -2.95058 -0.0497719 0
M  V30 1926 H 187.269 -2.08022 1.48865 0
M  V30 1927 H 186.913 -4.28386 2.72852 0
M  V30 1928 H 186.843 -5.13545 1.16529 0
M  V30 1929 H 189.334 -3.57493 1.22503 0
M  V30 1930 H 189.647 -7.08401 3.08848 0
M  V30 1931 H 187.992 -6.37362 2.77118 0
M  V30 1932 H 191.183 -4.40019 1.59689 0
M  V30 1933 H 191.356 -6.00045 2.44643 0
M  V30 1934 N 184.763 -0.387143 -1.52771 0
M  V30 1935 C 185.71 0.449048 -2.26389 0
M  V30 1936 C 186.68 1.05961 -1.27912 0
M  V30 1937 O 187.865 1.08804 -1.56737 0
M  V30 1938 C 185.005 1.57155 -3.0724 0
M  V30 1939 C 184.118 0.984066 -4.20643 0
M  V30 1940 C 183.253 2.07745 -4.88892 0
M  V30 1941 C 182.292 1.46574 -5.94292 0
M  V30 1942 N 181.429 2.49834 -6.56146 0
M  V30 1943 H 186.269 -0.185205 -2.97424 0
M  V30 1944 H 183.806 -0.103164 -1.46738 0
M  V30 1945 H 185.764 2.23309 -3.52405 0
M  V30 1946 H 184.394 2.17615 -2.38419 0
M  V30 1947 H 183.446 0.212193 -3.79808 0
M  V30 1948 H 184.758 0.497029 -4.96318 0
M  V30 1949 H 183.912 2.81673 -5.3735 0
M  V30 1950 H 182.651 2.59807 -4.12737 0
M  V30 1951 H 181.656 0.711696 -5.45174 0
M  V30 1952 H 182.881 0.953088 -6.72379 0
M  V30 1953 H 180.827 3.0107 -5.82832 0
M  V30 1954 H 180.744 2.05879 -7.27427 0
M  V30 1955 H 182.012 3.23399 -7.09249 0
M  V30 1956 N 186.241 1.57166 -0.116904 0
M  V30 1957 C 187.174 2.10912 0.871291 0
M  V30 1958 C 188.152 1.025 1.26224 0
M  V30 1959 O 189.336 1.3014 1.36366 0
M  V30 1960 C 186.463 2.6041 2.16574 0
M  V30 1961 C 185.509 3.80687 1.92302 0
M  V30 1962 S 186.342 5.23199 1.14119 0
M  V30 1963 C 187.498 5.76064 2.44748 0
M  V30 1964 H 187.731 2.94401 0.414138 0
M  V30 1965 H 185.264 1.54096 0.096829 0
M  V30 1966 H 187.222 2.89583 2.9095 0
M  V30 1967 H 185.883 1.77106 2.59408 0
M  V30 1968 H 185.076 4.13462 2.8821 0
M  V30 1969 H 184.678 3.5212 1.26047 0
M  V30 1970 H 186.97 5.8566 3.406 0
M  V30 1971 H 187.913 6.74184 2.16521 0
M  V30 1972 H 188.321 5.04117 2.54019 0
M  V30 1973 N 187.719 -0.156864 1.56817 0
M  V30 1974 C 188.649 -1.19589 2.00551 0
M  V30 1975 C 189.63 -1.4536 0.883426 0
M  V30 1976 O 190.815 -1.56449 1.15054 0
M  V30 1977 C 187.945 -2.53143 2.37773 0
M  V30 1978 C 186.899 -2.41913 3.53075 0
M  V30 1979 C 186.225 -3.80088 3.76081 0
M  V30 1980 C 187.525 -1.91157 4.86062 0
M  V30 1981 H 189.219 -0.832293 2.87599 0
M  V30 1982 H 186.765 -0.398918 1.38364 0
M  V30 1983 H 188.718 -3.26047 2.66967 0
M  V30 1984 H 187.442 -2.91319 1.4765 0
M  V30 1985 H 186.101 -1.71462 3.24031 0
M  V30 1986 H 185.749 -4.15683 2.83225 0
M  V30 1987 H 185.449 -3.73439 4.53671 0
M  V30 1988 H 186.973 -4.54556 4.0769 0
M  V30 1989 H 188.387 -2.53846 5.14038 0
M  V30 1990 H 186.784 -1.95422 5.67389 0
M  V30 1991 H 187.854 -0.866673 4.77092 0
M  V30 1992 N 189.197 -1.51736 -0.425897 0
M  V30 1993 C 190.13 -1.68574 -1.53812 0
M  V30 1994 C 191.108 -0.53328 -1.53606 0
M  V30 1995 O 192.292 -0.758555 -1.72564 0
M  V30 1996 C 189.419 -1.70977 -2.92377 0
M  V30 1997 C 188.465 -2.92324 -3.10563 0
M  V30 1998 S 189.298 -4.52952 -2.85648 0
M  V30 1999 C 190.454 -4.58117 -4.26474 0
M  V30 2000 H 190.687 -2.62647 -1.39298 0
M  V30 2001 H 188.22 -1.41564 -0.616361 0
M  V30 2002 H 190.178 -1.73047 -3.72243 0
M  V30 2003 H 188.839 -0.78061 -3.04245 0
M  V30 2004 H 188.032 -2.90439 -4.11899 0
M  V30 2005 H 187.634 -2.88055 -2.38538 0
M  V30 2006 H 189.926 -4.34462 -5.19855 0
M  V30 2007 H 190.869 -5.59983 -4.33388 0
M  V30 2008 H 191.277 -3.8732 -4.10662 0
M  V30 2009 N 190.675 0.682077 -1.42076 0
M  V30 2010 C 191.638 1.77756 -1.44691 0
M  V30 2011 C 192.638 1.5726 -0.335535 0
M  V30 2012 O 193.828 1.63686 -0.596037 0
M  V30 2013 C 190.96 3.16301 -1.27146 0
M  V30 2014 H 192.153 1.76826 -2.42224 0
M  V30 2015 H 189.706 0.891012 -1.28416 0
M  V30 2016 H 190.441 3.22862 -0.305075 0
M  V30 2017 H 190.226 3.32581 -2.07683 0
M  V30 2018 H 191.716 3.96241 -1.31843 0
M  V30 2019 N 192.153 1.28127 0.917671 0
M  V30 2020 C 193.086 1.06039 2.02067 0
M  V30 2021 C 194.064 -0.0223285 1.62585 0
M  V30 2022 O 195.248 0.124823 1.88086 0
M  V30 2023 C 192.375 0.610596 3.33151 0
M  V30 2024 C 191.421 1.68937 3.91615 0
M  V30 2025 S 192.254 3.28437 4.22953 0
M  V30 2026 C 193.41 2.85283 5.57103 0
M  V30 2027 H 193.643 1.99425 2.20493 0
M  V30 2028 H 191.176 1.12071 1.06205 0
M  V30 2029 H 193.134 0.357778 4.08938 0
M  V30 2030 H 191.795 -0.303364 3.12632 0
M  V30 2031 H 190.988 1.32619 4.86239 0
M  V30 2032 H 190.59 1.89478 3.2245 0
M  V30 2033 H 192.882 2.3121 6.36827 0
M  V30 2034 H 193.825 3.7869 5.98331 0
M  V30 2035 H 194.233 2.24118 5.18104 0
M  V30 2036 N 193.631 -1.12557 1.10312 0
M  V30 2037 C 194.856 -1.88405 0.867085 0
M  V30 2038 C 195.281 -1.79038 -0.576817 0
M  V30 2039 O 194.639 -1.14439 -1.40618 0
M  V30 2040 C 194.687 -3.3563 1.31851 0
M  V30 2041 O 193.791 -4.09565 0.482734 0
M  V30 2042 H 193.132 -0.585455 0.313271 0
M  V30 2043 H 195.662 -1.42352 1.4696 0
M  V30 2044 H 195.672 -3.86469 1.3079 0
M  V30 2045 H 194.347 -3.41765 2.37001 0
M  V30 2046 H 192.924 -3.68695 0.558448 0
M  V30 2047 N 195.109 -0.891671 -1.2995 0
M  V30 2048 C 196.056 -0.361736 -2.27948 0
M  V30 2049 C 197.026 0.551761 -1.56668 0
M  V30 2050 O 198.211 0.478736 -1.84696 0
M  V30 2051 C 195.351 0.411825 -3.42634 0
M  V30 2052 C 194.464 -0.531651 -4.28716 0
M  V30 2053 C 193.599 0.258167 -5.30572 0
M  V30 2054 C 192.638 -0.680349 -6.08307 0
M  V30 2055 N 191.775 0.0745613 -7.0206 0
M  V30 2056 H 196.615 -1.20254 -2.72659 0
M  V30 2057 H 194.152 -0.604352 -1.34112 0
M  V30 2058 H 196.11 0.876304 -4.07893 0
M  V30 2059 H 194.74 1.21715 -2.98974 0
M  V30 2060 H 193.792 -1.11463 -3.63703 0
M  V30 2061 H 195.104 -1.25038 -4.82874 0
M  V30 2062 H 194.258 0.784204 -6.0161 0
M  V30 2063 H 192.997 1.01008 -4.77126 0
M  V30 2064 H 192.002 -1.21796 -5.3614 0
M  V30 2065 H 193.227 -1.43145 -6.63842 0
M  V30 2066 H 191.173 0.808883 -6.50994 0
M  V30 2067 H 191.09 -0.584409 -7.53738 0
M  V30 2068 H 192.358 0.581123 -7.77331 0
M  V30 2069 N 196.587 1.43421 -0.653314 0
M  V30 2070 C 197.864 1.95361 -0.0966581 0
M  V30 2071 C 198.244 1.59461 1.38331 0
M  V30 2072 O 197.592 0.879777 2.10884 0
M  V30 2073 C 197.802 3.47311 -0.342988 0
M  V30 2074 C 199.15 4.23875 -0.24798 0
M  V30 2075 O 200.174 3.55133 -0.275553 0
M  V30 2076 O 199.033 5.4623 -0.171771 0
M  V30 2077 H 196.127 0.826945 0.00956291 0
M  V30 2078 H 198.673 1.5336 -0.726558 0
M  V30 2079 H 197.445 3.66569 -1.36906 0
M  V30 2080 H 197.068 3.9631 0.319975 0
M  V30 2081 N 198.065 0.39524 1.52563 0
M  V30 2082 C 199.314 -0.186321 2.00838 0
M  V30 2083 C 199.627 -1.47402 1.28577 0
M  V30 2084 O 200.833 -2.13599 1.67593 0
M  V30 2085 C 199.289 -0.382595 3.57861 0
M  V30 2086 C 198.897 0.892202 4.39026 0
M  V30 2087 C 200.641 -0.9202 4.14406 0
M  V30 2088 C 198.548 0.66388 5.87662 0
M  V30 2089 H 197.478 -0.0734041 0.750418 0
M  V30 2090 H 200.129 0.518552 1.76021 0
M  V30 2091 H 198.511 -1.14946 3.7895 0
M  V30 2092 H 199.685 1.66414 4.29701 0
M  V30 2093 H 198 1.35519 3.9373 0
M  V30 2094 H 200.597 -1.10683 5.23119 0
M  V30 2095 H 200.94 -1.89096 3.70875 0
M  V30 2096 H 201.473 -0.212751 3.97231 0
M  V30 2097 H 198.212 1.6058 6.35527 0
M  V30 2098 H 197.732 -0.0690193 5.9976 0
M  V30 2099 H 199.411 0.300699 6.46301 0
M  V30 2100 N 199.544 -1.57102 0.125237 0
M  V30 2101 C 200.96 -1.57915 -0.231322 0
M  V30 2102 C 201.16 -1.13833 -1.66266 0
M  V30 2103 O 200.216 -0.828581 -2.38518 0
M  V30 2104 C 201.529 -3.00699 0.00766489 0
M  V30 2105 C 203.077 -3.12947 -0.0577483 0
M  V30 2106 C 203.552 -4.57742 0.153626 0
M  V30 2107 N 205.043 -4.63092 0.0998073 0
M  V30 2108 C 205.778 -5.72905 0.238174 0
M  V30 2109 N 205.274 -6.91445 0.433057 0
M  V30 2110 N 207.067 -5.6182 0.177308 0
M  V30 2111 H 199.218 -1.84055 1.06007 0
M  V30 2112 H 201.481 -0.850905 0.417929 0
M  V30 2113 H 201.187 -3.3726 0.997431 0
M  V30 2114 H 201.061 -3.70236 -0.721452 0
M  V30 2115 H 203.448 -2.7624 -1.03804 0
M  V30 2116 H 203.529 -2.4594 0.70335 0
M  V30 2117 H 203.173 -4.95149 1.13092 0
M  V30 2118 H 203.103 -5.22848 -0.627534 0
M  V30 2119 H 205.594 -3.77871 -0.047051 0
M  V30 2120 H 205.907 -7.70985 0.529332 0
M  V30 2121 H 204.252 -6.93415 0.469109 0
M  V30 2122 H 207.443 -4.68093 0.0259748 0
M  V30 2123 H 207.616 -6.47357 0.288582 0
M  V30 2124 N 201.022 0.148545 -1.56898 0
M  V30 2125 C 202.268 0.862694 -1.83536 0
M  V30 2126 C 202.601 1.80889 -0.706604 0
M  V30 2127 O 201.876 1.92328 0.289885 0
M  V30 2128 C 202.159 1.63853 -3.20662 0
M  V30 2129 C 202.012 0.713925 -4.44098 0
M  V30 2130 C 203.331 2.60133 -3.54991 0
M  V30 2131 H 200.45 0.312179 -0.667618 0
M  V30 2132 H 203.092 0.127953 -1.89569 0
M  V30 2133 H 201.242 2.26489 -3.1565 0
M  V30 2134 H 202.914 0.098686 -4.61194 0
M  V30 2135 H 201.157 0.0234019 -4.33794 0
M  V30 2136 H 201.828 1.29278 -5.36648 0
M  V30 2137 H 204.304 2.07616 -3.60603 0
M  V30 2138 H 203.18 3.11468 -4.51972 0
M  V30 2139 H 203.441 3.41417 -2.80868 0
M  V30 2140 N 202.5 1.5196 0.417844 0
M  V30 2141 C 203.749 1.6482 1.16264 0
M  V30 2142 C 204.062 0.379886 1.91876 0
M  V30 2143 O 205.268 0.388154 2.68711 0
M  V30 2144 C 203.724 2.91161 2.1155 0
M  V30 2145 C 203.332 4.25068 1.41495 0
M  V30 2146 C 205.076 3.13383 2.86341 0
M  V30 2147 C 202.983 5.42541 2.35379 0
M  V30 2148 H 201.913 0.613954 0.437694 0
M  V30 2149 H 204.564 1.78442 0.427871 0
M  V30 2150 H 202.946 2.71218 2.88543 0
M  V30 2151 H 204.12 4.55463 0.699263 0
M  V30 2152 H 202.435 4.0888 0.787792 0
M  V30 2153 H 205.032 3.98324 3.5671 0
M  V30 2154 H 205.375 2.27256 3.48798 0
M  V30 2155 H 205.908 3.33757 2.1645 0
M  V30 2156 H 202.647 6.30987 1.77582 0
M  V30 2157 H 202.167 5.16497 3.04945 0
M  V30 2158 H 203.846 5.75272 2.96093 0
M  V30 2159 N 203.978 -0.674533 1.42435 0
M  V30 2160 C 204.908 -1.80009 1.48724 0
M  V30 2161 C 205.889 -1.6659 0.343793 0
M  V30 2162 O 207.074 -1.86007 0.558137 0
M  V30 2163 C 204.204 -3.18306 1.38919 0
M  V30 2164 C 203.158 -3.46461 2.51294 0
M  V30 2165 C 202.484 -4.84335 2.26547 0
M  V30 2166 C 203.784 -3.43328 3.93603 0
M  V30 2167 H 205.478 -1.75004 2.42928 0
M  V30 2168 H 203.024 -0.840533 1.16923 0
M  V30 2169 H 204.977 -3.9678 1.41927 0
M  V30 2170 H 203.701 -3.2399 0.412094 0
M  V30 2171 H 202.36 -2.70348 2.47604 0
M  V30 2172 H 202.008 -4.86669 1.2713 0
M  V30 2173 H 201.708 -5.04136 3.01861 0
M  V30 2174 H 203.232 -5.65094 2.31304 0
M  V30 2175 H 204.646 -4.11772 3.98894 0
M  V30 2176 H 203.043 -3.74664 4.68771 0
M  V30 2177 H 204.113 -2.41897 4.20255 0
M  V30 2178 N 205.456 -1.28612 -0.910864 0
M  V30 2179 C 206.702 -1.16106 -1.66274 0
M  V30 2180 C 207.035 0.289113 -1.92036 0
M  V30 2181 O 206.31 1.21 -1.52281 0
M  V30 2182 C 206.593 -1.96309 -3.01885 0
M  V30 2183 C 206.446 -3.49405 -2.8326 0
M  V30 2184 C 207.765 -1.78076 -4.02463 0
M  V30 2185 H 204.884 -0.423152 -0.603417 0
M  V30 2186 H 207.526 -1.57961 -1.05586 0
M  V30 2187 H 205.676 -1.60742 -3.53687 0
M  V30 2188 H 207.348 -3.94894 -2.38446 0
M  V30 2189 H 205.591 -3.74893 -2.18261 0
M  V30 2190 H 206.262 -4.00784 -3.79574 0
M  V30 2191 H 208.738 -2.0912 -3.59733 0
M  V30 2192 H 207.614 -2.36561 -4.95308 0
M  V30 2193 H 207.875 -0.733008 -4.35981 0
M  V30 2194 N 206.934 1.1197 -1.10907 0
M  V30 2195 C 207.881 2.17846 -0.762345 0
M  V30 2196 C 208.851 1.63995 0.263599 0
M  V30 2197 O 210.036 1.90273 0.141773 0
M  V30 2198 C 207.176 3.44487 -0.205651 0
M  V30 2199 C 206.289 4.12369 -1.28748 0
M  V30 2200 C 205.424 5.26674 -0.691919 0
M  V30 2201 C 204.463 5.86431 -1.75399 0
M  V30 2202 N 203.6 6.92142 -1.17833 0
M  V30 2203 H 208.44 2.46851 -1.6694 0
M  V30 2204 H 205.977 1.21188 -0.833776 0
M  V30 2205 H 207.935 4.16981 0.135037 0
M  V30 2206 H 206.565 3.15884 0.664613 0
M  V30 2207 H 205.617 3.38003 -1.74522 0
M  V30 2208 H 206.929 4.52844 -2.09125 0
M  V30 2209 H 206.083 6.05953 -0.300963 0
M  V30 2210 H 204.822 4.8749 0.143232 0
M  V30 2211 H 203.827 5.05835 -2.15432 0
M  V30 2212 H 205.052 6.27685 -2.59208 0
M  V30 2213 H 202.998 6.54985 -0.364725 0
M  V30 2214 H 202.915 7.31242 -1.91887 0
M  V30 2215 H 204.183 7.75237 -0.81408 0
M  V30 2216 N 208.412 0.89855 1.29475 0
M  V30 2217 C 209.342 0.39201 2.30186 0
M  V30 2218 C 210.323 -0.532359 1.61555 0
M  V30 2219 O 211.508 -0.443331 1.89072 0
M  V30 2220 C 208.638 -0.382353 3.45189 0
M  V30 2221 C 207.592 0.451483 4.25612 0
M  V30 2222 C 206.918 -0.450307 5.328 0
M  V30 2223 C 208.218 1.70079 4.93832 0
M  V30 2224 H 209.912 1.23362 2.72804 0
M  V30 2225 H 207.458 0.594638 1.31149 0
M  V30 2226 H 209.411 -0.747451 4.14718 0
M  V30 2227 H 208.135 -1.25774 3.01411 0
M  V30 2228 H 206.794 0.798897 3.57789 0
M  V30 2229 H 206.442 -1.32379 4.85268 0
M  V30 2230 H 206.142 0.103902 5.87508 0
M  V30 2231 H 207.666 -0.811623 6.05182 0
M  V30 2232 H 209.08 1.40549 5.55805 0
M  V30 2233 H 207.477 2.19623 5.58467 0
M  V30 2234 H 208.547 2.43744 4.19186 0
M  V30 2235 N 209.89 -1.43072 0.660911 0
M  V30 2236 C 210.853 -2.29194 -0.0166406 0
M  V30 2237 C 211.853 -1.42609 -0.742912 0
M  V30 2238 O 213.043 -1.64155 -0.583004 0
M  V30 2239 C 210.175 -3.24831 -1.0343 0
M  V30 2240 H 211.368 -2.90596 0.741208 0
M  V30 2241 H 208.921 -1.5048 0.422532 0
M  V30 2242 H 209.656 -2.68339 -1.82111 0
M  V30 2243 H 209.441 -3.88676 -0.517082 0
M  V30 2244 H 210.931 -3.89451 -1.50723 0
M  V30 2245 N 211.368 -0.403325 -1.52352 0
M  V30 2246 C 212.645 0.232611 -1.94212 0
M  V30 2247 C 213.025 1.63133 -1.33981 0
M  V30 2248 O 212.373 2.22659 -0.513344 0
M  V30 2249 C 212.583 0.244811 -3.4814 0
M  V30 2250 C 213.931 0.46698 -4.22024 0
M  V30 2251 O 214.955 0.324419 -3.5472 0
M  V30 2252 O 213.814 0.74747 -5.41364 0
M  V30 2253 H 210.908 0.148223 -0.813609 0
M  V30 2254 H 213.454 -0.458848 -1.63379 0
M  V30 2255 H 212.226 -0.734378 -3.84347 0
M  V30 2256 H 211.849 0.980611 -3.85318 0
M  V30 2257 N 212.846 1.57033 -0.133567 0
M  V30 2258 C 214.262 1.58035 0.222944 0
M  V30 2259 C 214.462 1.14713 1.6566 0
M  V30 2260 O 213.518 0.841218 2.38075 0
M  V30 2261 C 214.831 3.00691 -0.0236116 0
M  V30 2262 C 216.379 3.12973 0.0411512 0
M  V30 2263 C 216.854 4.57654 -0.177899 0
M  V30 2264 N 218.345 4.63033 -0.124365 0
M  V30 2265 C 219.08 5.72771 -0.268553 0
M  V30 2266 N 218.576 6.91206 -0.46972 0
M  V30 2267 N 220.369 5.61718 -0.2071 0
M  V30 2268 H 212.52 1.8349 -1.06981 0
M  V30 2269 H 214.783 0.848677 -0.422436 0
M  V30 2270 H 214.489 3.36726 -1.0153 0
M  V30 2271 H 214.363 3.70614 0.701808 0
M  V30 2272 H 216.75 2.76787 1.02338 0
M  V30 2273 H 216.831 2.45564 -0.716383 0
M  V30 2274 H 216.475 4.94542 -1.15717 0
M  V30 2275 H 216.405 5.23173 0.599797 0
M  V30 2276 H 218.896 3.7789 0.027011 0
M  V30 2277 H 219.209 7.70693 -0.570212 0
M  V30 2278 H 217.554 6.93156 -0.505876 0
M  V30 2279 H 220.745 4.68072 -0.0507986 0
M  V30 2280 H 220.918 6.47195 -0.322909 0
M  V30 2281 N 214.325 -0.140222 1.56975 0
M  V30 2282 C 215.255 -1.17456 2.01808 0
M  V30 2283 C 216.236 -1.44415 0.898794 0
M  V30 2284 O 217.421 -1.5522 1.16707 0
M  V30 2285 C 214.551 -2.50607 2.40444 0
M  V30 2286 C 213.505 -2.38155 3.55621 0
M  V30 2287 C 212.831 -3.76078 3.80091 0
M  V30 2288 C 214.131 -1.85991 4.88062 0
M  V30 2289 H 215.825 -0.801743 2.88466 0
M  V30 2290 H 213.371 -0.38422 1.38779 0
M  V30 2291 H 215.324 -3.23197 2.7041 0
M  V30 2292 H 214.048 -2.89737 1.50732 0
M  V30 2293 H 212.707 -1.68016 3.25832 0
M  V30 2294 H 212.355 -4.12656 2.87618 0
M  V30 2295 H 212.055 -3.68606 4.57606 0
M  V30 2296 H 213.579 -4.50206 4.12488 0
M  V30 2297 H 214.993 -2.4838 5.16701 0
M  V30 2298 H 213.39 -1.89393 5.6943 0
M  V30 2299 H 214.46 -0.816023 4.77984 0
M  V30 2300 N 215.803 -1.52179 -0.40978 0
M  V30 2301 C 216.753 -1.71857 -1.49831 0
M  V30 2302 C 217.737 -0.572469 -1.50372 0
M  V30 2303 O 218.929 -0.829509 -1.56359 0
M  V30 2304 C 216.058 -1.87206 -2.87765 0
M  V30 2305 C 215.144 -3.07685 -2.91875 0
M  V30 2306 N 215.535 -4.30403 -2.65683 0
M  V30 2307 C 213.833 -3.07505 -3.23043 0
M  V30 2308 C 214.534 -5.11868 -2.76344 0
M  V30 2309 N 213.51 -4.47101 -3.09195 0
M  V30 2310 H 217.312 -2.64381 -1.28375 0
M  V30 2311 H 214.826 -1.50203 -0.617479 0
M  V30 2312 H 216.823 -1.99419 -3.66111 0
M  V30 2313 H 215.483 -0.958814 -3.10221 0
M  V30 2314 H 216.494 -4.58887 -2.4009 0
M  V30 2315 H 213.171 -2.25915 -3.51096 0
M  V30 2316 H 214.561 -6.19634 -2.59814 0
M  V30 2317 N 217.281 0.66697 -1.42791 0
M  V30 2318 C 218.229 1.80157 -1.47127 0
M  V30 2319 C 219.223 1.65825 -0.346199 0
M  V30 2320 O 220.429 1.72338 -0.519572 0
M  V30 2321 H 216.804 0.594158 -0.460956 0
M  V30 2322 H 218.775 1.73619 -2.42692 0
M  V30 2323 C 217.524 3.18351 -1.39813 0
M  V30 2324 H 216.847 3.3001 -2.25684 0
M  V30 2325 H 218.287 3.97736 -1.46908 0
M  V30 2326 C 216.746 3.36707 -0.11391 0
M  V30 2327 O 217.276 3.93027 0.830241 0
M  V30 2328 N 215.482 2.90586 -0.0285295 0
M  V30 2329 H 215.029 2.4494 -0.79764 0
M  V30 2330 H 214.987 3.03245 0.830063 0
M  V30 2331 N 218.759 1.29093 0.90403 0
M  V30 2332 C 219.692 1.08176 2.00931 0
M  V30 2333 C 220.67 -0.005083 1.62599 0
M  V30 2334 O 221.854 0.144765 1.87943 0
M  V30 2335 C 218.981 0.645897 3.32484 0
M  V30 2336 C 218.027 1.73081 3.89801 0
M  V30 2337 S 218.86 3.32905 4.19446 0
M  V30 2338 C 220.016 2.91176 5.54046 0
M  V30 2339 H 220.249 2.01752 2.18365 0
M  V30 2340 H 217.782 1.13191 1.0501 0
M  V30 2341 H 219.74 0.401131 4.08535 0
M  V30 2342 H 218.401 -0.270188 3.12936 0
M  V30 2343 H 217.594 1.37768 4.84805 0
M  V30 2344 H 217.196 1.92888 3.20422 0
M  V30 2345 H 219.488 2.37952 6.34338 0
M  V30 2346 H 220.431 3.85014 5.94281 0
M  V30 2347 H 220.839 2.296 5.15698 0
M  V30 2348 N 220.237 -1.11381 1.11499 0
M  V30 2349 C 221.653 -1.35143 0.849031 0
M  V30 2350 C 221.853 -1.94515 -0.525938 0
M  V30 2351 O 220.909 -2.1785 -1.27662 0
M  V30 2352 C 222.222 -2.28249 1.95762 0
M  V30 2353 C 223.77 -2.41812 1.98736 0
M  V30 2354 C 224.245 -3.3824 3.088 0
M  V30 2355 N 225.736 -3.45803 3.08179 0
M  V30 2356 C 226.471 -4.20358 3.89982 0
M  V30 2357 N 225.967 -4.97884 4.8175 0
M  V30 2358 N 227.76 -4.15877 3.78157 0
M  V30 2359 H 219.911 -0.712062 2.00109 0
M  V30 2360 H 222.174 -0.376025 0.870235 0
M  V30 2361 H 221.88 -1.91817 2.94787 0
M  V30 2362 H 221.754 -3.28473 1.85433 0
M  V30 2363 H 224.141 -2.77518 1.00338 0
M  V30 2364 H 224.222 -1.41437 2.13141 0
M  V30 2365 H 223.866 -3.03261 4.07425 0
M  V30 2366 H 223.796 -4.38471 2.91635 0
M  V30 2367 H 226.287 -2.90506 2.41691 0
M  V30 2368 H 226.6 -5.52142 5.40702 0
M  V30 2369 H 224.945 -4.97043 4.85771 0
M  V30 2370 H 228.136 -3.544 3.05808 0
M  V30 2371 H 228.309 -4.73723 4.42143 0
M  V30 2372 N 221.715 -0.905404 -1.28997 0
M  V30 2373 C 222.943 -0.549846 -1.9946 0
M  V30 2374 C 223.358 0.866834 -1.67724 0
M  V30 2375 O 222.715 1.57298 -0.925404 0
M  V30 2376 C 222.766 -0.739387 -3.53858 0
M  V30 2377 O 222.487 -2.10031 -3.84472 0
M  V30 2378 C 223.988 -0.389541 -4.41585 0
M  V30 2379 H 221.208 -0.210429 -0.637151 0
M  V30 2380 H 223.752 -1.21632 -1.64396 0
M  V30 2381 H 221.907 -0.120023 -3.87214 0
M  V30 2382 H 222.321 -2.13385 -4.79132 0
M  V30 2383 H 223.795 -0.572972 -5.49018 0
M  V30 2384 H 224.272 0.673756 -4.34001 0
M  V30 2385 H 224.878 -0.986089 -4.1371 0
M  V30 2386 N 223.193 1.4272 -0.668489 0
M  V30 2387 C 224.123 2.335 -0.000100175 0
M  V30 2388 C 225.104 1.50328 0.795964 0
M  V30 2389 O 226.289 1.78949 0.754385 0
M  V30 2390 C 223.419 3.33874 0.956302 0
M  V30 2391 C 222.373 4.27152 0.269278 0
M  V30 2392 C 221.699 5.17684 1.33818 0
M  V30 2393 C 222.999 5.15373 -0.847805 0
M  V30 2394 H 224.693 2.89639 -0.758244 0
M  V30 2395 H 222.239 1.39269 -0.366079 0
M  V30 2396 H 224.192 3.9629 1.43292 0
M  V30 2397 H 222.916 2.76025 1.74579 0
M  V30 2398 H 221.575 3.66123 -0.187042 0
M  V30 2399 H 221.223 4.56165 2.1195 0
M  V30 2400 H 220.923 5.80918 0.883659 0
M  V30 2401 H 222.447 5.82974 1.81586 0
M  V30 2402 H 223.861 5.7151 -0.452681 0
M  V30 2403 H 222.258 5.87407 -1.22773 0
M  V30 2404 H 223.328 4.5415 -1.69929 0
M  V30 2405 N 224.671 0.411399 1.52136 0
M  V30 2406 C 225.618 -0.412975 2.27075 0
M  V30 2407 C 226.588 -1.03912 1.29582 0
M  V30 2408 O 227.773 -1.06296 1.58448 0
M  V30 2409 C 224.913 -1.52247 3.09701 0
M  V30 2410 C 224.026 -0.917021 4.22155 0
M  V30 2411 C 223.161 -1.9994 4.92135 0
M  V30 2412 C 222.2 -1.37101 5.96548 0
M  V30 2413 N 221.337 -2.39364 6.60038 0
M  V30 2414 H 226.177 0.232499 2.97092 0
M  V30 2415 H 223.714 0.126496 1.46555 0
M  V30 2416 H 225.672 -2.17674 3.55913 0
M  V30 2417 H 224.302 -2.13794 2.41851 0
M  V30 2418 H 223.354 -0.151742 3.80097 0
M  V30 2419 H 224.666 -0.418006 4.97045 0
M  V30 2420 H 223.82 -2.73088 5.41763 0
M  V30 2421 H 222.559 -2.53208 4.16818 0
M  V30 2422 H 221.564 -0.624873 5.46237 0
M  V30 2423 H 222.789 -0.845998 6.7381 0
M  V30 2424 H 220.735 -2.91759 5.87548 0
M  V30 2425 H 220.652 -1.9428 7.3061 0
M  V30 2426 H 221.92 -3.12074 7.14304 0
M  V30 2427 N 226.149 -1.5696 0.141893 0
M  V30 2428 C 227.099 -2.13074 -0.811383 0
M  V30 2429 C 228.083 -1.05726 -1.21288 0
M  V30 2430 O 229.275 -1.31914 -1.18015 0
M  V30 2431 C 226.404 -2.75186 -2.0525 0
M  V30 2432 C 225.49 -3.8965 -1.67432 0
M  V30 2433 N 225.881 -4.95733 -1.0041 0
M  V30 2434 C 224.179 -4.00262 -1.96739 0
M  V30 2435 C 224.88 -5.75858 -0.822345 0
M  V30 2436 N 223.856 -5.26452 -1.3546 0
M  V30 2437 H 227.658 -2.92465 -0.290031 0
M  V30 2438 H 225.172 -1.6229 -0.0598218 0
M  V30 2439 H 227.169 -3.13745 -2.74535 0
M  V30 2440 H 225.829 -1.97266 -2.57907 0
M  V30 2441 H 226.84 -5.13607 -0.665441 0
M  V30 2442 H 223.517 -3.33412 -2.51282 0
M  V30 2443 H 224.907 -6.71254 -0.294496 0
M  V30 2444 N 227.627 0.131896 -1.57047 0
M  V30 2445 C 228.557 1.16384 -2.02428 0
M  V30 2446 C 229.538 1.43936 -0.90644 0
M  V30 2447 O 230.723 1.54599 -1.17528 0
M  V30 2448 C 227.853 2.49328 -2.4177 0
M  V30 2449 C 226.807 2.36266 -3.56879 0
M  V30 2450 C 226.133 3.74057 -3.8208 0
M  V30 2451 C 227.433 1.834 -4.89042 0
M  V30 2452 H 229.127 0.786433 -2.88887 0
M  V30 2453 H 226.673 0.376855 -1.38981 0
M  V30 2454 H 228.626 3.21759 -2.7212 0
M  V30 2455 H 227.35 2.88934 -1.52266 0
M  V30 2456 H 226.009 1.66286 -3.26718 0
M  V30 2457 H 225.657 4.11125 -2.89803 0
M  V30 2458 H 225.357 3.66174 -4.59554 0
M  V30 2459 H 226.881 4.48012 -4.1487 0
M  V30 2460 H 228.295 2.45636 -5.18011 0
M  V30 2461 H 226.692 1.8637 -5.70426 0
M  V30 2462 H 227.762 0.790662 -4.7841 0
M  V30 2463 N 229.106 1.52395 0.401703 0
M  V30 2464 C 230.522 1.41363 0.740864 0
M  V30 2465 C 230.722 0.523982 1.94568 0
M  V30 2466 O 229.778 -0.00741204 2.52499 0
M  V30 2467 C 231.091 2.84011 0.987847 0
M  V30 2468 C 232.639 2.93404 1.09011 0
M  V30 2469 C 233.114 4.37036 1.3698 0
M  V30 2470 N 234.605 4.40304 1.43829 0
M  V30 2471 C 235.34 5.48508 1.67112 0
M  V30 2472 N 234.836 6.66819 1.87949 0
M  V30 2473 N 236.629 5.36034 1.69187 0
M  V30 2474 H 228.78 2.08765 -0.391262 0
M  V30 2475 H 231.043 0.941265 -0.112798 0
M  V30 2476 H 230.749 3.51265 0.174835 0
M  V30 2477 H 230.623 3.25502 1.906 0
M  V30 2478 H 233.01 2.26325 1.8937 0
M  V30 2479 H 233.091 2.55359 0.15015 0
M  V30 2480 H 232.735 5.04676 0.571353 0
M  V30 2481 H 232.665 4.72623 2.3224 0
M  V30 2482 H 235.156 3.55024 1.29486 0
M  V30 2483 H 235.469 7.45063 2.05185 0
M  V30 2484 H 233.814 6.6987 1.85199 0
M  V30 2485 H 237.005 4.42579 1.52451 0
M  V30 2486 H 237.178 6.20434 1.86993 0
M  V30 2487 N 230.584 -0.659388 1.43143 0
M  V30 2488 C 231.531 -1.77249 1.47822 0
M  V30 2489 C 232.501 -1.62818 0.328558 0
M  V30 2490 O 233.686 -1.83151 0.534838 0
M  V30 2491 C 230.826 -3.15371 1.40126 0
M  V30 2492 C 229.939 -3.4098 2.65249 0
M  V30 2493 C 229.074 -4.68915 2.49584 0
M  V30 2494 C 228.113 -4.87608 3.70006 0
M  V30 2495 N 227.25 -6.06796 3.53189 0
M  V30 2496 H 232.09 -1.72584 2.42938 0
M  V30 2497 H 229.627 -0.842297 1.20598 0
M  V30 2498 H 231.585 -3.9521 1.33659 0
M  V30 2499 H 230.215 -3.19121 0.485964 0
M  V30 2500 H 229.267 -2.55282 2.8202 0
M  V30 2501 H 230.579 -3.50681 3.54717 0
M  V30 2502 H 229.733 -5.56871 2.4079 0
M  V30 2503 H 228.472 -4.61524 1.5763 0
M  V30 2504 H 227.477 -3.9809 3.79215 0
M  V30 2505 H 228.702 -4.96834 4.62961 0
M  V30 2506 H 226.648 -6.00549 2.63965 0
M  V30 2507 H 226.565 -6.17428 4.36255 0
M  V30 2508 H 227.833 -6.9739 3.48236 0
M  V30 2509 N 232.062 -1.29571 -0.897171 0
M  V30 2510 C 233.339 -1.08365 -1.62839 0
M  V30 2511 C 233.719 0.371331 -2.07808 0
M  V30 2512 O 233.067 1.3606 -1.83576 0
M  V30 2513 C 233.277 -2.0735 -2.80726 0
M  V30 2514 C 234.625 -2.38406 -3.51351 0
M  V30 2515 O 235.649 -2.05564 -2.90898 0
M  V30 2516 O 234.508 -2.9453 -4.60341 0
M  V30 2517 H 231.602 -0.415345 -0.715134 0
M  V30 2518 H 234.148 -1.40952 -0.945018 0
M  V30 2519 H 232.92 -3.05339 -2.44711 0
M  V30 2520 H 232.543 -1.75507 -3.56767 0
M  V30 2521 N 233.54 1.10788 -1.12088 0
M  V30 2522 C 234.487 2.17025 -0.785407 0
M  V30 2523 C 235.457 1.64265 0.246191 0
M  V30 2524 O 236.642 1.90412 0.121584 0
M  V30 2525 C 233.782 3.44249 -0.242177 0
M  V30 2526 C 232.895 4.1098 -1.33115 0
M  V30 2527 C 232.03 5.25911 -0.747741 0
M  V30 2528 C 231.069 5.84538 -1.81609 0
M  V30 2529 N 230.206 6.90853 -1.25167 0
M  V30 2530 H 235.046 2.45066 -1.69548 0
M  V30 2531 H 232.583 1.20297 -0.846582 0
M  V30 2532 H 234.541 4.17101 0.0908026 0
M  V30 2533 H 233.171 3.16571 0.631072 0
M  V30 2534 H 232.223 3.36133 -1.78097 0
M  V30 2535 H 233.535 4.50601 -2.13917 0
M  V30 2536 H 232.689 6.056 -0.365216 0
M  V30 2537 H 231.428 4.87614 0.0915188 0
M  V30 2538 H 230.433 5.03522 -2.20785 0
M  V30 2539 H 231.658 6.249 -2.6585 0
M  V30 2540 H 229.604 6.54562 -0.434174 0
M  V30 2541 H 229.521 7.29166 -1.99633 0
M  V30 2542 H 230.789 7.7433 -0.896259 0
M  V30 2543 N 235.018 0.912232 1.28515 0
M  V30 2544 C 235.95 0.35676 2.26406 0
M  V30 2545 C 236.963 -0.503933 1.54804 0
M  V30 2546 O 238.152 -0.319059 1.75625 0
M  V30 2547 C 235.252 -0.508825 3.35058 0
M  V30 2548 C 234.425 0.329007 4.36161 0
M  V30 2549 C 233.484 -0.471422 5.24084 0
M  V30 2550 O 232.51 0.115482 5.69083 0
M  V30 2551 N 233.712 -1.77479 5.52704 0
M  V30 2552 H 236.477 1.19818 2.74707 0
M  V30 2553 H 234.038 0.778022 1.4198 0
M  V30 2554 H 236.03 -1.051 3.90815 0
M  V30 2555 H 234.6 -1.25095 2.86478 0
M  V30 2556 H 233.82 1.05256 3.79888 0
M  V30 2557 H 235.108 0.90234 5.00735 0
M  V30 2558 H 234.506 -2.27417 5.17975 0
M  V30 2559 H 233.063 -2.26382 6.11224 0
M  V30 2560 N 236.496 -1.42363 0.676048 0
M  V30 2561 C 237.406 -2.346 -0.00153389 0
M  V30 2562 C 238.422 -1.5516 -0.787485 0
M  V30 2563 O 239.598 -1.87723 -0.729521 0
M  V30 2564 C 236.663 -3.33705 -0.940298 0
M  V30 2565 C 235.724 -4.29042 -0.148739 0
M  V30 2566 C 234.957 -5.23413 -1.04279 0
M  V30 2567 O 235.18 -5.22749 -2.28232 0
M  V30 2568 O 234.114 -5.99795 -0.502925 0
M  V30 2569 H 237.94 -2.94082 0.758268 0
M  V30 2570 H 235.525 -1.42888 0.436289 0
M  V30 2571 H 237.407 -3.94586 -1.47917 0
M  V30 2572 H 236.082 -2.76695 -1.67993 0
M  V30 2573 H 234.989 -3.71571 0.43427 0
M  V30 2574 H 236.322 -4.89097 0.551805 0
M  V30 2575 N 237.974 -0.419461 -1.51915 0
M  V30 2576 C 239.39 -0.0708431 -1.59443 0
M  V30 2577 C 239.59 1.41796 -1.43164 0
M  V30 2578 O 238.646 2.18596 -1.26381 0
M  V30 2579 C 239.959 -0.574991 -2.95151 0
M  V30 2580 C 241.507 -0.533867 -3.08413 0
M  V30 2581 C 241.982 -1.01469 -4.46618 0
M  V30 2582 N 243.473 -0.971939 -4.52888 0
M  V30 2583 C 244.208 -1.31505 -5.58116 0
M  V30 2584 N 243.704 -1.73014 -6.70849 0
M  V30 2585 N 245.497 -1.23436 -5.48379 0
M  V30 2586 H 237.648 -1.38836 -1.60743 0
M  V30 2587 H 239.911 -0.570998 -0.756747 0
M  V30 2588 H 239.617 -1.61597 -3.12377 0
M  V30 2589 H 239.491 0.00979777 -3.77199 0
M  V30 2590 H 241.878 0.498086 -2.90866 0
M  V30 2591 H 241.959 -1.15484 -2.28248 0
M  V30 2592 H 241.603 -2.04502 -4.6491 0
M  V30 2593 H 241.533 -0.370433 -5.25295 0
M  V30 2594 H 244.024 -0.666893 -3.71969 0
M  V30 2595 H 244.337 -1.97479 -7.47143 0
M  V30 2596 H 242.682 -1.76926 -6.72103 0
M  V30 2597 H 245.873 -0.908869 -4.59192 0
M  V30 2598 H 246.046 -1.50506 -6.30279 0
M  V30 2599 N 239.452 1.56882 -0.150215 0
M  V30 2600 C 240.701 1.95403 0.500071 0
M  V30 2601 C 241.014 1.03777 1.658 0
M  V30 2602 O 242.22 1.31889 2.37313 0
M  V30 2603 C 240.676 3.4738 0.941018 0
M  V30 2604 C 240.284 4.47596 -0.190158 0
M  V30 2605 C 242.028 3.9476 1.56091 0
M  V30 2606 C 239.935 5.90787 0.269237 0
M  V30 2607 H 238.865 0.729515 0.190588 0
M  V30 2608 H 241.516 1.81988 -0.235074 0
M  V30 2609 H 239.898 3.56138 1.73152 0
M  V30 2610 H 241.072 4.50536 -0.967157 0
M  V30 2611 H 239.387 4.10151 -0.718666 0
M  V30 2612 H 241.984 4.99181 1.9163 0
M  V30 2613 H 242.327 3.36494 2.45107 0
M  V30 2614 H 242.86 3.88932 0.835249 0
M  V30 2615 H 239.599 6.52879 -0.585621 0
M  V30 2616 H 239.119 5.912 1.01204 0
M  V30 2617 H 240.798 6.42979 0.720176 0
M  V30 2618 N 240.93 -0.123565 1.57115 0
M  V30 2619 C 242.155 -0.850398 1.89164 0
M  V30 2620 C 242.58 -1.7286 0.741688 0
M  V30 2621 O 241.938 -1.78665 -0.307958 0
M  V30 2622 C 241.986 -1.66353 3.19936 0
M  V30 2623 O 241.09 -2.77004 3.0552 0
M  V30 2624 H 240.431 -0.235454 0.620852 0
M  V30 2625 H 242.961 -0.107335 2.04318 0
M  V30 2626 H 242.971 -2.05372 3.52543 0
M  V30 2627 H 241.646 -1.01881 4.03228 0
M  V30 2628 H 240.223 -2.41221 2.84371 0
M  V30 2629 N 242.408 -1.52605 -0.393616 0
M  V30 2630 C 243.824 -1.41753 -0.733357 0
M  V30 2631 C 244.024 -0.534293 -1.94287 0
M  V30 2632 O 243.08 -0.0059787 -2.52499 0
M  V30 2633 C 244.393 -2.84531 -0.972772 0
M  V30 2634 C 245.941 -2.93978 -1.07453 0
M  V30 2635 C 246.416 -4.37756 -1.3466 0
M  V30 2636 N 247.907 -4.4106 -1.41492 0
M  V30 2637 C 248.642 -5.49387 -1.642 0
M  V30 2638 N 248.138 -6.67806 -1.8441 0
M  V30 2639 N 249.931 -5.36923 -1.66342 0
M  V30 2640 H 242.082 -2.08555 0.402328 0
M  V30 2641 H 244.345 -0.940654 0.117789 0
M  V30 2642 H 244.051 -3.51353 -0.156204 0
M  V30 2643 H 243.925 -3.26508 -1.88871 0
M  V30 2644 H 246.312 -2.27326 -1.88167 0
M  V30 2645 H 246.393 -2.55435 -0.136605 0
M  V30 2646 H 246.037 -5.04972 -0.544581 0
M  V30 2647 H 245.967 -4.73848 -2.2973 0
M  V30 2648 H 248.458 -3.55705 -1.27601 0
M  V30 2649 H 248.771 -7.46141 -2.01231 0
M  V30 2650 H 247.116 -6.70843 -1.81644 0
M  V30 2651 H 250.307 -4.43381 -1.50102 0
M  V30 2652 H 250.48 -6.21416 -1.837 0
M  V30 2653 N 243.887 0.651787 -1.4349 0
M  V30 2654 C 244.797 1.79368 -1.5121 0
M  V30 2655 C 245.813 1.69361 -0.399093 0
M  V30 2656 O 246.989 1.90505 -0.653431 0
M  V30 2657 C 244.054 3.15653 -1.43401 0
M  V30 2658 C 243.115 3.37446 -2.65384 0
M  V30 2659 C 242.348 4.67229 -2.57939 0
M  V30 2660 O 242.571 5.46676 -1.62792 0
M  V30 2661 O 241.505 4.90773 -3.48462 0
M  V30 2662 H 245.331 1.7581 -2.47638 0
M  V30 2663 H 242.916 0.810447 -1.25507 0
M  V30 2664 H 244.798 3.96935 -1.41494 0
M  V30 2665 H 243.473 3.19798 -0.501085 0
M  V30 2666 H 242.38 2.55923 -2.72863 0
M  V30 2667 H 243.713 3.38148 -3.57654 0
M  V30 2668 N 245.365 1.30045 0.890287 0
M  V30 2669 C 246.593 1.21472 1.67487 0
M  V30 2670 C 247.008 -0.223241 1.87476 0
M  V30 2671 O 246.365 -1.14828 1.41847 0
M  V30 2672 C 246.416 1.93394 3.05419 0
M  V30 2673 O 246.137 3.31576 2.86337 0
M  V30 2674 C 247.638 1.91414 3.99844 0
M  V30 2675 H 244.858 0.420604 0.522813 0
M  V30 2676 H 247.402 1.7158 1.11268 0
M  V30 2677 H 245.557 1.47099 3.58386 0
M  V30 2678 H 245.971 3.67929 3.73802 0
M  V30 2679 H 247.445 2.46285 4.94012 0
M  V30 2680 H 247.922 0.891833 4.3005 0
M  V30 2681 H 248.528 2.37496 3.52811 0
M  V30 2682 N 246.843 -1.10192 1.12674 0
M  V30 2683 C 247.776 -2.15847 0.740625 0
M  V30 2684 C 248.754 -1.60352 -0.269421 0
M  V30 2685 O 249.938 -1.87796 -0.16278 0
M  V30 2686 C 247.065 -3.38562 0.096641 0
M  V30 2687 C 246.111 -4.12758 1.07391 0
M  V30 2688 S 246.944 -4.67997 2.60267 0
M  V30 2689 C 248.1 -5.94021 1.97206 0
M  V30 2690 H 248.333 -2.48266 1.63558 0
M  V30 2691 H 245.866 -1.22019 0.946087 0
M  V30 2692 H 247.824 -4.09621 -0.268535 0
M  V30 2693 H 246.485 -3.04377 -0.775462 0
M  V30 2694 H 245.678 -5.00755 0.570997 0
M  V30 2695 H 245.28 -3.47523 1.38216 0
M  V30 2696 H 247.572 -6.64589 1.31634 0
M  V30 2697 H 248.515 -6.48979 2.83253 0
M  V30 2698 H 248.923 -5.46169 1.42686 0
M  V30 2699 N 248.321 -0.919034 -1.28029 0
M  V30 2700 C 249.231 -0.416756 -2.30869 0
M  V30 2701 C 250.247 0.498235 -1.66714 0
M  V30 2702 O 251.423 0.383144 -1.97722 0
M  V30 2703 C 248.488 0.330274 -3.45123 0
M  V30 2704 C 247.549 -0.618578 -4.2482 0
M  V30 2705 C 246.782 0.0928959 -5.33619 0
M  V30 2706 O 247.005 1.31375 -5.55065 0
M  V30 2707 O 245.939 -0.574499 -5.99152 0
M  V30 2708 H 249.765 -1.27043 -2.75851 0
M  V30 2709 H 247.35 -0.684052 -1.3282 0
M  V30 2710 H 249.232 0.751972 -4.14636 0
M  V30 2711 H 247.907 1.1597 -3.02213 0
M  V30 2712 H 246.814 -1.08978 -3.57875 0
M  V30 2713 H 248.147 -1.41497 -4.71423 0
M  V30 2714 N 249.799 1.42003 -0.683588 0
M  V30 2715 C 251.048 2.00638 -0.206681 0
M  V30 2716 C 251.361 1.5472 1.19671 0
M  V30 2717 O 252.567 2.05833 1.77045 0
M  V30 2718 C 251.023 3.58487 -0.318632 0
M  V30 2719 C 250.631 4.1339 -1.72663 0
M  V30 2720 C 252.375 4.24384 0.0991141 0
M  V30 2721 C 250.282 5.63633 -1.79087 0
M  V30 2722 H 249.212 0.750408 -0.0735107 0
M  V30 2723 H 251.863 1.62624 -0.850048 0
M  V30 2724 H 250.245 3.94047 0.392781 0
M  V30 2725 H 251.419 3.89273 -2.46583 0
M  V30 2726 H 249.734 3.59976 -2.09299 0
M  V30 2727 H 252.331 5.34652 0.0713833 0
M  V30 2728 H 252.674 4.00505 1.13586 0
M  V30 2729 H 253.207 3.93816 -0.561599 0
M  V30 2730 H 249.946 5.92323 -2.80774 0
M  V30 2731 H 249.466 5.89714 -1.09535 0
M  V30 2732 H 251.145 6.28201 -1.5483 0
M  V30 2733 N 251.277 0.427512 1.51691 0
M  V30 2734 C 252.507 -0.140986 2.06118 0
M  V30 2735 C 252.915 -1.37854 1.29588 0
M  V30 2736 O 252.258 -1.80411 0.346036 0
M  V30 2737 C 252.32 -0.538276 3.55447 0
M  V30 2738 C 251.984 0.591095 4.53161 0
M  V30 2739 C 252.981 1.46027 4.98971 0
M  V30 2740 C 250.666 0.769028 4.96378 0
M  V30 2741 C 252.66 2.49216 5.8666 0
M  V30 2742 C 250.347 1.80421 5.83859 0
M  V30 2743 C 251.345 2.66417 6.28897 0
M  V30 2744 O 251.033 3.68159 7.14643 0
M  V30 2745 H 250.765 -0.0157455 0.675817 0
M  V30 2746 H 253.319 0.602495 1.96365 0
M  V30 2747 H 251.549 -1.33432 3.6295 0
M  V30 2748 H 253.238 -1.0368 3.92435 0
M  V30 2749 H 254.004 1.33429 4.66285 0
M  V30 2750 H 249.883 0.109273 4.6087 0
M  V30 2751 H 253.427 3.16372 6.21735 0
M  V30 2752 H 249.324 1.93042 6.15959 0
M  V30 2753 H 250.092 3.64622 7.32798 0
M  V30 2754 N 252.755 -1.56801 0.158532 0
M  V30 2755 C 253.718 -2.16138 -0.762705 0
M  V30 2756 C 254.718 -1.1061 -1.16713 0
M  V30 2757 O 255.908 -1.36191 -1.08617 0
M  V30 2758 C 253.04 -2.73386 -2.03649 0
M  V30 2759 H 254.233 -2.98886 -0.246354 0
M  V30 2760 H 251.786 -1.56035 -0.0909744 0
M  V30 2761 H 252.521 -1.94335 -2.59623 0
M  V30 2762 H 252.306 -3.50601 -1.75559 0
M  V30 2763 H 253.796 -3.19065 -2.6942 0
M  V30 2764 N 254.233 0.115231 -1.57178 0
M  V30 2765 C 255.644 0.67197 -1.74188 0
M  V30 2766 C 255.995 1.80125 -0.777777 0
M  V30 2767 O 255.12 2.16346 0.0484376 0
M  V30 2768 C 255.715 1.22573 -3.1585 0
M  V30 2769 C 254.274 1.72872 -3.34353 0
M  V30 2770 C 253.421 0.629972 -2.70049 0
M  V30 2771 H 256.372 -0.110712 -1.58313 0
M  V30 2772 H 256.393 2.09535 -3.17609 0
M  V30 2773 H 255.905 0.403598 -3.85996 0
M  V30 2774 H 254.006 2.5755 -2.69256 0
M  V30 2775 H 254.119 1.83557 -4.42542 0
M  V30 2776 H 252.483 1.0645 -2.31388 0
M  V30 2777 H 253.266 -0.181241 -3.42821 0
M  V30 2778 N 255.711 1.52812 0.385517 0
M  V30 2779 C 256.641 1.80808 1.47752 0
M  V30 2780 C 257.622 0.660318 1.5676 0
M  V30 2781 O 258.807 0.908246 1.71652 0
M  V30 2782 C 255.937 1.98008 2.85324 0
M  V30 2783 C 254.891 3.13709 2.91154 0
M  V30 2784 C 254.217 3.16169 4.31209 0
M  V30 2785 C 255.517 4.52709 2.60483 0
M  V30 2786 H 257.211 2.72253 1.24573 0
M  V30 2787 H 254.757 1.31003 0.597839 0
M  V30 2788 H 256.71 2.16176 3.61726 0
M  V30 2789 H 255.434 1.03255 3.09848 0
M  V30 2790 H 254.093 2.95329 2.17201 0
M  V30 2791 H 253.741 2.19092 4.52778 0
M  V30 2792 H 253.441 3.93894 4.36029 0
M  V30 2793 H 254.965 3.36496 5.09512 0
M  V30 2794 H 256.379 4.71173 3.26602 0
M  V30 2795 H 254.776 5.32528 2.76648 0
M  V30 2796 H 255.846 4.59186 1.55809 0
M  V30 2797 N 257.189 -0.644168 1.43834 0
M  V30 2798 C 258.152 -1.73857 1.49353 0
M  V30 2799 C 259.152 -1.56315 0.377112 0
M  V30 2800 O 260.342 -1.62048 0.639226 0
M  V30 2801 C 257.474 -3.12819 1.35488 0
M  V30 2802 H 258.667 -1.70342 2.46827 0
M  V30 2803 H 256.22 -0.856652 1.30733 0
M  V30 2804 H 256.955 -3.2194 0.390569 0
M  V30 2805 H 256.74 -3.26958 2.16428 0
M  V30 2806 H 258.23 -3.92606 1.42302 0
M  V30 2807 N 258.668 -1.30515 -0.883378 0
M  V30 2808 C 259.618 -1.13641 -1.9766 0
M  V30 2809 C 260.602 -0.0511314 -1.60819 0
M  V30 2810 O 261.794 -0.274623 -1.74857 0
M  V30 2811 C 258.923 -0.831976 -3.33066 0
M  V30 2812 C 258.009 -1.95759 -3.76217 0
M  V30 2813 N 258.4 -3.20313 -3.9145 0
M  V30 2814 C 256.698 -1.85431 -4.05625 0
M  V30 2815 C 257.399 -3.93856 -4.2808 0
M  V30 2816 N 256.375 -3.21919 -4.38029 0
M  V30 2817 H 260.177 -2.08106 -2.07531 0
M  V30 2818 H 257.691 -1.21877 -1.0733 0
M  V30 2819 H 259.688 -0.692102 -4.11115 0
M  V30 2820 H 258.348 0.104588 -3.24532 0
M  V30 2821 H 259.359 -3.55583 -3.76538 0
M  V30 2822 H 256.036 -0.991531 -4.05555 0
M  V30 2823 H 257.426 -5.01125 -4.47575 0
M  V30 2824 N 260.146 1.09593 -1.13257 0
M  V30 2825 C 261.562 1.33775 -0.870423 0
M  V30 2826 C 261.762 1.95327 0.494926 0
M  V30 2827 O 260.818 2.19853 1.2418 0
M  V30 2828 C 262.131 2.25106 -1.99369 0
M  V30 2829 C 263.679 2.3862 -2.02558 0
M  V30 2830 C 264.154 3.33285 -3.14142 0
M  V30 2831 N 265.645 3.40857 -3.13641 0
M  V30 2832 C 266.38 4.14101 -3.96621 0
M  V30 2833 N 265.876 4.90157 -4.8961 0
M  V30 2834 N 267.669 4.09808 -3.84726 0
M  V30 2835 H 259.82 0.680136 -2.01216 0
M  V30 2836 H 262.083 0.362133 -0.876107 0
M  V30 2837 H 261.789 1.87103 -2.97801 0
M  V30 2838 H 261.663 3.25481 -1.90635 0
M  V30 2839 H 264.05 2.75887 -1.0474 0
M  V30 2840 H 264.131 1.38028 -2.15364 0
M  V30 2841 H 263.775 2.96741 -4.12198 0
M  V30 2842 H 263.705 4.33776 -2.98574 0
M  V30 2843 H 266.196 2.86624 -2.46282 0
M  V30 2844 H 266.509 5.4347 -5.49418 0
M  V30 2845 H 264.854 4.89251 -4.93617 0
M  V30 2846 H 268.045 3.4949 -3.11408 0
M  V30 2847 H 268.218 4.66629 -4.49623 0
M  V30 2848 N 261.624 0.925811 1.2754 0
M  V30 2849 C 262.554 0.440748 2.29303 0
M  V30 2850 C 263.535 -0.497971 1.62648 0
M  V30 2851 O 264.72 -0.403126 1.8997 0
M  V30 2852 C 261.85 -0.309048 3.45922 0
M  V30 2853 C 260.804 0.54166 4.24559 0
M  V30 2854 C 260.13 -0.337191 5.33636 0
M  V30 2855 C 261.43 1.80516 4.90114 0
M  V30 2856 H 263.124 1.29121 2.70126 0
M  V30 2857 H 260.67 0.622323 1.29858 0
M  V30 2858 H 262.623 -0.659315 4.1621 0
M  V30 2859 H 261.347 -1.19352 3.04011 0
M  V30 2860 H 260.006 0.874609 3.56014 0
M  V30 2861 H 259.654 -1.22056 4.87966 0
M  V30 2862 H 259.354 0.228497 5.87156 0
M  V30 2863 H 260.878 -0.683072 6.06767 0
M  V30 2864 H 262.292 1.52307 5.52698 0
M  V30 2865 H 260.689 2.3142 5.53683 0
M  V30 2866 H 261.759 2.52581 4.13921 0
M  V30 2867 N 263.102 -1.41638 0.69111 0
M  V30 2868 C 264.35 -2.00902 0.219758 0
M  V30 2869 C 264.671 -1.54994 -1.18329 0
M  V30 2870 O 263.941 -0.778628 -1.79762 0
M  V30 2871 H 262.521 -0.74289 0.0782558 0
M  V30 2872 H 265.183 -1.73327 0.891271 0
M  V30 2873 H 264.279 -3.11224 0.233708 0
M  V30 2874 N 264.58 -0.43555 -1.51462 0
M  V30 2875 C 265.829 0.133007 -2.01261 0
M  V30 2876 C 266.142 1.43942 -1.32439 0
M  V30 2877 O 267.348 2.09081 -1.73198 0
M  V30 2878 C 265.804 0.287581 -3.58749 0
M  V30 2879 C 265.412 -1.00829 -4.36506 0
M  V30 2880 C 267.156 0.810004 -4.167 0
M  V30 2881 C 265.063 -0.819454 -5.85695 0
M  V30 2882 H 263.993 0.0534822 -0.752101 0
M  V30 2883 H 266.644 -0.565038 -1.74584 0
M  V30 2884 H 265.026 1.04859 -3.81865 0
M  V30 2885 H 266.2 -1.77749 -4.25138 0
M  V30 2886 H 264.515 -1.45911 -3.89999 0
M  V30 2887 H 267.112 0.967743 -5.2587 0
M  V30 2888 H 267.455 1.79196 -3.75758 0
M  V30 2889 H 267.988 0.107357 -3.97655 0
M  V30 2890 H 264.727 -1.77374 -6.31046 0
M  V30 2891 H 264.247 -0.0900208 -5.99732 0
M  V30 2892 H 265.926 -0.471949 -6.45276 0
M  V30 2893 N 266.058 1.56714 -0.166846 0
M  V30 2894 C 267.283 2.01557 0.488833 0
M  V30 2895 C 267.708 1.0463 1.56314 0
M  V30 2896 O 267.066 0.0251304 1.81283 0
M  V30 2897 C 267.114 3.4503 1.04818 0
M  V30 2898 O 266.218 3.51163 2.16236 0
M  V30 2899 H 265.559 0.653516 0.117526 0
M  V30 2900 H 268.089 2.02818 -0.269421 0
M  V30 2901 H 268.099 3.84243 1.37191 0
M  V30 2902 H 266.774 4.15077 0.261572 0
M  V30 2903 H 265.351 3.23807 1.84942 0
M  V30 2904 N 267.536 -0.106894 1.57237 0
M  V30 2905 C 268.952 -0.46078 1.52804 0
M  V30 2906 C 269.152 -1.81184 0.881746 0
M  V30 2907 O 268.208 -2.48102 0.469224 0
M  V30 2908 C 269.521 -0.434127 2.9755 0
M  V30 2909 C 271.069 -0.516821 3.08704 0
M  V30 2910 C 271.544 -0.520436 4.55033 0
M  V30 2911 N 273.035 -0.58153 4.59535 0
M  V30 2912 C 273.77 -0.605973 5.70189 0
M  V30 2913 N 273.266 -0.587331 6.90306 0
M  V30 2914 N 275.059 -0.649895 5.5833 0
M  V30 2915 H 267.21 0.778203 1.9763 0
M  V30 2916 H 269.473 0.288403 0.903066 0
M  V30 2917 H 269.179 0.491197 3.48253 0
M  V30 2918 H 269.053 -1.25748 3.55622 0
M  V30 2919 H 271.44 -1.43256 2.57995 0
M  V30 2920 H 271.521 0.334449 2.53604 0
M  V30 2921 H 271.165 0.391313 5.0639 0
M  V30 2922 H 271.095 -1.38876 5.07958 0
M  V30 2923 H 273.586 -0.60161 3.73081 0
M  V30 2924 H 273.899 -0.60894 7.70397 0
M  V30 2925 H 272.244 -0.554564 6.92784 0
M  V30 2926 H 275.435 -0.661907 4.63397 0
M  V30 2927 H 275.608 -0.665476 6.44574 0
M  V30 2928 N 269.014 -1.53014 -0.377408 0
M  V30 2929 C 270.263 -1.67845 -1.11853 0
M  V30 2930 C 270.576 -0.430625 -1.90801 0
M  V30 2931 O 271.782 -0.459261 -2.67587 0
M  V30 2932 C 270.238 -2.96668 -2.03756 0
M  V30 2933 C 269.846 -4.28671 -1.30175 0
M  V30 2934 C 271.59 -3.20865 -2.77932 0
M  V30 2935 C 269.497 -5.48591 -2.20911 0
M  V30 2936 H 268.427 -0.625343 -0.421263 0
M  V30 2937 H 271.078 -1.79514 -0.380409 0
M  V30 2938 H 269.46 -2.78773 -2.8125 0
M  V30 2939 H 270.634 -4.57157 -0.578259 0
M  V30 2940 H 268.949 -4.10825 -0.679108 0
M  V30 2941 H 271.546 -4.07642 -3.46024 0
M  V30 2942 H 271.889 -2.36424 -3.4265 0
M  V30 2943 H 272.422 -3.39379 -2.07525 0
M  V30 2944 H 269.161 -6.35474 -1.6079 0
M  V30 2945 H 268.681 -5.244 -2.91144 0
M  V30 2946 H 270.36 -5.8292 -2.80736 0
M  V30 2947 N 270.492 0.636531 -1.44174 0
M  V30 2948 C 271.439 1.74875 -1.50624 0
M  V30 2949 C 272.409 1.62275 -0.35442 0
M  V30 2950 O 273.594 1.82276 -0.563908 0
M  V30 2951 C 270.734 3.13102 -1.45125 0
M  V30 2952 C 269.847 3.36717 -2.7064 0
M  V30 2953 C 268.982 4.64885 -2.57013 0
M  V30 2954 C 268.021 4.8166 -3.77717 0
M  V30 2955 N 267.158 6.01101 -3.62798 0
M  V30 2956 H 271.998 1.68697 -2.45653 0
M  V30 2957 H 269.535 0.823004 -1.21922 0
M  V30 2958 H 271.493 3.93034 -1.39929 0
M  V30 2959 H 270.123 3.18308 -0.536671 0
M  V30 2960 H 269.175 2.50763 -2.86046 0
M  V30 2961 H 270.487 3.44993 -3.60252 0
M  V30 2962 H 269.641 5.52969 -2.49619 0
M  V30 2963 H 268.38 4.58957 -1.64953 0
M  V30 2964 H 267.385 3.92007 -3.85501 0
M  V30 2965 H 268.61 4.89406 -4.70807 0
M  V30 2966 H 266.556 5.96273 -2.73486 0
M  V30 2967 H 266.473 6.10409 -4.46023 0
M  V30 2968 H 267.741 6.91761 -3.59286 0
M  V30 2969 N 271.97 1.30982 0.876444 0
M  V30 2970 C 273.216 1.21484 1.63136 0
M  V30 2971 C 273.571 -0.226339 1.91064 0
M  V30 2972 O 272.864 -1.15788 1.52656 0
M  V30 2973 C 273.058 1.98572 2.9716 0
M  V30 2974 C 272.887 3.50039 2.82317 0
M  V30 2975 C 271.657 4.19393 2.81847 0
M  V30 2976 C 273.855 4.45111 2.57644 0
M  V30 2977 N 271.837 5.57061 2.57985 0
M  V30 2978 C 273.208 5.70402 2.42986 0
M  V30 2979 C 275.263 4.3461 2.42937 0
M  V30 2980 C 273.966 6.8638 2.15115 0
M  V30 2981 C 275.992 5.50365 2.16454 0
M  V30 2982 C 275.354 6.74642 2.02578 0
M  V30 2983 H 271.453 0.499632 0.601575 0
M  V30 2984 H 274.037 1.65094 1.03209 0
M  V30 2985 H 272.208 1.5734 3.55104 0
M  V30 2986 H 273.94 1.81146 3.61895 0
M  V30 2987 H 270.695 3.71303 2.93991 0
M  V30 2988 H 271.119 6.29529 2.49043 0
M  V30 2989 H 275.761 3.39199 2.52396 0
M  V30 2990 H 273.479 7.81824 2.04394 0
M  V30 2991 H 277.065 5.44154 2.05884 0
M  V30 2992 H 275.945 7.62699 1.82374 0
M  V30 2993 N 273.449 -1.08991 1.13837 0
M  V30 2994 C 274.359 -2.19301 0.833333 0
M  V30 2995 C 275.375 -1.73026 -0.183847 0
M  V30 2996 O 276.551 -2.01395 -0.0138092 0
M  V30 2997 C 273.616 -3.45323 0.308651 0
M  V30 2998 C 272.677 -4.06255 1.38764 0
M  V30 2999 C 271.91 -5.26262 0.887896 0
M  V30 3000 O 272.133 -5.69747 -0.27287 0
M  V30 3001 O 271.067 -5.78435 1.66421 0
M  V30 3002 H 274.893 -2.47854 1.75506 0
M  V30 3003 H 272.478 -1.18012 0.916166 0
M  V30 3004 H 274.36 -4.21394 0.0216739 0
M  V30 3005 H 273.035 -3.18362 -0.585431 0
M  V30 3006 H 271.942 -3.318 1.72799 0
M  V30 3007 H 273.275 -4.37452 2.25602 0
M  V30 3008 N 274.927 -0.932562 -1.27047 0
M  V30 3009 C 275.857 -0.452902 -2.29066 0
M  V30 3010 C 276.838 0.489338 -1.62909 0
M  V30 3011 O 278.023 0.393046 -1.90181 0
M  V30 3012 C 275.153 0.290698 -3.46081 0
M  V30 3013 C 274.107 -0.564168 -4.24265 0
M  V30 3014 C 273.433 0.308886 -5.33807 0
M  V30 3015 C 274.733 -1.83112 -4.89149 0
M  V30 3016 H 276.427 -1.30552 -2.69437 0
M  V30 3017 H 273.973 -0.629201 -1.29526 0
M  V30 3018 H 275.926 0.637233 -4.16554 0
M  V30 3019 H 274.65 1.17738 -3.0464 0
M  V30 3020 H 273.309 -0.893477 -3.55545 0
M  V30 3021 H 272.957 1.19467 -4.88607 0
M  V30 3022 H 272.657 -0.259633 -5.87026 0
M  V30 3023 H 274.181 0.650884 -6.07121 0
M  V30 3024 H 275.595 -1.55236 -5.51883 0
M  V30 3025 H 273.992 -2.34353 -5.52448 0
M  V30 3026 H 275.062 -2.54772 -4.12576 0
M  V30 3027 N 276.405 1.4127 -0.698611 0
M  V30 3028 C 277.315 2.34573 -0.0357891 0
M  V30 3029 C 278.331 1.56393 0.762701 0
M  V30 3030 O 279.507 1.8886 0.699564 0
M  V30 3031 C 276.572 3.35159 0.887089 0
M  V30 3032 C 275.633 4.29225 0.0804634 0
M  V30 3033 C 274.866 5.25006 0.959387 0
M  V30 3034 O 275.089 5.26314 2.19886 0
M  V30 3035 O 274.023 6.00519 0.407439 0
M  V30 3036 H 277.849 2.92838 -0.804957 0
M  V30 3037 H 275.434 1.42175 -0.458966 0
M  V30 3038 H 277.316 3.9689 1.41621 0
M  V30 3039 H 275.991 2.79333 1.6357 0
M  V30 3040 H 274.898 3.70833 -0.493328 0
M  V30 3041 H 276.231 4.88157 -0.629547 0
M  V30 3042 N 277.883 0.443576 1.51229 0
M  V30 3043 C 279.16 -0.181038 1.9476 0
M  V30 3044 C 279.54 -1.59523 1.38259 0
M  V30 3045 O 278.888 -2.2122 0.572198 0
M  V30 3046 C 279.098 -0.152422 3.48667 0
M  V30 3047 C 280.446 -0.354923 4.23114 0
M  V30 3048 O 281.47 -0.230257 3.55455 0
M  V30 3049 O 280.329 -0.603674 5.43156 0
M  V30 3050 H 277.423 -0.1266 0.817252 0
M  V30 3051 H 279.969 0.502004 1.62105 0
M  V30 3052 H 278.741 0.836022 3.82265 0
M  V30 3053 H 278.364 -0.878107 3.87782 0
M  V30 3054 N 279.361 -1.56624 0.175154 0
M  V30 3055 C 280.291 -2.21155 -0.749195 0
M  V30 3056 C 281.272 -1.16836 -1.23626 0
M  V30 3057 O 282.457 -1.45277 -1.28873 0
M  V30 3058 C 279.587 -2.8553 -1.97711 0
M  V30 3059 C 278.541 -3.95921 -1.62575 0
M  V30 3060 C 277.867 -4.47365 -2.92864 0
M  V30 3061 C 279.167 -5.15323 -0.850838 0
M  V30 3062 H 280.861 -2.98653 -0.211295 0
M  V30 3063 H 278.407 -1.43651 -0.100188 0
M  V30 3064 H 280.36 -3.2935 -2.62881 0
M  V30 3065 H 279.084 -2.05406 -2.53921 0
M  V30 3066 H 277.743 -3.52762 -0.997719 0
M  V30 3067 H 277.391 -3.64027 -3.47122 0
M  V30 3068 H 277.091 -5.21839 -2.70106 0
M  V30 3069 H 278.615 -4.93873 -3.59056 0
M  V30 3070 H 280.029 -5.55812 -1.40521 0
M  V30 3071 H 278.426 -5.95739 -0.722154 0
M  V30 3072 H 279.496 -4.84661 0.152082 0
M  V30 3073 N 280.839 0.0985539 -1.57292 0
M  V30 3074 C 281.802 1.10402 -2.00858 0
M  V30 3075 C 282.802 1.33146 -0.901593 0
M  V30 3076 O 283.992 1.29318 -1.16716 0
M  V30 3077 C 281.124 2.45394 -2.36632 0
M  V30 3078 H 282.317 0.729099 -2.90902 0
M  V30 3079 H 279.87 0.343495 -1.52479 0
M  V30 3080 H 280.605 2.87769 -1.49531 0
M  V30 3081 H 280.39 2.30235 -3.17387 0
M  V30 3082 H 281.88 3.17718 -2.71007 0
M  V30 3083 N 282.317 1.53212 0.369288 0
M  V30 3084 C 283.564 1.69215 1.11232 0
M  V30 3085 C 283.892 0.442048 1.8941 0
M  V30 3086 O 283.147 -0.575944 1.87033 0
M  V30 3087 C 283.446 2.89101 2.10132 0
M  V30 3088 C 283.112 4.25758 1.48463 0
M  V30 3089 C 281.774 4.6292 1.31372 0
M  V30 3090 C 284.126 5.10757 1.03811 0
M  V30 3091 C 281.454 5.82722 0.68207 0
M  V30 3092 C 283.806 6.31201 0.420487 0
M  V30 3093 C 282.47 6.67079 0.237038 0
M  V30 3094 H 281.74 0.619201 0.407027 0
M  V30 3095 H 284.387 1.87391 0.394552 0
M  V30 3096 H 282.692 2.65421 2.88199 0
M  V30 3097 H 284.389 2.98676 2.6757 0
M  V30 3098 H 280.979 3.96494 1.62758 0
M  V30 3099 H 285.163 4.82599 1.1581 0
M  V30 3100 H 280.419 6.09113 0.528316 0
M  V30 3101 H 284.593 6.96368 0.0662874 0
M  V30 3102 H 282.22 7.59774 -0.254477 0
M  V30 3103 N 283.795 -0.628877 1.44509 0
M  V30 3104 C 285.211 -0.947305 1.28446 0
M  V30 3105 C 285.411 -2.00275 0.221872 0
M  V30 3106 O 284.467 -2.49447 -0.391471 0
M  V30 3107 C 285.78 -1.40843 2.65676 0
M  V30 3108 C 287.328 -1.52379 2.73404 0
M  V30 3109 C 287.803 -2.01875 4.11109 0
M  V30 3110 N 289.294 -2.09142 4.13296 0
M  V30 3111 C 290.029 -2.48615 5.16699 0
M  V30 3112 N 289.525 -2.87209 6.30462 0
M  V30 3113 N 291.318 -2.48768 5.04054 0
M  V30 3114 H 283.469 0.0690977 2.12288 0
M  V30 3115 H 285.732 -0.0317164 0.947469 0
M  V30 3116 H 285.438 -0.707206 3.44516 0
M  V30 3117 H 285.312 -2.37902 2.92716 0
M  V30 3118 H 287.699 -2.21598 1.9488 0
M  V30 3119 H 287.78 -0.536898 2.50102 0
M  V30 3120 H 287.424 -1.3325 4.90109 0
M  V30 3121 H 287.354 -3.0144 4.31789 0
M  V30 3122 H 289.845 -1.81991 3.31191 0
M  V30 3123 H 290.158 -3.16149 7.05174 0
M  V30 3124 H 288.503 -2.84955 6.33897 0
M  V30 3125 H 291.694 -2.18009 4.14234 0
M  V30 3126 H 291.867 -2.79207 5.84763 0
M  V30 3127 N 285.273 -1.31445 -0.869486 0
M  V30 3128 C 286.503 -1.23942 -1.65294 0
M  V30 3129 C 286.911 0.197561 -1.88166 0
M  V30 3130 O 286.254 1.14019 -1.44033 0
M  V30 3131 C 286.316 -1.91385 -3.04322 0
M  V30 3132 C 285.98 -3.40726 -3.04557 0
M  V30 3133 C 286.977 -4.36464 -2.82481 0
M  V30 3134 C 284.662 -3.82425 -3.25663 0
M  V30 3135 C 286.656 -5.71876 -2.8149 0
M  V30 3136 C 284.343 -5.1795 -3.243 0
M  V30 3137 C 285.341 -6.12486 -3.02241 0
M  V30 3138 O 285.029 -7.45534 -3.00724 0
M  V30 3139 H 284.761 -0.429459 -0.522054 0
M  V30 3140 H 287.315 -1.73873 -1.0935 0
M  V30 3141 H 285.545 -1.36004 -3.61994 0
M  V30 3142 H 287.234 -1.77791 -3.64891 0
M  V30 3143 H 288 -4.05576 -2.65956 0
M  V30 3144 H 283.879 -3.09274 -3.41863 0
M  V30 3145 H 287.423 -6.45638 -2.64191 0
M  V30 3146 H 283.32 -5.48473 -3.40365 0
M  V30 3147 H 284.088 -7.54713 -3.16782 0
M  V30 3148 N 286.751 1.08385 -1.14413 0
M  V30 3149 C 287.681 2.17321 -0.854044 0
M  V30 3150 C 288.662 1.69024 0.191049 0
M  V30 3151 O 289.847 1.94141 0.0476779 0
M  V30 3152 C 286.977 3.45719 -0.330983 0
M  V30 3153 C 285.931 4.07409 -1.31155 0
M  V30 3154 C 285.257 5.30762 -0.64778 0
M  V30 3155 C 286.557 4.48665 -2.67388 0
M  V30 3156 H 288.251 2.41845 -1.76498 0
M  V30 3157 H 285.797 1.16233 -0.850051 0
M  V30 3158 H 287.75 4.21241 -0.115645 0
M  V30 3159 H 286.474 3.2075 0.615381 0
M  V30 3160 H 285.133 3.33919 -1.51306 0
M  V30 3161 H 284.781 5.02078 0.304398 0
M  V30 3162 H 284.481 5.72992 -1.30207 0
M  V30 3163 H 286.005 6.08998 -0.441972 0
M  V30 3164 H 287.419 5.15364 -2.51143 0
M  V30 3165 H 285.816 5.01814 -3.29093 0
M  V30 3166 H 286.886 3.60543 -3.24248 0
M  V30 3167 N 288.23 0.939286 1.26551 0
M  V30 3168 C 289.178 0.43815 2.28436 0
M  V30 3169 C 290.172 -0.483587 1.62351 0
M  V30 3170 O 291.378 -0.362009 1.76322 0
M  V30 3171 H 287.753 0.123149 0.741848 0
M  V30 3172 H 289.724 1.31002 2.68106 0
M  V30 3173 C 288.473 -0.283052 3.46546 0
M  V30 3174 H 287.796 0.417043 3.97619 0
M  V30 3175 H 289.236 -0.597948 4.19763 0
M  V30 3176 C 287.695 -1.50018 3.01656 0
M  V30 3177 O 288.225 -2.59855 3.0633 0
M  V30 3178 N 286.431 -1.35608 2.57019 0
M  V30 3179 H 285.978 -0.46244 2.53415 0
M  V30 3180 H 285.936 -2.17165 2.27347 0
M  V30 3181 N 289.708 -1.40897 0.706093 0
M  V30 3182 C 290.618 -2.3455 0.0482286 0
M  V30 3183 C 291.634 -1.56796 -0.754396 0
M  V30 3184 O 292.81 -1.89228 -0.689538 0
M  V30 3185 C 289.875 -3.35625 -0.869303 0
M  V30 3186 C 288.936 -4.29261 -0.0576994 0
M  V30 3187 C 288.169 -5.25508 -0.931531 0
M  V30 3188 O 288.392 -5.27472 -2.17092 0
M  V30 3189 O 287.326 -6.00727 -0.375587 0
M  V30 3190 H 291.152 -2.92407 0.820476 0
M  V30 3191 H 288.737 -1.4193 0.4665 0
M  V30 3192 H 290.619 -3.97635 -1.39514 0
M  V30 3193 H 289.294 -2.80196 -1.62086 0
M  V30 3194 H 288.201 -3.70566 0.512988 0
M  V30 3195 H 289.534 -4.87817 0.655426 0
M  V30 3196 N 291.186 -0.45159 -1.50991 0
M  V30 3197 C 292.414 0.108334 -2.06616 0
M  V30 3198 C 292.829 1.35224 -1.31757 0
M  V30 3199 O 292.186 1.78475 -0.381174 0
M  V30 3200 C 292.237 0.41619 -3.59096 0
M  V30 3201 O 291.958 -0.778361 -4.3113 0
M  V30 3202 C 293.459 1.02523 -4.31282 0
M  V30 3203 H 290.679 0.00159995 -0.670998 0
M  V30 3204 H 293.223 -0.634771 -1.94399 0
M  V30 3205 H 291.378 1.10921 -3.71181 0
M  V30 3206 H 291.792 -0.511181 -5.22003 0
M  V30 3207 H 293.266 1.19053 -5.39009 0
M  V30 3208 H 293.743 2.01013 -3.905 0
M  V30 3209 H 294.349 0.371173 -4.23677 0
M  V30 3210 N 292.664 1.56529 -0.183458 0
M  V30 3211 C 293.574 2.22144 0.754272 0
M  V30 3212 C 294.59 1.21684 1.24374 0
M  V30 3213 O 295.766 1.54385 1.29333 0
M  V30 3214 C 292.831 2.85884 1.96141 0
M  V30 3215 C 291.892 4.01579 1.51765 0
M  V30 3216 C 291.125 4.6227 2.66725 0
M  V30 3217 O 291.348 4.21865 3.83909 0
M  V30 3218 O 290.282 5.51936 2.40104 0
M  V30 3219 H 294.108 3.02861 0.225527 0
M  V30 3220 H 291.693 1.49331 0.0453032 0
M  V30 3221 H 293.575 3.26253 2.66715 0
M  V30 3222 H 292.25 2.08154 2.47899 0
M  V30 3223 H 291.157 3.65856 0.781049 0
M  V30 3224 H 292.49 4.80938 1.04686 0
M  V30 3225 N 294.142 -0.090211 1.57342 0
M  V30 3226 C 295.389 -0.792807 1.86335 0
M  V30 3227 C 295.717 -1.78494 0.772662 0
M  V30 3228 O 294.972 -1.94305 -0.233258 0
M  V30 3229 C 295.271 -1.55222 3.21933 0
M  V30 3230 C 294.937 -0.701765 4.45406 0
M  V30 3231 C 293.599 -0.467334 4.78925 0
M  V30 3232 C 295.951 -0.11086 5.21082 0
M  V30 3233 C 293.279 0.367785 5.85546 0
M  V30 3234 C 295.631 0.711609 6.28585 0
M  V30 3235 C 294.295 0.956086 6.60617 0
M  V30 3236 H 293.565 -0.290109 0.681849 0
M  V30 3237 H 296.212 -0.0541332 1.91423 0
M  V30 3238 H 294.517 -2.3626 3.12551 0
M  V30 3239 H 296.214 -2.10032 3.41595 0
M  V30 3240 H 292.804 -0.894598 4.1916 0
M  V30 3241 H 296.988 -0.279129 4.95514 0
M  V30 3242 H 292.244 0.566128 6.08773 0
M  V30 3243 H 296.418 1.17632 6.86393 0
M  V30 3244 H 294.045 1.60499 7.43064 0
M  V30 3245 N 295.62 -1.53406 -0.361157 0
M  V30 3246 C 296.85 -1.73465 -1.1222 0
M  V30 3247 C 297.258 -0.465486 -1.83384 0
M  V30 3248 O 296.601 0.571611 -1.7458 0
M  V30 3249 C 296.663 -2.84834 -2.19339 0
M  V30 3250 C 296.327 -4.25038 -1.67903 0
M  V30 3251 C 297.324 -5.07231 -1.14074 0
M  V30 3252 C 295.009 -4.71464 -1.73282 0
M  V30 3253 C 297.003 -6.33942 -0.663068 0
M  V30 3254 C 294.69 -5.98153 -1.25127 0
M  V30 3255 C 295.688 -6.79223 -0.717296 0
M  V30 3256 O 295.376 -8.03533 -0.242865 0
M  V30 3257 H 295.108 -0.583526 -0.341283 0
M  V30 3258 H 297.662 -2.00964 -0.424591 0
M  V30 3259 H 295.892 -2.5282 -2.92607 0
M  V30 3260 H 297.581 -2.9303 -2.80871 0
M  V30 3261 H 298.347 -4.72534 -1.09254 0
M  V30 3262 H 294.226 -4.08432 -2.13786 0
M  V30 3263 H 297.77 -6.97167 -0.245612 0
M  V30 3264 H 293.667 -6.32347 -1.29642 0
M  V30 3265 H 294.435 -8.177 -0.361786 0
M  V30 3266 N 297.098 0.621204 -1.44841 0
M  V30 3267 C 298.045 1.73267 -1.5247 0
M  V30 3268 C 299.015 1.6189 -0.371611 0
M  V30 3269 O 300.2 1.81668 -0.58321 0
M  V30 3270 C 297.34 3.11545 -1.48438 0
M  V30 3271 C 296.453 3.33827 -2.74196 0
M  V30 3272 C 295.588 4.62133 -2.61929 0
M  V30 3273 C 294.627 4.77627 -3.82804 0
M  V30 3274 N 293.764 5.97219 -3.69153 0
M  V30 3275 H 298.604 1.66082 -2.47428 0
M  V30 3276 H 296.141 0.810026 -1.22788 0
M  V30 3277 H 298.099 3.91528 -1.4409 0
M  V30 3278 H 296.729 3.1772 -0.570402 0
M  V30 3279 H 295.781 2.47715 -2.88689 0
M  V30 3280 H 297.093 3.41153 -3.6389 0
M  V30 3281 H 296.247 5.50291 -2.5547 0
M  V30 3282 H 294.986 4.57182 -1.69811 0
M  V30 3283 H 293.991 3.87896 -3.89637 0
M  V30 3284 H 295.216 4.84385 -4.75971 0
M  V30 3285 H 293.162 5.93339 -2.79794 0
M  V30 3286 H 293.079 6.05644 -4.52472 0
M  V30 3287 H 294.347 6.87912 -3.66603 0
M  V30 3288 N 298.576 1.31904 0.862503 0
M  V30 3289 C 299.825 1.21373 1.61094 0
M  V30 3290 C 300.138 -0.22504 1.94301 0
M  V30 3291 O 301.344 -0.452121 2.67709 0
M  V30 3292 C 299.8 2.12525 2.9045 0
M  V30 3293 C 299.408 3.61441 2.64697 0
M  V30 3294 C 301.152 2.10813 3.68454 0
M  V30 3295 C 299.059 4.44578 3.90006 0
M  V30 3296 H 297.989 0.450705 0.604468 0
M  V30 3297 H 300.64 1.56811 0.953027 0
M  V30 3298 H 299.022 1.69994 3.57656 0
M  V30 3299 H 300.196 4.12264 2.05851 0
M  V30 3300 H 298.511 3.65205 2.00036 0
M  V30 3301 H 301.108 2.70167 4.61426 0
M  V30 3302 H 301.451 1.09713 4.01583 0
M  V30 3303 H 301.984 2.51583 3.08141 0
M  V30 3304 H 298.723 5.46461 3.62023 0
M  V30 3305 H 298.243 3.98508 4.48276 0
M  V30 3306 H 299.922 4.57176 4.5782 0
M  V30 3307 N 300.054 -1.07777 1.14986 0
M  V30 3308 C 301.279 -1.84558 0.946213 0
M  V30 3309 C 301.704 -1.81323 -0.500362 0
M  V30 3310 O 301.062 -1.20301 -1.35637 0
M  V30 3311 C 301.11 -3.29736 1.45968 0
M  V30 3312 O 300.214 -4.07149 0.65601 0
M  V30 3313 H 299.555 -0.571641 0.33782 0
M  V30 3314 H 302.085 -1.35991 1.52865 0
M  V30 3315 H 302.095 -3.80574 1.47063 0
M  V30 3316 H 300.77 -3.31406 2.51283 0
M  V30 3317 H 299.347 -3.65994 0.714322 0
M  V30 3318 N 301.532 -0.945985 -1.26051 0
M  V30 3319 C 302.482 -0.430164 -2.23905 0
M  V30 3320 C 303.466 0.47579 -1.53704 0
M  V30 3321 O 304.658 0.310252 -1.7426 0
M  V30 3322 C 301.787 0.298957 -3.41996 0
M  V30 3323 C 300.873 -0.624566 -4.19476 0
M  V30 3324 N 301.264 -1.75245 -4.74471 0
M  V30 3325 C 299.562 -0.431082 -4.43912 0
M  V30 3326 C 300.263 -2.32834 -5.3307 0
M  V30 3327 N 299.239 -1.61583 -5.1903 0
M  V30 3328 H 303.041 -1.29107 -2.64024 0
M  V30 3329 H 300.555 -0.802428 -1.41191 0
M  V30 3330 H 302.552 0.685565 -4.11225 0
M  V30 3331 H 301.212 1.15657 -3.03403 0
M  V30 3332 H 302.223 -2.13449 -4.71868 0
M  V30 3333 H 298.9 0.384364 -4.15727 0
M  V30 3334 H 300.29 -3.27893 -5.86461 0
M  V30 3335 N 303.011 1.40521 -0.713556 0
M  V30 3336 C 303.944 2.28198 -0.00881422 0
M  V30 3337 C 304.922 1.43227 0.769735 0
M  V30 3338 O 306.106 1.72641 0.756799 0
M  V30 3339 C 303.233 3.23758 0.994899 0
M  V30 3340 C 302.279 4.25391 0.3074 0
M  V30 3341 S 303.112 5.26765 -0.963247 0
M  V30 3342 C 304.268 6.25888 0.0384143 0
M  V30 3343 H 304.501 2.87622 -0.752407 0
M  V30 3344 H 302.034 1.45925 -0.504502 0
M  V30 3345 H 303.992 3.79341 1.56879 0
M  V30 3346 H 302.653 2.63396 1.71118 0
M  V30 3347 H 301.846 4.92596 1.0661 0
M  V30 3348 H 301.448 3.73497 -0.193879 0
M  V30 3349 H 303.74 6.71683 0.885912 0
M  V30 3350 H 304.683 7.05552 -0.60019 0
M  V30 3351 H 305.091 5.63072 0.401233 0
M  V30 3352 N 304.489 0.459591 1.5075 0
M  V30 3353 C 305.422 -0.386257 2.24907 0
M  V30 3354 C 306.4 -1.006 1.27744 0
M  V30 3355 O 307.584 -1.04416 1.56938 0
M  V30 3356 C 304.711 -1.54021 3.01654 0
M  V30 3357 C 303.757 -1.03898 4.13651 0
M  V30 3358 S 304.59 0.0370501 5.35487 0
M  V30 3359 C 305.746 -1.12105 6.15779 0
M  V30 3360 H 305.979 0.243272 2.96303 0
M  V30 3361 H 303.512 0.244339 1.52454 0
M  V30 3362 H 305.47 -2.20163 3.46466 0
M  V30 3363 H 304.131 -2.14121 2.29806 0
M  V30 3364 H 303.324 -1.90254 4.66711 0
M  V30 3365 H 302.926 -0.45545 3.71216 0
M  V30 3366 H 305.218 -2.03501 6.46215 0
M  V30 3367 H 306.161 -0.62995 7.05292 0
M  V30 3368 H 306.569 -1.36967 5.47631 0
M  V30 3369 N 305.967 -1.56429 0.191757 0
M  V30 3370 C 306.915 -2.20273 -0.747174 0
M  V30 3371 C 307.909 -1.17288 -1.22229 0
M  V30 3372 O 309.115 -1.35441 -1.18557 0
M  V30 3373 H 305.49 -0.705885 -0.259289 0
M  V30 3374 H 307.461 -2.97826 -0.184963 0
M  V30 3375 C 306.21 -2.87356 -1.95759 0
M  V30 3376 H 305.533 -3.66341 -1.60106 0
M  V30 3377 H 306.973 -3.3547 -2.59299 0
M  V30 3378 C 305.432 -1.88213 -2.79423 0
M  V30 3379 O 305.962 -1.38033 -3.7724 0
M  V30 3380 N 304.168 -1.56516 -2.44849 0
M  V30 3381 H 303.715 -1.97516 -1.65364 0
M  V30 3382 H 303.673 -0.904369 -3.01112 0
M  V30 3383 N 307.445 0.0818655 -1.57387 0
M  V30 3384 C 308.355 1.11642 -2.06333 0
M  V30 3385 C 309.371 1.43033 -0.99083 0
M  V30 3386 O 310.547 1.53411 -1.30488 0
M  V30 3387 C 307.612 2.41342 -2.48907 0
M  V30 3388 C 306.673 2.17014 -3.7041 0
M  V30 3389 C 305.906 3.4053 -4.10944 0
M  V30 3390 O 306.129 4.4927 -3.51444 0
M  V30 3391 O 305.063 3.29336 -5.03807 0
M  V30 3392 H 308.889 0.730657 -2.9478 0
M  V30 3393 H 306.474 0.295301 -1.46452 0
M  V30 3394 H 308.356 3.17691 -2.76858 0
M  V30 3395 H 307.031 2.79319 -1.63593 0
M  V30 3396 H 305.938 1.38403 -3.47556 0
M  V30 3397 H 307.271 1.83923 -4.56545 0
M  V30 3398 N 308.923 1.53595 0.353017 0
M  V30 3399 C 309.87 1.80919 1.43308 0
M  V30 3400 C 310.84 0.654288 1.5267 0
M  V30 3401 O 312.025 0.897759 1.6836 0
M  V30 3402 C 309.165 2.01605 2.80089 0
M  V30 3403 C 308.278 3.29321 2.79593 0
M  V30 3404 C 307.413 3.40125 4.0803 0
M  V30 3405 C 306.452 4.61826 4.01725 0
M  V30 3406 N 305.589 4.69716 5.21834 0
M  V30 3407 H 310.429 2.73074 1.19308 0
M  V30 3408 H 307.966 1.35263 0.578131 0
M  V30 3409 H 309.924 2.11586 3.59565 0
M  V30 3410 H 308.554 1.12772 3.0246 0
M  V30 3411 H 307.606 3.28229 1.92276 0
M  V30 3412 H 308.918 4.18884 2.70809 0
M  V30 3413 H 308.072 3.49488 4.95927 0
M  V30 3414 H 306.811 2.48601 4.19582 0
M  V30 3415 H 305.816 4.52552 3.12213 0
M  V30 3416 H 307.041 5.54705 3.91764 0
M  V30 3417 H 304.987 3.81097 5.33948 0
M  V30 3418 H 304.904 5.53202 5.1527 0
M  V30 3419 H 306.172 4.83376 6.11529 0
M  V30 3420 N 310.401 -0.613514 1.45168 0
M  V30 3421 C 311.817 -0.933629 1.29443 0
M  V30 3422 C 312.017 -2.00028 0.243101 0
M  V30 3423 O 311.073 -2.49848 -0.364992 0
M  V30 3424 C 312.386 -1.38018 2.67155 0
M  V30 3425 C 313.934 -1.49471 2.75004 0
M  V30 3426 C 314.409 -1.97503 4.13227 0
M  V30 3427 N 315.9 -2.04746 4.15491 0
M  V30 3428 C 316.635 -2.43121 5.19307 0
M  V30 3429 N 316.131 -2.80506 6.33473 0
M  V30 3430 N 317.924 -2.43408 5.06664 0
M  V30 3431 H 310.075 0.0916097 2.12202 0
M  V30 3432 H 312.338 -0.0216655 0.947752 0
M  V30 3433 H 312.044 -0.670625 3.45247 0
M  V30 3434 H 311.918 -2.34784 2.95222 0
M  V30 3435 H 314.305 -2.19519 1.9722 0
M  V30 3436 H 314.386 -0.510342 2.50657 0
M  V30 3437 H 314.03 -1.28045 4.91495 0
M  V30 3438 H 313.96 -2.96843 4.34962 0
M  V30 3439 H 316.451 -1.78468 3.33103 0
M  V30 3440 H 316.764 -3.08652 7.08487 0
M  V30 3441 H 315.109 -2.78216 6.36884 0
M  V30 3442 H 318.3 -2.13604 4.16523 0
M  V30 3443 H 318.473 -2.72989 5.87691 0
M  V30 3444 N 311.879 -1.3236 -0.855495 0
M  V30 3445 C 313.295 -1.11332 -1.14356 0
M  V30 3446 C 313.495 0.106751 -2.01217 0
M  V30 3447 O 312.551 0.791891 -2.39761 0
M  V30 3448 C 313.864 -2.39237 -1.82171 0
M  V30 3449 C 315.412 -2.44986 -1.9481 0
M  V30 3450 C 315.887 -3.7281 -2.66039 0
M  V30 3451 N 317.378 -3.73787 -2.73565 0
M  V30 3452 C 318.113 -4.69394 -3.29327 0
M  V30 3453 N 317.609 -5.75367 -3.85907 0
M  V30 3454 N 319.402 -4.56893 -3.27423 0
M  V30 3455 H 311.553 -2.10586 -0.277027 0
M  V30 3456 H 313.816 -0.929701 -0.185364 0
M  V30 3457 H 313.522 -3.28431 -1.25802 0
M  V30 3458 H 313.396 -2.50134 -2.82335 0
M  V30 3459 H 315.783 -1.56252 -2.50338 0
M  V30 3460 H 315.864 -2.38043 -0.936448 0
M  V30 3461 H 315.508 -4.61918 -2.11174 0
M  V30 3462 H 315.438 -3.77024 -3.67642 0
M  V30 3463 H 317.929 -2.97189 -2.33424 0
M  V30 3464 H 318.242 -6.44378 -4.26611 0
M  V30 3465 H 316.587 -5.79123 -3.84242 0
M  V30 3466 H 319.778 -3.73269 -2.82467 0
M  V30 3467 H 319.951 -5.31577 -3.7058 0
M  V30 3468 N 313.357 1.07166 -1.15556 0
M  V30 3469 C 314.267 2.17947 -0.868116 0
M  V30 3470 C 315.283 1.73297 0.156297 0
M  V30 3471 O 316.459 2.01392 -0.0182327 0
M  V30 3472 C 313.524 3.44789 -0.36355 0
M  V30 3473 C 312.585 4.03996 -1.45209 0
M  V30 3474 C 311.818 5.24783 -0.971508 0
M  V30 3475 O 312.041 5.70109 0.182194 0
M  V30 3476 O 310.975 5.75715 -1.75603 0
M  V30 3477 H 314.801 2.4503 -1.79427 0
M  V30 3478 H 312.386 1.16539 -0.934824 0
M  V30 3479 H 314.268 4.21307 -0.0887113 0
M  V30 3480 H 312.943 3.19253 0.534708 0
M  V30 3481 H 311.85 3.29009 -1.78056 0
M  V30 3482 H 313.183 4.33808 -2.32533 0
M  V30 3483 N 314.835 0.952656 1.25548 0
M  V30 3484 C 316.251 0.656769 1.4546 0
M  V30 3485 C 316.451 -0.78633 1.85524 0
M  V30 3486 O 315.507 -1.56183 1.98402 0
M  V30 3487 C 316.82 1.62801 2.52817 0
M  V30 3488 C 318.368 1.63897 2.66659 0
M  V30 3489 C 318.843 2.5978 3.77198 0
M  V30 3490 N 320.334 2.58133 3.84606 0
M  V30 3491 C 321.069 3.29003 4.69621 0
M  V30 3492 N 320.565 4.09339 5.58939 0
M  V30 3493 N 322.358 3.179 4.63569 0
M  V30 3494 H 314.509 1.88526 0.978344 0
M  V30 3495 H 316.772 0.810815 0.491206 0
M  V30 3496 H 316.478 2.65869 2.30232 0
M  V30 3497 H 316.352 1.38898 3.50695 0
M  V30 3498 H 318.739 0.615481 2.8861 0
M  V30 3499 H 318.82 1.91858 1.69187 0
M  V30 3500 H 318.464 3.62254 3.55997 0
M  V30 3501 H 318.394 2.29105 4.7415 0
M  V30 3502 H 320.885 1.99809 3.20757 0
M  V30 3503 H 321.198 4.6034 6.20731 0
M  V30 3504 H 319.543 4.13438 5.58654 0
M  V30 3505 H 322.734 2.54612 3.92798 0
M  V30 3506 H 322.907 3.73398 5.29602 0
M  V30 3507 N 316.313 -1.40141 0.720998 0
M  V30 3508 C 317.223 -2.34486 0.0731031 0
M  V30 3509 C 318.239 -1.57587 -0.737723 0
M  V30 3510 O 319.415 -1.89949 -0.669429 0
M  V30 3511 C 316.48 -3.36528 -0.833656 0
M  V30 3512 C 315.541 -4.29298 -0.0121673 0
M  V30 3513 C 314.774 -5.26466 -0.875742 0
M  V30 3514 O 314.997 -5.29745 -2.11485 0
M  V30 3515 O 313.931 -6.01092 -0.31185 0
M  V30 3516 H 317.757 -2.9152 0.851444 0
M  V30 3517 H 315.342 -1.41427 0.481527 0
M  V30 3518 H 317.224 -3.99093 -1.35289 0
M  V30 3519 H 315.899 -2.81899 -1.59105 0
M  V30 3520 H 314.806 -3.70001 0.552262 0
M  V30 3521 H 316.139 -4.87094 0.707129 0
M  V30 3522 N 317.792 -0.46758 -1.50504 0
M  V30 3523 C 318.755 0.317059 -2.26996 0
M  V30 3524 C 319.755 0.923513 -1.31635 0
M  V30 3525 O 320.945 0.793239 -1.55091 0
M  V30 3526 C 318.077 1.45134 -3.08462 0
M  V30 3527 H 319.27 -0.353723 -2.97807 0
M  V30 3528 H 316.823 -0.221545 -1.54722 0
M  V30 3529 H 317.558 2.15728 -2.4214 0
M  V30 3530 H 317.343 1.02232 -3.78538 0
M  V30 3531 H 318.833 2.00493 -3.66323 0
M  V30 3532 N 319.27 1.56325 -0.20005 0
M  V30 3533 C 320.2 2.22318 0.713916 0
M  V30 3534 C 321.181 1.18788 1.21752 0
M  V30 3535 O 322.366 1.47309 1.26545 0
M  V30 3536 C 319.496 2.88639 1.93144 0
M  V30 3537 C 318.45 3.98457 1.56255 0
M  V30 3538 C 317.776 4.51967 2.85709 0
M  V30 3539 C 319.076 5.16612 0.768747 0
M  V30 3540 H 320.77 2.98952 0.163755 0
M  V30 3541 H 318.316 1.43792 0.0773219 0
M  V30 3542 H 320.269 3.33491 2.57608 0
M  V30 3543 H 318.993 2.09419 2.50621 0
M  V30 3544 H 317.652 3.54305 0.941471 0
M  V30 3545 H 317.3 3.69503 3.41287 0
M  V30 3546 H 317 5.26071 2.6177 0
M  V30 3547 H 318.524 4.99523 3.51154 0
M  V30 3548 H 319.938 5.57977 1.3166 0
M  V30 3549 H 318.335 5.96812 0.627286 0
M  V30 3550 H 319.405 4.84358 -0.229168 0
M  V30 3551 N 320.748 -0.0735177 1.57428 0
M  V30 3552 C 321.994 -0.774145 1.87443 0
M  V30 3553 C 322.327 -1.77311 0.792103 0
M  V30 3554 O 321.602 -1.93492 -0.197793 0
M  V30 3555 C 321.885 -1.48367 3.28115 0
M  V30 3556 C 321.738 -0.501227 4.46999 0
M  V30 3557 C 323.057 -2.429 3.66998 0
M  V30 3558 H 320.176 -0.279971 0.681752 0
M  V30 3559 H 322.818 -0.0373616 1.89963 0
M  V30 3560 H 320.968 -2.11171 3.26097 0
M  V30 3561 H 322.64 0.121468 4.6114 0
M  V30 3562 H 320.883 0.183593 4.33411 0
M  V30 3563 H 321.554 -1.03526 5.42205 0
M  V30 3564 H 324.03 -1.90175 3.70098 0
M  V30 3565 H 322.906 -2.89549 4.66318 0
M  V30 3566 H 323.167 -3.27628 2.96837 0
M  V30 3567 N 322.226 -1.5378 -0.344866 0
M  V30 3568 C 323.503 -1.61589 -1.10219 0
M  V30 3569 C 323.883 -0.436316 -2.06542 0
M  V30 3570 O 323.231 0.571543 -2.21237 0
M  V30 3571 C 323.441 -2.97602 -1.82301 0
M  V30 3572 C 324.789 -3.5291 -2.36093 0
M  V30 3573 O 325.813 -2.99768 -1.924 0
M  V30 3574 O 324.672 -4.45859 -3.16026 0
M  V30 3575 H 321.766 -0.653522 -0.506792 0
M  V30 3576 H 324.312 -1.66126 -0.346465 0
M  V30 3577 H 323.084 -3.74893 -1.12121 0
M  V30 3578 H 322.707 -2.9665 -2.64735 0
M  V30 3579 N 323.704 0.605807 -1.45491 0
M  V30 3580 C 324.981 1.36522 -1.40075 0
M  V30 3581 C 325.361 2.10976 -0.0722744 0
M  V30 3582 O 324.709 2.08007 0.945808 0
M  V30 3583 C 324.919 2.31056 -2.61561 0
M  V30 3584 C 326.267 2.93608 -3.06724 0
M  V30 3585 O 327.291 2.41376 -2.61946 0
M  V30 3586 O 326.15 3.88421 -3.84437 0
M  V30 3587 H 323.244 0.612248 -0.555951 0
M  V30 3588 H 325.79 0.628747 -1.57623 0
M  V30 3589 H 324.562 1.75311 -3.49831 0
M  V30 3590 H 324.185 3.12081 -2.46356 0
M  V30 3591 N 325.182 1.32811 0.848464 0
M  V30 3592 C 326.431 1.23075 1.59798 0
M  V30 3593 C 326.744 -0.204419 1.94529 0
M  V30 3594 O 327.95 -0.423701 2.68173 0
M  V30 3595 C 326.406 2.15594 2.88179 0
M  V30 3596 C 326.014 3.64228 2.60849 0
M  V30 3597 C 327.758 2.14709 3.66197 0
M  V30 3598 C 325.665 4.48689 3.85269 0
M  V30 3599 H 324.595 0.457091 0.599653 0
M  V30 3600 H 327.246 1.57813 0.936342 0
M  V30 3601 H 325.628 1.73778 3.55833 0
M  V30 3602 H 326.802 4.14424 2.01467 0
M  V30 3603 H 325.117 3.67306 1.96151 0
M  V30 3604 H 327.714 2.75046 4.58534 0
M  V30 3605 H 328.057 1.13966 4.00397 0
M  V30 3606 H 328.59 2.54837 3.05455 0
M  V30 3607 H 325.329 5.5027 3.56207 0
M  V30 3608 H 324.849 4.03241 4.44024 0
M  V30 3609 H 326.528 4.62006 4.52946 0
M  V30 3610 N 326.66 -1.06551 1.16123 0
M  V30 3611 C 327.906 -1.79567 0.94252 0
M  V30 3612 C 328.239 -1.86869 -0.528547 0
M  V30 3613 O 327.514 -1.35838 -1.39206 0
M  V30 3614 C 327.797 -3.24195 1.56747 0
M  V30 3615 C 327.65 -3.24989 3.10969 0
M  V30 3616 C 328.969 -4.21678 1.25998 0
M  V30 3617 H 326.088 -0.651883 0.343828 0
M  V30 3618 H 328.73 -1.2463 1.43413 0
M  V30 3619 H 326.88 -3.71107 1.14942 0
M  V30 3620 H 328.552 -2.86258 3.61737 0
M  V30 3621 H 326.795 -2.63716 3.44436 0
M  V30 3622 H 327.466 -4.27005 3.49815 0
M  V30 3623 H 329.942 -3.83196 1.62174 0
M  V30 3624 H 328.818 -5.21146 1.7233 0
M  V30 3625 H 329.079 -4.4174 0.178367 0
M  V30 3626 N 328.138 -0.959301 -1.25041 0
M  V30 3627 C 329.366 -0.633949 -1.96948 0
M  V30 3628 C 329.781 0.794916 -1.7125 0
M  V30 3629 O 329.138 1.53231 -0.991287 0
M  V30 3630 C 329.189 -0.888805 -3.50403 0
M  V30 3631 O 328.91 -2.26149 -3.75218 0
M  V30 3632 C 330.411 -0.576482 -4.39536 0
M  V30 3633 H 327.631 -0.237263 -0.627652 0
M  V30 3634 H 330.175 -1.28495 -1.59089 0
M  V30 3635 H 328.33 -0.284145 -3.86357 0
M  V30 3636 H 328.744 -2.33514 -4.6965 0
M  V30 3637 H 330.218 -0.805314 -5.46094 0
M  V30 3638 H 330.695 0.489075 -4.36468 0
M  V30 3639 H 331.301 -1.16067 -4.09156 0
M  V30 3640 N 329.616 1.39756 -0.72842 0
M  V30 3641 C 330.563 2.30647 -0.0841519 0
M  V30 3642 C 331.533 1.48869 0.7367 0
M  V30 3643 O 332.718 1.77574 0.698015 0
M  V30 3644 C 329.858 3.35165 0.822091 0
M  V30 3645 C 328.971 4.31999 -0.0106663 0
M  V30 3646 C 328.106 5.23585 0.896241 0
M  V30 3647 C 327.145 6.12072 0.0583381 0
M  V30 3648 N 326.282 6.96035 0.920818 0
M  V30 3649 H 331.122 2.85173 -0.864891 0
M  V30 3650 H 328.659 1.40422 -0.438179 0
M  V30 3651 H 330.617 3.94345 1.36189 0
M  V30 3652 H 329.247 2.8211 1.56888 0
M  V30 3653 H 328.299 3.74492 -0.66781 0
M  V30 3654 H 329.611 4.9443 -0.658825 0
M  V30 3655 H 328.765 5.87759 1.50412 0
M  V30 3656 H 327.504 4.61459 1.57819 0
M  V30 3657 H 326.509 5.46916 -0.562389 0
M  V30 3658 H 327.734 6.76261 -0.6203 0
M  V30 3659 H 325.68 6.36485 1.58818 0
M  V30 3660 H 325.597 7.55284 0.32899 0
M  V30 3661 H 326.865 7.64646 1.51447 0
M  V30 3662 N 331.094 0.475555 1.50254 0
M  V30 3663 C 332.343 -0.0795996 2.01543 0
M  V30 3664 C 332.656 -1.4038 1.36209 0
M  V30 3665 O 333.862 -2.04415 1.7868 0
M  V30 3666 C 332.318 -0.192363 3.59386 0
M  V30 3667 C 331.926 1.12367 4.33679 0
M  V30 3668 C 333.67 -0.699238 4.18701 0
M  V30 3669 C 331.577 0.974453 5.83317 0
M  V30 3670 H 330.507 -0.0335228 0.753254 0
M  V30 3671 H 333.158 0.611128 1.73025 0
M  V30 3672 H 331.54 -0.946974 3.84511 0
M  V30 3673 H 332.714 1.88958 4.20276 0
M  V30 3674 H 331.029 1.562 3.85993 0
M  V30 3675 H 333.626 -0.827978 5.28251 0
M  V30 3676 H 333.969 -1.69171 3.80377 0
M  V30 3677 H 334.502 -0.00188807 3.978 0
M  V30 3678 H 331.241 1.94042 6.26121 0
M  V30 3679 H 330.761 0.248998 5.99283 0
M  V30 3680 H 332.44 0.642867 6.43798 0
M  V30 3681 N 332.573 -1.56217 0.208337 0
M  V30 3682 C 333.52 -2.19699 -0.707192 0
M  V30 3683 C 334.49 -1.14836 -1.20008 0
M  V30 3684 O 335.675 -1.4314 -1.26157 0
M  V30 3685 C 332.815 -2.87061 -1.91546 0
M  V30 3686 C 331.928 -4.06483 -1.46271 0
M  V30 3687 C 331.063 -4.61665 -2.62752 0
M  V30 3688 C 330.102 -5.73417 -2.14147 0
M  V30 3689 N 329.239 -6.22948 -3.23853 0
M  V30 3690 H 334.079 -2.97575 -0.159111 0
M  V30 3691 H 331.616 -1.46948 -0.0667874 0
M  V30 3692 H 333.574 -3.24294 -2.62468 0
M  V30 3693 H 332.204 -2.11725 -2.43664 0
M  V30 3694 H 331.256 -3.74825 -0.648886 0
M  V30 3695 H 332.568 -4.87271 -1.06622 0
M  V30 3696 H 331.722 -5.01272 -3.41776 0
M  V30 3697 H 330.461 -3.80013 -3.05682 0
M  V30 3698 H 329.466 -5.33326 -1.33581 0
M  V30 3699 H 330.691 -6.56897 -1.72232 0
M  V30 3700 H 328.637 -5.44213 -3.6629 0
M  V30 3701 H 328.554 -6.98823 -2.88414 0
M  V30 3702 H 329.822 -6.6721 -4.03052 0
M  V30 3703 N 334.051 0.0651679 -1.57465 0
M  V30 3704 C 335.276 0.779605 -1.9219 0
M  V30 3705 C 335.701 1.69988 -0.805333 0
M  V30 3706 O 335.059 1.79685 0.241435 0
M  V30 3707 C 335.107 1.54364 -3.2589 0
M  V30 3708 O 334.211 2.65474 -3.1559 0
M  V30 3709 H 333.552 0.212249 -0.629163 0
M  V30 3710 H 336.082 0.0314294 -2.04576 0
M  V30 3711 H 336.092 1.92146 -3.59922 0
M  V30 3712 H 334.767 0.868457 -4.06732 0
M  V30 3713 H 333.344 2.30501 -2.93128 0
M  V30 3714 N 335.529 1.53961 0.336706 0
M  V30 3715 C 336.759 1.75229 1.09446 0
M  V30 3716 C 337.167 0.494602 1.82621 0
M  V30 3717 O 336.51 -0.543764 1.75468 0
M  V30 3718 C 336.572 2.88288 2.1478 0
M  V30 3719 C 336.236 4.27656 1.6112 0
M  V30 3720 C 337.233 5.08981 1.0599 0
M  V30 3721 C 334.918 4.74161 1.6576 0
M  V30 3722 C 336.912 6.34916 0.562129 0
M  V30 3723 C 334.599 6.00067 1.15595 0
M  V30 3724 C 335.597 6.80278 0.609147 0
M  V30 3725 O 335.285 8.03818 0.114999 0
M  V30 3726 H 335.017 0.588881 0.331956 0
M  V30 3727 H 337.571 2.01614 0.392566 0
M  V30 3728 H 335.801 2.57443 2.88548 0
M  V30 3729 H 337.49 2.97461 2.76174 0
M  V30 3730 H 338.256 4.74213 1.01722 0
M  V30 3731 H 334.135 4.11781 2.07261 0
M  V30 3732 H 337.679 6.9747 0.134668 0
M  V30 3733 H 333.576 6.3433 1.19566 0
M  V30 3734 H 334.344 8.18172 0.231651 0
M  V30 3735 N 337.007 -0.598083 1.45811 0
M  V30 3736 C 338.235 -1.38322 1.53866 0
M  V30 3737 C 338.65 -1.87992 0.174479 0
M  V30 3738 O 338.007 -1.62756 -0.825627 0
M  V30 3739 C 338.058 -2.58125 2.53089 0
M  V30 3740 O 337.779 -2.10516 3.84206 0
M  V30 3741 C 339.28 -3.50869 2.70935 0
M  V30 3742 H 336.5 -0.423093 0.520801 0
M  V30 3743 H 339.044 -0.728527 1.91083 0
M  V30 3744 H 337.199 -3.19615 2.18917 0
M  V30 3745 H 337.613 -2.88425 4.38077 0
M  V30 3746 H 339.087 -4.31451 3.44317 0
M  V30 3747 H 339.564 -4.01822 1.77301 0
M  V30 3748 H 340.17 -2.95225 3.06141 0
M  V30 3749 N 338.485 -1.33259 -0.841409 0
M  V30 3750 C 339.713 -1.27605 -1.62864 0
M  V30 3751 C 340.128 0.153507 -1.88175 0
M  V30 3752 O 339.485 1.09485 -1.46011 0
M  V30 3753 C 339.536 -2.04596 -2.98031 0
M  V30 3754 O 339.257 -3.41975 -2.73834 0
M  V30 3755 C 340.758 -2.06122 -3.92465 0
M  V30 3756 H 337.978 -0.439718 -0.506842 0
M  V30 3757 H 340.522 -1.75591 -1.04824 0
M  V30 3758 H 338.677 -1.60299 -3.5268 0
M  V30 3759 H 339.091 -3.81549 -3.59889 0
M  V30 3760 H 340.565 -2.64451 -4.84531 0
M  V30 3761 H 341.042 -1.05083 -4.26444 0
M  V30 3762 H 341.648 -2.50427 -3.43753 0
M  V30 3763 N 339.963 1.05934 -1.16686 0
M  V30 3764 C 340.873 2.17014 -0.891183 0
M  V30 3765 C 341.889 1.73453 0.137907 0
M  V30 3766 O 343.065 2.01361 -0.039592 0
M  V30 3767 C 340.13 3.44384 -0.400099 0
M  V30 3768 C 339.191 4.02433 -1.49486 0
M  V30 3769 C 338.424 5.23723 -1.02711 0
M  V30 3770 O 338.647 5.7027 0.121716 0
M  V30 3771 O 337.581 5.7382 -1.81699 0
M  V30 3772 H 341.407 2.43113 -1.82015 0
M  V30 3773 H 338.992 1.15541 -0.947132 0
M  V30 3774 H 340.874 4.21189 -0.133392 0
M  V30 3775 H 339.549 3.19802 0.500817 0
M  V30 3776 H 338.456 3.27102 -1.81535 0
M  V30 3777 H 339.789 4.31317 -2.37121 0
M  V30 3778 N 341.441 0.965919 1.2453 0
M  V30 3779 C 342.373 0.452465 2.2469 0
M  V30 3780 C 343.386 -0.437821 1.56802 0
M  V30 3781 O 344.575 -0.244283 1.76821 0
M  V30 3782 C 341.675 -0.366258 3.36915 0
M  V30 3783 C 340.848 0.513701 4.34373 0
M  V30 3784 C 339.907 -0.248716 5.25612 0
M  V30 3785 O 338.933 0.356745 5.68081 0
M  V30 3786 N 340.135 -1.53877 5.59734 0
M  V30 3787 H 342.9 1.31361 2.69378 0
M  V30 3788 H 340.461 0.837541 1.38553 0
M  V30 3789 H 342.453 -0.884297 3.94921 0
M  V30 3790 H 341.023 -1.12832 2.91526 0
M  V30 3791 H 340.243 1.21273 3.75082 0
M  V30 3792 H 341.531 1.11391 4.96457 0
M  V30 3793 H 340.929 -2.05243 5.27154 0
M  V30 3794 H 339.486 -2.00254 6.20275 0
M  V30 3795 N 342.919 -1.39368 0.735821 0
M  V30 3796 C 344.167 -2.00101 0.283562 0
M  V30 3797 C 344.488 -1.5868 -1.13338 0
M  V30 3798 O 343.758 -0.835423 -1.77193 0
M  V30 3799 H 342.338 -0.740024 0.101851 0
M  V30 3800 H 345 -1.70404 0.945962 0
M  V30 3801 H 344.096 -3.10323 0.332604 0
M  V30 3802 N 344.397 -0.483516 -1.5 0
M  V30 3803 C 345.327 0.293829 -2.31644 0
M  V30 3804 C 346.308 0.978864 -1.39112 0
M  V30 3805 O 347.493 0.973644 -1.68029 0
M  V30 3806 C 344.623 1.36897 -3.19181 0
M  V30 3807 C 343.577 0.804833 -4.20365 0
M  V30 3808 C 342.903 1.9792 -4.96721 0
M  V30 3809 C 344.203 -0.192313 -5.21946 0
M  V30 3810 H 345.897 -0.387616 -2.9688 0
M  V30 3811 H 343.443 -0.187856 -1.42769 0
M  V30 3812 H 345.396 1.92037 -3.751 0
M  V30 3813 H 344.12 2.07936 -2.51853 0
M  V30 3814 H 342.779 0.275319 -3.65565 0
M  V30 3815 H 342.427 2.67686 -4.25856 0
M  V30 3816 H 342.127 1.60789 -5.65173 0
M  V30 3817 H 343.651 2.53526 -5.55479 0
M  V30 3818 H 345.065 0.270333 -5.72662 0
M  V30 3819 H 343.462 -0.478543 -5.98189 0
M  V30 3820 H 344.532 -1.11409 -4.71928 0
M  V30 3821 N 345.875 1.56104 -0.216619 0
M  V30 3822 C 347.122 1.98172 0.416416 0
M  V30 3823 C 347.45 1.10413 1.60122 0
M  V30 3824 O 346.705 0.147967 1.9514 0
M  V30 3825 C 347.004 3.45923 0.898464 0
M  V30 3826 C 346.67 4.50559 -0.175288 0
M  V30 3827 C 345.332 4.78897 -0.470271 0
M  V30 3828 C 347.684 5.1334 -0.901728 0
M  V30 3829 C 345.012 5.67299 -1.4963 0
M  V30 3830 C 347.364 6.02853 -1.91705 0
M  V30 3831 C 346.028 6.29537 -2.21901 0
M  V30 3832 H 345.298 0.725164 0.152377 0
M  V30 3833 H 347.945 1.88839 -0.318103 0
M  V30 3834 H 346.25 3.52434 1.71165 0
M  V30 3835 H 347.947 3.75841 1.39803 0
M  V30 3836 H 344.537 4.28551 0.0647806 0
M  V30 3837 H 348.721 4.91521 -0.687072 0
M  V30 3838 H 343.977 5.86239 -1.73592 0
M  V30 3839 H 348.151 6.50552 -2.48505 0
M  V30 3840 H 345.778 6.97835 -3.01548 0
M  V30 3841 N 347.353 -0.0568162 1.57498 0
M  V30 3842 C 348.601 -0.751617 1.87604 0
M  V30 3843 C 348.922 -1.77351 0.81066 0
M  V30 3844 O 348.192 -1.95254 -0.159018 0
M  V30 3845 H 346.772 -0.280583 0.692302 0
M  V30 3846 H 349.434 -0.0293483 1.94878 0
M  V30 3847 H 348.53 -1.25852 2.856 0
M  V30 3848 N 348.832 -1.54138 -0.328536 0
M  V30 3849 C 350.109 -1.62749 -1.08499 0
M  V30 3850 C 350.489 -0.458198 -2.06067 0
M  V30 3851 O 349.837 0.548046 -2.2183 0
M  V30 3852 C 350.047 -2.99519 -1.79135 0
M  V30 3853 C 351.395 -3.55394 -2.32337 0
M  V30 3854 O 352.419 -3.01792 -1.89209 0
M  V30 3855 O 351.278 -4.49186 -3.11279 0
M  V30 3856 H 348.372 -0.65886 -0.499832 0
M  V30 3857 H 350.918 -1.66484 -0.328826 0
M  V30 3858 H 349.69 -3.76061 -1.08139 0
M  V30 3859 H 349.313 -2.99441 -2.61574 0
M  V30 3860 N 350.31 0.590341 -1.46126 0
M  V30 3861 C 351.556 1.35082 -1.51264 0
M  V30 3862 C 351.889 1.93534 -0.160711 0
M  V30 3863 O 351.164 1.76045 0.826956 0
M  V30 3864 C 351.447 2.48588 -2.6053 0
M  V30 3865 C 351.3 1.95221 -4.05227 0
M  V30 3866 C 352.619 3.50662 -2.6594 0
M  V30 3867 H 349.738 0.489803 -0.550692 0
M  V30 3868 H 352.38 0.663887 -1.78024 0
M  V30 3869 H 350.53 3.07186 -2.37843 0
M  V30 3870 H 352.202 1.41139 -4.39178 0
M  V30 3871 H 350.445 1.26101 -4.15068 0
M  V30 3872 H 351.116 2.77121 -4.77397 0
M  V30 3873 H 353.592 3.01934 -2.86313 0
M  V30 3874 H 352.468 4.27551 -3.44226 0
M  V30 3875 H 352.729 4.07399 -1.71694 0
M  V30 3876 N 351.788 1.33704 0.83433 0
M  V30 3877 C 353.018 1.28281 1.6195 0
M  V30 3878 C 353.426 -0.147603 1.88623 0
M  V30 3879 O 352.769 -1.1016 1.47005 0
M  V30 3880 C 352.831 1.99386 2.99141 0
M  V30 3881 C 352.495 3.48681 2.95416 0
M  V30 3882 C 353.492 4.438 2.70809 0
M  V30 3883 C 351.177 3.90925 3.15409 0
M  V30 3884 C 353.171 5.79138 2.66229 0
M  V30 3885 C 350.858 5.26366 3.10454 0
M  V30 3886 C 351.856 6.20284 2.85895 0
M  V30 3887 O 351.544 7.53245 2.80852 0
M  V30 3888 H 351.276 0.44315 0.510484 0
M  V30 3889 H 353.83 1.76711 1.04702 0
M  V30 3890 H 352.06 1.45554 3.58261 0
M  V30 3891 H 353.749 1.87403 3.60049 0
M  V30 3892 H 354.515 4.12485 2.5511 0
M  V30 3893 H 350.394 3.18229 3.33543 0
M  V30 3894 H 353.938 6.52416 2.4698 0
M  V30 3895 H 349.835 5.57304 3.25703 0
M  V30 3896 H 350.603 7.62846 2.96661 0
M  V30 3897 N 353.266 -1.05314 1.17247 0
M  V30 3898 C 354.514 -1.77941 0.958194 0
M  V30 3899 C 354.835 -1.88089 -0.514556 0
M  V30 3900 O 354.105 -1.39676 -1.37359 0
M  V30 3901 H 352.685 -0.659116 0.351533 0
M  V30 3902 H 355.347 -1.27166 1.47699 0
M  V30 3903 H 354.443 -2.79663 1.38546 0
M  V30 3904 N 354.744 -0.972509 -1.24016 0
M  V30 3905 C 356.16 -0.679827 -1.44397 0
M  V30 3906 C 356.36 0.756716 -1.86751 0
M  V30 3907 O 355.416 1.53007 -2.00861 0
M  V30 3908 C 356.729 -1.66803 -2.50195 0
M  V30 3909 C 358.277 -1.68119 -2.64017 0
M  V30 3910 C 358.752 -2.65748 -3.73017 0
M  V30 3911 N 360.243 -2.64219 -3.8045 0
M  V30 3912 C 360.978 -3.36433 -4.64328 0
M  V30 3913 N 360.474 -4.1818 -5.52356 0
M  V30 3914 N 362.267 -3.25235 -4.58453 0
M  V30 3915 H 354.418 -1.90059 -0.948228 0
M  V30 3916 H 356.681 -0.818527 -0.478245 0
M  V30 3917 H 356.387 -2.69498 -2.25973 0
M  V30 3918 H 356.261 -1.4446 -3.48441 0
M  V30 3919 H 358.648 -0.661319 -2.87594 0
M  V30 3920 H 358.729 -1.94525 -1.66113 0
M  V30 3921 H 358.373 -3.67872 -3.50189 0
M  V30 3922 H 358.303 -2.36619 -4.70446 0
M  V30 3923 H 360.794 -2.04887 -3.17537 0
M  V30 3924 H 361.107 -4.70157 -6.13329 0
M  V30 3925 H 359.452 -4.22273 -5.52006 0
M  V30 3926 H 362.643 -2.60829 -3.88698 0
M  V30 3927 H 362.816 -3.81776 -5.23594 0
M  V30 3928 N 356.222 1.38976 -0.743202 0
M  V30 3929 C 357.633 1.83123 -0.363732 0
M  V30 3930 C 357.984 1.6205 1.10609 0
M  V30 3931 O 357.109 1.11606 1.854 0
M  V30 3932 C 357.704 3.32439 -0.653408 0
M  V30 3933 C 356.263 3.74974 -0.327338 0
M  V30 3934 C 355.41 2.61878 -0.911875 0
M  V30 3935 H 358.361 1.27852 -0.940191 0
M  V30 3936 H 358.382 3.80432 0.0720031 0
M  V30 3937 H 357.894 3.47745 -1.72323 0
M  V30 3938 H 355.995 3.65252 0.736314 0
M  V30 3939 H 356.108 4.72106 -0.815631 0
M  V30 3940 H 354.472 2.52448 -0.337944 0
M  V30 3941 H 355.255 2.79987 -1.98651 0
M  V30 3942 N 357.7 0.491464 1.49741 0
M  V30 3943 C 358.647 -0.292027 2.28945 0
M  V30 3944 C 359.617 -0.968973 1.34908 0
M  V30 3945 O 360.802 -0.97748 1.6386 0
M  V30 3946 C 357.942 -1.35617 3.17336 0
M  V30 3947 C 357.055 -0.691957 4.26422 0
M  V30 3948 C 356.19 -1.73572 5.02042 0
M  V30 3949 C 355.229 -1.05286 6.02977 0
M  V30 3950 N 354.366 -2.0404 6.71798 0
M  V30 3951 H 359.206 0.389654 2.95442 0
M  V30 3952 H 356.743 0.204003 1.45679 0
M  V30 3953 H 358.701 -1.98502 3.66951 0
M  V30 3954 H 357.331 -2.00674 2.52844 0
M  V30 3955 H 356.383 0.0499523 3.80367 0
M  V30 3956 H 357.695 -0.153946 4.98562 0
M  V30 3957 H 356.849 -2.43987 5.55478 0
M  V30 3958 H 355.588 -2.30757 4.29654 0
M  V30 3959 H 354.593 -0.334446 5.48782 0
M  V30 3960 H 355.818 -0.487636 6.77347 0
M  V30 3961 H 353.764 -2.60205 6.02187 0
M  V30 3962 H 353.681 -1.55279 7.39881 0
M  V30 3963 H 354.949 -2.73772 7.29842 0
M  V30 3964 N 359.178 -1.55987 0.224894 0
M  V30 3965 C 360.128 -2.17076 -0.697296 0
M  V30 3966 C 361.112 -1.12006 -1.15514 0
M  V30 3967 O 362.304 -1.37985 -1.10857 0
M  V30 3968 C 359.433 -2.85679 -1.90374 0
M  V30 3969 C 358.519 -3.97977 -1.46543 0
M  V30 3970 N 358.91 -5.00359 -0.739909 0
M  V30 3971 C 357.208 -4.10128 -1.75245 0
M  V30 3972 C 357.909 -5.79407 -0.515939 0
M  V30 3973 N 356.885 -5.32892 -1.07364 0
M  V30 3974 H 360.687 -2.93592 -0.134594 0
M  V30 3975 H 358.201 -1.62379 0.0262885 0
M  V30 3976 H 360.198 -3.27857 -2.57518 0
M  V30 3977 H 358.858 -2.1066 -2.47088 0
M  V30 3978 H 359.869 -5.16412 -0.392253 0
M  V30 3979 H 356.546 -3.46263 -2.33255 0
M  V30 3980 H 357.936 -6.71872 0.0617349 0
M  V30 3981 N 360.656 0.0484629 -1.57525 0
M  V30 3982 C 361.905 0.742065 -1.87553 0
M  V30 3983 C 362.218 1.77545 -0.820802 0
M  V30 3984 O 363.424 2.52027 -1.00967 0
M  V30 3985 C 361.88 1.37081 -3.32771 0
M  V30 3986 C 361.488 0.374786 -4.4643 0
M  V30 3987 C 363.232 2.04542 -3.71972 0
M  V30 3988 C 361.139 1.01077 -5.82698 0
M  V30 3989 H 360.069 0.280903 -0.699721 0
M  V30 3990 H 362.72 -0.00411877 -1.835 0
M  V30 3991 H 361.102 2.16605 -3.31509 0
M  V30 3992 H 362.276 -0.392331 -4.59127 0
M  V30 3993 H 360.591 -0.196653 -4.15935 0
M  V30 3994 H 363.188 2.52943 -4.71088 0
M  V30 3995 H 363.531 2.85515 -3.02964 0
M  V30 3996 H 364.064 1.31819 -3.75325 0
M  V30 3997 H 360.803 0.240878 -6.55057 0
M  V30 3998 H 360.323 1.74819 -5.73758 0
M  V30 3999 H 362.002 1.52383 -6.28799 0
M  V30 4000 N 362.134 1.5431 0.320358 0
M  V30 4001 C 363.364 1.7638 1.07582 0
M  V30 4002 C 363.772 0.513944 1.82086 0
M  V30 4003 O 363.115 -0.525123 1.76035 0
M  V30 4004 C 363.177 2.9055 2.1171 0
M  V30 4005 C 362.841 4.2934 1.56575 0
M  V30 4006 C 363.838 5.10077 1.00586 0
M  V30 4007 C 361.523 4.75893 1.60722 0
M  V30 4008 C 363.517 6.35477 0.494756 0
M  V30 4009 C 361.204 6.0126 1.09224 0
M  V30 4010 C 362.202 6.80886 0.53696 0
M  V30 4011 O 361.89 8.03894 0.0297371 0
M  V30 4012 H 361.622 0.592369 0.325692 0
M  V30 4013 H 364.176 2.02019 0.37116 0
M  V30 4014 H 362.406 2.60489 2.85801 0
M  V30 4015 H 364.095 3.00373 2.73003 0
M  V30 4016 H 364.861 4.75265 0.966869 0
M  V30 4017 H 360.74 4.13957 2.02882 0
M  V30 4018 H 364.284 6.97574 0.0606842 0
M  V30 4019 H 360.181 6.35562 1.12831 0
M  V30 4020 H 360.949 8.18372 0.14486 0
M  V30 4021 N 363.613 -0.582584 1.46437 0
M  V30 4022 C 364.838 -1.37168 1.55563 0
M  V30 4023 C 365.263 -1.87061 0.19743 0
M  V30 4024 O 364.621 -1.61572 -0.822451 0
M  V30 4025 C 364.669 -2.53511 2.56446 0
M  V30 4026 O 363.773 -3.54953 2.09958 0
M  V30 4027 H 363.114 -0.408494 0.523477 0
M  V30 4028 H 365.644 -0.706646 1.9201 0
M  V30 4029 H 365.654 -3.00426 2.76058 0
M  V30 4030 H 364.329 -2.16549 3.55076 0
M  V30 4031 H 362.906 -3.14516 2.00334 0
M  V30 4032 N 365.091 -1.34144 -0.827227 0
M  V30 4033 C 366.34 -1.25602 -1.5782 0
M  V30 4034 C 366.653 0.173445 -1.94829 0
M  V30 4035 O 367.859 0.380984 -2.68814 0
M  V30 4036 C 366.315 -2.20151 -2.84713 0
M  V30 4037 C 365.923 -3.68331 -2.55021 0
M  V30 4038 C 367.667 -2.20508 -3.62735 0
M  V30 4039 C 365.574 -4.54762 -3.78082 0
M  V30 4040 H 364.504 -0.466573 -0.592306 0
M  V30 4041 H 367.155 -1.59283 -0.911116 0
M  V30 4042 H 365.537 -1.79417 -3.53023 0
M  V30 4043 H 366.711 -4.17577 -1.94849 0
M  V30 4044 H 365.026 -3.7038 -1.90283 0
M  V30 4045 H 367.623 -2.82306 -4.54101 0
M  V30 4046 H 367.966 -1.20322 -3.98533 0
M  V30 4047 H 368.499 -2.59664 -3.01362 0
M  V30 4048 H 365.238 -5.55867 -3.47407 0
M  V30 4049 H 364.758 -4.10254 -4.37552 0
M  V30 4050 H 366.437 -4.69153 -4.45538 0
M  V30 4051 N 366.569 1.04691 -1.17803 0
M  V30 4052 C 367.799 1.81183 -0.992788 0
M  V30 4053 C 368.207 1.8347 0.462098 0
M  V30 4054 O 367.55 1.2643 1.33271 0
M  V30 4055 C 367.612 3.28363 -1.46349 0
M  V30 4056 C 367.276 3.49749 -2.94151 0
M  V30 4057 C 368.273 3.41456 -3.92051 0
M  V30 4058 C 365.958 3.76548 -3.32441 0
M  V30 4059 C 367.952 3.59656 -5.26238 0
M  V30 4060 C 365.639 3.94396 -4.66792 0
M  V30 4061 C 366.637 3.8595 -5.635 0
M  V30 4062 O 366.325 4.03294 -6.9542 0
M  V30 4063 H 366.057 0.577622 -0.351182 0
M  V30 4064 H 368.611 1.32876 -1.5663 0
M  V30 4065 H 366.841 3.77609 -0.833574 0
M  V30 4066 H 368.53 3.86395 -1.24313 0
M  V30 4067 H 369.296 3.20723 -3.63815 0
M  V30 4068 H 365.175 3.82224 -2.57732 0
M  V30 4069 H 368.719 3.52979 -6.01707 0
M  V30 4070 H 364.616 4.14622 -4.94731 0
M  V30 4071 H 365.384 4.2049 -7.02232 0
M  V30 4072 N 368.047 0.979072 1.23499 0
M  V30 4073 C 369.463 0.687475 1.44034 0
M  V30 4074 C 369.663 -0.746801 1.8715 0
M  V30 4075 O 368.719 -1.51939 2.0167 0
M  V30 4076 C 370.032 1.68127 2.49307 0
M  V30 4077 C 371.58 1.69516 2.63122 0
M  V30 4078 C 372.055 2.67723 3.71603 0
M  V30 4079 N 373.546 2.66233 3.79044 0
M  V30 4080 C 374.281 3.38891 4.62537 0
M  V30 4081 N 373.777 4.21103 5.50131 0
M  V30 4082 N 375.57 3.27661 4.56721 0
M  V30 4083 H 367.721 1.90559 0.938135 0
M  V30 4084 H 369.984 0.821051 0.473897 0
M  V30 4085 H 369.69 2.70693 2.2454 0
M  V30 4086 H 369.564 1.46306 3.4767 0
M  V30 4087 H 371.951 0.676561 2.8724 0
M  V30 4088 H 372.032 1.95404 1.65079 0
M  V30 4089 H 371.676 3.69724 3.48233 0
M  V30 4090 H 371.606 2.39111 4.69184 0
M  V30 4091 H 374.097 2.06568 3.16446 0
M  V30 4092 H 374.41 4.73403 6.10827 0
M  V30 4093 H 372.755 4.25195 5.49759 0
M  V30 4094 H 375.946 2.62887 3.87309 0
M  V30 4095 H 376.119 3.84547 5.21562 0
M  V30 4096 N 369.525 -1.3858 0.750561 0
M  V30 4097 C 370.472 -2.30483 0.120835 0
M  V30 4098 C 371.442 -1.50022 -0.712923 0
M  V30 4099 O 372.627 -1.78662 -0.669676 0
M  V30 4100 C 369.767 -3.36431 -0.768666 0
M  V30 4101 C 368.88 -4.31927 0.0793922 0
M  V30 4102 C 368.015 -5.24944 -0.81283 0
M  V30 4103 C 367.054 -6.12088 0.0390447 0
M  V30 4104 N 366.191 -6.97412 -0.809969 0
M  V30 4105 H 371.031 -2.83761 0.91015 0
M  V30 4106 H 368.568 -1.39707 0.460463 0
M  V30 4107 H 370.526 -3.96462 -1.29898 0
M  V30 4108 H 369.156 -2.8457 -1.5238 0
M  V30 4109 H 368.208 -3.73382 0.727303 0
M  V30 4110 H 369.52 -4.93319 0.737401 0
M  V30 4111 H 368.674 -5.90078 -1.41042 0
M  V30 4112 H 367.413 -4.63911 -1.50458 0
M  V30 4113 H 366.418 -5.45952 0.649328 0
M  V30 4114 H 367.643 -6.75189 0.727809 0
M  V30 4115 H 365.589 -6.38931 -1.48672 0
M  V30 4116 H 365.506 -7.55712 -0.208789 0
M  V30 4117 H 366.774 -7.66959 -1.39263 0
M  V30 4118 N 371.003 -0.499398 -1.49478 0
M  V30 4119 C 371.936 0.326491 -2.25852 0
M  V30 4120 C 372.914 0.971776 -1.30366 0
M  V30 4121 O 374.098 1.00219 -1.59651 0
M  V30 4122 C 371.225 1.45969 -3.05632 0
M  V30 4123 C 370.271 0.928938 -4.16261 0
M  V30 4124 S 371.104 -0.179012 -5.35201 0
M  V30 4125 C 372.26 0.957389 -6.18534 0
M  V30 4126 H 372.493 -0.321746 -2.95554 0
M  V30 4127 H 370.026 -0.284674 -1.51753 0
M  V30 4128 H 371.984 2.109 -3.52181 0
M  V30 4129 H 370.645 2.07953 -2.35402 0
M  V30 4130 H 369.838 1.77813 -4.71592 0
M  V30 4131 H 369.44 0.356869 -3.72293 0
M  V30 4132 H 371.732 1.86296 -6.51383 0
M  V30 4133 H 372.675 0.442733 -7.06715 0
M  V30 4134 H 373.083 1.224 -5.5107 0
M  V30 4135 N 372.481 1.55866 -0.233164 0
M  V30 4136 C 373.897 1.59133 0.121988 0
M  V30 4137 C 374.097 1.25016 1.58029 0
M  V30 4138 O 373.153 0.990922 2.32243 0
M  V30 4139 C 374.466 2.99932 -0.214792 0
M  V30 4140 C 376.014 3.12601 -0.157971 0
M  V30 4141 C 376.489 4.55597 -0.46859 0
M  V30 4142 N 377.98 4.61305 -0.418585 0
M  V30 4143 C 378.715 5.69903 -0.63227 0
M  V30 4144 N 378.211 6.86819 -0.90835 0
M  V30 4145 N 380.004 5.59264 -0.563913 0
M  V30 4146 H 372.155 1.76315 -1.18434 0
M  V30 4147 H 374.418 0.820093 -0.475553 0
M  V30 4148 H 374.124 3.29588 -1.22739 0
M  V30 4149 H 373.998 3.74327 0.464691 0
M  V30 4150 H 376.385 2.82735 0.845283 0
M  V30 4151 H 376.466 2.40511 -0.871102 0
M  V30 4152 H 376.11 4.86182 -1.46934 0
M  V30 4153 H 376.04 5.25928 0.265865 0
M  V30 4154 H 378.531 3.77297 -0.213368 0
M  V30 4155 H 378.844 7.65507 -1.05919 0
M  V30 4156 H 377.189 6.88536 -0.945673 0
M  V30 4157 H 380.38 4.66802 -0.348372 0
M  V30 4158 H 380.553 6.43831 -0.733847 0
M  V30 4159 N 373.959 -0.0401083 1.57549 0
M  V30 4160 C 375.236 -0.767917 1.79896 0
M  V30 4161 C 375.616 -1.9416 0.82856 0
M  V30 4162 O 374.964 -2.2812 -0.131671 0
M  V30 4163 C 375.174 -1.2113 3.27305 0
M  V30 4164 C 376.522 -1.63175 3.91994 0
M  V30 4165 O 377.546 -1.30616 3.31388 0
M  V30 4166 O 376.405 -2.23565 4.98679 0
M  V30 4167 H 373.499 -0.370441 0.739393 0
M  V30 4168 H 376.045 -0.017737 1.69691 0
M  V30 4169 H 374.817 -0.372937 3.89519 0
M  V30 4170 H 374.44 -2.02183 3.42356 0
M  V30 4171 N 375.437 -1.54477 -0.31217 0
M  V30 4172 C 376.384 -1.84655 -1.38461 0
M  V30 4173 C 377.354 -0.694536 -1.50882 0
M  V30 4174 O 378.539 -0.942081 -1.6592 0
M  V30 4175 C 375.679 -2.0896 -2.74645 0
M  V30 4176 C 374.792 -3.36618 -2.70763 0
M  V30 4177 C 373.927 -3.50824 -3.98868 0
M  V30 4178 C 372.966 -4.72315 -3.89339 0
M  V30 4179 N 372.103 -4.83387 -5.09197 0
M  V30 4180 H 376.943 -2.76142 -1.12026 0
M  V30 4181 H 374.48 -1.36748 -0.542065 0
M  V30 4182 H 376.438 -2.21045 -3.53829 0
M  V30 4183 H 375.068 -1.20752 -2.99364 0
M  V30 4184 H 374.12 -3.33211 -1.83506 0
M  V30 4185 H 375.432 -4.25917 -2.59608 0
M  V30 4186 H 374.586 -3.62513 -4.86486 0
M  V30 4187 H 373.325 -2.59638 -4.12843 0
M  V30 4188 H 372.33 -4.6067 -3.00105 0
M  V30 4189 H 373.555 -5.64897 -3.76919 0
M  V30 4190 H 371.501 -3.9512 -5.23657 0
M  V30 4191 H 371.418 -5.66669 -5.00422 0
M  V30 4192 H 372.686 -4.9942 -5.98498 0
M  V30 4193 N 376.915 0.57481 -1.46744 0
M  V30 4194 C 377.862 1.68329 -1.57905 0
M  V30 4195 C 378.832 1.60625 -0.422927 0
M  V30 4196 O 380.017 1.79721 -0.640711 0
M  V30 4197 C 377.157 3.06665 -1.58274 0
M  V30 4198 C 376.27 3.24935 -2.84678 0
M  V30 4199 C 375.405 4.53566 -2.76499 0
M  V30 4200 C 374.444 4.65207 -3.97806 0
M  V30 4201 N 373.581 5.85172 -3.87967 0
M  V30 4202 H 378.421 1.58127 -2.52587 0
M  V30 4203 H 375.958 0.770552 -1.25303 0
M  V30 4204 H 377.916 3.86745 -1.56473 0
M  V30 4205 H 376.546 3.15745 -0.671194 0
M  V30 4206 H 375.598 2.38405 -2.96424 0
M  V30 4207 H 376.91 3.29403 -3.7456 0
M  V30 4208 H 376.064 5.41885 -2.72848 0
M  V30 4209 H 374.803 4.51548 -1.8427 0
M  V30 4210 H 373.808 3.75304 -4.0178 0
M  V30 4211 H 375.033 4.68997 -4.9114 0
M  V30 4212 H 372.979 5.84137 -2.98529 0
M  V30 4213 H 372.896 5.90943 -4.71511 0
M  V30 4214 H 374.164 6.759 -3.88303 0
M  V30 4215 N 378.394 1.34581 0.820102 0
M  V30 4216 C 379.341 1.2639 1.93117 0
M  V30 4217 C 380.311 0.138554 1.65521 0
M  V30 4218 O 381.496 0.320004 1.88097 0
M  V30 4219 C 378.636 1.02812 3.29429 0
M  V30 4220 C 377.749 2.24146 3.693 0
M  V30 4221 C 376.884 1.93829 4.94574 0
M  V30 4222 C 375.923 3.1129 5.27034 0
M  V30 4223 N 375.06 2.80838 6.43486 0
M  V30 4224 H 379.9 2.21408 1.99455 0
M  V30 4225 H 377.437 1.10077 0.975784 0
M  V30 4226 H 379.395 0.871788 4.0799 0
M  V30 4227 H 378.025 0.114612 3.22596 0
M  V30 4228 H 377.077 2.50691 2.86109 0
M  V30 4229 H 378.389 3.11899 3.89257 0
M  V30 4230 H 377.543 1.74948 5.80929 0
M  V30 4231 H 376.282 1.03341 4.76626 0
M  V30 4232 H 375.287 3.30764 4.39175 0
M  V30 4233 H 376.512 4.02561 5.4692 0
M  V30 4234 H 374.458 1.92929 6.26988 0
M  V30 4235 H 374.375 3.62123 6.63629 0
M  V30 4236 H 375.643 2.65467 7.32903 0
M  V30 4237 N 379.872 -1.04064 1.18357 0
M  V30 4238 C 381.288 -1.2947 0.933258 0
M  V30 4239 C 381.488 -1.97466 -0.401169 0
M  V30 4240 O 380.544 -2.25528 -1.13549 0
M  V30 4241 C 381.857 -2.15337 2.09882 0
M  V30 4242 C 383.405 -2.28683 2.13712 0
M  V30 4243 C 383.88 -3.17917 3.29686 0
M  V30 4244 N 385.371 -3.25504 3.29547 0
M  V30 4245 C 386.106 -3.94706 4.15926 0
M  V30 4246 N 385.602 -4.66239 5.12439 0
M  V30 4247 N 387.395 -3.90986 4.0384 0
M  V30 4248 H 379.546 -0.583359 2.04232 0
M  V30 4249 H 381.809 -0.319921 0.892387 0
M  V30 4250 H 381.515 -1.72682 3.06389 0
M  V30 4251 H 381.389 -3.16015 2.05947 0
M  V30 4252 H 383.776 -2.70575 1.17784 0
M  V30 4253 H 383.857 -1.27596 2.21705 0
M  V30 4254 H 383.501 -2.76736 4.25887 0
M  V30 4255 H 383.431 -4.19036 3.1893 0
M  V30 4256 H 385.922 -2.74547 2.59677 0
M  V30 4257 H 386.235 -5.16638 5.74722 0
M  V30 4258 H 384.58 -4.65143 5.16398 0
M  V30 4259 H 387.771 -3.34234 3.27727 0
M  V30 4260 H 387.944 -4.44646 4.71375 0
M  V30 4261 N 381.35 -0.985608 -1.22978 0
M  V30 4262 C 382.597 -0.657386 -1.91532 0
M  V30 4263 C 382.925 0.809707 -1.76845 0
M  V30 4264 O 382.18 1.60021 -1.12658 0
M  V30 4265 C 382.479 -1.00014 -3.43121 0
M  V30 4266 C 382.145 -2.4583 -3.77993 0
M  V30 4267 C 380.807 -2.85679 -3.87222 0
M  V30 4268 C 383.159 -3.40378 -3.94705 0
M  V30 4269 C 380.487 -4.19081 -4.10595 0
M  V30 4270 C 382.839 -4.73429 -4.1958 0
M  V30 4271 C 381.503 -5.1303 -4.27032 0
M  V30 4272 H 380.773 -0.240555 -0.700867 0
M  V30 4273 H 383.42 -1.24044 -1.45895 0
M  V30 4274 H 381.725 -0.335072 -3.90365 0
M  V30 4275 H 383.422 -0.724322 -3.94404 0
M  V30 4276 H 380.012 -2.13939 -3.71387 0
M  V30 4277 H 384.196 -3.10766 -3.8696 0
M  V30 4278 H 379.452 -4.49362 -4.14589 0
M  V30 4279 H 383.626 -5.46644 -4.31455 0
M  V30 4280 H 381.253 -6.16418 -4.44896 0
M  V30 4281 N 382.828 1.3818 -0.7579 0
M  V30 4282 C 384.105 1.94106 -0.241306 0
M  V30 4283 C 384.485 1.69282 1.26122 0
M  V30 4284 O 383.833 1.03378 2.03777 0
M  V30 4285 C 384.043 3.43809 -0.59967 0
M  V30 4286 C 385.391 4.20868 -0.561717 0
M  V30 4287 O 386.415 3.5211 -0.538222 0
M  V30 4288 O 385.274 5.43451 -0.576478 0
M  V30 4289 H 382.368 0.825376 -0.0518042 0
M  V30 4290 H 384.914 1.47548 -0.838315 0
M  V30 4291 H 383.686 3.55403 -1.6372 0
M  V30 4292 H 383.309 3.97592 0.0251197 0
M  V30 4293 N 384.306 0.507319 1.49211 0
M  V30 4294 C 385.238 -0.304532 2.27168 0
M  V30 4295 C 386.251 -0.924956 1.33972 0
M  V30 4296 O 387.44 -0.807227 1.59205 0
M  V30 4297 C 384.54 -1.44431 3.06583 0
M  V30 4298 C 383.713 -0.930026 4.27398 0
M  V30 4299 C 382.772 -1.94817 4.88807 0
M  V30 4300 O 381.798 -1.51418 5.4869 0
M  V30 4301 N 383 -3.279 4.79022 0
M  V30 4302 H 385.765 0.36395 2.97482 0
M  V30 4303 H 383.326 0.340249 1.58284 0
M  V30 4304 H 385.318 -2.12311 3.44537 0
M  V30 4305 H 383.888 -2.01684 2.38835 0
M  V30 4306 H 383.108 -0.0759244 3.94127 0
M  V30 4307 H 384.396 -0.564932 5.05654 0
M  V30 4308 H 383.794 -3.65843 4.3148 0
M  V30 4309 H 382.351 -3.91476 5.21142 0
M  V30 4310 N 385.784 -1.5574 0.241426 0
M  V30 4311 C 387.033 -1.97986 -0.385295 0
M  V30 4312 C 387.346 -1.13267 -1.59468 0
M  V30 4313 O 388.552 -1.45501 -2.2922 0
M  V30 4314 C 387.008 -3.52275 -0.736884 0
M  V30 4315 C 386.616 -4.45726 0.450796 0
M  V30 4316 C 388.36 -4.03189 -1.3281 0
M  V30 4317 C 386.267 -5.91352 0.0756662 0
M  V30 4318 H 385.197 -0.739386 -0.147731 0
M  V30 4319 H 387.848 -1.80308 0.340779 0
M  V30 4320 H 386.23 -3.65628 -1.52094 0
M  V30 4321 H 387.404 -4.44131 1.22819 0
M  V30 4322 H 385.719 -4.05264 0.956573 0
M  V30 4323 H 388.316 -5.09505 -1.62201 0
M  V30 4324 H 388.659 -3.50212 -2.25071 0
M  V30 4325 H 389.192 -3.93141 -0.607069 0
M  V30 4326 H 385.931 -6.48354 0.965272 0
M  V30 4327 H 385.451 -5.96095 -0.665635 0
M  V30 4328 H 387.13 -6.46084 -0.344075 0
M  V30 4329 N 387.262 0.0317525 -1.57568 0
M  V30 4330 C 388.509 0.723104 -1.89149 0
M  V30 4331 C 388.837 1.75504 -0.838377 0
M  V30 4332 O 388.092 1.95037 0.160982 0
M  V30 4333 C 388.391 1.43167 -3.27472 0
M  V30 4334 C 388.057 0.535972 -4.47703 0
M  V30 4335 C 386.719 0.289262 -4.8033 0
M  V30 4336 C 389.071 -0.0826125 -5.21135 0
M  V30 4337 C 386.399 -0.584853 -5.83778 0
M  V30 4338 C 388.751 -0.944414 -6.25511 0
M  V30 4339 C 387.415 -1.20061 -6.56614 0
M  V30 4340 H 386.685 0.264602 -0.692146 0
M  V30 4341 H 389.332 -0.0169496 -1.91492 0
M  V30 4342 H 387.637 2.24497 -3.21105 0
M  V30 4343 H 389.334 1.97209 -3.49155 0
M  V30 4344 H 385.924 0.738414 -4.22191 0
M  V30 4345 H 390.108 0.0950302 -4.96209 0
M  V30 4346 H 385.364 -0.79168 -6.06253 0
M  V30 4347 H 389.538 -1.43026 -6.81554 0
M  V30 4348 H 387.165 -1.87967 -7.36595 0
M  V30 4349 N 388.74 1.54641 0.303973 0
M  V30 4350 C 390.017 1.64455 1.05896 0
M  V30 4351 C 390.397 0.490923 2.05312 0
M  V30 4352 O 389.745 -0.512685 2.22674 0
M  V30 4353 C 389.955 3.02331 1.74347 0
M  V30 4354 C 391.303 3.59045 2.26653 0
M  V30 4355 O 392.327 3.04764 1.84384 0
M  V30 4356 O 391.186 4.54081 3.04093 0
M  V30 4357 H 388.28 0.666729 0.489287 0
M  V30 4358 H 390.826 1.66986 0.302298 0
M  V30 4359 H 389.598 3.77734 1.02142 0
M  V30 4360 H 389.221 3.03565 2.56777 0
M  V30 4361 N 390.218 -0.567019 1.47046 0
M  V30 4362 C 391.148 -1.68482 1.61667 0
M  V30 4363 C 392.129 -1.6358 0.466418 0
M  V30 4364 O 393.314 -1.81354 0.694574 0
M  V30 4365 C 390.444 -3.07124 1.62148 0
M  V30 4366 C 389.398 -3.26867 2.76301 0
M  V30 4367 C 388.724 -4.66196 2.61849 0
M  V30 4368 C 390.024 -3.13186 4.17986 0
M  V30 4369 H 391.718 -1.56502 2.5524 0
M  V30 4370 H 389.264 -0.751486 1.22836 0
M  V30 4371 H 391.217 -3.8516 1.70968 0
M  V30 4372 H 389.941 -3.2004 0.651287 0
M  V30 4373 H 388.6 -2.51237 2.66975 0
M  V30 4374 H 388.248 -4.75898 1.62879 0
M  V30 4375 H 387.948 -4.80356 3.38425 0
M  V30 4376 H 389.472 -5.46379 2.72584 0
M  V30 4377 H 390.886 -3.81049 4.2834 0
M  V30 4378 H 389.283 -3.3886 4.95272 0
M  V30 4379 H 390.353 -2.10057 4.3704 0
M  V30 4380 N 391.696 -1.35014 -0.812953 0
M  V30 4381 C 392.945 -1.27269 -1.56479 0
M  V30 4382 C 393.258 0.152771 -1.95002 0
M  V30 4383 O 394.464 0.352451 -2.69203 0
M  V30 4384 C 392.92 -2.23159 -2.82362 0
M  V30 4385 C 392.528 -3.71016 -2.511 0
M  V30 4386 C 394.272 -2.24342 -3.60376 0
M  V30 4387 C 392.179 -4.58746 -3.73237 0
M  V30 4388 H 391.109 -0.472829 -0.587324 0
M  V30 4389 H 393.76 -1.6024 -0.894171 0
M  V30 4390 H 392.142 -1.83151 -3.51101 0
M  V30 4391 H 393.316 -4.1962 -1.90409 0
M  V30 4392 H 391.631 -3.72378 -1.86343 0
M  V30 4393 H 394.228 -2.87107 -4.51081 0
M  V30 4394 H 394.571 -1.24542 -3.97234 0
M  V30 4395 H 395.104 -2.62846 -2.98591 0
M  V30 4396 H 391.843 -5.59521 -3.41492 0
M  V30 4397 H 391.363 -4.14871 -4.33176 0
M  V30 4398 H 393.042 -4.73852 -4.40537 0
M  V30 4399 N 393.175 1.03435 -1.18907 0
M  V30 4400 C 394.138 2.09756 -0.923844 0
M  V30 4401 C 395.138 1.60528 0.093416 0
M  V30 4402 O 396.328 1.73631 -0.140727 0
M  V30 4403 C 393.46 3.38692 -0.387354 0
M  V30 4404 H 394.653 2.34719 -1.86674 0
M  V30 4405 H 392.206 1.19959 -1.00197 0
M  V30 4406 H 392.941 3.19396 0.561845 0
M  V30 4407 H 392.726 3.75742 -1.12074 0
M  V30 4408 H 394.216 4.17016 -0.220694 0
M  V30 4409 N 394.653 0.992116 1.22453 0
M  V30 4410 C 395.902 0.662992 1.90492 0
M  V30 4411 C 396.215 -0.808407 1.78113 0
M  V30 4412 O 397.421 -1.24908 2.41061 0
M  V30 4413 C 395.877 1.1353 3.41524 0
M  V30 4414 C 395.485 2.63187 3.62542 0
M  V30 4415 C 397.229 0.880465 4.15269 0
M  V30 4416 C 395.136 3.04024 5.0727 0
M  V30 4417 H 394.066 0.244278 0.713333 0
M  V30 4418 H 396.717 1.20157 1.38688 0
M  V30 4419 H 395.099 0.52485 3.92506 0
M  V30 4420 H 396.273 3.2957 3.22056 0
M  V30 4421 H 394.588 2.86543 3.02129 0
M  V30 4422 H 397.185 1.16128 5.21937 0
M  V30 4423 H 397.528 -0.183408 4.15896 0
M  V30 4424 H 398.061 1.45307 3.70312 0
M  V30 4425 H 394.8 4.09584 5.11782 0
M  V30 4426 H 394.32 2.42343 5.48662 0
M  V30 4427 H 395.999 2.95282 5.75689 0
M  V30 4428 N 396.131 -1.37776 0.765217 0
M  V30 4429 C 397.547 -1.53297 0.444108 0
M  V30 4430 C 397.747 -1.72515 -1.04119 0
M  V30 4431 O 396.803 -1.74278 -1.82711 0
M  V30 4432 C 398.116 -2.73328 1.25349 0
M  V30 4433 C 399.664 -2.87185 1.24473 0
M  V30 4434 C 400.139 -4.10191 2.03733 0
M  V30 4435 N 401.63 -4.17291 2.01053 0
M  V30 4436 C 402.365 -5.11488 2.59166 0
M  V30 4437 N 401.861 -6.11285 3.26041 0
M  V30 4438 N 403.654 -5.03924 2.49032 0
M  V30 4439 H 395.805 -1.23552 1.72768 0
M  V30 4440 H 398.068 -0.601103 0.733062 0
M  V30 4441 H 397.774 -2.6557 2.30577 0
M  V30 4442 H 397.648 -3.66834 0.87823 0
M  V30 4443 H 400.035 -2.94418 0.20047 0
M  V30 4444 H 400.116 -1.94657 1.65959 0
M  V30 4445 H 399.76 -4.0372 3.08176 0
M  V30 4446 H 399.69 -5.01821 1.59633 0
M  V30 4447 H 402.181 -3.45825 1.5236 0
M  V30 4448 H 402.494 -6.79678 3.67774 0
M  V30 4449 H 400.839 -6.11583 3.30138 0
M  V30 4450 H 404.03 -4.24902 1.96407 0
M  V30 4451 H 404.203 -5.77152 2.94617 0
M  V30 4452 N 397.609 -0.515225 -1.4894 0
M  V30 4453 C 398.849 0.0223983 -2.04388 0
M  V30 4454 C 399.213 1.32961 -1.38511 0
M  V30 4455 O 400.414 1.95236 -1.8476 0
M  V30 4456 C 398.685 0.157056 -3.57055 0
M  V30 4457 S 400.244 0.646875 -4.34006 0
M  V30 4458 H 397.062 -0.00500662 -0.710982 0
M  V30 4459 H 399.664 -0.69243 -1.82827 0
M  V30 4460 H 398.368 -0.799412 -4.02539 0
M  V30 4461 H 397.899 0.896704 -3.83044 0
M  V30 4462 H 399.914 1.91381 -4.57808 0
M  V30 4463 N 399.087 1.5561 -0.249682 0
M  V30 4464 C 400.333 1.99306 0.374841 0
M  V30 4465 C 400.666 1.13767 1.57387 0
M  V30 4466 O 399.941 0.201711 1.93451 0
M  V30 4467 C 400.224 3.51507 0.781986 0
M  V30 4468 C 400.077 4.4781 -0.422629 0
M  V30 4469 C 401.396 4.08884 1.62793 0
M  V30 4470 H 398.515 0.724572 0.134773 0
M  V30 4471 H 401.157 1.86719 -0.351549 0
M  V30 4472 H 399.307 3.62363 1.4009 0
M  V30 4473 H 400.979 4.48931 -1.06108 0
M  V30 4474 H 399.222 4.20518 -1.06524 0
M  V30 4475 H 399.893 5.51919 -0.0943766 0
M  V30 4476 H 402.369 4.01147 1.10547 0
M  V30 4477 H 401.245 5.1564 1.88166 0
M  V30 4478 H 401.506 3.57515 2.60068 0
M  V30 4479 N 400.565 -0.0233959 1.57583 0
M  V30 4480 C 401.498 -1.05549 2.02323 0
M  V30 4481 C 402.476 -1.34843 0.908626 0
M  V30 4482 O 403.66 -1.47404 1.17491 0
M  V30 4483 C 400.787 -2.38885 2.40108 0
M  V30 4484 C 399.833 -2.2541 3.62067 0
M  V30 4485 S 400.666 -1.60217 5.1097 0
M  V30 4486 C 401.822 -2.95032 5.52003 0
M  V30 4487 H 402.055 -0.674435 2.89549 0
M  V30 4488 H 399.588 -0.23355 1.52623 0
M  V30 4489 H 401.546 -3.15562 2.62547 0
M  V30 4490 H 400.207 -2.74137 1.53323 0
M  V30 4491 H 399.4 -3.23854 3.86179 0
M  V30 4492 H 399.002 -1.56876 3.39508 0
M  V30 4493 H 401.294 -3.91357 5.53033 0
M  V30 4494 H 402.237 -2.75646 6.52246 0
M  V30 4495 H 402.645 -2.97865 4.79517 0
M  V30 4496 N 402.043 -1.548 -0.295768 0
M  V30 4497 C 402.953 -1.89177 -1.38742 0
M  V30 4498 C 403.969 -0.786481 -1.55211 0
M  V30 4499 O 405.145 -1.08344 -1.69775 0
M  V30 4500 C 402.21 -2.13663 -2.73036 0
M  V30 4501 C 401.271 -3.37349 -2.65508 0
M  V30 4502 C 400.504 -3.60658 -3.93398 0
M  V30 4503 O 400.727 -2.86882 -4.93006 0
M  V30 4504 O 399.661 -4.54179 -3.94975 0
M  V30 4505 H 403.487 -2.82059 -1.12589 0
M  V30 4506 H 401.072 -1.41056 -0.492295 0
M  V30 4507 H 402.954 -2.3094 -3.52484 0
M  V30 4508 H 401.629 -1.23967 -2.99022 0
M  V30 4509 H 400.536 -3.25431 -1.84514 0
M  V30 4510 H 401.869 -4.27192 -2.44474 0
M  V30 4511 N 403.521 0.559213 -1.47345 0
M  V30 4512 C 404.749 1.34194 -1.57479 0
M  V30 4513 C 405.164 1.87463 -0.224261 0
M  V30 4514 O 404.521 1.64888 0.782185 0
M  V30 4515 C 404.572 2.51324 -2.59843 0
M  V30 4516 O 404.293 2.00256 -3.89653 0
M  V30 4517 C 405.794 3.43563 -2.80142 0
M  V30 4518 H 403.014 0.409136 -0.531835 0
M  V30 4519 H 405.558 0.677609 -1.92947 0
M  V30 4520 H 403.713 3.13699 -2.27314 0
M  V30 4521 H 404.127 2.76708 -4.4557 0
M  V30 4522 H 405.601 4.2217 -3.55635 0
M  V30 4523 H 406.078 3.9698 -1.87892 0
M  V30 4524 H 406.684 2.87005 -3.1386 0
M  V30 4525 N 404.999 1.35443 0.805782 0
M  V30 4526 C 405.931 1.24285 1.92577 0
M  V30 4527 C 406.944 0.165962 1.61952 0
M  V30 4528 O 408.133 0.419303 1.73505 0
M  V30 4529 C 405.233 0.891272 3.2697 0
M  V30 4530 C 404.406 2.06669 3.85495 0
M  V30 4531 C 403.465 1.69077 4.98297 0
M  V30 4532 O 402.491 2.4096 5.15681 0
M  V30 4533 N 403.693 0.614869 5.77234 0
M  V30 4534 H 406.458 2.20777 2.02676 0
M  V30 4535 H 404.019 1.28623 0.983243 0
M  V30 4536 H 406.011 0.621256 3.99903 0
M  V30 4537 H 404.581 0.016004 3.12596 0
M  V30 4538 H 403.801 2.50046 3.04747 0
M  V30 4539 H 405.089 2.85237 4.21328 0
M  V30 4540 H 404.487 0.017648 5.65697 0
M  V30 4541 H 403.044 0.404636 6.50543 0
M  V30 4542 N 406.477 -1.02803 1.19454 0
M  V30 4543 C 407.702 -1.80378 1.02364 0
M  V30 4544 C 408.127 -1.83282 -0.423007 0
M  V30 4545 O 407.485 -1.25945 -1.30413 0
M  V30 4546 C 407.533 -3.23248 1.59821 0
M  V30 4547 O 406.637 -4.04 0.828105 0
M  V30 4548 H 405.978 -0.556799 0.361761 0
M  V30 4549 H 408.508 -1.29385 1.58495 0
M  V30 4550 H 408.518 -3.73994 1.63073 0
M  V30 4551 H 407.193 -3.2045 2.65113 0
M  V30 4552 H 405.77 -3.62635 0.86891 0
M  V30 4553 N 407.956 -0.998596 -1.21925 0
M  V30 4554 C 409.233 -0.593401 -1.86382 0
M  V30 4555 C 409.613 0.92916 -1.89552 0
M  V30 4556 O 408.961 1.81347 -1.39017 0
M  V30 4557 C 409.171 -1.22039 -3.26967 0
M  V30 4558 C 410.519 -1.32449 -4.03413 0
M  V30 4559 O 411.543 -1.17522 -3.36254 0
M  V30 4560 O 410.402 -1.56395 -5.23644 0
M  V30 4561 H 407.496 -0.202385 -0.801854 0
M  V30 4562 H 410.042 -1.09484 -1.29659 0
M  V30 4563 H 408.814 -2.26158 -3.19325 0
M  V30 4564 H 408.437 -0.704906 -3.91301 0
M  V30 4565 N 409.434 1.37368 -0.772513 0
M  V30 4566 C 410.68 1.99969 -0.337681 0
M  V30 4567 C 411.013 1.61184 1.08321 0
M  V30 4568 O 410.288 0.858395 1.74533 0
M  V30 4569 C 410.571 3.56858 -0.482121 0
M  V30 4570 C 410.424 4.0555 -1.94549 0
M  V30 4571 C 411.743 4.39955 0.113143 0
M  V30 4572 H 408.862 0.726464 -0.124171 0
M  V30 4573 H 411.504 1.63034 -0.975699 0
M  V30 4574 H 409.654 3.88452 0.0610361 0
M  V30 4575 H 411.326 3.84518 -2.54841 0
M  V30 4576 H 409.569 3.57715 -2.45403 0
M  V30 4577 H 410.24 5.14587 -1.9976 0
M  V30 4578 H 412.716 4.14623 -0.35031 0
M  V30 4579 H 411.592 5.48897 -0.0180514 0
M  V30 4580 H 411.853 4.25403 1.20354 0
M  V30 4581 N 410.912 0.523116 1.48665 0
M  V30 4582 C 412.142 -0.00961724 2.06598 0
M  V30 4583 C 412.55 -1.29333 1.38093 0
M  V30 4584 O 411.893 -1.77846 0.46007 0
M  V30 4585 C 411.955 -0.311135 3.58151 0
M  V30 4586 C 411.619 0.878092 4.48485 0
M  V30 4587 C 412.616 1.77464 4.88674 0
M  V30 4588 C 410.301 1.08315 4.90483 0
M  V30 4589 C 412.295 2.86021 5.69623 0
M  V30 4590 C 409.982 2.17187 5.71203 0
M  V30 4591 C 410.98 3.05873 6.10681 0
M  V30 4592 O 410.668 4.12862 6.89783 0
M  V30 4593 H 410.4 0.0272658 0.67545 0
M  V30 4594 H 412.954 0.726156 1.92136 0
M  V30 4595 H 411.184 -1.10079 3.70701 0
M  V30 4596 H 412.873 -0.785125 3.98234 0
M  V30 4597 H 413.639 1.62813 4.56855 0
M  V30 4598 H 409.518 0.402149 4.59243 0
M  V30 4599 H 413.062 3.55272 6.00356 0
M  V30 4600 H 408.959 2.31824 6.02435 0
M  V30 4601 H 409.727 4.10487 7.08126 0
M  V30 4602 N 412.39 -1.55475 0.257931 0
M  V30 4603 C 413.353 -2.20551 -0.623706 0
M  V30 4604 C 414.353 -1.17809 -1.09443 0
M  V30 4605 O 415.543 -1.42823 -0.997362 0
M  V30 4606 C 412.675 -2.85784 -1.8585 0
M  V30 4607 H 413.868 -2.99848 -0.0557743 0
M  V30 4608 H 411.421 -1.56298 0.0084422 0
M  V30 4609 H 412.156 -2.10453 -2.46739 0
M  V30 4610 H 411.941 -3.61057 -1.52907 0
M  V30 4611 H 413.431 -3.35553 -2.48584 0
M  V30 4612 N 413.868 0.0150385 -1.57593 0
M  V30 4613 C 414.801 1.04475 -2.0288 0
M  V30 4614 C 415.779 1.3436 -0.915764 0
M  V30 4615 O 416.963 1.46779 -1.18271 0
M  V30 4616 C 414.09 2.37608 -2.41371 0
M  V30 4617 C 413.136 2.23487 -3.63257 0
M  V30 4618 S 413.969 1.57505 -5.11813 0
M  V30 4619 C 415.125 2.921 -5.5356 0
M  V30 4620 H 415.358 0.65907 -2.89903 0
M  V30 4621 H 412.891 0.225452 -1.52745 0
M  V30 4622 H 414.849 3.14165 -2.64217 0
M  V30 4623 H 413.51 2.7332 -1.54775 0
M  V30 4624 H 412.703 3.21802 -3.87891 0
M  V30 4625 H 412.305 1.55074 -3.40335 0
M  V30 4626 H 414.597 3.88419 -5.55101 0
M  V30 4627 H 415.54 2.72184 -6.53698 0
M  V30 4628 H 415.948 2.95318 -4.8109 0
M  V30 4629 N 415.346 1.54954 0.287554 0
M  V30 4630 C 416.592 1.75132 1.02257 0
M  V30 4631 C 416.925 0.542858 1.86458 0
M  V30 4632 O 416.2 -0.459856 1.88986 0
M  V30 4633 C 416.483 3.04812 1.91733 0
M  V30 4634 C 416.336 4.35985 1.10622 0
M  V30 4635 C 417.655 3.30438 2.90687 0
M  V30 4636 H 414.774 0.637194 0.370341 0
M  V30 4637 H 417.416 1.87678 0.296111 0
M  V30 4638 H 415.566 2.94247 2.53675 0
M  V30 4639 H 417.238 4.58487 0.508636 0
M  V30 4640 H 415.481 4.31865 0.409271 0
M  V30 4641 H 416.152 5.23017 1.76513 0
M  V30 4642 H 418.628 3.40701 2.38877 0
M  V30 4643 H 417.504 4.22467 3.50447 0
M  V30 4644 H 417.765 2.49377 3.65053 0
M  V30 4645 N 416.824 -0.551391 1.4764 0
M  V30 4646 C 418.072 -1.30572 1.54258 0
M  V30 4647 C 418.393 -1.93877 0.208963 0
M  V30 4648 O 417.663 -1.80234 -0.767619 0
M  V30 4649 H 416.243 -0.484894 0.568231 0
M  V30 4650 H 418.905 -0.643402 1.83974 0
M  V30 4651 H 418.001 -2.09621 2.31226 0
M  V30 4652 N 418.302 -1.35869 -0.798587 0
M  V30 4653 C 419.532 -1.32529 -1.58491 0
M  V30 4654 C 419.94 0.0975405 -1.88948 0
M  V30 4655 O 419.283 1.06224 -1.49874 0
M  V30 4656 C 419.345 -2.07247 -2.9375 0
M  V30 4657 C 419.009 -3.56391 -2.86068 0
M  V30 4658 C 420.006 -4.50824 -2.58947 0
M  V30 4659 C 417.691 -3.9915 -3.04933 0
M  V30 4660 C 419.685 -5.85993 -2.5078 0
M  V30 4661 C 417.372 -5.34413 -2.96389 0
M  V30 4662 C 418.37 -6.27646 -2.69349 0
M  V30 4663 O 418.058 -7.60426 -2.60782 0
M  V30 4664 H 417.79 -0.456529 -0.498556 0
M  V30 4665 H 420.344 -1.79425 -0.999799 0
M  V30 4666 H 418.574 -1.55001 -3.54276 0
M  V30 4667 H 420.263 -1.96883 -3.54954 0
M  V30 4668 H 421.029 -4.19104 -2.44084 0
M  V30 4669 H 416.908 -3.26961 -3.24989 0
M  V30 4670 H 420.452 -6.58735 -2.29595 0
M  V30 4671 H 416.349 -5.65743 -3.10813 0
M  V30 4672 H 417.117 -7.70444 -2.76331 0
M  V30 4673 N 419.78 1.02168 -1.19998 0
M  V30 4674 C 421.029 1.75091 -1.0013 0
M  V30 4675 C 421.342 1.89923 0.467835 0
M  V30 4676 O 422.548 2.59888 0.785515 0
M  V30 4677 C 421.004 3.14892 -1.74273 0
M  V30 4678 C 420.612 3.0809 -3.25245 0
M  V30 4679 C 422.356 3.9206 -1.62755 0
M  V30 4680 C 420.263 4.42867 -3.91948 0
M  V30 4681 H 419.193 0.656394 -0.37103 0
M  V30 4682 H 421.844 1.14284 -1.43567 0
M  V30 4683 H 420.226 3.7621 -1.2362 0
M  V30 4684 H 421.4 2.5611 -3.83072 0
M  V30 4685 H 419.715 2.44416 -3.3712 0
M  V30 4686 H 422.312 4.91764 -2.09934 0
M  V30 4687 H 422.655 4.12199 -0.582894 0
M  V30 4688 H 423.188 3.37359 -2.10793 0
M  V30 4689 H 419.927 4.27931 -4.96543 0
M  V30 4690 H 419.447 4.94874 -3.3891 0
M  V30 4691 H 421.126 5.11728 -3.95909 0
M  V30 4692 N 421.258 1.00505 1.21394 0
M  V30 4693 C 422.208 0.536503 2.21598 0
M  V30 4694 C 423.192 -0.401914 1.55799 0
M  V30 4695 O 424.384 -0.226757 1.75541 0
M  V30 4696 C 421.513 -0.135446 3.43033 0
M  V30 4697 C 420.599 0.823992 4.16018 0
M  V30 4698 N 420.99 1.97683 4.6557 0
M  V30 4699 C 419.288 0.642387 4.4135 0
M  V30 4700 C 419.989 2.58003 5.21354 0
M  V30 4701 N 418.965 1.86162 5.1073 0
M  V30 4702 H 422.767 1.41557 2.57563 0
M  V30 4703 H 420.281 0.868878 1.37202 0
M  V30 4704 H 422.278 -0.488584 4.14027 0
M  V30 4705 H 420.938 -1.01049 3.08576 0
M  V30 4706 H 421.949 2.3572 4.61147 0
M  V30 4707 H 418.626 -0.185578 4.17087 0
M  V30 4708 H 420.016 3.555 5.70149 0
M  V30 4709 N 422.737 -1.36956 0.779787 0
M  V30 4710 C 423.647 -2.33965 0.172491 0
M  V30 4711 C 424.663 -1.60574 -0.670222 0
M  V30 4712 O 425.839 -1.92617 -0.588263 0
M  V30 4713 C 422.904 -3.39761 -0.690173 0
M  V30 4714 C 421.965 -4.28964 0.169924 0
M  V30 4715 C 421.198 -5.29707 -0.651662 0
M  V30 4716 O 421.421 -5.38238 -1.88827 0
M  V30 4717 O 420.355 -6.01873 -0.0566264 0
M  V30 4718 H 424.181 -2.87647 0.974321 0
M  V30 4719 H 421.766 -1.39258 0.541078 0
M  V30 4720 H 423.648 -4.04471 -1.1824 0
M  V30 4721 H 422.323 -2.88394 -1.47006 0
M  V30 4722 H 421.23 -3.67326 0.708696 0
M  V30 4723 H 422.563 -4.83656 0.913085 0
M  V30 4724 N 424.215 -0.530993 -1.48385 0
M  V30 4725 C 425.145 0.219985 -2.32461 0
M  V30 4726 C 426.126 0.934111 -1.42156 0
M  V30 4727 O 427.311 0.919694 -1.71042 0
M  V30 4728 C 424.441 1.26674 -3.23375 0
M  V30 4729 C 423.395 0.67069 -4.22712 0
M  V30 4730 C 422.721 1.82017 -5.02766 0
M  V30 4731 C 424.021 -0.358268 -5.2107 0
M  V30 4732 H 425.715 -0.48187 -2.95497 0
M  V30 4733 H 423.261 -0.233182 -1.42099 0
M  V30 4734 H 425.214 1.80006 -3.81019 0
M  V30 4735 H 423.938 1.99818 -2.58341 0
M  V30 4736 H 422.597 0.158878 -3.66256 0
M  V30 4737 H 422.245 2.54002 -4.34157 0
M  V30 4738 H 421.945 1.42727 -5.70003 0
M  V30 4739 H 423.469 2.35725 -5.63264 0
M  V30 4740 H 424.883 0.0880081 -5.73232 0
M  V30 4741 H 423.28 -0.66861 -5.96364 0
M  V30 4742 H 424.35 -1.26367 -4.68145 0
M  V30 4743 N 425.693 1.55336 -0.266172 0
M  V30 4744 C 426.939 2.00423 0.346714 0
M  V30 4745 C 427.294 1.15132 1.54151 0
M  V30 4746 O 426.587 0.211289 1.90431 0
M  V30 4747 C 426.781 3.48606 0.787957 0
M  V30 4748 C 426.61 4.48236 -0.362535 0
M  V30 4749 C 425.38 4.98211 -0.843445 0
M  V30 4750 C 427.578 5.00199 -1.19603 0
M  V30 4751 N 425.56 5.81625 -1.96434 0
M  V30 4752 C 426.931 5.80973 -2.16497 0
M  V30 4753 C 428.986 4.82458 -1.2304 0
M  V30 4754 C 427.689 6.45896 -3.1656 0
M  V30 4755 C 429.715 5.48174 -2.21944 0
M  V30 4756 C 429.077 6.28751 -3.17571 0
M  V30 4757 H 425.176 0.776535 0.0922914 0
M  V30 4758 H 427.76 1.90792 -0.388154 0
M  V30 4759 H 425.931 3.58597 1.49207 0
M  V30 4760 H 427.663 3.80538 1.37742 0
M  V30 4761 H 424.418 4.71696 -0.424271 0
M  V30 4762 H 424.842 6.28025 -2.52813 0
M  V30 4763 H 429.484 4.19774 -0.504903 0
M  V30 4764 H 427.202 7.07734 -3.90048 0
M  V30 4765 H 430.788 5.36392 -2.25333 0
M  V30 4766 H 429.668 6.78703 -3.92851 0
M  V30 4767 N 427.171 -0.0066808 1.57599 0
M  V30 4768 C 428.587 -0.36267 1.55425 0
M  V30 4769 C 428.787 -1.75209 0.995187 0
M  V30 4770 O 427.843 -2.44616 0.626058 0
M  V30 4771 C 429.156 -0.244017 2.99708 0
M  V30 4772 C 430.704 -0.319451 3.11366 0
M  V30 4773 C 431.179 -0.229998 4.57422 0
M  V30 4774 N 432.67 -0.288105 4.62303 0
M  V30 4775 C 433.405 -0.242127 5.72889 0
M  V30 4776 N 432.901 -0.147133 6.92644 0
M  V30 4777 N 434.694 -0.293502 5.61333 0
M  V30 4778 H 426.845 0.902314 1.92281 0
M  V30 4779 H 429.108 0.34525 0.882896 0
M  V30 4780 H 428.814 0.711678 3.44424 0
M  V30 4781 H 428.688 -1.02877 3.629 0
M  V30 4782 H 431.075 -1.26559 2.66584 0
M  V30 4783 H 431.156 0.495055 2.50964 0
M  V30 4784 H 430.8 0.712566 5.02877 0
M  V30 4785 H 430.73 -1.0629 5.15761 0
M  V30 4786 H 433.221 -0.363126 3.76151 0
M  V30 4787 H 433.534 -0.117763 7.7271 0
M  V30 4788 H 431.879 -0.112857 6.94908 0
M  V30 4789 H 435.07 -0.365864 4.66668 0
M  V30 4790 H 435.243 -0.254204 6.47501 0
M  V30 4791 N 428.649 -1.55105 -0.279332 0
M  V30 4792 C 430.06 -1.66186 -0.850832 0
M  V30 4793 C 430.411 -0.584707 -1.87285 0
M  V30 4794 O 429.536 0.274919 -2.14647 0
M  V30 4795 C 430.131 -3.01264 -1.55001 0
M  V30 4796 C 428.69 -3.14394 -2.06963 0
M  V30 4797 C 427.837 -2.61959 -0.909536 0
M  V30 4798 H 430.788 -1.58602 -0.0558235 0
M  V30 4799 H 430.809 -2.93899 -2.41669 0
M  V30 4800 H 430.321 -3.7964 -0.805931 0
M  V30 4801 H 428.422 -2.4078 -2.84352 0
M  V30 4802 H 428.535 -4.20867 -2.28928 0
M  V30 4803 H 426.899 -2.18957 -1.30116 0
M  V30 4804 H 427.682 -3.42833 -0.179062 0
M  V30 4805 N 430.127 0.543554 -1.4793 0
M  V30 4806 C 431.06 1.66556 -1.55995 0
M  V30 4807 C 432.038 1.57315 -0.411205 0
M  V30 4808 O 433.222 1.7798 -0.620922 0
M  V30 4809 C 430.349 3.04883 -1.47527 0
M  V30 4810 C 429.395 3.32526 -2.67074 0
M  V30 4811 S 430.228 3.20282 -4.29162 0
M  V30 4812 C 431.384 4.61079 -4.23269 0
M  V30 4813 H 431.617 1.59462 -2.50917 0
M  V30 4814 H 429.15 0.725456 -1.36296 0
M  V30 4815 H 431.108 3.84665 -1.43328 0
M  V30 4816 H 429.769 3.09429 -0.539665 0
M  V30 4817 H 428.962 4.33403 -2.5725 0
M  V30 4818 H 428.564 2.60389 -2.68466 0
M  V30 4819 H 430.856 5.52318 -3.92365 0
M  V30 4820 H 431.799 4.75959 -5.24279 0
M  V30 4821 H 432.207 4.39766 -3.5393 0
M  V30 4822 N 431.605 1.3629 0.791371 0
M  V30 4823 C 433.016 1.27225 1.36641 0
M  V30 4824 C 433.367 -0.0887968 1.95999 0
M  V30 4825 O 432.492 -0.990207 1.92416 0
M  V30 4826 C 433.087 2.30375 2.48421 0
M  V30 4827 C 431.646 2.25004 3.01746 0
M  V30 4828 C 430.793 2.15259 1.7481 0
M  V30 4829 H 433.744 1.47198 0.593173 0
M  V30 4830 H 433.765 1.93905 3.27385 0
M  V30 4831 H 433.277 3.29422 2.05189 0
M  V30 4832 H 431.378 1.29417 3.49403 0
M  V30 4833 H 431.491 3.1761 3.58693 0
M  V30 4834 H 429.855 1.61482 1.96966 0
M  V30 4835 H 430.638 3.16191 1.33709 0
M  V30 4836 N 433.083 -1.0153 1.20538 0
M  V30 4837 C 434.331 -1.74803 1.01432 0
M  V30 4838 C 434.652 -1.8963 -0.454456 0
M  V30 4839 O 433.922 -1.43975 -1.32846 0
M  V30 4840 H 432.502 -0.647598 0.372324 0
M  V30 4841 H 435.164 -1.22402 1.5167 0
M  V30 4842 H 434.26 -2.75114 1.47373 0
M  V30 4843 N 434.561 -1.01147 -1.20859 0
M  V30 4844 C 435.977 -0.725422 -1.42161 0
M  V30 4845 C 436.177 0.696919 -1.89064 0
M  V30 4846 O 435.233 1.46539 -2.05627 0
M  V30 4847 C 436.546 -1.74678 -2.44761 0
M  V30 4848 C 438.094 -1.76433 -2.58535 0
M  V30 4849 C 438.569 -2.77481 -3.64374 0
M  V30 4850 N 440.06 -2.76189 -3.71852 0
M  V30 4851 C 440.795 -3.51035 -4.53389 0
M  V30 4852 N 440.291 -4.35541 -5.38773 0
M  V30 4853 N 442.084 -3.39655 -4.47873 0
M  V30 4854 H 434.235 -1.92979 -0.887282 0
M  V30 4855 H 436.498 -0.833327 -0.451962 0
M  V30 4856 H 436.204 -2.76551 -2.17285 0
M  V30 4857 H 436.078 -1.55472 -3.43669 0
M  V30 4858 H 438.465 -0.75248 -2.85345 0
M  V30 4859 H 438.546 -1.99712 -1.5984 0
M  V30 4860 H 438.19 -3.78827 -3.38308 0
M  V30 4861 H 438.12 -2.51466 -4.6268 0
M  V30 4862 H 440.611 -2.14885 -3.10858 0
M  V30 4863 H 440.924 -4.89432 -5.98061 0
M  V30 4864 H 439.269 -4.39621 -5.38292 0
M  V30 4865 H 442.46 -2.73063 -3.80203 0
M  V30 4866 H 442.633 -3.9824 -5.11184 0
M  V30 4867 N 436.039 1.36541 -0.78704 0
M  V30 4868 C 437.286 1.99304 -0.358341 0
M  V30 4869 C 437.614 1.62467 1.06933 0
M  V30 4870 O 436.869 0.870019 1.75297 0
M  V30 4871 C 437.168 3.54343 -0.466485 0
M  V30 4872 C 436.834 4.10993 -1.85461 0
M  V30 4873 C 435.496 4.26177 -2.23443 0
M  V30 4874 C 437.848 4.41895 -2.76366 0
M  V30 4875 C 435.176 4.69573 -3.51736 0
M  V30 4876 C 437.528 4.86722 -4.04084 0
M  V30 4877 C 436.192 5.00112 -4.42091 0
M  V30 4878 H 435.462 0.729306 -0.131126 0
M  V30 4879 H 438.109 1.63068 -1.00404 0
M  V30 4880 H 436.414 3.90918 0.262719 0
M  V30 4881 H 438.111 4.00833 -0.115854 0
M  V30 4882 H 434.701 3.99612 -1.54946 0
M  V30 4883 H 438.885 4.29735 -2.48277 0
M  V30 4884 H 434.141 4.78127 -3.81057 0
M  V30 4885 H 438.315 5.09598 -4.7464 0
M  V30 4886 H 435.942 5.33498 -5.41557 0
M  V30 4887 N 437.518 0.538854 1.48102 0
M  V30 4888 C 438.465 -0.219042 2.29758 0
M  V30 4889 C 439.435 -0.925562 1.37922 0
M  V30 4890 O 440.62 -0.924855 1.66886 0
M  V30 4891 C 437.76 -1.25452 3.2149 0
M  V30 4892 C 436.873 -0.555943 4.28408 0
M  V30 4893 C 436.008 -1.57512 5.0731 0
M  V30 4894 C 435.047 -0.860498 6.06021 0
M  V30 4895 N 434.184 -1.82564 6.77949 0
M  V30 4896 H 439.024 0.483449 2.94052 0
M  V30 4897 H 436.561 0.250247 1.44956 0
M  V30 4898 H 438.519 -1.86727 3.7308 0
M  V30 4899 H 437.149 -1.92528 2.591 0
M  V30 4900 H 436.201 0.170938 3.80016 0
M  V30 4901 H 437.513 0.00474616 4.988 0
M  V30 4902 H 436.667 -2.26191 5.62959 0
M  V30 4903 H 435.406 -2.16972 4.36778 0
M  V30 4904 H 434.411 -0.159686 5.49568 0
M  V30 4905 H 435.636 -0.271897 6.78555 0
M  V30 4906 H 433.582 -2.40915 6.10161 0
M  V30 4907 H 433.499 -1.31662 7.44447 0
M  V30 4908 H 434.767 -2.50414 7.38182 0
M  V30 4909 N 438.996 -1.55193 0.274407 0
M  V30 4910 C 440.273 -1.91584 -0.394331 0
M  V30 4911 C 440.653 -1.19858 -1.73774 0
M  V30 4912 O 440.001 -0.3252 -2.26174 0
M  V30 4913 C 440.211 -3.4487 -0.535311 0
M  V30 4914 C 441.559 -4.16636 -0.818534 0
M  V30 4915 O 442.583 -3.5076 -0.620146 0
M  V30 4916 O 441.442 -5.33209 -1.19792 0
M  V30 4917 H 438.536 -0.798349 -0.215794 0
M  V30 4918 H 441.082 -1.66646 0.320507 0
M  V30 4919 H 439.854 -3.89145 0.410141 0
M  V30 4920 H 439.477 -3.75759 -1.29964 0
M  V30 4921 N 440.474 -0.00167713 -1.576 0
M  V30 4922 C 441.704 0.692754 -1.94639 0
M  V30 4923 C 442.112 1.67744 -0.87513 0
M  V30 4924 O 441.455 1.8305 0.154382 0
M  V30 4925 C 441.517 1.47881 -3.27676 0
M  V30 4926 C 441.181 0.655518 -4.52274 0
M  V30 4927 C 442.178 -0.0575214 -5.19868 0
M  V30 4928 C 439.863 0.600994 -4.98692 0
M  V30 4929 C 441.857 -0.814052 -6.3218 0
M  V30 4930 C 439.544 -0.15926 -6.10892 0
M  V30 4931 C 440.542 -0.865515 -6.77494 0
M  V30 4932 O 440.23 -1.61336 -7.87544 0
M  V30 4933 H 439.962 0.197792 -0.646417 0
M  V30 4934 H 442.516 -0.049423 -2.05341 0
M  V30 4935 H 440.746 2.2655 -3.13388 0
M  V30 4936 H 442.435 2.05874 -3.49816 0
M  V30 4937 H 443.201 -0.0245611 -4.84994 0
M  V30 4938 H 439.08 1.14025 -4.46676 0
M  V30 4939 H 442.624 -1.36584 -6.84098 0
M  V30 4940 H 438.521 -0.194035 -6.45208 0
M  V30 4941 H 439.289 -1.53025 -8.04068 0
M  V30 4942 N 441.952 1.55251 0.271103 0
M  V30 4943 C 443.201 1.75151 1.00025 0
M  V30 4944 C 443.514 0.561041 1.87381 0
M  V30 4945 O 444.72 0.642506 2.63788 0
M  V30 4946 C 443.176 3.09999 1.82835 0
M  V30 4947 C 442.784 4.3662 1.00336 0
M  V30 4948 C 444.528 3.39249 2.55168 0
M  V30 4949 C 442.435 5.62506 1.82595 0
M  V30 4950 H 441.365 0.652877 0.377183 0
M  V30 4951 H 444.016 1.81708 0.255843 0
M  V30 4952 H 442.398 2.97485 2.61378 0
M  V30 4953 H 443.572 4.60055 0.261959 0
M  V30 4954 H 441.887 4.14527 0.394486 0
M  V30 4955 H 444.484 4.3051 3.1712 0
M  V30 4956 H 444.827 2.59467 3.2555 0
M  V30 4957 H 445.36 3.52869 1.83653 0
M  V30 4958 H 442.099 6.45041 1.16631 0
M  V30 4959 H 441.619 5.43211 2.54327 0
M  V30 4960 H 443.298 6.00875 2.39913 0
M  V30 4961 N 443.43 -0.535701 1.48216 0
M  V30 4962 C 444.393 -1.623 1.61838 0
M  V30 4963 C 445.393 -1.53087 0.492024 0
M  V30 4964 O 446.583 -1.5686 0.757668 0
M  V30 4965 C 443.715 -3.01907 1.58319 0
M  V30 4966 H 444.908 -1.51564 2.58783 0
M  V30 4967 H 442.461 -0.757317 1.36727 0
M  V30 4968 H 443.196 -3.18155 0.628299 0
M  V30 4969 H 442.981 -3.10003 2.40085 0
M  V30 4970 H 444.471 -3.80969 1.71033 0
M  V30 4971 N 444.908 -1.36708 -0.784132 0
M  V30 4972 C 445.871 -1.31307 -1.87859 0
M  V30 4973 C 446.871 -0.219654 -1.59293 0
M  V30 4974 O 448.061 -0.47476 -1.67606 0
M  V30 4975 C 445.193 -1.03679 -3.24751 0
M  V30 4976 H 446.386 -2.28647 -1.94064 0
M  V30 4977 H 443.939 -1.21558 -0.98252 0
M  V30 4978 H 444.674 -0.0681936 -3.24228 0
M  V30 4979 H 444.459 -1.82811 -3.46876 0
M  V30 4980 H 445.949 -1.02518 -4.04821 0
M  V30 4981 N 446.386 1.0089 -1.21074 0
M  V30 4982 C 447.797 1.56056 -1.02486 0
M  V30 4983 C 448.148 1.91728 0.416506 0
M  V30 4984 O 447.273 1.73066 1.29912 0
M  V30 4985 C 447.868 2.83563 -1.85411 0
M  V30 4986 C 446.427 3.3523 -1.71166 0
M  V30 4987 C 445.574 2.0846 -1.82865 0
M  V30 4988 H 448.525 0.831818 -1.35154 0
M  V30 4989 H 448.546 3.55286 -1.36205 0
M  V30 4990 H 448.058 2.57569 -2.9031 0
M  V30 4991 H 446.159 3.66167 -0.689361 0
M  V30 4992 H 446.272 4.06913 -2.52901 0
M  V30 4993 H 444.636 2.21275 -1.26132 0
M  V30 4994 H 445.419 1.84883 -2.89263 0
M  V30 4995 N 447.864 1.01787 1.20321 0
M  V30 4996 C 448.811 0.589197 2.23153 0
M  V30 4997 C 449.781 -0.391367 1.61423 0
M  V30 4998 O 450.966 -0.290518 1.88575 0
M  V30 4999 C 448.106 -0.0650747 3.45039 0
M  V30 5000 C 447.219 0.960207 4.21194 0
M  V30 5001 C 446.354 0.276854 5.30478 0
M  V30 5002 C 445.393 1.2888 5.98378 0
M  V30 5003 N 444.53 0.632031 6.99249 0
M  V30 5004 H 449.37 1.47071 2.59179 0
M  V30 5005 H 446.907 0.736192 1.27352 0
M  V30 5006 H 448.865 -0.461552 4.14639 0
M  V30 5007 H 447.495 -0.910233 3.09701 0
M  V30 5008 H 446.547 1.47484 3.50646 0
M  V30 5009 H 447.859 1.72977 4.67847 0
M  V30 5010 H 447.013 -0.175056 6.06447 0
M  V30 5011 H 445.752 -0.525004 4.84866 0
M  V30 5012 H 444.757 1.75109 5.21169 0
M  V30 5013 H 445.982 2.09196 6.46076 0
M  V30 5014 H 443.928 -0.149935 6.55829 0
M  V30 5015 H 443.845 1.33964 7.44036 0
M  V30 5016 H 445.113 0.203755 7.79234 0
M  V30 5017 N 449.342 -1.36122 0.79427 0
M  V30 5018 C 450.305 -2.28309 0.201889 0
M  V30 5019 C 451.305 -1.49041 -0.603603 0
M  V30 5020 O 452.495 -1.68964 -0.423888 0
M  V30 5021 C 449.627 -3.3321 -0.719978 0
M  V30 5022 H 450.82 -2.82208 1.01481 0
M  V30 5023 H 448.373 -1.45768 0.564037 0
M  V30 5024 H 449.108 -2.84475 -1.55706 0
M  V30 5025 H 448.893 -3.91835 -0.144266 0
M  V30 5026 H 450.383 -4.02044 -1.12916 0
M  V30 5027 N 450.82 -0.546701 -1.47814 0
M  V30 5028 C 451.768 0.220048 -2.31557 0
M  V30 5029 C 452.762 0.919472 -1.42275 0
M  V30 5030 O 453.968 0.841953 -1.59095 0
M  V30 5031 H 450.343 0.0898334 -0.746615 0
M  V30 5032 H 452.314 -0.505589 -2.94086 0
M  V30 5033 C 451.063 1.24353 -3.24702 0
M  V30 5034 H 450.386 0.714758 -3.93359 0
M  V30 5035 H 451.826 1.75112 -3.8615 0
M  V30 5036 C 450.285 2.28593 -2.47481 0
M  V30 5037 O 450.815 3.35334 -2.21165 0
M  V30 5038 N 449.021 2.02244 -2.08676 0
M  V30 5039 H 448.568 1.15455 -2.30278 0
M  V30 5040 H 448.526 2.72207 -1.57323 0
M  V30 5041 N 452.299 1.55045 -0.282633 0
M  V30 5042 C 453.547 1.99365 0.331334 0
M  V30 5043 C 453.868 1.1725 1.55812 0
M  V30 5044 O 453.138 0.263871 1.94115 0
M  V30 5045 H 451.718 0.736397 0.125414 0
M  V30 5046 H 454.38 1.90964 -0.389711 0
M  V30 5047 H 453.476 3.0596 0.616036 0
M  V30 5048 N 453.777 0.010035 1.57597 0
M  V30 5049 C 455.007 -0.682422 1.95004 0
M  V30 5050 C 455.415 -1.67278 0.884014 0
M  V30 5051 O 454.758 -1.83129 -0.144672 0
M  V30 5052 C 454.82 -1.46141 3.28456 0
M  V30 5053 C 454.484 -0.631523 4.52615 0
M  V30 5054 C 455.481 0.0850905 5.1983 0
M  V30 5055 C 453.166 -0.574539 4.99003 0
M  V30 5056 C 455.16 0.847566 6.3174 0
M  V30 5057 C 452.847 0.191655 6.10799 0
M  V30 5058 C 453.845 0.901432 6.77025 0
M  V30 5059 O 453.533 1.65511 7.86677 0
M  V30 5060 H 453.265 -0.194361 0.647456 0
M  V30 5061 H 455.819 0.060312 2.05311 0
M  V30 5062 H 454.049 -2.24885 3.14585 0
M  V30 5063 H 455.738 -2.04016 3.50902 0
M  V30 5064 H 456.504 0.0502812 4.84974 0
M  V30 5065 H 452.383 -1.11654 4.47274 0
M  V30 5066 H 455.927 1.4021 6.83364 0
M  V30 5067 H 451.824 0.228249 6.45096 0
M  V30 5068 H 452.592 1.57287 8.03245 0
M  V30 5069 N 455.255 -1.55392 -0.262866 0
M  V30 5070 C 456.187 -1.85392 -1.34768 0
M  V30 5071 C 457.2 -0.739069 -1.45057 0
M  V30 5072 O 458.389 -1.01703 -1.46693 0
M  V30 5073 C 455.489 -2.01088 -2.72795 0
M  V30 5074 C 454.662 -3.31828 -2.84972 0
M  V30 5075 C 453.721 -3.37464 -4.03738 0
M  V30 5076 O 452.747 -4.10778 -3.94018 0
M  V30 5077 N 453.949 -2.65599 -5.16176 0
M  V30 5078 H 456.714 -2.79029 -1.09375 0
M  V30 5079 H 454.275 -1.55434 -0.452981 0
M  V30 5080 H 456.267 -2.02217 -3.50557 0
M  V30 5081 H 454.837 -1.1427 -2.90966 0
M  V30 5082 H 454.057 -3.43152 -1.94012 0
M  V30 5083 H 455.345 -4.18032 -2.90045 0
M  V30 5084 H 454.743 -2.05736 -5.26962 0
M  V30 5085 H 453.3 -2.72439 -5.92132 0
M  V30 5086 N 456.733 0.527833 -1.48498 0
M  V30 5087 C 457.958 1.313 -1.60546 0
M  V30 5088 C 458.383 1.86199 -0.26672 0
M  V30 5089 O 457.741 1.64513 0.761918 0
M  V30 5090 C 457.789 2.43818 -2.65678 0
M  V30 5091 O 456.893 3.46916 -2.22987 0
M  V30 5092 H 456.234 0.388784 -0.538277 0
M  V30 5093 H 458.764 0.634896 -1.945 0
M  V30 5094 H 458.774 2.89973 -2.87018 0
M  V30 5095 H 457.449 2.03222 -3.62869 0
M  V30 5096 H 456.026 3.06864 -2.11869 0
M  V30 5097 N 458.211 1.37122 0.776871 0
M  V30 5098 C 459.46 1.31373 1.53049 0
M  V30 5099 C 459.773 -0.101016 1.95339 0
M  V30 5100 O 460.979 -0.280953 2.70042 0
M  V30 5101 C 459.435 2.30567 2.76346 0
M  V30 5102 C 459.043 3.77543 2.41175 0
M  V30 5103 C 460.787 2.33818 3.54301 0
M  V30 5104 C 458.694 4.68481 3.60943 0
M  V30 5105 H 457.624 0.488234 0.574581 0
M  V30 5106 H 460.275 1.62554 0.851372 0
M  V30 5107 H 458.657 1.92396 3.46121 0
M  V30 5108 H 459.831 4.24521 1.79216 0
M  V30 5109 H 458.146 3.77187 1.76405 0
M  V30 5110 H 460.743 2.98965 4.4331 0
M  V30 5111 H 461.086 1.3503 3.93793 0
M  V30 5112 H 461.619 2.7067 2.91518 0
M  V30 5113 H 458.358 5.68378 3.26537 0
M  V30 5114 H 457.878 4.2621 4.22025 0
M  V30 5115 H 459.557 4.85366 4.27819 0
M  V30 5116 N 459.689 -1.00246 1.21608 0
M  V30 5117 C 460.639 -2.07492 0.945051 0
M  V30 5118 C 461.623 -1.60585 -0.100675 0
M  V30 5119 O 462.815 -1.76667 0.10859 0
M  V30 5120 C 459.944 -3.39425 0.514342 0
M  V30 5121 C 459.03 -3.92993 1.59428 0
M  V30 5122 N 459.421 -4.19898 2.81991 0
M  V30 5123 C 457.719 -4.21297 1.46374 0
M  V30 5124 C 458.42 -4.63297 3.51754 0
M  V30 5125 N 457.396 -4.66421 2.79199 0
M  V30 5126 H 461.198 -2.26222 1.87619 0
M  V30 5127 H 458.712 -1.18339 1.11219 0
M  V30 5128 H 460.709 -4.15808 0.301527 0
M  V30 5129 H 459.369 -3.22101 -0.410008 0
M  V30 5130 H 460.38 -4.08377 3.1851 0
M  V30 5131 H 457.057 -4.13095 0.604863 0
M  V30 5132 H 458.447 -4.92816 4.56708 0
M  V30 5133 N 461.167 -1.02423 -1.1978 0
M  V30 5134 C 462.395 -0.737456 -1.93311 0
M  V30 5135 C 462.81 0.703023 -1.75223 0
M  V30 5136 O 462.167 1.47761 -1.07112 0
M  V30 5137 C 462.218 -1.0733 -3.45199 0
M  V30 5138 O 461.939 -2.4572 -3.62702 0
M  V30 5139 C 463.44 -0.80866 -4.35862 0
M  V30 5140 H 460.66 -0.2702 -0.614193 0
M  V30 5141 H 463.204 -1.36747 -1.52054 0
M  V30 5142 H 461.359 -0.488545 -3.84307 0
M  V30 5143 H 461.773 -2.58081 -4.56612 0
M  V30 5144 H 463.247 -1.09365 -5.41057 0
M  V30 5145 H 463.724 0.257025 -4.38447 0
M  V30 5146 H 464.33 -1.37592 -4.02428 0
M  V30 5147 N 462.645 1.35699 -0.801477 0
M  V30 5148 C 463.873 2.03157 -0.391768 0
M  V30 5149 C 464.288 1.60412 0.995668 0
M  V30 5150 O 463.645 0.799228 1.64069 0
M  V30 5151 C 463.696 3.58566 -0.459671 0
M  V30 5152 O 463.417 3.99756 -1.7924 0
M  V30 5153 C 464.918 4.4328 -0.0421205 0
M  V30 5154 H 462.138 0.651688 -0.159825 0
M  V30 5155 H 464.682 1.73426 -1.08368 0
M  V30 5156 H 462.837 3.86963 0.183939 0
M  V30 5157 H 463.251 4.94387 -1.75162 0
M  V30 5158 H 464.725 5.51821 -0.140754 0
M  V30 5159 H 465.202 4.27383 1.01196 0
M  V30 5160 H 465.808 4.20168 -0.658687 0
M  V30 5161 N 464.123 0.554532 1.47522 0
M  V30 5162 C 465.369 0.0295227 2.02779 0
M  V30 5163 C 465.702 -1.31582 1.42828 0
M  V30 5164 O 464.977 -1.85561 0.582872 0
M  V30 5165 C 465.26 -0.0664057 3.60039 0
M  V30 5166 C 465.113 1.30585 4.30427 0
M  V30 5167 C 466.432 -0.781162 4.33112 0
M  V30 5168 H 463.551 0.0122027 0.736899 0
M  V30 5169 H 466.193 0.716305 1.7598 0
M  V30 5170 H 464.343 -0.651307 3.83002 0
M  V30 5171 H 466.015 1.93374 4.18813 0
M  V30 5172 H 464.258 1.88125 3.90886 0
M  V30 5173 H 464.929 1.19147 5.38988 0
M  V30 5174 H 467.405 -0.284565 4.15126 0
M  V30 5175 H 466.281 -0.817237 5.42782 0
M  V30 5176 H 466.542 -1.83672 4.0214 0
M  V30 5177 N 465.601 -1.54893 0.290851 0
M  V30 5178 C 466.831 -2.04047 -0.323818 0
M  V30 5179 C 467.239 -1.16809 -1.48837 0
M  V30 5180 O 466.582 -0.184145 -1.82775 0
M  V30 5181 C 466.644 -3.49248 -0.852395 0
M  V30 5182 C 466.308 -4.56623 0.185557 0
M  V30 5183 C 467.305 -5.09985 1.01053 0
M  V30 5184 C 464.99 -5.01252 0.324332 0
M  V30 5185 C 466.984 -6.06507 1.96031 0
M  V30 5186 C 464.671 -5.97596 1.27757 0
M  V30 5187 C 465.669 -6.50107 2.09405 0
M  V30 5188 O 465.357 -7.44565 3.03114 0
M  V30 5189 H 465.089 -0.671735 -0.0758129 0
M  V30 5190 H 467.643 -2.00947 0.425393 0
M  V30 5191 H 465.873 -3.49639 -1.65195 0
M  V30 5192 H 467.562 -3.81654 -1.38185 0
M  V30 5193 H 468.328 -4.76307 0.914129 0
M  V30 5194 H 464.207 -4.60015 -0.301213 0
M  V30 5195 H 467.751 -6.47418 2.598 0
M  V30 5196 H 463.648 -6.30691 1.37473 0
M  V30 5197 H 464.416 -7.62334 2.97976 0
M  V30 5198 N 467.08 -0.0183926 -1.57589 0
M  V30 5199 C 468.328 0.661253 -1.90976 0
M  V30 5200 C 468.649 1.73281 -0.894353 0
M  V30 5201 O 467.919 1.9579 0.0656788 0
M  V30 5202 H 466.499 0.247233 -0.704901 0
M  V30 5203 H 469.161 -0.0636639 -1.94796 0
M  V30 5204 H 468.257 1.12083 -2.9128 0
M  V30 5205 N 468.558 1.5553 0.254621 0
M  V30 5206 C 469.969 1.67518 0.824286 0
M  V30 5207 C 470.32 0.614429 1.86331 0
M  V30 5208 O 469.445 -0.240736 2.15057 0
M  V30 5209 C 470.04 3.03692 1.50189 0
M  V30 5210 C 468.599 3.17646 2.01935 0
M  V30 5211 C 467.746 2.63373 0.867746 0
M  V30 5212 H 470.697 1.58671 0.0305843 0
M  V30 5213 H 470.718 2.97706 2.36962 0
M  V30 5214 H 470.23 3.80874 0.745431 0
M  V30 5215 H 468.331 2.45273 2.80485 0
M  V30 5216 H 468.444 4.24455 2.22204 0
M  V30 5217 H 466.808 2.20999 1.26616 0
M  V30 5218 H 467.591 3.43074 0.124498 0
M  V30 5219 N 470.036 -0.519951 1.48776 0
M  V30 5220 C 470.983 -1.62352 1.64044 0
M  V30 5221 C 471.953 -1.58945 0.482251 0
M  V30 5222 O 473.138 -1.77219 0.706971 0
M  V30 5223 C 470.278 -3.00579 1.69547 0
M  V30 5224 C 469.391 -3.14145 2.96541 0
M  V30 5225 C 468.526 -4.42991 2.93142 0
M  V30 5226 C 467.565 -4.50122 4.14797 0
M  V30 5227 N 466.702 -5.7037 4.09418 0
M  V30 5228 H 471.542 -1.48643 2.58281 0
M  V30 5229 H 469.079 -0.723516 1.28077 0
M  V30 5230 H 471.037 -3.80671 1.70719 0
M  V30 5231 H 469.667 -3.13036 0.787918 0
M  V30 5232 H 468.719 -2.27239 3.05068 0
M  V30 5233 H 470.031 -3.15275 3.86527 0
M  V30 5234 H 469.185 -5.31385 2.92772 0
M  V30 5235 H 467.924 -4.44398 2.00902 0
M  V30 5236 H 466.929 -3.60133 4.15433 0
M  V30 5237 H 468.154 -4.50445 5.08208 0
M  V30 5238 H 466.1 -5.72655 3.20004 0
M  V30 5239 H 466.017 -5.73036 4.93119 0
M  V30 5240 H 467.285 -6.61023 4.13121 0
M  V30 5241 N 471.514 -1.37532 -0.769588 0
M  V30 5242 C 472.762 -1.32597 -1.5252 0
M  V30 5243 C 473.083 0.0884294 -1.94799 0
M  V30 5244 O 472.353 1.03289 -1.66458 0
M  V30 5245 H 470.933 -0.487846 -0.565699 0
M  V30 5246 H 473.595 -1.72044 -0.915806 0
M  V30 5247 H 472.691 -1.96643 -2.42359 0
M  V30 5248 N 472.992 0.995999 -1.22138 0
M  V30 5249 C 474.403 1.54961 -1.04135 0
M  V30 5250 C 474.754 1.92159 0.396147 0
M  V30 5251 O 473.879 1.74435 1.28069 0
M  V30 5252 C 474.474 2.81581 -1.88408 0
M  V30 5253 C 473.033 3.33396 -1.74712 0
M  V30 5254 C 472.18 2.06509 -1.85066 0
M  V30 5255 H 475.131 0.817436 -1.36028 0
M  V30 5256 H 475.152 3.53822 -1.39966 0
M  V30 5257 H 474.664 2.54476 -2.93025 0
M  V30 5258 H 472.765 3.65416 -0.728159 0
M  V30 5259 H 472.878 4.04208 -2.57202 0
M  V30 5260 H 471.242 2.19925 -1.28472 0
M  V30 5261 H 472.025 1.81804 -2.91208 0
M  V30 5262 N 474.47 1.03057 1.19235 0
M  V30 5263 C 475.719 0.72326 1.88287 0
M  V30 5264 C 476.032 -0.751333 1.80594 0
M  V30 5265 O 477.238 -1.17176 2.44912 0
M  V30 5266 C 475.694 1.24338 3.3774 0
M  V30 5267 C 475.302 2.74587 3.53986 0
M  V30 5268 C 477.046 1.01213 4.12257 0
M  V30 5269 C 474.953 3.20009 4.97341 0
M  V30 5270 H 473.883 0.266848 0.705201 0
M  V30 5271 H 476.534 1.24509 1.34795 0
M  V30 5272 H 474.916 0.649457 3.90638 0
M  V30 5273 H 476.09 3.39649 3.11408 0
M  V30 5274 H 474.405 2.9601 2.9286 0
M  V30 5275 H 477.002 1.32675 5.17978 0
M  V30 5276 H 477.345 -0.051001 4.16269 0
M  V30 5277 H 477.878 1.57014 3.65501 0
M  V30 5278 H 474.617 4.25659 4.98493 0
M  V30 5279 H 474.137 2.59676 5.40674 0
M  V30 5280 H 475.816 3.13447 5.66003 0
M  V30 5281 N 475.948 -1.35272 0.808662 0
M  V30 5282 C 476.858 -2.33546 0.222079 0
M  V30 5283 C 477.874 -1.6196 -0.636011 0
M  V30 5284 O 479.05 -1.93822 -0.547274 0
M  V30 5285 C 476.115 -3.41148 -0.61795 0
M  V30 5286 C 475.176 -4.28507 0.260875 0
M  V30 5287 C 474.409 -5.3097 -0.539156 0
M  V30 5288 O 474.632 -5.42123 -1.77367 0
M  V30 5289 O 473.566 -6.01858 0.0710526 0
M  V30 5290 H 477.392 -2.85515 1.03512 0
M  V30 5291 H 474.977 -1.38079 0.570495 0
M  V30 5292 H 476.859 -4.06889 -1.09634 0
M  V30 5293 H 475.534 -2.91447 -1.40855 0
M  V30 5294 H 474.441 -3.6574 0.786451 0
M  V30 5295 H 475.774 -4.81611 1.01547 0
M  V30 5296 N 477.426 -0.562348 -1.47226 0
M  V30 5297 C 478.675 -0.038041 -2.01664 0
M  V30 5298 C 478.988 1.32199 -1.44162 0
M  V30 5299 O 480.194 1.9365 -1.90294 0
M  V30 5300 C 478.65 -0.0174958 -3.59896 0
M  V30 5301 C 478.258 -1.3746 -4.2639 0
M  V30 5302 C 480.002 0.453934 -4.22066 0
M  V30 5303 C 477.909 -1.31289 -5.76643 0
M  V30 5304 H 476.839 -0.0104511 -0.753928 0
M  V30 5305 H 479.49 -0.710966 -1.69167 0
M  V30 5306 H 477.872 0.721182 -3.89378 0
M  V30 5307 H 479.046 -2.1314 -4.08544 0
M  V30 5308 H 477.361 -1.78438 -3.7623 0
M  V30 5309 H 479.958 0.518584 -5.32179 0
M  V30 5310 H 480.301 1.46706 -3.89594 0
M  V30 5311 H 480.834 -0.230044 -3.97134 0
M  V30 5312 H 477.573 -2.30217 -6.13743 0
M  V30 5313 H 477.093 -0.597973 -5.96812 0
M  V30 5314 H 478.772 -1.01713 -6.38955 0
M  V30 5315 N 478.904 1.54736 -0.299062 0
M  V30 5316 C 479.836 2.20891 0.61153 0
M  V30 5317 C 480.849 1.20104 1.09904 0
M  V30 5318 O 482.038 1.46707 1.01683 0
M  V30 5319 C 479.138 2.84018 1.84897 0
M  V30 5320 C 478.311 4.10719 1.50428 0
M  V30 5321 C 477.37 4.57667 2.59667 0
M  V30 5322 O 476.396 5.2291 2.24842 0
M  V30 5323 N 477.598 4.29821 3.90172 0
M  V30 5324 H 480.363 2.99666 0.0452001 0
M  V30 5325 H 477.924 1.61446 -0.121178 0
M  V30 5326 H 479.916 3.1236 2.5732 0
M  V30 5327 H 478.486 2.09095 2.32375 0
M  V30 5328 H 477.706 3.89408 0.612781 0
M  V30 5329 H 478.994 4.93223 1.24934 0
M  V30 5330 H 478.392 3.77549 4.21276 0
M  V30 5331 H 476.949 4.62877 4.58899 0
M  V30 5332 N 480.382 0.0267497 1.57577 0
M  V30 5333 C 481.631 -0.651736 1.9088 0
M  V30 5334 C 481.944 -1.73427 0.904576 0
M  V30 5335 O 483.15 -2.46923 1.12877 0
M  V30 5336 C 481.606 -1.21048 3.38933 0
M  V30 5337 C 481.214 -0.161362 4.47709 0
M  V30 5338 C 482.958 -1.86562 3.81307 0
M  V30 5339 C 480.865 -0.731611 5.86857 0
M  V30 5340 H 479.795 -0.247198 0.712326 0
M  V30 5341 H 482.446 0.0916641 1.83271 0
M  V30 5342 H 480.828 -2.00542 3.41466 0
M  V30 5343 H 482.002 0.61094 4.56732 0
M  V30 5344 H 480.317 0.394877 4.14523 0
M  V30 5345 H 482.914 -2.30178 4.8262 0
M  V30 5346 H 483.257 -2.70735 3.16241 0
M  V30 5347 H 483.79 -1.13762 3.81186 0
M  V30 5348 H 480.529 0.0719329 6.55461 0
M  V30 5349 H 480.049 -1.47245 5.81445 0
M  V30 5350 H 481.728 -1.22208 6.35354 0
M  V30 5351 N 481.861 -1.55662 -0.24637 0
M  V30 5352 C 483.277 -1.48098 -0.594907 0
M  V30 5353 C 483.477 -0.717044 -1.8831 0
M  V30 5354 O 482.533 -0.246618 -2.51293 0
M  V30 5355 C 483.846 -2.92507 -0.697146 0
M  V30 5356 C 485.394 -3.02881 -0.789436 0
M  V30 5357 C 485.869 -4.48598 -0.923232 0
M  V30 5358 N 487.36 -4.52538 -0.988088 0
M  V30 5359 C 488.095 -5.62536 -1.11089 0
M  V30 5360 N 487.591 -6.82342 -1.19919 0
M  V30 5361 N 489.384 -5.50334 -1.14408 0
M  V30 5362 H 481.535 -2.0377 0.599278 0
M  V30 5363 H 483.798 -0.925145 0.20691 0
M  V30 5364 H 483.504 -3.51242 0.179396 0
M  V30 5365 H 483.378 -3.43024 -1.5689 0
M  V30 5366 H 485.765 -2.44226 -1.65643 0
M  V30 5367 H 485.846 -2.55574 0.107482 0
M  V30 5368 H 485.49 -5.07864 -0.0607927 0
M  V30 5369 H 485.42 -4.93587 -1.8352 0
M  V30 5370 H 487.911 -3.66248 -0.931167 0
M  V30 5371 H 488.224 -7.61924 -1.29197 0
M  V30 5372 H 486.569 -6.85102 -1.16876 0
M  V30 5373 H 489.76 -4.5567 -1.07158 0
M  V30 5374 H 489.933 -6.36096 -1.23634 0
M  V30 5375 N 483.339 0.512053 -1.4905 0
M  V30 5376 C 484.567 1.29116 -1.61669 0
M  V30 5377 C 484.982 1.86655 -0.283787 0
M  V30 5378 O 484.339 1.67293 0.729331 0
M  V30 5379 C 484.39 2.4293 -2.67707 0
M  V30 5380 O 484.111 1.87758 -3.95826 0
M  V30 5381 C 485.612 3.34476 -2.90931 0
M  V30 5382 H 482.832 0.392009 -0.544583 0
M  V30 5383 H 485.376 0.615881 -1.95006 0
M  V30 5384 H 483.531 3.06308 -2.37179 0
M  V30 5385 H 483.945 2.62393 -4.54148 0
M  V30 5386 H 485.419 4.10642 -3.68886 0
M  V30 5387 H 485.896 3.90801 -2.00427 0
M  V30 5388 H 486.502 2.76874 -3.22832 0
M  V30 5389 N 484.817 1.37938 0.762283 0
M  V30 5390 C 485.764 1.34467 1.87583 0
M  V30 5391 C 486.734 0.208633 1.64785 0
M  V30 5392 O 487.919 0.399494 1.86571 0
M  V30 5393 C 485.059 1.16692 3.24772 0
M  V30 5394 C 484.172 2.39608 3.59461 0
M  V30 5395 C 483.307 2.14631 4.85908 0
M  V30 5396 C 482.346 3.33364 5.13357 0
M  V30 5397 N 481.483 3.07877 6.30996 0
M  V30 5398 H 486.323 2.29669 1.89885 0
M  V30 5399 H 483.86 1.14116 0.928219 0
M  V30 5400 H 485.818 1.04405 4.03925 0
M  V30 5401 H 484.448 0.251333 3.2182 0
M  V30 5402 H 483.5 2.626 2.75219 0
M  V30 5403 H 484.812 3.28128 3.75678 0
M  V30 5404 H 483.966 1.99429 5.72986 0
M  V30 5405 H 482.705 1.23463 4.71814 0
M  V30 5406 H 481.71 3.49094 4.24751 0
M  V30 5407 H 482.935 4.25395 5.29354 0
M  V30 5408 H 480.881 2.19348 6.18241 0
M  V30 5409 H 480.798 3.89944 6.47673 0
M  V30 5410 H 482.066 2.96313 7.20985 0
M  V30 5411 N 486.295 -0.989507 1.22664 0
M  V30 5412 C 487.205 -2.11449 1.01619 0
M  V30 5413 C 488.221 -1.73962 -0.036545 0
M  V30 5414 O 489.397 -2.00788 0.156924 0
M  V30 5415 C 486.462 -3.41465 0.600204 0
M  V30 5416 C 485.523 -3.93033 1.72695 0
M  V30 5417 C 484.756 -5.16844 1.33071 0
M  V30 5418 O 484.979 -5.7001 0.210975 0
M  V30 5419 O 483.913 -5.6225 2.14845 0
M  V30 5420 H 487.739 -2.32088 1.9588 0
M  V30 5421 H 485.324 -1.09823 1.01289 0
M  V30 5422 H 487.206 -4.19695 0.37873 0
M  V30 5423 H 485.881 -3.22178 -0.313511 0
M  V30 5424 H 484.788 -3.15961 2.00298 0
M  V30 5425 H 486.121 -4.16758 2.61865 0
M  V30 5426 N 487.773 -1.03688 -1.18687 0
M  V30 5427 C 488.706 -0.569112 -2.2099 0
M  V30 5428 C 489.684 0.394315 -1.57746 0
M  V30 5429 O 490.868 0.309519 -1.85941 0
M  V30 5430 C 487.995 0.169104 -3.38278 0
M  V30 5431 C 487.041 -0.746989 -4.19908 0
M  V30 5432 S 487.874 -2.22773 -4.86963 0
M  V30 5433 C 489.03 -1.50025 -6.07654 0
M  V30 5434 H 489.263 -1.43589 -2.60326 0
M  V30 5435 H 486.796 -0.847507 -1.29061 0
M  V30 5436 H 488.754 0.588868 -4.06254 0
M  V30 5437 H 487.415 1.01172 -2.9736 0
M  V30 5438 H 486.608 -0.176626 -5.0369 0
M  V30 5439 H 486.21 -1.10543 -3.5729 0
M  V30 5440 H 488.502 -0.791217 -6.72864 0
M  V30 5441 H 489.445 -2.31498 -6.69189 0
M  V30 5442 H 489.853 -0.994245 -5.55675 0
M  V30 5443 N 489.251 1.34841 -0.815825 0
M  V30 5444 C 490.201 2.27075 -0.205169 0
M  V30 5445 C 491.185 1.48205 0.626414 0
M  V30 5446 O 492.377 1.70306 0.482157 0
M  V30 5447 C 489.506 3.37322 0.637871 0
M  V30 5448 C 488.592 4.23609 -0.203948 0
M  V30 5449 N 488.983 4.89558 -1.27149 0
M  V30 5450 C 487.281 4.45998 0.0128971 0
M  V30 5451 C 487.982 5.53597 -1.7862 0
M  V30 5452 N 486.958 5.32535 -1.0912 0
M  V30 5453 H 490.76 2.75563 -1.02187 0
M  V30 5454 H 488.274 1.48477 -0.657912 0
M  V30 5455 H 490.271 4.02359 1.09146 0
M  V30 5456 H 488.931 2.90385 1.45281 0
M  V30 5457 H 489.942 4.9077 -1.65423 0
M  V30 5458 H 486.619 4.09837 0.79624 0
M  V30 5459 H 488.009 6.16184 -2.67892 0
M  V30 5460 N 490.729 0.570148 1.46925 0
M  V30 5461 C 491.661 -0.207909 2.28255 0
M  V30 5462 C 492.674 -0.867301 1.37774 0
M  V30 5463 O 493.863 -0.738976 1.62485 0
M  V30 5464 C 490.963 -1.31298 3.12433 0
M  V30 5465 C 490.136 -0.747915 4.30958 0
M  V30 5466 C 489.195 -1.7391 4.9663 0
M  V30 5467 O 488.221 -1.2801 5.54619 0
M  V30 5468 N 489.423 -3.07288 4.92498 0
M  V30 5469 H 492.188 0.489794 2.95671 0
M  V30 5470 H 489.749 0.407076 1.56699 0
M  V30 5471 H 491.741 -1.97507 3.53232 0
M  V30 5472 H 490.311 -1.91373 2.47175 0
M  V30 5473 H 489.531 0.0913066 3.94094 0
M  V30 5474 H 490.819 -0.349958 5.07595 0
M  V30 5475 H 490.217 -3.47213 4.46609 0
M  V30 5476 H 488.774 -3.69021 5.37277 0
M  V30 5477 N 492.207 -1.54576 0.307264 0
M  V30 5478 C 493.453 -2.0056 -0.300612 0
M  V30 5479 C 493.786 -1.1953 -1.53057 0
M  V30 5480 O 493.061 -0.27337 -1.92569 0
M  V30 5481 C 493.344 -3.54167 -0.650987 0
M  V30 5482 C 493.197 -4.45933 0.588539 0
M  V30 5483 C 494.516 -4.14645 -1.47506 0
M  V30 5484 H 491.635 -0.729075 -0.107788 0
M  V30 5485 H 494.277 -1.85286 0.420606 0
M  V30 5486 H 492.427 -3.67313 -1.26544 0
M  V30 5487 H 494.099 -4.44683 1.22697 0
M  V30 5488 H 492.342 -4.16274 1.22058 0
M  V30 5489 H 493.013 -5.51189 0.299153 0
M  V30 5490 H 495.489 -4.04973 -0.955821 0
M  V30 5491 H 494.365 -5.22269 -1.68899 0
M  V30 5492 H 494.626 -3.66921 -2.4662 0
M  V30 5493 N 493.685 -0.035106 -1.57561 0
M  V30 5494 C 494.648 0.929819 -2.09492 0
M  V30 5495 C 495.648 1.25026 -1.01119 0
M  V30 5496 O 496.838 1.18961 -1.27255 0
M  V30 5497 C 493.97 2.24457 -2.56577 0
M  V30 5498 H 495.163 0.479935 -2.96035 0
M  V30 5499 H 492.716 0.213033 -1.54841 0
M  V30 5500 H 493.451 2.74061 -1.73382 0
M  V30 5501 H 493.236 2.02508 -3.35757 0
M  V30 5502 H 494.726 2.93607 -2.96959 0
M  V30 5503 N 495.163 1.55791 0.238111 0
M  V30 5504 C 496.073 1.94196 1.31625 0
M  V30 5505 C 497.089 0.843545 1.52185 0
M  V30 5506 O 498.265 1.1457 1.65637 0
M  V30 5507 C 495.33 2.2365 2.64918 0
M  V30 5508 C 494.391 3.46971 2.52804 0
M  V30 5509 C 493.624 3.7501 3.79741 0
M  V30 5510 O 493.847 3.04982 4.82019 0
M  V30 5511 O 492.781 4.68525 3.77846 0
M  V30 5512 H 496.607 2.86044 1.02043 0
M  V30 5513 H 494.192 1.42786 0.439603 0
M  V30 5514 H 496.074 2.43863 3.4367 0
M  V30 5515 H 494.749 1.34979 2.94215 0
M  V30 5516 H 493.656 3.32055 1.72309 0
M  V30 5517 H 494.989 4.35971 2.28451 0
M  V30 5518 N 496.642 -0.504142 1.49319 0
M  V30 5519 C 497.872 -1.28071 1.62116 0
M  V30 5520 C 498.28 -1.86955 0.290566 0
M  V30 5521 O 497.623 -1.68415 -0.733616 0
M  V30 5522 C 497.685 -2.4521 2.62893 0
M  V30 5523 C 497.349 -2.07218 4.0732 0
M  V30 5524 C 498.346 -1.61375 4.94221 0
M  V30 5525 C 496.031 -2.16949 4.53033 0
M  V30 5526 C 498.025 -1.25763 6.2487 0
M  V30 5527 C 495.712 -1.80949 5.83696 0
M  V30 5528 C 496.71 -1.3543 6.69438 0
M  V30 5529 O 496.398 -0.99915 7.97667 0
M  V30 5530 H 496.13 -0.394763 0.54876 0
M  V30 5531 H 498.684 -0.612118 1.96067 0
M  V30 5532 H 496.914 -3.15134 2.24115 0
M  V30 5533 H 498.603 -3.0724 2.65252 0
M  V30 5534 H 499.369 -1.53306 4.60133 0
M  V30 5535 H 495.248 -2.5133 3.86463 0
M  V30 5536 H 498.792 -0.901631 6.91749 0
M  V30 5537 H 494.689 -1.88667 6.17313 0
M  V30 5538 H 495.457 -1.13089 8.1065 0
M  V30 5539 N 498.12 -1.38341 -0.754957 0
M  V30 5540 C 499.368 -1.34208 -1.51105 0
M  V30 5541 C 499.689 0.0677634 -1.94882 0
M  V30 5542 O 498.959 1.01517 -1.67544 0
M  V30 5543 H 497.539 -0.493819 -0.560493 0
M  V30 5544 H 500.201 -1.73005 -0.897507 0
M  V30 5545 H 499.297 -1.99203 -2.4026 0
M  V30 5546 N 499.598 0.982988 -1.23187 0
M  V30 5547 C 500.844 1.72648 -1.06398 0
M  V30 5548 C 501.177 1.90066 0.398561 0
M  V30 5549 O 500.452 1.45105 1.29518 0
M  V30 5550 C 500.735 3.12627 -1.78707 0
M  V30 5551 C 500.588 3.02795 -3.32618 0
M  V30 5552 C 501.907 4.11997 -1.54747 0
M  V30 5553 H 499.026 0.626649 -0.387918 0
M  V30 5554 H 501.668 1.14455 -1.51658 0
M  V30 5555 H 499.818 3.62308 -1.40234 0
M  V30 5556 H 501.49 2.60659 -3.80598 0
M  V30 5557 H 499.733 2.39362 -3.61785 0
M  V30 5558 H 500.404 4.01893 -3.78399 0
M  V30 5559 H 502.88 3.71114 -1.88186 0
M  V30 5560 H 501.756 5.08037 -2.07821 0
M  V30 5561 H 502.017 4.39462 -0.482249 0
M  V30 5562 N 501.076 1.04316 1.18135 0
M  V30 5563 C 502.039 0.640794 2.2006 0
M  V30 5564 C 503.039 -0.303124 1.57917 0
M  V30 5565 O 504.229 -0.0881855 1.73977 0
M  V30 5566 C 501.361 -0.060148 3.40847 0
M  V30 5567 H 502.554 1.54281 2.57172 0
M  V30 5568 H 500.107 0.836004 1.32063 0
M  V30 5569 H 500.842 -0.975845 3.0927 0
M  V30 5570 H 500.627 0.618319 3.87194 0
M  V30 5571 H 502.117 -0.328082 4.16309 0
M  V30 5572 N 502.554 -1.34406 0.822964 0
M  V30 5573 C 503.517 -2.2783 0.250271 0
M  V30 5574 C 504.517 -1.50288 -0.571854 0
M  V30 5575 O 505.707 -1.69825 -0.387952 0
M  V30 5576 C 502.839 -3.34663 -0.649137 0
M  V30 5577 H 504.032 -2.79992 1.07444 0
M  V30 5578 H 501.585 -1.44539 0.594829 0
M  V30 5579 H 502.32 -2.87714 -1.49637 0
M  V30 5580 H 502.105 -3.92052 -0.0611199 0
M  V30 5581 H 503.595 -4.04349 -1.04363 0
M  V30 5582 N 504.032 -0.577932 -1.46621 0
M  V30 5583 C 504.982 0.178869 -2.27297 0
M  V30 5584 C 505.966 0.866279 -1.35589 0
M  V30 5585 O 507.158 0.761163 -1.59798 0
M  V30 5586 C 504.287 1.19499 -3.2183 0
M  V30 5587 C 503.373 0.50994 -4.21023 0
M  V30 5588 N 503.764 -0.43177 -5.03954 0
M  V30 5589 C 502.062 0.761287 -4.39455 0
M  V30 5590 C 502.763 -0.831693 -5.75724 0
M  V30 5591 N 501.739 -0.181897 -5.43296 0
M  V30 5592 H 505.541 -0.544859 -2.88805 0
M  V30 5593 H 503.055 -0.399373 -1.57413 0
M  V30 5594 H 505.052 1.75131 -3.78332 0
M  V30 5595 H 503.712 1.91959 -2.61881 0
M  V30 5596 H 504.723 -0.807045 -5.11573 0
M  V30 5597 H 501.4 1.47282 -3.90659 0
M  V30 5598 H 502.79 -1.6067 -6.52407 0
M  V30 5599 N 505.51 1.54411 -0.315457 0
M  V30 5600 C 506.756 2.01425 0.282775 0
M  V30 5601 C 507.111 1.19978 1.5041 0
M  V30 5602 O 506.404 0.271766 1.89663 0
M  V30 5603 C 506.598 3.50936 0.676652 0
M  V30 5604 C 506.427 4.46856 -0.504954 0
M  V30 5605 C 505.197 4.95275 -1.00152 0
M  V30 5606 C 507.395 4.96141 -1.35456 0
M  V30 5607 N 505.377 5.75081 -2.14838 0
M  V30 5608 C 506.748 5.73791 -2.3487 0
M  V30 5609 C 508.803 4.78299 -1.38327 0
M  V30 5610 C 507.506 6.35498 -3.36949 0
M  V30 5611 C 509.532 5.40836 -2.39271 0
M  V30 5612 C 508.894 6.1833 -3.37413 0
M  V30 5613 H 504.993 0.779078 0.0675398 0
M  V30 5614 H 507.577 1.8946 -0.448656 0
M  V30 5615 H 505.748 3.63162 1.37723 0
M  V30 5616 H 507.48 3.84728 1.25566 0
M  V30 5617 H 504.235 4.70107 -0.574123 0
M  V30 5618 H 504.659 6.19664 -2.72665 0
M  V30 5619 H 509.301 4.17956 -0.638196 0
M  V30 5620 H 507.019 6.94967 -4.12367 0
M  V30 5621 H 510.605 5.28952 -2.42284 0
M  V30 5622 H 509.485 6.65861 -4.14244 0
M  V30 5623 N 506.988 0.0434614 1.5754 0
M  V30 5624 C 507.951 -0.918696 2.09982 0
M  V30 5625 C 508.951 -1.24488 1.01781 0
M  V30 5626 O 510.141 -1.18284 1.27885 0
M  V30 5627 C 507.273 -2.23093 2.57764 0
M  V30 5628 H 508.466 -0.464229 2.96285 0
M  V30 5629 H 506.019 -0.204818 1.54952 0
M  V30 5630 H 506.754 -2.73137 1.74832 0
M  V30 5631 H 506.539 -2.00724 3.36827 0
M  V30 5632 H 508.029 -2.92028 2.98512 0
M  V30 5633 N 508.466 -1.55915 -0.229846 0
M  V30 5634 C 509.696 -1.82352 -0.971152 0
M  V30 5635 C 510.104 -0.619231 -1.7878 0
M  V30 5636 O 509.447 0.421597 -1.78797 0
M  V30 5637 C 509.509 -3.02399 -1.9441 0
M  V30 5638 C 509.173 -4.37739 -1.31277 0
M  V30 5639 C 510.17 -5.15074 -0.706757 0
M  V30 5640 C 507.855 -4.84454 -1.32702 0
M  V30 5641 C 509.849 -6.37281 -0.123413 0
M  V30 5642 C 507.536 -6.06605 -0.739831 0
M  V30 5643 C 508.534 -6.82858 -0.139071 0
M  V30 5644 O 508.222 -8.027 0.439007 0
M  V30 5645 H 507.954 -0.61035 -0.290601 0
M  V30 5646 H 510.508 -2.03839 -0.252746 0
M  V30 5647 H 508.738 -2.76709 -2.70128 0
M  V30 5648 H 510.427 -3.15779 -2.55026 0
M  V30 5649 H 511.193 -4.80093 -0.688131 0
M  V30 5650 H 507.072 -4.25081 -1.78402 0
M  V30 5651 H 510.616 -6.96741 0.346124 0
M  V30 5652 H 506.513 -6.4106 -0.755841 0
M  V30 5653 H 507.281 -8.17824 0.332521 0
M  V30 5654 N 509.944 0.496216 -1.49584 0
M  V30 5655 C 510.891 1.59722 -1.66606 0
M  V30 5656 C 511.861 1.58158 -0.507477 0
M  V30 5657 O 513.046 1.76072 -0.735076 0
M  V30 5658 C 510.186 2.97844 -1.74308 0
M  V30 5659 C 509.299 3.09388 -3.01502 0
M  V30 5660 C 508.434 4.38271 -3.00153 0
M  V30 5661 C 507.473 4.43466 -4.21906 0
M  V30 5662 N 506.61 5.63784 -4.1844 0
M  V30 5663 H 511.45 1.44515 -2.60613 0
M  V30 5664 H 508.987 0.703048 -1.29212 0
M  V30 5665 H 510.945 3.77907 -1.76754 0
M  V30 5666 H 509.575 3.11743 -0.837619 0
M  V30 5667 H 508.627 2.22357 -3.08645 0
M  V30 5668 H 509.939 3.09085 -3.91494 0
M  V30 5669 H 509.093 5.2666 -3.01188 0
M  V30 5670 H 507.832 4.41146 -2.07947 0
M  V30 5671 H 506.837 3.53478 -4.21109 0
M  V30 5672 H 508.062 4.42303 -5.1531 0
M  V30 5673 H 506.008 5.67491 -3.29074 0
M  V30 5674 H 505.925 5.65118 -5.02173 0
M  V30 5675 H 507.193 6.54367 -4.23585 0
M  V30 5676 N 511.423 1.38739 0.74761 0
M  V30 5677 C 512.37 1.36449 1.86146 0
M  V30 5678 C 513.34 0.226098 1.64554 0
M  V30 5679 O 514.525 0.41926 1.86137 0
M  V30 5680 C 511.665 1.2013 3.23516 0
M  V30 5681 C 510.778 2.43407 3.56899 0
M  V30 5682 C 509.913 2.19773 4.83605 0
M  V30 5683 C 508.952 3.3879 5.09792 0
M  V30 5684 N 508.089 3.14553 6.27695 0
M  V30 5685 H 512.929 2.3167 1.87438 0
M  V30 5686 H 510.466 1.15094 0.916063 0
M  V30 5687 H 512.424 1.08683 4.02795 0
M  V30 5688 H 511.054 0.285453 3.21535 0
M  V30 5689 H 510.106 2.65504 2.72418 0
M  V30 5690 H 511.418 3.32094 3.72176 0
M  V30 5691 H 510.572 2.05496 5.70838 0
M  V30 5692 H 509.311 1.28461 4.70478 0
M  V30 5693 H 508.316 3.53579 4.21025 0
M  V30 5694 H 509.541 4.30986 5.24812 0
M  V30 5695 H 507.487 2.25893 6.1588 0
M  V30 5696 H 507.404 3.96791 6.435 0
M  V30 5697 H 508.672 3.03943 7.17801 0
M  V30 5698 N 512.901 -0.976442 1.23707 0
M  V30 5699 C 514.149 -1.71487 1.06942 0
M  V30 5700 C 514.47 -1.9098 -0.393897 0
M  V30 5701 O 513.74 -1.48128 -1.28198 0
M  V30 5702 H 512.32 -0.635425 0.392739 0
M  V30 5703 H 514.982 -1.17515 1.55487 0
M  V30 5704 H 514.078 -2.70286 1.56051 0
M  V30 5705 N 514.379 -1.04941 -1.1758 0
M  V30 5706 C 515.625 -0.759112 -1.88057 0
M  V30 5707 C 515.958 0.711918 -1.8068 0
M  V30 5708 O 515.233 1.52035 -1.21308 0
M  V30 5709 C 515.516 -1.237 -3.38187 0
M  V30 5710 C 515.369 -2.77078 -3.54327 0
M  V30 5711 C 516.688 -0.834014 -4.32125 0
M  V30 5712 H 513.807 -0.277237 -0.682868 0
M  V30 5713 H 516.449 -1.30296 -1.38286 0
M  V30 5714 H 514.599 -0.774337 -3.80705 0
M  V30 5715 H 516.271 -3.31449 -3.20842 0
M  V30 5716 H 514.514 -3.16477 -2.96689 0
M  V30 5717 H 515.185 -3.05577 -4.59703 0
M  V30 5718 H 517.661 -1.23228 -3.97434 0
M  V30 5719 H 516.537 -1.19603 -5.35711 0
M  V30 5720 H 516.798 0.262195 -4.41322 0
M  V30 5721 N 515.857 1.33968 -0.830081 0
M  V30 5722 C 517.273 1.51003 -0.516742 0
M  V30 5723 C 517.473 1.77286 0.957694 0
M  V30 5724 O 516.529 1.82797 1.74188 0
M  V30 5725 C 517.842 2.67036 -1.38247 0
M  V30 5726 C 519.39 2.80919 -1.38034 0
M  V30 5727 C 519.865 4.00004 -2.23071 0
M  V30 5728 N 521.356 4.07224 -2.20733 0
M  V30 5729 C 522.091 4.98541 -2.83275 0
M  V30 5730 N 521.587 5.95033 -3.54835 0
M  V30 5731 N 523.38 4.91469 -2.72791 0
M  V30 5732 H 515.531 1.15168 -1.78466 0
M  V30 5733 H 517.794 0.565443 -0.760906 0
M  V30 5734 H 517.5 2.54266 -2.42985 0
M  V30 5735 H 517.374 3.62226 -1.05225 0
M  V30 5736 H 519.761 2.93127 -0.340713 0
M  V30 5737 H 519.842 1.86517 -1.75057 0
M  V30 5738 H 519.486 3.88557 -3.27087 0
M  V30 5739 H 519.416 4.93634 -1.83394 0
M  V30 5740 H 521.907 3.38162 -1.68687 0
M  V30 5741 H 522.22 6.61357 -3.99784 0
M  V30 5742 H 520.565 5.95135 -3.58942 0
M  V30 5743 H 523.756 4.15048 -2.16456 0
M  V30 5744 H 523.929 5.62439 -3.21818 0
M  V30 5745 N 517.335 0.585699 1.46312 0
M  V30 5746 C 518.583 0.072278 2.01971 0
M  V30 5747 C 518.904 -1.29345 1.45928 0
M  V30 5748 O 518.174 -1.84973 0.645109 0
M  V30 5749 H 516.754 0.023729 0.746623 0
M  V30 5750 H 519.416 0.762155 1.7938 0
M  V30 5751 H 518.512 0.00552767 3.121 0
M  V30 5752 N 518.813 -1.54241 0.323641 0
M  V30 5753 C 519.76 -2.24339 -0.542277 0
M  V30 5754 C 520.73 -1.23421 -1.11159 0
M  V30 5755 O 521.915 -1.52104 -1.15192 0
M  V30 5756 C 519.055 -3.00479 -1.69725 0
M  V30 5757 C 518.168 -4.16214 -1.15716 0
M  V30 5758 C 517.303 -4.79884 -2.27783 0
M  V30 5759 C 516.342 -5.87722 -1.71023 0
M  V30 5760 N 515.479 -6.45254 -2.76752 0
M  V30 5761 H 520.319 -2.97935 0.0620613 0
M  V30 5762 H 517.856 -1.47039 0.0423993 0
M  V30 5763 H 519.814 -3.42869 -2.3769 0
M  V30 5764 H 518.444 -2.29217 -2.27288 0
M  V30 5765 H 517.496 -3.78605 -0.369063 0
M  V30 5766 H 518.808 -4.93838 -0.701832 0
M  V30 5767 H 517.962 -5.25243 -3.03651 0
M  V30 5768 H 516.701 -4.01641 -2.76652 0
M  V30 5769 H 515.706 -5.41765 -0.936518 0
M  V30 5770 H 516.931 -6.67863 -1.2303 0
M  V30 5771 H 514.877 -5.69884 -3.24912 0
M  V30 5772 H 514.794 -7.18292 -2.35782 0
M  V30 5773 H 516.062 -6.95269 -3.5245 0
M  V30 5774 N 520.291 -0.0518155 -1.57515 0
M  V30 5775 C 521.537 0.622745 -1.93002 0
M  V30 5776 C 521.87 1.70456 -0.930499 0
M  V30 5777 O 521.145 1.94452 0.0434086 0
M  V30 5778 C 521.428 1.21824 -3.38867 0
M  V30 5779 C 521.281 0.144434 -4.49568 0
M  V30 5780 C 522.6 2.12968 -3.8514 0
M  V30 5781 H 519.719 0.22491 -0.701844 0
M  V30 5782 H 522.361 -0.113711 -1.89659 0
M  V30 5783 H 520.511 1.8459 -3.41846 0
M  V30 5784 H 522.183 -0.48753 -4.58717 0
M  V30 5785 H 520.426 -0.527424 -4.30582 0
M  V30 5786 H 521.097 0.601127 -5.48717 0
M  V30 5787 H 523.573 1.60163 -3.8404 0
M  V30 5788 H 522.449 2.51578 -4.87852 0
M  V30 5789 H 522.71 3.03004 -3.21934 0
M  V30 5790 N 521.769 1.56035 0.221574 0
M  V30 5791 C 522.717 1.93269 1.29421 0
M  V30 5792 C 523.711 0.814727 1.48521 0
M  V30 5793 O 524.917 0.999559 1.49696 0
M  V30 5794 H 521.292 0.614188 0.43391 0
M  V30 5795 H 523.263 2.82773 0.952987 0
M  V30 5796 C 522.012 2.26573 2.63742 0
M  V30 5797 H 521.335 3.12112 2.49853 0
M  V30 5798 H 522.775 2.5651 3.37607 0
M  V30 5799 C 521.234 1.09086 3.1875 0
M  V30 5800 O 521.764 0.351985 4.00155 0
M  V30 5801 N 519.97 0.874693 2.77124 0
M  V30 5802 H 519.517 1.47726 2.11033 0
M  V30 5803 H 519.475 0.0903349 3.1427 0
M  V30 5804 N 523.247 -0.488276 1.49845 0
M  V30 5805 C 524.179 -1.60539 1.63584 0
M  V30 5806 C 525.192 -1.5434 0.517972 0
M  V30 5807 O 526.381 -1.60041 0.790516 0
M  V30 5808 C 523.481 -2.99374 1.58835 0
M  V30 5809 C 522.654 -3.30624 2.86368 0
M  V30 5810 C 521.713 -4.4893 2.74496 0
M  V30 5811 O 520.739 -4.50085 3.48443 0
M  V30 5812 N 521.941 -5.49591 1.86894 0
M  V30 5813 H 524.706 -1.49176 2.59936 0
M  V30 5814 H 522.267 -0.67639 1.47094 0
M  V30 5815 H 524.259 -3.76459 1.48529 0
M  V30 5816 H 522.829 -3.04595 0.702892 0
M  V30 5817 H 522.049 -2.42314 3.1093 0
M  V30 5818 H 523.337 -3.48305 3.70892 0
M  V30 5819 H 522.735 -5.51467 1.26097 0
M  V30 5820 H 521.292 -6.25728 1.82503 0
M  V30 5821 N 524.725 -1.39134 -0.740242 0
M  V30 5822 C 525.688 -1.37217 -1.83587 0
M  V30 5823 C 526.688 -0.270221 -1.58513 0
M  V30 5824 O 527.878 -0.527843 -1.6601 0
M  V30 5825 C 525.01 -1.13959 -3.21288 0
M  V30 5826 H 526.203 -2.34705 -1.86691 0
M  V30 5827 H 523.756 -1.24622 -0.94335 0
M  V30 5828 H 524.491 -0.17131 -3.23847 0
M  V30 5829 H 524.276 -1.93754 -3.40884 0
M  V30 5830 H 525.766 -1.15346 -4.01354 0
M  V30 5831 N 526.204 0.969867 -1.24223 0
M  V30 5832 C 527.114 2.09806 -1.0497 0
M  V30 5833 C 528.13 1.73998 0.00886455 0
M  V30 5834 O 529.306 2.00513 -0.188848 0
M  V30 5835 C 526.371 3.40467 -0.654452 0
M  V30 5836 C 525.432 3.90236 -1.78926 0
M  V30 5837 C 524.665 5.14662 -1.41277 0
M  V30 5838 O 524.888 5.69602 -0.301632 0
M  V30 5839 O 523.822 5.58761 -2.23763 0
M  V30 5840 H 527.648 2.28942 -1.99548 0
M  V30 5841 H 525.233 1.08197 -1.03023 0
M  V30 5842 H 527.115 4.19039 -0.445452 0
M  V30 5843 H 525.79 3.22636 0.262216 0
M  V30 5844 H 524.697 3.12735 -2.05299 0
M  V30 5845 H 526.03 4.1254 -2.68462 0
M  V30 5846 N 527.682 1.05563 1.17022 0
M  V30 5847 C 528.614 0.617888 2.20714 0
M  V30 5848 C 529.627 -0.320303 1.59618 0
M  V30 5849 O 530.816 -0.112449 1.78145 0
M  V30 5850 C 527.916 -0.115333 3.38704 0
M  V30 5851 C 527.089 0.834493 4.29366 0
M  V30 5852 C 526.148 0.141855 5.26009 0
M  V30 5853 O 525.174 0.777151 5.6387 0
M  V30 5854 N 526.376 -1.11934 5.69606 0
M  V30 5855 H 529.141 1.50981 2.58892 0
M  V30 5856 H 526.702 0.938008 1.31958 0
M  V30 5857 H 528.694 -0.588918 4.00392 0
M  V30 5858 H 527.264 -0.908967 2.99093 0
M  V30 5859 H 526.484 1.48762 3.65053 0
M  V30 5860 H 527.772 1.4791 4.86827 0
M  V30 5861 H 527.17 -1.65574 5.40927 0
M  V30 5862 H 525.727 -1.53692 6.33421 0
M  V30 5863 N 529.16 -1.33526 0.837174 0
M  V30 5864 C 530.107 -2.29248 0.267169 0
M  V30 5865 C 531.077 -1.54252 -0.616071 0
M  V30 5866 O 532.262 -1.82559 -0.554699 0
M  V30 5867 C 529.402 -3.40638 -0.553152 0
M  V30 5868 C 528.515 -4.30548 0.353921 0
M  V30 5869 C 527.65 -5.29051 -0.477339 0
M  V30 5870 C 526.689 -6.106 0.42823 0
M  V30 5871 N 525.826 -7.01152 -0.364801 0
M  V30 5872 H 530.666 -2.77398 1.08877 0
M  V30 5873 H 528.203 -1.36496 0.54838 0
M  V30 5874 H 530.161 -4.03921 -1.04422 0
M  V30 5875 H 528.791 -2.93685 -1.33973 0
M  V30 5876 H 527.843 -3.68001 0.963289 0
M  V30 5877 H 529.155 -4.87631 1.04964 0
M  V30 5878 H 528.309 -5.97853 -1.0323 0
M  V30 5879 H 527.048 -4.72541 -1.2065 0
M  V30 5880 H 526.053 -5.40718 0.995219 0
M  V30 5881 H 527.278 -6.69193 1.15573 0
M  V30 5882 H 525.224 -6.47092 -1.07738 0
M  V30 5883 H 525.141 -7.5551 0.272238 0
M  V30 5884 H 526.409 -7.74263 -0.902054 0
M  V30 5885 N 530.638 -0.59345 -1.46 0
M  V30 5886 C 531.884 -0.0832754 -2.02629 0
M  V30 5887 C 532.217 1.27749 -1.46266 0
M  V30 5888 O 531.492 1.8395 -0.631866 0
M  V30 5889 C 531.775 -0.0290756 -3.60088 0
M  V30 5890 C 531.628 -1.41951 -4.26814 0
M  V30 5891 C 532.947 0.666055 -4.35031 0
M  V30 5892 H 530.066 -0.031736 -0.736316 0
M  V30 5893 H 532.708 -0.762711 -1.74019 0
M  V30 5894 H 530.858 0.549532 -3.84594 0
M  V30 5895 H 532.53 -2.04411 -4.13538 0
M  V30 5896 H 530.773 -1.98422 -3.8576 0
M  V30 5897 H 531.444 -1.33395 -5.3564 0
M  V30 5898 H 533.92 0.174401 -4.15734 0
M  V30 5899 H 532.796 0.673041 -5.44758 0
M  V30 5900 H 533.057 1.72946 -4.06869 0
M  V30 5901 N 532.116 1.54067 -0.331816 0
M  V30 5902 C 533.364 2.00319 0.267739 0
M  V30 5903 C 533.685 1.22148 1.52003 0
M  V30 5904 O 532.955 0.325494 1.93177 0
M  V30 5905 H 531.535 0.740014 0.101922 0
M  V30 5906 H 534.197 1.89628 -0.450267 0
M  V30 5907 H 533.293 3.07765 0.518385 0
M  V30 5908 N 533.594 0.0601682 1.57485 0
M  V30 5909 C 534.527 -0.94676 2.07634 0
M  V30 5910 C 535.505 -1.29837 0.978826 0
M  V30 5911 O 536.689 -1.40969 1.2514 0
M  V30 5912 C 533.816 -2.25822 2.52433 0
M  V30 5913 C 532.862 -2.05901 3.73507 0
M  V30 5914 S 533.695 -1.32907 5.18745 0
M  V30 5915 C 534.851 -2.65356 5.66866 0
M  V30 5916 H 535.084 -0.520003 2.92717 0
M  V30 5917 H 532.617 -0.152319 1.53647 0
M  V30 5918 H 534.575 -3.01201 2.78905 0
M  V30 5919 H 533.236 -2.65624 1.67639 0
M  V30 5920 H 532.429 -3.02929 4.02803 0
M  V30 5921 H 532.031 -1.38659 3.47347 0
M  V30 5922 H 534.323 -3.61492 5.73001 0
M  V30 5923 H 535.266 -2.40685 6.6594 0
M  V30 5924 H 535.674 -2.72028 4.94632 0
M  V30 5925 N 535.072 -1.5615 -0.213296 0
M  V30 5926 C 536.02 -1.93953 -1.28394 0
M  V30 5927 C 537.014 -0.822592 -1.48087 0
M  V30 5928 O 538.22 -1.00748 -1.49164 0
M  V30 5929 H 534.595 -0.61648 -0.430646 0
M  V30 5930 H 536.566 -2.83275 -0.937977 0
M  V30 5931 C 535.315 -2.27969 -2.62537 0
M  V30 5932 H 534.638 -3.13432 -2.48194 0
M  V30 5933 H 536.078 -2.58297 -3.36242 0
M  V30 5934 C 534.537 -1.10775 -3.18167 0
M  V30 5935 O 535.067 -0.373201 -3.99963 0
M  V30 5936 N 533.273 -0.889377 -2.76656 0
M  V30 5937 H 532.82 -1.48843 -2.10246 0
M  V30 5938 H 532.778 -0.107 -3.14218 0
M  V30 5939 N 536.55 0.480323 -1.50102 0
M  V30 5940 C 537.796 1.23208 -1.61837 0
M  V30 5941 C 538.151 1.89878 -0.310509 0
M  V30 5942 O 537.444 1.7871 0.690897 0
M  V30 5943 C 537.638 2.30708 -2.72963 0
M  V30 5944 C 537.467 1.74583 -4.14428 0
M  V30 5945 C 536.237 1.54964 -4.80951 0
M  V30 5946 C 538.435 1.24597 -4.98979 0
M  V30 5947 N 536.417 0.939855 -6.06663 0
M  V30 5948 C 537.788 0.758834 -6.15339 0
M  V30 5949 C 539.843 1.13365 -4.84822 0
M  V30 5950 C 538.546 0.17046 -7.19098 0
M  V30 5951 C 540.572 0.559221 -5.8875 0
M  V30 5952 C 539.934 0.082415 -7.04352 0
M  V30 5953 H 536.033 0.440065 -0.646426 0
M  V30 5954 H 538.617 0.535632 -1.87187 0
M  V30 5955 H 536.788 2.9779 -2.4935 0
M  V30 5956 H 538.52 2.97738 -2.74106 0
M  V30 5957 H 535.275 1.79926 -4.38091 0
M  V30 5958 H 535.699 0.653641 -6.73837 0
M  V30 5959 H 540.341 1.48823 -3.95742 0
M  V30 5960 H 538.059 -0.196347 -8.07861 0
M  V30 5961 H 541.645 0.474804 -5.79859 0
M  V30 5962 H 540.525 -0.355119 -7.83396 0
M  V30 5963 N 538.028 1.39524 0.732853 0
M  V30 5964 C 539.277 1.36175 1.48792 0
M  V30 5965 C 539.59 -0.0388195 1.95561 0
M  V30 5966 O 540.796 -0.194899 2.708 0
M  V30 5967 C 539.252 2.39242 2.68871 0
M  V30 5968 C 538.86 3.85024 2.29042 0
M  V30 5969 C 540.604 2.44972 3.46683 0
M  V30 5970 C 538.511 4.79727 3.45856 0
M  V30 5971 H 537.441 0.506267 0.558757 0
M  V30 5972 H 540.092 1.65181 0.799226 0
M  V30 5973 H 538.474 2.0331 3.39825 0
M  V30 5974 H 539.648 4.30008 1.6562 0
M  V30 5975 H 537.963 3.82609 1.64316 0
M  V30 5976 H 540.56 3.12918 4.33574 0
M  V30 5977 H 540.903 1.4749 3.89297 0
M  V30 5978 H 541.436 2.79808 2.82759 0
M  V30 5979 H 538.175 5.78479 3.08289 0
M  V30 5980 H 537.695 4.39421 4.08251 0
M  V30 5981 H 539.374 4.98731 4.12161 0
M  V30 5982 N 539.506 -0.963266 1.24736 0
M  V30 5983 C 540.453 -2.05857 1.04363 0
M  V30 5984 C 541.423 -1.6604 -0.0444951 0
M  V30 5985 O 542.608 -1.90477 0.110999 0
M  V30 5986 C 539.748 -3.38745 0.659235 0
M  V30 5987 C 538.861 -3.9173 1.82131 0
M  V30 5988 C 537.996 -5.12906 1.38208 0
M  V30 5989 C 537.035 -5.58098 2.51382 0
M  V30 5990 N 536.172 -6.7049 2.08295 0
M  V30 5991 H 541.012 -2.22616 1.98107 0
M  V30 5992 H 538.549 -1.09103 0.986661 0
M  V30 5993 H 540.507 -4.15107 0.417371 0
M  V30 5994 H 539.137 -3.21898 -0.241201 0
M  V30 5995 H 538.189 -3.11966 2.17672 0
M  V30 5996 H 539.501 -4.21225 2.67153 0
M  V30 5997 H 538.655 -5.96657 1.09935 0
M  V30 5998 H 537.394 -4.85105 0.502456 0
M  V30 5999 H 536.399 -4.72917 2.80409 0
M  V30 6000 H 537.624 -5.87911 3.39909 0
M  V30 6001 H 535.57 -6.44416 1.22737 0
M  V30 6002 H 535.487 -6.99458 2.86869 0
M  V30 6003 H 536.755 -7.57672 1.83175 0
M  V30 6004 N 540.985 -1.06182 -1.16461 0
M  V30 6005 C 541.895 -0.682671 -2.24448 0
M  V30 6006 C 542.911 0.30078 -1.71381 0
M  V30 6007 O 544.087 0.150376 -2.00838 0
M  V30 6008 C 541.152 -0.0737202 -3.46622 0
M  V30 6009 C 540.213 -1.10889 -4.14731 0
M  V30 6010 C 539.446 -0.528908 -5.31073 0
M  V30 6011 O 539.669 0.65868 -5.66584 0
M  V30 6012 O 538.603 -1.26805 -5.88391 0
M  V30 6013 H 542.429 -1.58291 -2.59187 0
M  V30 6014 H 540.014 -0.834013 -1.23954 0
M  V30 6015 H 541.896 0.264192 -4.20571 0
M  V30 6016 H 540.571 0.800015 -3.13658 0
M  V30 6017 H 539.478 -1.49896 -3.42756 0
M  V30 6018 H 540.811 -1.95412 -4.51747 0
M  V30 6019 N 542.463 1.3308 -0.844243 0
M  V30 6020 C 543.393 2.3161 -0.296493 0
M  V30 6021 C 544.374 1.59215 0.598707 0
M  V30 6022 O 545.559 1.87077 0.521134 0
M  V30 6023 C 542.689 3.43313 0.524762 0
M  V30 6024 C 541.643 4.27115 -0.275106 0
M  V30 6025 C 540.969 5.30483 0.670236 0
M  V30 6026 C 542.269 5.00443 -1.49514 0
M  V30 6027 H 543.963 2.77672 -1.11976 0
M  V30 6028 H 541.509 1.33496 -0.539899 0
M  V30 6029 H 543.462 4.11273 0.918298 0
M  V30 6030 H 542.186 2.95952 1.3813 0
M  V30 6031 H 540.845 3.60787 -0.650267 0
M  V30 6032 H 540.493 4.79379 1.52332 0
M  V30 6033 H 540.193 5.87435 0.139123 0
M  V30 6034 H 541.717 6.01308 1.06117 0
M  V30 6035 H 543.131 5.61141 -1.17447 0
M  V30 6036 H 541.528 5.67071 -1.96343 0
M  V30 6037 H 542.598 4.28906 -2.26202 0
M  V30 6038 N 543.941 0.601185 1.45683 0
M  V30 6039 C 545.187 0.0940202 2.02582 0
M  V30 6040 C 545.52 -1.26972 1.46941 0
M  V30 6041 O 544.795 -1.83613 0.641612 0
M  V30 6042 C 545.078 0.0481715 3.60068 0
M  V30 6043 C 544.931 1.44212 4.26055 0
M  V30 6044 C 546.25 -0.642975 4.35378 0
M  V30 6045 H 543.369 0.0356404 0.736138 0
M  V30 6046 H 546.011 0.771929 1.73612 0
M  V30 6047 H 544.161 -0.529128 3.8488 0
M  V30 6048 H 545.833 2.06601 4.12449 0
M  V30 6049 H 544.076 2.00465 3.84703 0
M  V30 6050 H 544.747 1.36234 5.34925 0
M  V30 6051 H 547.223 -0.152351 4.15821 0
M  V30 6052 H 546.099 -0.644141 5.45107 0
M  V30 6053 H 546.36 -1.70785 4.0778 0
M  V30 6054 N 545.419 -1.53889 0.339982 0
M  V30 6055 C 546.329 -2.28604 -0.526988 0
M  V30 6056 C 547.345 -1.33578 -1.11503 0
M  V30 6057 O 548.521 -1.66612 -1.13148 0
M  V30 6058 C 545.586 -3.04164 -1.66389 0
M  V30 6059 C 544.647 -4.14809 -1.10599 0
M  V30 6060 C 543.88 -4.86756 -2.18871 0
M  V30 6061 O 544.103 -4.58343 -3.39526 0
M  V30 6062 O 543.037 -5.73289 -1.83366 0
M  V30 6063 H 546.863 -3.03594 0.0802707 0
M  V30 6064 H 544.448 -1.4903 0.105141 0
M  V30 6065 H 546.33 -3.51427 -2.32544 0
M  V30 6066 H 545.005 -2.32035 -2.25703 0
M  V30 6067 H 543.912 -3.71857 -0.409067 0
M  V30 6068 H 545.245 -4.89029 -0.557771 0
M  V30 6069 N 546.897 -0.0685191 -1.57451 0
M  V30 6070 C 547.827 0.89747 -2.15564 0
M  V30 6071 C 548.808 1.31266 -1.08181 0
M  V30 6072 O 549.993 1.38429 -1.36202 0
M  V30 6073 C 547.123 2.16623 -2.71463 0
M  V30 6074 C 546.077 1.89054 -3.83982 0
M  V30 6075 C 545.403 3.22532 -4.26471 0
M  V30 6076 C 546.703 1.1984 -5.08366 0
M  V30 6077 H 548.397 0.413373 -2.96533 0
M  V30 6078 H 545.943 0.197391 -1.42641 0
M  V30 6079 H 547.896 2.84614 -3.10761 0
M  V30 6080 H 546.62 2.67269 -1.8771 0
M  V30 6081 H 545.279 1.23469 -3.45183 0
M  V30 6082 H 544.927 3.71013 -3.39644 0
M  V30 6083 H 544.627 3.04879 -5.02317 0
M  V30 6084 H 546.151 3.91727 -4.68383 0
M  V30 6085 H 547.565 1.77896 -5.45001 0
M  V30 6086 H 545.962 1.12456 -5.89469 0
M  V30 6087 H 547.032 0.176996 -4.84577 0
M  V30 6088 N 548.375 1.56261 0.205012 0
M  V30 6089 C 549.307 1.90266 1.27795 0
M  V30 6090 C 550.32 0.792397 1.42214 0
M  V30 6091 O 551.509 1.07077 1.42817 0
M  V30 6092 C 548.609 2.11074 2.65143 0
M  V30 6093 C 547.782 3.42176 2.7246 0
M  V30 6094 C 546.841 3.52216 3.90936 0
M  V30 6095 O 545.867 4.25119 3.78501 0
M  V30 6096 N 547.069 2.84573 5.05963 0
M  V30 6097 H 549.834 2.82896 0.989434 0
M  V30 6098 H 547.395 1.57008 0.394981 0
M  V30 6099 H 549.387 2.15089 3.4281 0
M  V30 6100 H 547.957 1.2499 2.86524 0
M  V30 6101 H 547.177 3.50116 1.81142 0
M  V30 6102 H 548.465 4.28509 2.74331 0
M  V30 6103 H 547.863 2.25152 5.18963 0
M  V30 6104 H 546.42 2.94228 5.81613 0
M  V30 6105 N 549.853 -0.472356 1.50355 0
M  V30 6106 C 551.13 -1.23356 1.51798 0
M  V30 6107 C 551.51 -2.09469 0.26193 0
M  V30 6108 O 550.858 -2.15677 -0.754691 0
M  V30 6109 C 551.068 -2.06568 2.81302 0
M  V30 6110 C 552.416 -2.648 3.31913 0
M  V30 6111 O 553.44 -2.16812 2.82614 0
M  V30 6112 O 552.299 -3.52231 4.17846 0
M  V30 6113 H 549.393 -0.559707 0.608816 0
M  V30 6114 H 551.939 -0.48428 1.62643 0
M  V30 6115 H 550.711 -1.43103 3.64194 0
M  V30 6116 H 550.334 -2.88633 2.73454 0
M  V30 6117 N 551.331 -1.39911 -0.725443 0
M  V30 6118 C 552.294 -1.39156 -1.82121 0
M  V30 6119 C 553.294 -0.287018 -1.58218 0
M  V30 6120 O 554.484 -0.545421 -1.65441 0
M  V30 6121 C 551.616 -1.1736 -3.20062 0
M  V30 6122 H 552.809 -2.36672 -1.84191 0
M  V30 6123 H 550.362 -1.25615 -0.930079 0
M  V30 6124 H 551.097 -0.205648 -3.23647 0
M  V30 6125 H 550.882 -1.97358 -3.3881 0
M  V30 6126 H 552.372 -1.19596 -4.00108 0
M  V30 6127 N 552.809 0.956637 -1.25245 0
M  V30 6128 C 554.034 1.74104 -1.12706 0
M  V30 6129 C 554.459 1.85436 0.315429 0
M  V30 6130 O 553.817 1.33334 1.22848 0
M  V30 6131 C 553.865 3.1338 -1.78396 0
M  V30 6132 O 552.969 3.98485 -1.06224 0
M  V30 6133 H 552.31 0.53476 -0.393609 0
M  V30 6134 H 554.84 1.19924 -1.65769 0
M  V30 6135 H 554.85 3.6385 -1.846 0
M  V30 6136 H 553.525 3.04448 -2.83345 0
M  V30 6137 H 552.102 3.56952 -1.07886 0
M  V30 6138 N 554.287 1.06798 1.15896 0
M  V30 6139 C 555.235 0.677525 2.22514 0
M  V30 6140 C 556.229 -0.308994 1.66558 0
M  V30 6141 O 557.435 -0.173308 1.79164 0
M  V30 6142 H 553.81 0.200994 0.724642 0
M  V30 6143 H 555.781 1.5865 2.52731 0
M  V30 6144 C 554.53 0.0854153 3.47595 0
M  V30 6145 H 553.853 0.835645 3.90969 0
M  V30 6146 H 555.293 -0.150199 4.23734 0
M  V30 6147 C 553.752 -1.1724 3.15843 0
M  V30 6148 O 554.282 -2.25965 3.32119 0
M  V30 6149 N 552.488 -1.07636 2.69931 0
M  V30 6150 H 552.035 -0.191559 2.56887 0
M  V30 6151 H 551.993 -1.91876 2.4906 0
M  V30 6152 N 555.766 -1.3263 0.851289 0
M  V30 6153 C 557.014 -1.96978 0.452128 0
M  V30 6154 C 557.335 -1.67715 -0.99482 0
M  V30 6155 O 556.605 -0.98259 -1.69476 0
M  V30 6156 H 555.185 -0.72873 0.164202 0
M  V30 6157 H 557.847 -1.61774 1.08698 0
M  V30 6158 H 556.943 -3.06387 0.594407 0
M  V30 6159 N 557.244 -0.608902 -1.45362 0
M  V30 6160 C 558.521 -0.0365378 -1.95566 0
M  V30 6161 C 558.901 1.43169 -1.55131 0
M  V30 6162 O 558.249 2.1349 -0.814513 0
M  V30 6163 C 558.459 -0.236026 -3.48201 0
M  V30 6164 C 559.807 -0.117518 -4.24437 0
M  V30 6165 O 560.831 -0.166217 -3.55812 0
M  V30 6166 O 559.69 -0.00372127 -5.465 0
M  V30 6167 H 556.784 0.0349874 -0.82626 0
M  V30 6168 H 559.33 -0.679055 -1.55521 0
M  V30 6169 H 558.102 -1.25569 -3.70605 0
M  V30 6170 H 557.725 0.441691 -3.95139 0
M  V30 6171 N 558.722 1.53707 -0.348139 0
M  V30 6172 C 559.685 2.23812 0.494058 0
M  V30 6173 C 560.685 1.23989 1.02388 0
M  V30 6174 O 561.875 1.48395 0.912396 0
M  V30 6175 C 559.007 2.96133 1.68872 0
M  V30 6176 H 560.2 2.99663 -0.119141 0
M  V30 6177 H 557.753 1.55983 -0.0995539 0
M  V30 6178 H 558.488 2.24481 2.34049 0
M  V30 6179 H 558.273 3.69357 1.31596 0
M  V30 6180 H 559.763 3.49475 2.28597 0
M  V30 6181 N 560.2 0.0768682 1.57412 0
M  V30 6182 C 561.446 -0.591961 1.93968 0
M  V30 6183 C 561.779 -1.68954 0.9575 0
M  V30 6184 O 561.054 -1.94496 -0.0124675 0
M  V30 6185 C 561.337 -1.16418 3.40762 0
M  V30 6186 C 561.19 -0.0728933 4.49741 0
M  V30 6187 C 562.509 -2.06814 3.88479 0
M  V30 6188 H 559.628 -0.213716 0.705333 0
M  V30 6189 H 562.27 0.14387 1.89455 0
M  V30 6190 H 560.42 -1.79128 3.4474 0
M  V30 6191 H 562.092 0.560446 4.57883 0
M  V30 6192 H 560.335 0.595859 4.29688 0
M  V30 6193 H 561.006 -0.513755 5.49604 0
M  V30 6194 H 563.482 -1.54033 3.8654 0
M  V30 6195 H 562.358 -2.43785 4.91793 0
M  V30 6196 H 562.619 -2.97844 3.26713 0
M  V30 6197 N 561.678 -1.56367 -0.196722 0
M  V30 6198 C 562.955 -1.71359 -0.943159 0
M  V30 6199 C 563.335 -0.631192 -2.01443 0
M  V30 6200 O 562.683 0.358071 -2.25677 0
M  V30 6201 C 562.893 -3.13623 -1.53106 0
M  V30 6202 C 564.241 -3.73806 -2.01381 0
M  V30 6203 O 565.265 -3.16742 -1.62951 0
M  V30 6204 O 564.124 -4.73951 -2.7209 0
M  V30 6205 H 561.218 -0.698851 -0.442195 0
M  V30 6206 H 563.764 -1.68672 -0.186547 0
M  V30 6207 H 562.536 -3.83873 -0.758785 0
M  V30 6208 H 562.159 -3.20532 -2.35255 0
M  V30 6209 N 563.156 0.464375 -1.50603 0
M  V30 6210 C 564.403 1.21596 -1.61928 0
M  V30 6211 C 564.731 1.91804 -0.322737 0
M  V30 6212 O 563.986 1.83065 0.691776 0
M  V30 6213 C 564.285 2.278 -2.75394 0
M  V30 6214 C 563.951 1.74797 -4.1564 0
M  V30 6215 C 562.613 1.60063 -4.53799 0
M  V30 6216 C 564.965 1.35548 -5.03266 0
M  V30 6217 C 562.293 1.04514 -5.77316 0
M  V30 6218 C 564.645 0.814381 -6.27336 0
M  V30 6219 C 563.309 0.653726 -6.64291 0
M  V30 6220 H 562.579 0.444951 -0.592536 0
M  V30 6221 H 565.226 0.510964 -1.84557 0
M  V30 6222 H 563.531 3.04233 -2.46879 0
M  V30 6223 H 565.228 2.85723 -2.81359 0
M  V30 6224 H 561.818 1.87234 -3.8554 0
M  V30 6225 H 566.002 1.45763 -4.74412 0
M  V30 6226 H 561.258 0.908186 -6.04617 0
M  V30 6227 H 565.432 0.501626 -6.94591 0
M  V30 6228 H 563.059 0.22114 -7.59878 0
M  V30 6229 N 564.634 1.40294 0.718013 0
M  V30 6230 C 565.88 1.38645 1.48005 0
M  V30 6231 C 566.213 -0.0121202 1.94196 0
M  V30 6232 O 565.488 -0.980309 1.67989 0
M  V30 6233 C 565.771 2.37379 2.70782 0
M  V30 6234 C 565.624 3.8625 2.30501 0
M  V30 6235 C 566.943 2.33685 3.72933 0
M  V30 6236 H 564.062 0.504928 0.536858 0
M  V30 6237 H 566.704 1.71411 0.819649 0
M  V30 6238 H 564.854 2.09568 3.27129 0
M  V30 6239 H 566.526 4.24879 1.79655 0
M  V30 6240 H 564.769 4.02202 1.6253 0
M  V30 6241 H 565.44 4.50847 3.18498 0
M  V30 6242 H 567.916 2.58314 3.2621 0
M  V30 6243 H 566.792 3.0482 4.56482 0
M  V30 6244 H 567.053 1.34765 4.21059 0
M  V30 6245 N 566.112 -0.949982 1.2575 0
M  V30 6246 C 567.389 -1.6718 1.01539 0
M  V30 6247 C 567.769 -2.06095 -0.456942 0
M  V30 6248 O 567.117 -1.77792 -1.43534 0
M  V30 6249 C 567.327 -2.8906 1.95564 0
M  V30 6250 C 568.675 -3.60909 2.23673 0
M  V30 6251 O 569.699 -2.9915 1.9336 0
M  V30 6252 O 568.558 -4.72127 2.75243 0
M  V30 6253 H 565.652 -0.731697 0.385419 0
M  V30 6254 H 568.198 -1.00249 1.36924 0
M  V30 6255 H 566.97 -2.57128 2.94959 0
M  V30 6256 H 566.593 -3.63719 1.60605 0
M  V30 6257 N 567.59 -1.07411 -1.15328 0
M  V30 6258 C 568.815 -0.818856 -1.90551 0
M  V30 6259 C 569.24 0.622194 -1.77512 0
M  V30 6260 O 568.598 1.43484 -1.10824 0
M  V30 6261 C 568.646 -1.23267 -3.38877 0
M  V30 6262 O 567.75 -0.378345 -4.10661 0
M  V30 6263 H 567.091 -0.29827 -0.593238 0
M  V30 6264 H 569.621 -1.43289 -1.46046 0
M  V30 6265 H 569.631 -1.20912 -3.89672 0
M  V30 6266 H 568.306 -2.28226 -3.47686 0
M  V30 6267 H 566.883 -0.464437 -3.69996 0
M  V30 6268 N 569.068 1.32177 -0.85831 0
M  V30 6269 C 570.314 1.97417 -0.46417 0
M  V30 6270 C 570.647 1.67746 0.978514 0
M  V30 6271 O 569.922 0.967654 1.68721 0
M  V30 6272 C 570.205 3.53069 -0.708094 0
M  V30 6273 C 570.058 3.92357 -2.19946 0
M  V30 6274 C 571.377 4.39783 -0.166881 0
M  V30 6275 H 568.496 0.717097 -0.17012 0
M  V30 6276 H 571.138 1.56499 -1.07741 0
M  V30 6277 H 569.288 3.88054 -0.186128 0
M  V30 6278 H 570.96 3.67533 -2.78779 0
M  V30 6279 H 569.203 3.41384 -2.67656 0
M  V30 6280 H 569.874 5.00841 -2.32082 0
M  V30 6281 H 572.35 4.11556 -0.613285 0
M  V30 6282 H 571.226 5.47671 -0.367093 0
M  V30 6283 H 571.487 4.32196 0.930559 0
M  V30 6284 N 570.547 0.616602 1.45037 0
M  V30 6285 C 571.494 -0.0969439 2.30596 0
M  V30 6286 C 572.464 -0.851151 1.42635 0
M  V30 6287 O 573.649 -0.835092 1.71554 0
M  V30 6288 C 570.789 -1.08234 3.27688 0
M  V30 6289 C 569.902 -0.328072 4.30752 0
M  V30 6290 C 569.037 -1.30399 5.14946 0
M  V30 6291 C 568.076 -0.538049 6.09731 0
M  V30 6292 N 567.213 -1.46371 6.86673 0
M  V30 6293 H 572.053 0.63864 2.91076 0
M  V30 6294 H 569.59 0.326733 1.43425 0
M  V30 6295 H 571.548 -1.66688 3.82454 0
M  V30 6296 H 570.178 -1.78523 2.68941 0
M  V30 6297 H 569.23 0.372136 3.78575 0
M  V30 6298 H 570.542 0.269142 4.98073 0
M  V30 6299 H 569.696 -1.96032 5.74157 0
M  V30 6300 H 568.435 -1.93514 4.47665 0
M  V30 6301 H 567.44 0.131852 5.49642 0
M  V30 6302 H 568.665 0.0881732 6.79043 0
M  V30 6303 H 566.611 -2.08233 6.22073 0
M  V30 6304 H 566.528 -0.920152 7.50379 0
M  V30 6305 H 567.796 -2.10932 7.50418 0
M  V30 6306 N 572.025 -1.5352 0.356285 0
M  V30 6307 C 572.935 -2.29151 -0.502712 0
M  V30 6308 C 573.951 -1.34753 -1.1008 0
M  V30 6309 O 575.127 -1.67803 -1.11374 0
M  V30 6310 C 572.192 -3.05911 -1.63154 0
M  V30 6311 C 571.253 -4.15958 -1.06194 0
M  V30 6312 C 570.486 -4.8905 -2.13696 0
M  V30 6313 O 570.709 -4.61919 -3.34645 0
M  V30 6314 O 569.643 -5.75202 -1.77275 0
M  V30 6315 H 573.469 -3.03492 0.112466 0
M  V30 6316 H 571.054 -1.4891 0.120942 0
M  V30 6317 H 572.936 -3.53874 -2.28804 0
M  V30 6318 H 571.611 -2.34415 -2.23229 0
M  V30 6319 H 570.518 -3.7227 -0.369603 0
M  V30 6320 H 571.851 -4.89593 -0.505872 0
M  V30 6321 N 573.503 -0.0852151 -1.57369 0
M  V30 6322 C 574.78 0.622534 -1.85429 0
M  V30 6323 C 575.16 1.86962 -0.980229 0
M  V30 6324 O 574.508 2.28445 -0.0500219 0
M  V30 6325 C 574.718 0.947374 -3.35896 0
M  V30 6326 C 576.066 1.31509 -4.03721 0
M  V30 6327 O 577.09 1.03869 -3.40719 0
M  V30 6328 O 575.949 1.83231 -5.14868 0
M  V30 6329 H 573.043 0.310513 -0.766492 0
M  V30 6330 H 575.589 -0.117164 -1.69295 0
M  V30 6331 H 574.361 0.0622264 -3.91251 0
M  V30 6332 H 573.984 1.74338 -3.5734 0
M  V30 6333 N 574.981 1.5647 0.188427 0
M  V30 6334 C 576.23 1.80207 0.905995 0
M  V30 6335 C 576.543 0.659579 1.84144 0
M  V30 6336 O 577.749 0.781431 2.60011 0
M  V30 6337 C 576.205 3.19255 1.66145 0
M  V30 6338 C 575.813 4.41324 0.770504 0
M  V30 6339 C 577.557 3.52298 2.36826 0
M  V30 6340 C 575.464 5.71394 1.52521 0
M  V30 6341 H 574.394 0.671953 0.342045 0
M  V30 6342 H 577.045 1.82808 0.159164 0
M  V30 6343 H 575.427 3.10922 2.45242 0
M  V30 6344 H 576.601 4.60797 0.0177261 0
M  V30 6345 H 574.916 4.16035 0.174199 0
M  V30 6346 H 577.513 4.46715 2.93854 0
M  V30 6347 H 577.856 2.76359 3.11338 0
M  V30 6348 H 578.389 3.62108 1.6469 0
M  V30 6349 H 575.128 6.50316 0.82275 0
M  V30 6350 H 574.648 5.55928 2.25175 0
M  V30 6351 H 576.327 6.12747 2.07725 0
M  V30 6352 N 576.459 -0.456382 1.50847 0
M  V30 6353 C 577.706 -1.20736 1.62571 0
M  V30 6354 C 578.034 -1.9163 0.332904 0
M  V30 6355 O 577.289 -1.8343 -0.682058 0
M  V30 6356 C 577.588 -2.26336 2.76599 0
M  V30 6357 C 577.254 -1.7259 4.16562 0
M  V30 6358 C 575.916 -1.57654 4.54641 0
M  V30 6359 C 578.268 -1.32877 5.03977 0
M  V30 6360 C 575.596 -1.0145 5.77862 0
M  V30 6361 C 577.948 -0.7811 6.27759 0
M  V30 6362 C 576.612 -0.618488 6.64628 0
M  V30 6363 H 575.882 -0.441803 0.594888 0
M  V30 6364 H 578.529 -0.501169 1.84826 0
M  V30 6365 H 576.834 -3.0292 2.48489 0
M  V30 6366 H 578.531 -2.84227 2.82871 0
M  V30 6367 H 575.121 -1.85187 3.86528 0
M  V30 6368 H 579.305 -1.43245 4.75179 0
M  V30 6369 H 574.561 -0.876109 6.0509 0
M  V30 6370 H 578.735 -0.464783 6.94847 0
M  V30 6371 H 576.362 -0.180838 7.59985 0
M  V30 6372 N 577.937 -1.40673 -0.710563 0
M  V30 6373 C 579.162 -1.42741 -1.50465 0
M  V30 6374 C 579.587 -0.0302116 -1.88076 0
M  V30 6375 O 578.945 0.962945 -1.53613 0
M  V30 6376 C 578.993 -2.32873 -2.75322 0
M  V30 6377 O 578.097 -1.77544 -3.72226 0
M  V30 6378 H 577.438 -0.485056 -0.45345 0
M  V30 6379 H 579.968 -1.84961 -0.874681 0
M  V30 6380 H 579.978 -2.48233 -3.23797 0
M  V30 6381 H 578.653 -3.34401 -2.47283 0
M  V30 6382 H 577.23 -1.71556 -3.31093 0
M  V30 6383 N 579.415 0.9433 -1.26252 0
M  V30 6384 C 580.325 2.07532 -1.09397 0
M  V30 6385 C 581.341 1.73977 -0.0280449 0
M  V30 6386 O 582.517 2.00067 -0.231337 0
M  V30 6387 C 579.582 3.39002 -0.726523 0
M  V30 6388 C 578.643 3.86353 -1.87163 0
M  V30 6389 C 577.876 5.11549 -1.52162 0
M  V30 6390 O 578.099 5.68834 -0.422385 0
M  V30 6391 O 577.033 5.53889 -2.35565 0
M  V30 6392 H 580.859 2.24658 -2.04359 0
M  V30 6393 H 578.444 1.05988 -1.05295 0
M  V30 6394 H 580.326 4.18 -0.534236 0
M  V30 6395 H 579.001 3.2312 0.193721 0
M  V30 6396 H 577.908 3.0831 -2.11886 0
M  V30 6397 H 579.241 4.06752 -2.77152 0
M  V30 6398 N 580.893 1.08022 1.14757 0
M  V30 6399 C 582.309 0.807072 1.3769 0
M  V30 6400 C 582.509 -0.585504 1.92806 0
M  V30 6401 O 581.565 -1.34301 2.13821 0
M  V30 6402 C 582.878 1.88651 2.34161 0
M  V30 6403 C 584.426 1.91206 2.47809 0
M  V30 6404 C 584.901 2.98253 3.47576 0
M  V30 6405 N 586.392 2.974 3.55117 0
M  V30 6406 C 587.127 3.76872 4.32152 0
M  V30 6407 N 586.623 4.66212 5.12463 0
M  V30 6408 N 588.416 3.6519 4.27309 0
M  V30 6409 H 580.567 1.97824 0.77326 0
M  V30 6410 H 582.83 0.85826 0.402608 0
M  V30 6411 H 582.536 2.88749 2.00791 0
M  V30 6412 H 582.41 1.75244 3.3402 0
M  V30 6413 H 584.797 0.917564 2.80472 0
M  V30 6414 H 584.878 2.08691 1.47925 0
M  V30 6415 H 584.522 3.97907 3.15646 0
M  V30 6416 H 584.452 2.78014 4.47231 0
M  V30 6417 H 586.943 2.32643 2.97801 0
M  V30 6418 H 587.256 5.23468 5.68508 0
M  V30 6419 H 585.601 4.70257 5.11745 0
M  V30 6420 H 588.792 2.94765 3.63636 0
M  V30 6421 H 588.965 4.27366 4.87095 0
M  V30 6422 N 582.371 -1.3172 0.865308 0
M  V30 6423 C 583.62 -1.96145 0.470098 0
M  V30 6424 C 583.933 -1.69182 -0.981674 0
M  V30 6425 O 585.139 -2.27431 -1.48281 0
M  V30 6426 C 583.595 -3.51129 0.789732 0
M  V30 6427 C 583.203 -3.86938 2.25795 0
M  V30 6428 C 584.947 -4.2197 0.462765 0
M  V30 6429 C 582.854 -5.35012 2.52024 0
M  V30 6430 H 581.784 -0.734105 0.172065 0
M  V30 6431 H 584.435 -1.49959 1.05757 0
M  V30 6432 H 582.817 -3.95781 0.131571 0
M  V30 6433 H 583.991 -3.5326 2.95879 0
M  V30 6434 H 582.306 -3.29149 2.55049 0
M  V30 6435 H 584.903 -5.30904 0.636019 0
M  V30 6436 H 585.246 -4.12005 -0.59645 0
M  V30 6437 H 585.779 -3.82936 1.07727 0
M  V30 6438 H 582.518 -5.50008 3.56611 0
M  V30 6439 H 582.038 -5.70058 1.8653 0
M  V30 6440 H 583.717 -6.0222 2.36515 0
M  V30 6441 N 583.85 -0.624285 -1.44708 0
M  V30 6442 C 585.08 -0.132726 -2.06173 0
M  V30 6443 C 585.488 1.19513 -1.46674 0
M  V30 6444 O 584.831 1.74254 -0.581491 0
M  V30 6445 C 584.893 0.0636732 -3.59444 0
M  V30 6446 C 584.557 -1.18496 -4.4137 0
M  V30 6447 C 585.553 -2.10706 -4.75288 0
M  V30 6448 C 583.239 -1.41846 -4.81856 0
M  V30 6449 C 585.233 -3.24582 -5.48567 0
M  V30 6450 C 582.92 -2.5602 -5.54885 0
M  V30 6451 C 583.918 -3.47215 -5.88159 0
M  V30 6452 O 583.606 -4.59399 -6.59703 0
M  V30 6453 H 583.338 -0.0737313 -0.671967 0
M  V30 6454 H 585.892 -0.856789 -1.86677 0
M  V30 6455 H 584.122 0.842809 -3.77404 0
M  V30 6456 H 585.811 0.508924 -4.02697 0
M  V30 6457 H 586.577 -1.93898 -4.44554 0
M  V30 6458 H 582.456 -0.717556 -4.55381 0
M  V30 6459 H 586 -3.95785 -5.74456 0
M  V30 6460 H 581.897 -2.72774 -5.85034 0
M  V30 6461 H 582.665 -4.58293 -6.78166 0
M  V30 6462 N 585.328 1.53329 -0.364422 0
M  V30 6463 C 586.574 2.01537 0.225969 0
M  V30 6464 C 586.907 1.25128 1.48515 0
M  V30 6465 O 586.182 0.344653 1.91422 0
M  V30 6466 C 586.465 3.56339 0.519092 0
M  V30 6467 C 586.318 4.43441 -0.753639 0
M  V30 6468 C 587.637 4.19833 1.32015 0
M  V30 6469 H 584.756 0.732573 0.0806548 0
M  V30 6470 H 587.398 1.83597 -0.489084 0
M  V30 6471 H 585.548 3.71756 1.12825 0
M  V30 6472 H 587.22 4.39823 -1.39116 0
M  V30 6473 H 585.463 4.11457 -1.37424 0
M  V30 6474 H 586.134 5.49699 -0.503517 0
M  V30 6475 H 588.61 4.08242 0.804859 0
M  V30 6476 H 587.486 5.28177 1.49399 0
M  V30 6477 H 587.747 3.75821 2.32832 0
M  V30 6478 N 586.806 0.0935595 1.57322 0
M  V30 6479 C 588.053 -0.570509 1.94297 0
M  V30 6480 C 588.381 -1.68286 0.97519 0
M  V30 6481 O 587.636 -1.95699 -0.00548655 0
M  V30 6482 C 587.935 -1.16692 3.37813 0
M  V30 6483 C 587.601 -0.178509 4.50547 0
M  V30 6484 C 586.263 0.0933475 4.81109 0
M  V30 6485 C 588.615 0.496472 5.1883 0
M  V30 6486 C 585.943 1.0469 5.77284 0
M  V30 6487 C 588.295 1.43849 6.16028 0
M  V30 6488 C 586.959 1.71859 6.44997 0
M  V30 6489 H 586.229 -0.208764 0.710984 0
M  V30 6490 H 588.876 0.169066 1.90752 0
M  V30 6491 H 587.181 -1.98271 3.37929 0
M  V30 6492 H 588.878 -1.6884 3.63722 0
M  V30 6493 H 585.468 -0.400584 4.26724 0
M  V30 6494 H 589.652 0.299584 4.95395 0
M  V30 6495 H 584.908 1.27094 5.98044 0
M  V30 6496 H 589.082 1.96734 6.68034 0
M  V30 6497 H 586.709 2.45906 7.19329 0
M  V30 6498 N 588.284 -1.56567 -0.180126 0
M  V30 6499 C 589.512 -1.85618 -0.913972 0
M  V30 6500 C 589.927 -0.677892 -1.7621 0
M  V30 6501 O 589.284 0.353171 -1.7905 0
M  V30 6502 C 589.335 -3.13619 -1.79793 0
M  V30 6503 O 589.056 -4.26906 -0.98402 0
M  V30 6504 C 590.557 -3.55954 -2.64219 0
M  V30 6505 H 587.777 -0.616043 -0.265954 0
M  V30 6506 H 590.321 -2.03681 -0.182872 0
M  V30 6507 H 588.476 -2.97409 -2.48247 0
M  V30 6508 H 588.89 -4.9989 -1.58776 0
M  V30 6509 H 590.364 -4.48444 -3.21873 0
M  V30 6510 H 590.841 -2.79653 -3.38661 0
M  V30 6511 H 591.447 -3.74746 -2.01111 0
M  V30 6512 N 589.762 0.448376 -1.51087 0
M  V30 6513 C 591.173 1.0286 -1.5581 0
M  V30 6514 C 591.524 1.92583 -0.374989 0
M  V30 6515 O 590.649 2.10316 0.509533 0
M  V30 6516 C 591.244 1.87223 -2.8237 0
M  V30 6517 C 589.803 2.40314 -2.897 0
M  V30 6518 C 588.95 1.19238 -2.50355 0
M  V30 6519 H 591.901 0.230075 -1.57023 0
M  V30 6520 H 591.922 2.72553 -2.6551 0
M  V30 6521 H 591.434 1.21894 -3.68461 0
M  V30 6522 H 589.535 3.09129 -2.08014 0
M  V30 6523 H 589.648 2.73866 -3.93108 0
M  V30 6524 H 588.012 1.53428 -2.03303 0
M  V30 6525 H 588.795 0.555367 -3.38778 0
M  V30 6526 N 591.24 1.41047 0.703093 0
M  V30 6527 C 592.468 1.4334 1.49202 0
M  V30 6528 C 592.883 0.0365596 1.88765 0
M  V30 6529 O 592.24 -0.942419 1.56284 0
M  V30 6530 C 592.291 2.33538 2.75939 0
M  V30 6531 O 592.012 3.67786 2.38045 0
M  V30 6532 C 593.513 2.44555 3.6974 0
M  V30 6533 H 590.733 0.488472 0.460039 0
M  V30 6534 H 593.277 1.85245 0.86629 0
M  V30 6535 H 591.432 1.94962 3.34766 0
M  V30 6536 H 591.846 4.15816 3.19683 0
M  V30 6537 H 593.32 3.11849 4.55471 0
M  V30 6538 H 593.797 1.47447 4.1371 0
M  V30 6539 H 594.403 2.83735 3.16819 0
M  V30 6540 N 592.718 -0.936591 1.26751 0
M  V30 6541 C 593.966 -1.67998 1.12343 0
M  V30 6542 C 594.287 -1.92137 -0.332938 0
M  V30 6543 O 593.557 -1.52132 -1.23421 0
M  V30 6544 H 592.137 -0.622609 0.412756 0
M  V30 6545 H 594.799 -1.12509 1.59147 0
M  V30 6546 H 593.895 -2.65185 1.64571 0
M  V30 6547 N 594.196 -1.08629 -1.14182 0
M  V30 6548 C 595.159 -0.722027 -2.1753 0
M  V30 6549 C 596.159 0.244305 -1.58933 0
M  V30 6550 O 597.349 0.0235545 -1.74184 0
M  V30 6551 C 594.481 -0.0663966 -3.40835 0
M  V30 6552 H 595.674 -1.63719 -2.51269 0
M  V30 6553 H 593.227 -0.884442 -1.28869 0
M  V30 6554 H 593.962 0.860389 -3.12678 0
M  V30 6555 H 593.747 -0.761598 -3.84632 0
M  V30 6556 H 595.237 0.173346 -4.1724 0
M  V30 6557 N 595.674 1.31259 -0.872281 0
M  V30 6558 C 596.92 1.96913 -0.485083 0
M  V30 6559 C 597.253 1.68774 0.960667 0
M  V30 6560 O 596.528 0.985495 1.67685 0
M  V30 6561 C 596.811 3.52299 -0.745502 0
M  V30 6562 C 596.664 3.90002 -2.24095 0
M  V30 6563 C 597.983 4.39582 -0.213516 0
M  V30 6564 H 595.102 0.715252 -0.177716 0
M  V30 6565 H 597.744 1.55347 -1.09395 0
M  V30 6566 H 595.894 3.87835 -0.227276 0
M  V30 6567 H 597.566 3.64555 -2.82661 0
M  V30 6568 H 595.809 3.38526 -2.71261 0
M  V30 6569 H 596.48 4.98352 -2.37381 0
M  V30 6570 H 598.956 4.10882 -0.656902 0
M  V30 6571 H 597.832 5.47251 -0.42516 0
M  V30 6572 H 598.093 4.33158 0.884666 0
M  V30 6573 N 597.152 0.631951 1.44375 0
M  V30 6574 C 598.084 -0.110911 2.28931 0
M  V30 6575 C 599.097 -0.808086 1.41329 0
M  V30 6576 O 600.286 -0.669396 1.65473 0
M  V30 6577 C 597.386 -1.17928 3.1772 0
M  V30 6578 C 596.559 -0.564458 4.33743 0
M  V30 6579 C 595.618 -1.5269 5.0356 0
M  V30 6580 O 594.644 -1.04372 5.59549 0
M  V30 6581 N 595.846 -2.86123 5.05088 0
M  V30 6582 H 598.611 0.614758 2.93327 0
M  V30 6583 H 596.172 0.473171 1.54831 0
M  V30 6584 H 598.164 -1.82348 3.61291 0
M  V30 6585 H 596.734 -1.80717 2.55069 0
M  V30 6586 H 595.954 0.258373 3.93352 0
M  V30 6587 H 597.242 -0.134355 5.08623 0
M  V30 6588 H 596.64 -3.27959 4.60933 0
M  V30 6589 H 595.197 -3.45901 5.52445 0
M  V30 6590 N 598.631 -1.53133 0.372548 0
M  V30 6591 C 599.541 -2.29671 -0.478379 0
M  V30 6592 C 600.557 -1.35913 -1.08644 0
M  V30 6593 O 601.733 -1.68975 -1.09588 0
M  V30 6594 C 598.798 -3.07625 -1.599 0
M  V30 6595 C 597.859 -4.17061 -1.01776 0
M  V30 6596 C 597.092 -4.91289 -2.08497 0
M  V30 6597 O 597.315 -4.65442 -3.29727 0
M  V30 6598 O 596.249 -5.7705 -1.71164 0
M  V30 6599 H 600.075 -3.03355 0.144649 0
M  V30 6600 H 597.66 -1.48773 0.136729 0
M  V30 6601 H 599.542 -3.56281 -2.25038 0
M  V30 6602 H 598.217 -2.3677 -2.2073 0
M  V30 6603 H 597.124 -3.72641 -0.330098 0
M  V30 6604 H 598.457 -4.90102 -0.453915 0
M  V30 6605 N 600.109 -0.101901 -1.5727 0
M  V30 6606 C 601.039 0.851544 -2.17419 0
M  V30 6607 C 602.02 1.28942 -1.10941 0
M  V30 6608 O 603.205 1.35509 -1.39107 0
M  V30 6609 C 600.335 2.10816 -2.75996 0
M  V30 6610 C 599.289 1.80867 -3.87906 0
M  V30 6611 C 598.615 3.13413 -4.33216 0
M  V30 6612 C 599.915 1.0903 -5.10793 0
M  V30 6613 H 601.609 0.350381 -2.97343 0
M  V30 6614 H 599.155 0.16709 -1.43027 0
M  V30 6615 H 601.108 2.77959 -3.16729 0
M  V30 6616 H 599.832 2.63227 -1.93337 0
M  V30 6617 H 598.491 1.16119 -3.47724 0
M  V30 6618 H 598.139 3.63725 -3.47438 0
M  V30 6619 H 597.839 2.94155 -5.08671 0
M  V30 6620 H 599.363 3.81704 -4.76586 0
M  V30 6621 H 600.777 1.66295 -5.48652 0
M  V30 6622 H 599.174 0.99927 -5.91722 0
M  V30 6623 H 600.244 0.0741704 -4.84843 0
M  V30 6624 N 601.587 1.56661 0.17182 0
M  V30 6625 C 602.998 1.71652 0.734329 0
M  V30 6626 C 603.349 0.712335 1.82812 0
M  V30 6627 O 602.474 -0.126401 2.16031 0
M  V30 6628 C 603.069 3.11226 1.3388 0
M  V30 6629 C 601.628 3.27904 1.84813 0
M  V30 6630 C 600.775 2.67603 0.726917 0
M  V30 6631 H 603.726 1.5861 -0.0535665 0
M  V30 6632 H 603.747 3.09849 2.20849 0
M  V30 6633 H 603.259 3.8429 0.54249 0
M  V30 6634 H 601.36 2.59796 2.6709 0
M  V30 6635 H 601.473 4.35637 1.99392 0
M  V30 6636 H 599.837 2.274 1.14723 0
M  V30 6637 H 600.62 3.43252 -0.0575334 0
M  V30 6638 N 603.065 -0.440357 1.51323 0
M  V30 6639 C 604.012 -1.53429 1.72419 0
M  V30 6640 C 604.982 -1.56165 0.565826 0
M  V30 6641 O 606.167 -1.73222 0.799917 0
M  V30 6642 C 603.307 -2.91169 1.85242 0
M  V30 6643 C 602.42 -2.97985 3.12777 0
M  V30 6644 C 601.555 -4.26829 3.16212 0
M  V30 6645 C 600.594 -4.27501 4.38074 0
M  V30 6646 N 599.731 -5.47866 4.39076 0
M  V30 6647 H 604.571 -1.34743 2.65797 0
M  V30 6648 H 602.108 -0.654608 1.31732 0
M  V30 6649 H 604.066 -3.71087 1.90658 0
M  V30 6650 H 602.696 -3.0842 0.952744 0
M  V30 6651 H 601.748 -2.10749 3.16685 0
M  V30 6652 H 603.06 -2.94342 4.02696 0
M  V30 6653 H 602.214 -5.15118 3.20527 0
M  V30 6654 H 600.953 -4.33124 2.24176 0
M  V30 6655 H 599.958 -3.37606 4.33938 0
M  V30 6656 H 601.183 -4.22873 5.31371 0
M  V30 6657 H 599.129 -5.54887 3.49909 0
M  V30 6658 H 599.046 -5.46091 5.22801 0
M  V30 6659 H 600.314 -6.38195 4.4758 0
M  V30 6660 N 604.543 -1.41418 -0.695603 0
M  V30 6661 C 605.82 -1.31264 -1.45014 0
M  V30 6662 C 606.2 0.0597994 -2.11015 0
M  V30 6663 O 605.548 1.07403 -2.01685 0
M  V30 6664 C 605.758 -2.466 -2.4696 0
M  V30 6665 C 607.106 -2.87763 -3.12214 0
M  V30 6666 O 608.13 -2.46339 -2.57285 0
M  V30 6667 O 606.989 -3.59395 -4.11701 0
M  V30 6668 H 604.083 -0.516576 -0.645816 0
M  V30 6669 H 606.629 -1.53382 -0.726084 0
M  V30 6670 H 605.401 -3.38183 -1.96845 0
M  V30 6671 H 605.024 -2.26358 -3.26876 0
M  V30 6672 N 606.021 0.929856 -1.27246 0
M  V30 6673 C 607.246 1.71674 -1.16374 0
M  V30 6674 C 607.671 1.86064 0.276024 0
M  V30 6675 O 607.029 1.3591 1.19992 0
M  V30 6676 C 607.077 3.09526 -1.85003 0
M  V30 6677 O 606.181 3.96142 -1.14653 0
M  V30 6678 H 605.522 0.52629 -0.404863 0
M  V30 6679 H 608.052 1.16381 -1.68276 0
M  V30 6680 H 608.062 3.59852 -1.92276 0
M  V30 6681 H 606.737 2.98369 -2.89739 0
M  V30 6682 H 605.314 3.54584 -1.15433 0
M  V30 6683 N 607.499 1.09233 1.13605 0
M  V30 6684 C 608.747 0.825525 1.84471 0
M  V30 6685 C 609.068 -0.650702 1.83823 0
M  V30 6686 O 608.338 -1.47204 1.29259 0
M  V30 6687 H 606.918 0.3024 0.683054 0
M  V30 6688 H 609.58 1.38006 1.37624 0
M  V30 6689 H 608.676 1.17727 2.89045 0
M  V30 6690 N 608.977 -1.30795 0.87923 0
M  V30 6691 C 610.388 -1.78535 0.546093 0
M  V30 6692 C 610.739 -1.72354 -0.937467 0
M  V30 6693 O 609.864 -1.2969 -1.73233 0
M  V30 6694 C 610.459 -3.24181 0.9845 0
M  V30 6695 C 609.018 -3.69779 0.702871 0
M  V30 6696 C 608.165 -2.51377 1.17068 0
M  V30 6697 H 611.116 -1.17746 1.06403 0
M  V30 6698 H 611.137 -3.79227 0.311045 0
M  V30 6699 H 610.649 -3.28647 2.06429 0
M  V30 6700 H 608.75 -3.70806 -0.365166 0
M  V30 6701 H 608.863 -4.61507 1.28639 0
M  V30 6702 H 607.227 -2.47768 0.590172 0
M  V30 6703 H 608.01 -2.58584 2.25808 0
M  V30 6704 N 610.455 -0.639598 -1.44038 0
M  V30 6705 C 611.704 -0.144885 -2.01179 0
M  V30 6706 C 612.017 1.24372 -1.50967 0
M  V30 6707 O 613.223 1.83291 -2.00292 0
M  V30 6708 C 611.679 -0.208244 -3.59297 0
M  V30 6709 C 611.287 -1.59869 -4.18504 0
M  V30 6710 C 613.031 0.229568 -4.23879 0
M  V30 6711 C 610.938 -1.61671 -5.68873 0
M  V30 6712 H 609.868 -0.0504005 -0.752314 0
M  V30 6713 H 612.519 -0.799639 -1.65161 0
M  V30 6714 H 610.901 0.513767 -3.92653 0
M  V30 6715 H 612.075 -2.34496 -3.96671 0
M  V30 6716 H 610.39 -1.98131 -3.66242 0
M  V30 6717 H 612.987 0.235758 -5.3418 0
M  V30 6718 H 613.33 1.25848 -3.96822 0
M  V30 6719 H 613.863 -0.440233 -3.95357 0
M  V30 6720 H 610.602 -2.62427 -6.00677 0
M  V30 6721 H 610.122 -0.913489 -5.92803 0
M  V30 6722 H 611.801 -1.35439 -6.32665 0
M  V30 6723 N 611.933 1.52934 -0.380664 0
M  V30 6724 C 613.21 1.93845 0.261417 0
M  V30 6725 C 613.59 1.31544 1.65104 0
M  V30 6726 O 612.938 0.480234 2.23397 0
M  V30 6727 C 613.148 3.47739 0.296466 0
M  V30 6728 C 614.496 4.21284 0.529578 0
M  V30 6729 O 615.52 3.54199 0.377041 0
M  V30 6730 O 614.379 5.40195 0.827753 0
M  V30 6731 H 611.473 0.811318 0.160285 0
M  V30 6732 H 614.019 1.64042 -0.434544 0
M  V30 6733 H 612.791 3.85395 -0.67724 0
M  V30 6734 H 612.414 3.8382 1.0377 0
M  V30 6735 N 613.412 0.11024 1.57214 0
M  V30 6736 C 614.659 -0.54987 1.94891 0
M  V30 6737 C 614.987 -1.67243 0.992984 0
M  V30 6738 O 614.242 -1.95694 0.0152703 0
M  V30 6739 C 614.541 -1.13102 3.39032 0
M  V30 6740 C 614.207 -0.130713 4.5071 0
M  V30 6741 C 612.869 0.14437 4.80983 0
M  V30 6742 C 615.221 0.551472 5.18274 0
M  V30 6743 C 612.549 1.10807 5.76141 0
M  V30 6744 C 614.901 1.50375 6.14467 0
M  V30 6745 C 613.565 1.78691 6.43138 0
M  V30 6746 H 612.835 -0.201212 0.713158 0
M  V30 6747 H 615.482 0.189288 1.90562 0
M  V30 6748 H 613.787 -1.94675 3.40013 0
M  V30 6749 H 615.484 -1.64973 3.65493 0
M  V30 6750 H 612.074 -0.355301 4.27125 0
M  V30 6751 H 616.258 0.35211 4.95049 0
M  V30 6752 H 611.514 1.3343 5.96663 0
M  V30 6753 H 615.688 2.03808 6.65909 0
M  V30 6754 H 613.315 2.53522 7.1668 0
M  V30 6755 N 614.89 -1.56749 -0.16351 0
M  V30 6756 C 615.853 -1.96121 -1.18613 0
M  V30 6757 C 616.853 -0.845765 -1.36761 0
M  V30 6758 O 618.043 -1.11268 -1.34033 0
M  V30 6759 C 615.175 -2.26282 -2.54969 0
M  V30 6760 H 616.368 -2.87639 -0.848764 0
M  V30 6761 H 613.921 -1.50928 -0.406251 0
M  V30 6762 H 614.656 -1.37504 -2.93706 0
M  V30 6763 H 614.441 -3.07595 -2.43162 0
M  V30 6764 H 615.931 -2.57638 -3.28653 0
M  V30 6765 N 616.368 0.432326 -1.51554 0
M  V30 6766 C 617.598 1.2019 -1.68042 0
M  V30 6767 C 618.006 1.85356 -0.379434 0
M  V30 6768 O 617.349 1.71724 0.652427 0
M  V30 6769 C 617.411 2.32387 -2.74292 0
M  V30 6770 C 617.075 1.87548 -4.16743 0
M  V30 6771 C 618.072 1.37611 -5.01357 0
M  V30 6772 C 615.757 1.95087 -4.62868 0
M  V30 6773 C 617.751 0.958069 -6.30159 0
M  V30 6774 C 615.438 1.52894 -5.91664 0
M  V30 6775 C 616.436 1.03336 -6.75137 0
M  V30 6776 O 616.124 0.617435 -8.01525 0
M  V30 6777 H 615.856 0.368132 -0.56697 0
M  V30 6778 H 618.41 0.517875 -1.98764 0
M  V30 6779 H 616.64 3.04082 -2.38895 0
M  V30 6780 H 618.329 2.94235 -2.79608 0
M  V30 6781 H 619.095 1.31178 -4.66923 0
M  V30 6782 H 614.974 2.32606 -3.98015 0
M  V30 6783 H 618.518 0.570562 -6.95263 0
M  V30 6784 H 614.415 1.58999 -6.25611 0
M  V30 6785 H 615.183 0.742835 -8.15122 0
M  V30 6786 N 617.846 1.41785 0.688094 0
M  V30 6787 C 618.809 1.43936 1.78368 0
M  V30 6788 C 619.809 0.328866 1.57401 0
M  V30 6789 O 620.999 0.589093 1.63937 0
M  V30 6790 C 618.131 1.25804 3.16838 0
M  V30 6791 H 619.324 2.41472 1.77852 0
M  V30 6792 H 616.877 1.28037 0.896448 0
M  V30 6793 H 617.612 0.291386 3.22988 0
M  V30 6794 H 617.397 2.06272 3.33458 0
M  V30 6795 H 618.887 1.30162 3.96797 0
M  V30 6796 N 619.324 -0.923095 1.27737 0
M  V30 6797 C 620.573 -1.66581 1.13727 0
M  V30 6798 C 620.886 -1.9304 -0.315433 0
M  V30 6799 O 622.092 -2.65309 -0.57651 0
M  V30 6800 C 620.548 -3.00047 1.98745 0
M  V30 6801 C 620.156 -2.8127 3.48699 0
M  V30 6802 C 621.9 -3.77887 1.93395 0
M  V30 6803 C 619.807 -4.1032 4.25901 0
M  V30 6804 H 618.737 -0.624834 0.422017 0
M  V30 6805 H 621.388 -1.02514 1.52194 0
M  V30 6806 H 619.77 -3.65197 1.53125 0
M  V30 6807 H 620.944 -2.24859 4.02213 0
M  V30 6808 H 619.259 -2.16854 3.55476 0
M  V30 6809 H 621.856 -4.73526 2.48348 0
M  V30 6810 H 622.199 -4.06264 0.908605 0
M  V30 6811 H 622.732 -3.19541 2.36935 0
M  V30 6812 H 619.471 -3.8712 5.28978 0
M  V30 6813 H 618.991 -4.66377 3.77163 0
M  V30 6814 H 620.67 -4.78648 4.35321 0
M  V30 6815 N 620.802 -1.09834 -1.13024 0
M  V30 6816 C 621.752 -0.710899 -2.16634 0
M  V30 6817 C 622.736 0.276836 -1.58501 0
M  V30 6818 O 623.928 0.0865457 -1.76788 0
M  V30 6819 C 621.057 -0.137574 -3.43024 0
M  V30 6820 C 620.143 -1.15198 -4.08155 0
M  V30 6821 N 620.534 -2.34054 -4.48388 0
M  V30 6822 C 618.832 -0.991074 -4.34849 0
M  V30 6823 C 619.533 -2.98616 -4.99203 0
M  V30 6824 N 618.509 -2.26159 -4.94321 0
M  V30 6825 H 622.311 -1.61576 -2.455 0
M  V30 6826 H 619.825 -0.975158 -1.29863 0
M  V30 6827 H 621.822 0.158031 -4.166 0
M  V30 6828 H 620.482 0.762088 -3.1563 0
M  V30 6829 H 621.493 -2.7162 -4.40957 0
M  V30 6830 H 618.17 -0.146448 -4.17243 0
M  V30 6831 H 619.56 -3.99683 -5.40096 0
M  V30 6832 N 622.28 1.30327 -0.886154 0
M  V30 6833 C 623.508 2.00254 -0.520176 0
M  V30 6834 C 623.923 1.66419 0.891637 0
M  V30 6835 O 623.28 0.901951 1.58654 0
M  V30 6836 C 623.331 3.54916 -0.686775 0
M  V30 6837 O 623.052 3.87547 -2.04301 0
M  V30 6838 C 624.553 4.42115 -0.323945 0
M  V30 6839 H 621.773 0.640204 -0.200947 0
M  V30 6840 H 624.317 1.66183 -1.19178 0
M  V30 6841 H 622.472 3.8735 -0.0625273 0
M  V30 6842 H 622.886 4.82247 -2.06249 0
M  V30 6843 H 624.36 5.49808 -0.491407 0
M  V30 6844 H 624.837 4.32953 0.73811 0
M  V30 6845 H 625.443 4.15129 -0.924565 0
M  V30 6846 N 623.758 0.647228 1.43697 0
M  V30 6847 C 624.69 -0.0866232 2.29036 0
M  V30 6848 C 625.703 -0.793051 1.42178 0
M  V30 6849 O 626.892 -0.651807 1.66174 0
M  V30 6850 C 623.992 -1.14552 3.18953 0
M  V30 6851 C 623.165 -0.518422 4.34317 0
M  V30 6852 C 622.224 -1.4734 5.05151 0
M  V30 6853 O 621.25 -0.984312 5.60625 0
M  V30 6854 N 622.452 -2.8075 5.08094 0
M  V30 6855 H 625.217 0.645834 2.92659 0
M  V30 6856 H 622.778 0.489567 1.54321 0
M  V30 6857 H 624.77 -1.78505 3.63205 0
M  V30 6858 H 623.34 -1.78001 2.56971 0
M  V30 6859 H 622.56 0.300079 3.93056 0
M  V30 6860 H 623.848 -0.080401 5.08736 0
M  V30 6861 H 623.246 -3.23052 4.64386 0
M  V30 6862 H 621.803 -3.40022 5.56083 0
M  V30 6863 N 625.236 -1.5273 0.388769 0
M  V30 6864 C 626.482 -2.01871 -0.193877 0
M  V30 6865 C 626.815 -1.27475 -1.46505 0
M  V30 6866 O 626.09 -0.375063 -1.90849 0
M  V30 6867 C 626.373 -3.5712 -0.462336 0
M  V30 6868 C 626.226 -4.42186 0.824091 0
M  V30 6869 C 627.545 -4.21881 -1.25319 0
M  V30 6870 H 624.664 -0.733764 -0.0689899 0
M  V30 6871 H 627.306 -1.82796 0.518231 0
M  V30 6872 H 625.456 -3.73504 -1.06896 0
M  V30 6873 H 627.128 -4.37554 1.46096 0
M  V30 6874 H 625.371 -4.09219 1.43952 0
M  V30 6875 H 626.042 -5.48828 0.590905 0
M  V30 6876 H 628.518 -4.0947 -0.73981 0
M  V30 6877 H 627.394 -5.30487 -1.40977 0
M  V30 6878 H 627.655 -3.79478 -2.26824 0
M  V30 6879 N 626.714 -0.118576 -1.57153 0
M  V30 6880 C 627.962 0.538461 -1.94795 0
M  V30 6881 C 628.283 1.67243 -1.00274 0
M  V30 6882 O 627.553 1.95811 -0.0589692 0
M  V30 6883 H 626.133 0.201904 -0.719197 0
M  V30 6884 H 628.795 -0.187418 -1.93997 0
M  V30 6885 H 627.891 0.933315 -2.97818 0
M  V30 6886 N 628.193 1.56834 0.155195 0
M  V30 6887 C 629.103 2.009 1.21146 0
M  V30 6888 C 630.119 0.923029 1.475 0
M  V30 6889 O 631.295 1.23189 1.59331 0
M  V30 6890 C 628.36 2.37378 2.52691 0
M  V30 6891 C 627.421 3.59883 2.34057 0
M  V30 6892 C 626.654 3.94612 3.59329 0
M  V30 6893 O 626.877 3.30104 4.65175 0
M  V30 6894 O 625.811 4.87895 3.52479 0
M  V30 6895 H 629.637 2.9105 0.867371 0
M  V30 6896 H 627.222 1.44916 0.363298 0
M  V30 6897 H 629.104 2.61737 3.3026 0
M  V30 6898 H 627.779 1.50385 2.86646 0
M  V30 6899 H 626.686 3.40722 1.54465 0
M  V30 6900 H 628.019 4.47468 2.0502 0
M  V30 6901 N 629.671 -0.424282 1.51781 0
M  V30 6902 C 630.618 -1.51591 1.74037 0
M  V30 6903 C 631.588 -1.55556 0.582358 0
M  V30 6904 O 632.773 -1.72364 0.818245 0
M  V30 6905 C 629.913 -2.89188 1.8832 0
M  V30 6906 C 629.026 -2.9465 3.1592 0
M  V30 6907 C 628.161 -4.23452 3.20721 0
M  V30 6908 C 627.2 -4.22831 4.42584 0
M  V30 6909 N 626.337 -5.43178 4.44862 0
M  V30 6910 H 631.177 -1.31917 2.67212 0
M  V30 6911 H 628.714 -0.640599 1.32419 0
M  V30 6912 H 630.672 -3.69044 1.94583 0
M  V30 6913 H 629.302 -3.07392 0.985402 0
M  V30 6914 H 628.354 -2.07378 3.18902 0
M  V30 6915 H 629.666 -2.90055 4.05795 0
M  V30 6916 H 628.82 -5.1169 3.25973 0
M  V30 6917 H 627.559 -4.30722 2.28757 0
M  V30 6918 H 626.564 -3.32984 4.37495 0
M  V30 6919 H 627.789 -4.17213 5.35826 0
M  V30 6920 H 625.735 -5.51145 3.55775 0
M  V30 6921 H 625.652 -5.40515 5.28563 0
M  V30 6922 H 626.92 -6.33412 4.54324 0
M  V30 6923 N 631.149 -1.42148 -0.680565 0
M  V30 6924 C 632.112 -1.4488 -1.77602 0
M  V30 6925 C 633.112 -0.337209 -1.57224 0
M  V30 6926 O 634.302 -0.597778 -1.63622 0
M  V30 6927 C 631.434 -1.27483 -3.16166 0
M  V30 6928 H 632.627 -2.42412 -1.76568 0
M  V30 6929 H 630.18 -1.28511 -0.889645 0
M  V30 6930 H 630.915 -0.30851 -3.22829 0
M  V30 6931 H 630.7 -2.08037 -3.3236 0
M  V30 6932 H 632.19 -1.32265 -3.96101 0
M  V30 6933 N 632.627 0.916307 -1.28225 0
M  V30 6934 C 633.876 1.65975 -1.14608 0
M  V30 6935 C 634.189 1.93204 0.305191 0
M  V30 6936 O 635.395 2.65611 0.562432 0
M  V30 6937 C 633.851 2.98989 -2.00333 0
M  V30 6938 C 633.459 2.79417 -3.50186 0
M  V30 6939 C 635.203 3.76856 -1.95397 0
M  V30 6940 C 633.11 4.08056 -4.28071 0
M  V30 6941 H 632.04 0.622587 -0.425324 0
M  V30 6942 H 634.691 1.01705 -1.52736 0
M  V30 6943 H 633.073 3.6438 -1.5506 0
M  V30 6944 H 634.247 2.22723 -4.034 0
M  V30 6945 H 632.562 2.14966 -3.56621 0
M  V30 6946 H 635.159 4.72203 -2.50856 0
M  V30 6947 H 635.502 4.05776 -0.930137 0
M  V30 6948 H 636.035 3.1828 -2.38626 0
M  V30 6949 H 632.774 3.8431 -5.31024 0
M  V30 6950 H 632.294 4.64371 -3.79631 0
M  V30 6951 H 633.973 4.76333 -4.37854 0
M  V30 6952 N 634.105 1.10431 1.1244 0
M  V30 6953 C 635.353 0.845045 1.83585 0
M  V30 6954 C 635.674 -0.631168 1.84503 0
M  V30 6955 O 634.944 -1.45825 1.30813 0
M  V30 6956 H 633.524 0.309628 0.679809 0
M  V30 6957 H 636.186 1.39458 1.36153 0
M  V30 6958 H 635.282 1.20786 2.8778 0
M  V30 6959 N 635.583 -1.29855 0.893053 0
M  V30 6960 C 636.546 -2.26183 0.370687 0
M  V30 6961 C 637.546 -1.53108 -0.491385 0
M  V30 6962 O 638.736 -1.71643 -0.297386 0
M  V30 6963 C 635.868 -3.37633 -0.470827 0
M  V30 6964 H 637.061 -2.73903 1.22135 0
M  V30 6965 H 634.614 -1.41183 0.67061 0
M  V30 6966 H 635.349 -2.95241 -1.34175 0
M  V30 6967 H 635.134 -3.91825 0.146784 0
M  V30 6968 H 636.624 -4.09313 -0.827825 0
M  V30 6969 N 637.061 -0.65484 -1.43351 0
M  V30 6970 C 638.008 0.0357713 -2.30772 0
M  V30 6971 C 638.978 0.813035 -1.44841 0
M  V30 6972 O 640.163 0.789314 -1.73708 0
M  V30 6973 C 637.303 0.995084 -3.30442 0
M  V30 6974 C 636.416 0.21375 -4.31471 0
M  V30 6975 C 635.551 1.16701 -5.18222 0
M  V30 6976 C 634.59 0.376201 -6.10943 0
M  V30 6977 N 633.727 1.28113 -6.90313 0
M  V30 6978 H 638.567 -0.71559 -2.89281 0
M  V30 6979 H 636.104 -0.364645 -1.42509 0
M  V30 6980 H 638.062 1.5649 -3.86739 0
M  V30 6981 H 636.692 1.7133 -2.7358 0
M  V30 6982 H 635.744 -0.472377 -3.77456 0
M  V30 6983 H 637.056 -0.401103 -4.97185 0
M  V30 6984 H 636.21 1.8074 -5.79153 0
M  V30 6985 H 634.949 1.81577 -4.52638 0
M  V30 6986 H 633.954 -0.277534 -5.49099 0
M  V30 6987 H 635.179 -0.268178 -6.7857 0
M  V30 6988 H 633.125 1.91666 -6.27376 0
M  V30 6989 H 633.042 0.720879 -7.52555 0
M  V30 6990 H 634.31 1.90962 -7.55747 0
M  V30 6991 N 638.539 1.52521 -0.396863 0
M  V30 6992 C 639.785 2.01971 0.183169 0
M  V30 6993 C 640.118 1.2825 1.45827 0
M  V30 6994 O 639.393 0.385179 1.90648 0
M  V30 6995 C 639.676 3.5736 0.443391 0
M  V30 6996 C 639.529 4.41743 -0.84753 0
M  V30 6997 C 640.848 4.22539 1.2308 0
M  V30 6998 H 637.967 0.734119 0.0650976 0
M  V30 6999 H 640.609 1.82519 -0.527918 0
M  V30 7000 H 638.759 3.74066 1.04914 0
M  V30 7001 H 640.431 4.36773 -1.48414 0
M  V30 7002 H 638.674 4.0845 -1.4612 0
M  V30 7003 H 639.345 5.48507 -0.620003 0
M  V30 7004 H 641.821 4.09857 0.718084 0
M  V30 7005 H 640.697 5.31227 1.38162 0
M  V30 7006 H 640.958 3.80675 2.24808 0
M  V30 7007 N 640.017 0.126909 1.57088 0
M  V30 7008 C 640.965 -0.837618 2.16995 0
M  V30 7009 C 641.959 -1.26974 1.12133 0
M  V30 7010 O 643.165 -1.24056 1.30423 0
M  V30 7011 H 639.54 -0.288256 0.694559 0
M  V30 7012 H 641.511 -0.307957 2.96807 0
M  V30 7013 C 640.26 -2.07474 2.79016 0
M  V30 7014 H 639.583 -1.75117 3.59408 0
M  V30 7015 H 641.023 -2.72949 3.24461 0
M  V30 7016 C 639.482 -2.86967 1.76498 0
M  V30 7017 O 640.012 -3.82625 1.22316 0
M  V30 7018 N 638.218 -2.51111 1.46258 0
M  V30 7019 H 637.765 -1.73389 1.90509 0
M  V30 7020 H 637.723 -3.04594 0.779085 0
M  V30 7021 N 641.495 -1.56914 -0.146875 0
M  V30 7022 C 642.743 -1.82994 -0.85777 0
M  V30 7023 C 643.064 -0.707814 -1.817 0
M  V30 7024 O 642.334 0.270521 -1.94023 0
M  V30 7025 H 640.914 -0.675106 -0.319751 0
M  V30 7026 H 643.576 -1.9439 -0.140849 0
M  V30 7027 H 642.672 -2.77928 -1.41994 0
M  V30 7028 N 642.974 0.416227 -1.52004 0
M  V30 7029 C 644.39 0.754319 -1.40649 0
M  V30 7030 C 644.59 1.95059 -0.505392 0
M  V30 7031 O 643.646 2.5248 0.0315057 0
M  V30 7032 C 644.959 1.0149 -2.83055 0
M  V30 7033 C 646.507 1.11805 -2.9235 0
M  V30 7034 C 646.982 1.41144 -4.35709 0
M  V30 7035 N 648.473 1.48024 -4.38911 0
M  V30 7036 C 649.208 1.72338 -5.46889 0
M  V30 7037 N 648.704 1.94303 -6.64995 0
M  V30 7038 N 650.497 1.74294 -5.34395 0
M  V30 7039 H 642.648 -0.371324 -2.09129 0
M  V30 7040 H 644.911 -0.103811 -0.942299 0
M  V30 7041 H 644.617 0.208345 -3.51082 0
M  V30 7042 H 644.491 1.93697 -3.23668 0
M  V30 7043 H 646.878 1.91521 -2.24508 0
M  V30 7044 H 646.959 0.17451 -2.55204 0
M  V30 7045 H 646.603 0.619484 -5.04108 0
M  V30 7046 H 646.533 2.36739 -4.70385 0
M  V30 7047 H 649.024 1.32868 -3.53772 0
M  V30 7048 H 649.337 2.12286 -7.43071 0
M  V30 7049 H 647.682 1.91582 -6.68073 0
M  V30 7050 H 650.873 1.56667 -4.41104 0
M  V30 7051 H 651.046 1.92904 -6.18621 0
M  V30 7052 N 644.452 1.42507 0.673017 0
M  V30 7053 C 645.385 1.40557 1.79774 0
M  V30 7054 C 646.363 0.269606 1.60349 0
M  V30 7055 O 647.547 0.460105 1.82798 0
M  V30 7056 C 644.674 1.19815 3.168 0
M  V30 7057 C 643.72 2.36429 3.5497 0
M  V30 7058 S 644.553 3.98963 3.57196 0
M  V30 7059 C 645.709 3.80567 4.9691 0
M  V30 7060 H 645.942 2.35734 1.81154 0
M  V30 7061 H 643.475 1.293 0.843846 0
M  V30 7062 H 645.433 1.08535 3.95892 0
M  V30 7063 H 644.094 0.262215 3.13004 0
M  V30 7064 H 643.287 2.17669 4.54573 0
M  V30 7065 H 642.889 2.44233 2.83242 0
M  V30 7066 H 645.181 3.41668 5.85038 0
M  V30 7067 H 646.124 4.79852 5.20718 0
M  V30 7068 H 646.532 3.13399 4.69512 0
M  V30 7069 N 645.93 -0.909495 1.28709 0
M  V30 7070 C 647.176 -1.66151 1.16283 0
M  V30 7071 C 647.509 -1.92067 -0.287069 0
M  V30 7072 O 646.784 -1.52409 -1.20837 0
M  V30 7073 C 647.067 -3.01676 1.9663 0
M  V30 7074 C 646.92 -2.82888 3.49707 0
M  V30 7075 C 648.239 -4.02274 1.78504 0
M  V30 7076 H 645.358 -0.602966 0.423793 0
M  V30 7077 H 648 -1.05418 1.58073 0
M  V30 7078 H 646.15 -3.53515 1.61119 0
M  V30 7079 H 647.822 -2.38026 3.95147 0
M  V30 7080 H 646.065 -2.17862 3.75125 0
M  V30 7081 H 646.736 -3.79147 4.01187 0
M  V30 7082 H 649.212 -3.59511 2.09503 0
M  V30 7083 H 648.088 -4.95056 2.37088 0
M  V30 7084 H 648.349 -4.35903 0.737647 0
M  V30 7085 N 647.408 -1.11026 -1.11852 0
M  V30 7086 C 648.819 -0.873203 -1.65021 0
M  V30 7087 C 649.17 0.595364 -1.86949 0
M  V30 7088 O 648.295 1.45645 -1.60051 0
M  V30 7089 C 648.89 -1.57859 -2.99777 0
M  V30 7090 C 647.449 -1.38807 -3.49871 0
M  V30 7091 C 646.596 -1.62403 -2.24768 0
M  V30 7092 H 649.547 -1.26712 -0.955503 0
M  V30 7093 H 649.568 -1.02111 -3.66543 0
M  V30 7094 H 649.08 -2.6474 -2.83786 0
M  V30 7095 H 647.181 -0.341163 -3.71035 0
M  V30 7096 H 647.294 -2.13421 -4.28938 0
M  V30 7097 H 645.658 -1.04714 -2.32179 0
M  V30 7098 H 646.441 -2.70549 -2.11324 0
M  V30 7099 N 648.886 1.2938 -0.899927 0
M  V30 7100 C 649.816 2.30144 -0.39446 0
M  V30 7101 C 650.797 1.61611 0.530639 0
M  V30 7102 O 651.982 1.89119 0.441319 0
M  V30 7103 C 649.112 3.45229 0.37868 0
M  V30 7104 C 648.066 4.25564 -0.456012 0
M  V30 7105 C 647.392 5.32848 0.444637 0
M  V30 7106 C 648.692 4.93651 -1.70605 0
M  V30 7107 H 650.386 2.72673 -1.23653 0
M  V30 7108 H 647.932 1.31086 -0.596034 0
M  V30 7109 H 649.885 4.14797 0.743037 0
M  V30 7110 H 648.609 3.01545 1.25453 0
M  V30 7111 H 647.268 3.57704 -0.802704 0
M  V30 7112 H 646.916 4.85408 1.31863 0
M  V30 7113 H 646.616 5.87497 -0.110154 0
M  V30 7114 H 648.14 6.05268 0.805182 0
M  V30 7115 H 649.554 5.55655 -1.41141 0
M  V30 7116 H 647.951 5.58233 -2.20217 0
M  V30 7117 H 649.021 4.18926 -2.4419 0
M  V30 7118 N 650.364 0.662433 1.43002 0
M  V30 7119 C 651.592 0.187615 2.06048 0
M  V30 7120 C 652.007 -1.15039 1.49705 0
M  V30 7121 O 651.364 -1.71209 0.631956 0
M  V30 7122 C 651.415 0.100498 3.6136 0
M  V30 7123 O 651.136 1.38562 4.15611 0
M  V30 7124 C 652.637 -0.399298 4.41498 0
M  V30 7125 H 649.857 0.0941675 0.664359 0
M  V30 7126 H 652.401 0.905681 1.83351 0
M  V30 7127 H 650.556 -0.568181 3.83211 0
M  V30 7128 H 650.97 1.25084 5.09366 0
M  V30 7129 H 652.444 -0.409187 5.50481 0
M  V30 7130 H 652.921 -1.43232 4.15188 0
M  V30 7131 H 653.527 0.23721 4.24638 0
M  V30 7132 N 651.842 -1.52309 0.404946 0
M  V30 7133 C 652.805 -2.25491 -0.410651 0
M  V30 7134 C 653.805 -1.27704 -0.977154 0
M  V30 7135 O 654.995 -1.51679 -0.856691 0
M  V30 7136 C 652.127 -3.02197 -1.57765 0
M  V30 7137 H 653.32 -2.99015 0.230277 0
M  V30 7138 H 650.873 -1.55506 0.157377 0
M  V30 7139 H 651.608 -2.33013 -2.25556 0
M  V30 7140 H 651.393 -3.73987 -1.17797 0
M  V30 7141 H 652.883 -3.57719 -2.15469 0
M  V30 7142 N 653.32 -0.135238 -1.57019 0
M  V30 7143 C 654.267 0.808908 -2.1616 0
M  V30 7144 C 655.237 1.25234 -1.09113 0
M  V30 7145 O 656.422 1.32697 -1.37099 0
M  V30 7146 C 653.562 2.04729 -2.77813 0
M  V30 7147 C 652.675 1.65074 -3.99218 0
M  V30 7148 C 651.81 2.84002 -4.48906 0
M  V30 7149 C 650.849 2.40663 -5.62803 0
M  V30 7150 N 649.986 3.5256 -6.07162 0
M  V30 7151 H 654.826 0.297751 -2.96509 0
M  V30 7152 H 652.363 0.135264 -1.46477 0
M  V30 7153 H 654.321 2.7731 -3.11697 0
M  V30 7154 H 652.951 2.53275 -2.00128 0
M  V30 7155 H 652.003 0.823029 -3.7139 0
M  V30 7156 H 653.315 1.29236 -4.81767 0
M  V30 7157 H 652.469 3.64788 -4.84783 0
M  V30 7158 H 651.208 3.23076 -3.65339 0
M  V30 7159 H 650.213 1.58314 -5.26514 0
M  V30 7160 H 651.438 2.02687 -6.48147 0
M  V30 7161 H 649.384 3.91278 -5.26534 0
M  V30 7162 H 649.301 3.20699 -6.84608 0
M  V30 7163 H 650.569 4.33738 -6.47682 0
M  V30 7164 N 654.798 1.5699 0.138552 0
M  V30 7165 C 655.728 2.01933 1.17241 0
M  V30 7166 C 656.709 0.90033 1.44319 0
M  V30 7167 O 657.894 1.16872 1.55095 0
M  V30 7168 C 655.024 2.40711 2.50351 0
M  V30 7169 C 653.978 3.55874 2.37776 0
M  V30 7170 C 653.304 3.80491 3.75674 0
M  V30 7171 C 654.604 4.8826 1.85472 0
M  V30 7172 H 656.298 2.88551 0.798672 0
M  V30 7173 H 653.844 1.3882 0.382743 0
M  V30 7174 H 655.797 2.70754 3.22909 0
M  V30 7175 H 654.521 1.5104 2.89576 0
M  V30 7176 H 653.18 3.2601 1.67669 0
M  V30 7177 H 652.828 2.88057 4.12349 0
M  V30 7178 H 652.528 4.57998 3.68119 0
M  V30 7179 H 654.052 4.12967 4.49767 0
M  V30 7180 H 655.466 5.16965 2.4783 0
M  V30 7181 H 653.863 5.69631 1.88787 0
M  V30 7182 H 654.933 4.78071 0.810935 0
M  V30 7183 N 656.276 -0.40816 1.52223 0
M  V30 7184 C 657.223 -1.49737 1.75635 0
M  V30 7185 C 658.193 -1.5493 0.598824 0
M  V30 7186 O 659.378 -1.71487 0.83648 0
M  V30 7187 C 656.518 -2.87174 1.91376 0
M  V30 7188 C 655.631 -2.91283 3.19027 0
M  V30 7189 C 654.766 -4.20026 3.25195 0
M  V30 7190 C 653.805 -4.18113 4.47044 0
M  V30 7191 N 652.942 -5.38429 4.50598 0
M  V30 7192 H 657.782 -1.29075 2.68596 0
M  V30 7193 H 655.319 -0.626518 1.33091 0
M  V30 7194 H 657.277 -3.66959 1.98486 0
M  V30 7195 H 655.907 -3.06329 1.01795 0
M  V30 7196 H 654.959 -2.03984 3.21084 0
M  V30 7197 H 656.271 -2.85734 4.08849 0
M  V30 7198 H 655.425 -5.08204 3.31382 0
M  V30 7199 H 654.164 -4.28271 2.33313 0
M  V30 7200 H 653.169 -3.28325 4.41002 0
M  V30 7201 H 654.394 -4.11507 5.40221 0
M  V30 7202 H 652.34 -5.4734 3.616 0
M  V30 7203 H 652.257 -5.34879 5.34266 0
M  V30 7204 H 653.525 -6.28557 4.61016 0
M  V30 7205 N 657.755 -1.42862 -0.66545 0
M  V30 7206 C 658.983 -1.47246 -1.45349 0
M  V30 7207 C 659.398 -0.0865944 -1.88601 0
M  V30 7208 O 658.755 0.900652 -1.58728 0
M  V30 7209 C 658.806 -2.40772 -2.6965 0
M  V30 7210 O 658.527 -3.73968 -2.2821 0
M  V30 7211 C 660.028 -2.54272 -3.63126 0
M  V30 7212 H 657.248 -0.500497 -0.446927 0
M  V30 7213 H 659.792 -1.87477 -0.816871 0
M  V30 7214 H 657.947 -2.0377 -3.29479 0
M  V30 7215 H 658.361 -4.24146 -3.08546 0
M  V30 7216 H 659.835 -3.23815 -4.47043 0
M  V30 7217 H 660.312 -1.58364 -4.09656 0
M  V30 7218 H 660.918 -2.92036 -3.09185 0
M  V30 7219 N 659.233 0.902656 -1.29189 0
M  V30 7220 C 660.481 1.6496 -1.16758 0
M  V30 7221 C 660.802 1.92952 0.28188 0
M  V30 7222 O 660.072 1.55351 1.19344 0
M  V30 7223 H 658.652 0.611447 -0.429118 0
M  V30 7224 H 661.314 1.0825 -1.62074 0
M  V30 7225 H 660.41 2.60728 -1.71544 0
M  V30 7226 N 660.711 1.11618 1.11262 0
M  V30 7227 C 661.988 0.777876 1.79467 0
M  V30 7228 C 662.368 -0.733774 1.97937 0
M  V30 7229 O 661.716 -1.66443 1.56554 0
M  V30 7230 C 661.926 1.5431 3.13032 0
M  V30 7231 C 663.274 1.72357 3.88044 0
M  V30 7232 O 664.298 1.5075 3.22727 0
M  V30 7233 O 663.157 2.08276 5.05256 0
M  V30 7234 H 660.251 0.282018 0.777428 0
M  V30 7235 H 662.797 1.21971 1.17988 0
M  V30 7236 H 661.569 2.57132 2.94956 0
M  V30 7237 H 661.192 1.09495 3.82226 0
M  V30 7238 N 662.189 -1.289 0.906776 0
M  V30 7239 C 663.435 -1.95558 0.53712 0
M  V30 7240 C 663.768 -1.71262 -0.915582 0
M  V30 7241 O 663.043 -1.02961 -1.65013 0
M  V30 7242 C 663.326 -3.50198 0.838645 0
M  V30 7243 C 663.179 -3.83923 2.34357 0
M  V30 7244 C 664.498 -4.38861 0.329988 0
M  V30 7245 H 661.617 -0.710289 0.196617 0
M  V30 7246 H 664.259 -1.52392 1.13475 0
M  V30 7247 H 662.409 -3.87096 0.330024 0
M  V30 7248 H 664.081 -3.56933 2.92227 0
M  V30 7249 H 662.324 -3.31215 2.80141 0
M  V30 7250 H 662.995 -4.91883 2.5051 0
M  V30 7251 H 665.471 -4.08996 0.765609 0
M  V30 7252 H 664.347 -5.45931 0.570105 0
M  V30 7253 H 664.608 -4.35352 -0.769511 0
M  V30 7254 N 663.667 -0.670007 -1.42649 0
M  V30 7255 C 664.913 -0.190568 -2.01903 0
M  V30 7256 C 665.246 1.19817 -1.52832 0
M  V30 7257 O 664.521 1.80342 -0.728485 0
M  V30 7258 C 664.804 -0.21991 -3.59428 0
M  V30 7259 C 664.657 -1.64376 -4.18689 0
M  V30 7260 C 665.976 0.434519 -4.3795 0
M  V30 7261 H 663.095 -0.0707219 -0.733599 0
M  V30 7262 H 665.737 -0.853883 -1.69732 0
M  V30 7263 H 663.887 0.344894 -3.86966 0
M  V30 7264 H 665.559 -2.26044 -4.02122 0
M  V30 7265 H 663.802 -2.18591 -3.747 0
M  V30 7266 H 664.473 -1.61601 -5.27815 0
M  V30 7267 H 666.949 -0.0462156 -4.16074 0
M  V30 7268 H 665.825 0.38333 -5.4756 0
M  V30 7269 H 666.086 1.51135 -4.15464 0
M  V30 7270 N 665.145 1.52092 -0.413018 0
M  V30 7271 C 666.055 2.30858 0.417318 0
M  V30 7272 C 667.071 1.38746 1.05003 0
M  V30 7273 O 668.247 1.71821 1.05069 0
M  V30 7274 C 665.312 3.11756 1.51687 0
M  V30 7275 C 664.373 4.19613 0.906825 0
M  V30 7276 C 663.606 4.96644 1.95399 0
M  V30 7277 O 663.829 4.7402 3.17271 0
M  V30 7278 O 662.763 5.81385 1.55805 0
M  V30 7279 H 666.589 3.02865 -0.225028 0
M  V30 7280 H 664.174 1.48358 -0.176126 0
M  V30 7281 H 666.056 3.62122 2.15512 0
M  V30 7282 H 664.731 2.42539 2.14375 0
M  V30 7283 H 663.638 3.73385 0.231183 0
M  V30 7284 H 664.971 4.91134 0.323814 0
M  V30 7285 N 666.623 0.143563 1.56945 0
M  V30 7286 C 667.872 -0.50835 1.95189 0
M  V30 7287 C 668.185 -1.66239 1.03073 0
M  V30 7288 O 669.391 -2.3787 1.30882 0
M  V30 7289 C 667.847 -0.955735 3.46978 0
M  V30 7290 C 667.455 0.171183 4.47673 0
M  V30 7291 C 669.199 -1.57763 3.94095 0
M  V30 7292 C 667.106 -0.294279 5.90667 0
M  V30 7293 H 666.036 -0.193679 0.728701 0
M  V30 7294 H 668.687 0.227357 1.82086 0
M  V30 7295 H 667.069 -1.7466 3.55401 0
M  V30 7296 H 668.243 0.948049 4.50942 0
M  V30 7297 H 666.558 0.701273 4.10452 0
M  V30 7298 H 669.155 -1.93745 4.98364 0
M  V30 7299 H 669.498 -2.46531 3.35452 0
M  V30 7300 H 670.031 -0.851728 3.88575 0
M  V30 7301 H 666.77 0.557939 6.53121 0
M  V30 7302 H 666.29 -1.0371 5.90766 0
M  V30 7303 H 667.969 -0.747426 6.42668 0
M  V30 7304 N 668.101 -1.57061 -0.130224 0
M  V30 7305 C 669.347 -1.8453 -0.841216 0
M  V30 7306 C 669.68 -0.727666 -1.80052 0
M  V30 7307 O 668.955 0.267419 -1.92653 0
M  V30 7308 C 669.238 -3.22553 -1.60099 0
M  V30 7309 C 669.091 -4.44901 -0.662048 0
M  V30 7310 C 670.41 -3.58003 -2.55973 0
M  V30 7311 H 667.529 -0.671215 -0.304366 0
M  V30 7312 H 670.171 -1.89705 -0.105821 0
M  V30 7313 H 668.321 -3.18272 -2.22789 0
M  V30 7314 H 669.993 -4.61278 -0.0448559 0
M  V30 7315 H 668.236 -4.33791 0.0272253 0
M  V30 7316 H 668.907 -5.3812 -1.23006 0
M  V30 7317 H 671.383 -3.63002 -2.03393 0
M  V30 7318 H 670.259 -4.55576 -3.06172 0
M  V30 7319 H 670.52 -2.84833 -3.38116 0
M  V30 7320 N 669.579 0.400081 -1.52437 0
M  V30 7321 C 670.807 1.16768 -1.70801 0
M  V30 7322 C 671.222 1.84036 -0.421462 0
M  V30 7323 O 670.579 1.72242 0.603228 0
M  V30 7324 C 670.63 2.22403 -2.8499 0
M  V30 7325 O 670.351 1.57879 -4.08663 0
M  V30 7326 C 671.852 3.11974 -3.1494 0
M  V30 7327 H 669.072 0.350533 -0.57216 0
M  V30 7328 H 671.616 0.469534 -1.99037 0
M  V30 7329 H 669.771 2.87871 -2.59247 0
M  V30 7330 H 670.185 2.27982 -4.7236 0
M  V30 7331 H 671.659 3.82148 -3.9833 0
M  V30 7332 H 672.136 3.74858 -2.28863 0
M  V30 7333 H 672.742 2.52165 -3.42481 0
M  V30 7334 N 671.057 1.43213 0.657864 0
M  V30 7335 C 672.005 1.48271 1.79216 0
M  V30 7336 C 672.999 0.35675 1.65601 0
M  V30 7337 O 674.205 0.530535 1.72004 0
M  V30 7338 H 670.58 0.464729 0.591211 0
M  V30 7339 H 672.551 2.43792 1.7207 0
M  V30 7340 C 671.3 1.41837 3.17455 0
M  V30 7341 H 670.623 2.27781 3.28567 0
M  V30 7342 H 672.063 1.49438 3.96793 0
M  V30 7343 C 670.522 0.135347 3.36628 0
M  V30 7344 O 671.052 -0.805199 3.93547 0
M  V30 7345 N 669.258 0.0470316 2.90562 0
M  V30 7346 H 668.805 0.813221 2.44427 0
M  V30 7347 H 668.763 -0.810737 3.03767 0
M  V30 7348 N 672.536 -0.895792 1.29666 0
M  V30 7349 C 673.947 -1.46195 1.1612 0
M  V30 7350 C 674.298 -1.94699 -0.242195 0
M  V30 7351 O 673.423 -1.8406 -1.13802 0
M  V30 7352 C 674.018 -2.65718 2.10189 0
M  V30 7353 C 672.577 -3.18458 2.00653 0
M  V30 7354 C 671.724 -1.91149 2.00891 0
M  V30 7355 H 674.675 -0.706756 1.42094 0
M  V30 7356 H 674.696 -3.4158 1.6764 0
M  V30 7357 H 674.208 -2.30386 3.12321 0
M  V30 7358 H 672.309 -3.58474 1.01623 0
M  V30 7359 H 672.422 -3.82491 2.88509 0
M  V30 7360 H 670.786 -2.09021 1.45542 0
M  V30 7361 H 671.569 -1.58089 3.04734 0
M  V30 7362 N 674.014 -1.12206 -1.10668 0
M  V30 7363 C 674.962 -0.782918 -2.19028 0
M  V30 7364 C 675.956 0.229175 -1.67843 0
M  V30 7365 O 677.162 0.0876295 -1.79787 0
M  V30 7366 H 673.537 -0.235339 -0.714227 0
M  V30 7367 H 675.508 -1.70527 -2.44874 0
M  V30 7368 C 674.257 -0.25116 -3.46792 0
M  V30 7369 H 673.58 -1.02123 -3.86537 0
M  V30 7370 H 675.02 -0.0521409 -4.23968 0
M  V30 7371 C 673.479 1.02037 -3.21076 0
M  V30 7372 O 674.009 2.09862 -3.42522 0
M  V30 7373 N 672.215 0.946348 -2.74759 0
M  V30 7374 H 671.762 0.068777 -2.57508 0
M  V30 7375 H 671.72 1.79775 -2.57931 0
M  V30 7376 N 675.492 1.28418 -0.913599 0
M  V30 7377 C 676.717 1.99643 -0.561899 0
M  V30 7378 C 677.142 1.67819 0.849608 0
M  V30 7379 O 676.5 0.910503 1.56779 0
M  V30 7380 C 676.548 3.52116 -0.777622 0
M  V30 7381 O 675.652 4.12076 0.163457 0
M  V30 7382 H 674.993 0.627229 -0.217898 0
M  V30 7383 H 677.523 1.63575 -1.229 0
M  V30 7384 H 677.533 4.02163 -0.687666 0
M  V30 7385 H 676.208 3.74613 -1.8066 0
M  V30 7386 H 674.785 3.72892 0.0247827 0
M  V30 7387 N 676.97 0.677563 1.42291 0
M  V30 7388 C 678.217 0.200975 2.015 0
M  V30 7389 C 678.545 -1.19342 1.53583 0
M  V30 7390 O 677.8 -1.81579 0.7299 0
M  V30 7391 C 678.099 0.187229 3.56909 0
M  V30 7392 C 677.765 1.52667 4.24268 0
M  V30 7393 C 676.427 1.89341 4.42384 0
M  V30 7394 C 678.779 2.40869 4.62203 0
M  V30 7395 C 676.107 3.13836 4.95705 0
M  V30 7396 C 678.459 3.64679 5.16906 0
M  V30 7397 C 677.123 4.01519 5.33234 0
M  V30 7398 H 676.393 0.0735418 0.737342 0
M  V30 7399 H 679.04 0.873095 1.70439 0
M  V30 7400 H 677.345 -0.568407 3.87655 0
M  V30 7401 H 679.042 -0.198773 4.00507 0
M  V30 7402 H 675.632 1.23138 4.1053 0
M  V30 7403 H 679.816 2.1382 4.47878 0
M  V30 7404 H 675.072 3.42396 5.06532 0
M  V30 7405 H 679.246 4.33224 5.45243 0
M  V30 7406 H 676.873 4.98062 5.74316 0
M  V30 7407 N 678.448 -1.51871 0.421078 0
M  V30 7408 C 679.696 -2.01539 -0.150492 0
M  V30 7409 C 680.017 -1.30803 -1.44623 0
M  V30 7410 O 679.287 -0.437568 -1.90951 0
M  V30 7411 H 677.867 -0.744698 -0.0586041 0
M  V30 7412 H 680.529 -1.8668 0.560059 0
M  V30 7413 H 679.625 -3.10264 -0.338068 0
M  V30 7414 N 679.926 -0.151884 -1.56866 0
M  V30 7415 C 681.337 0.368128 -1.83035 0
M  V30 7416 C 681.688 1.64402 -1.07082 0
M  V30 7417 O 680.813 2.14056 -0.317647 0
M  V30 7418 C 681.408 0.674676 -3.32014 0
M  V30 7419 C 679.967 1.13919 -3.58747 0
M  V30 7420 C 679.114 0.164833 -2.7681 0
M  V30 7421 H 682.065 -0.376499 -1.54169 0
M  V30 7422 H 682.086 1.52883 -3.48435 0
M  V30 7423 H 681.598 -0.254113 -3.87267 0
M  V30 7424 H 679.699 2.08375 -3.08886 0
M  V30 7425 H 679.812 1.06179 -4.67186 0
M  V30 7426 H 678.176 0.658419 -2.46043 0
M  V30 7427 H 678.959 -0.757633 -3.34836 0
M  V30 7428 N 681.404 1.57128 0.121893 0
M  V30 7429 C 682.629 1.89254 0.848385 0
M  V30 7430 C 683.054 0.743527 1.72781 0
M  V30 7431 O 682.412 -0.306056 1.78698 0
M  V30 7432 C 682.46 3.20113 1.66012 0
M  V30 7433 O 681.564 3.05815 2.76679 0
M  V30 7434 H 680.905 0.621103 0.234793 0
M  V30 7435 H 683.435 2.0433 0.10516 0
M  V30 7436 H 683.445 3.52761 2.04996 0
M  V30 7437 H 682.12 4.03336 1.01452 0
M  V30 7438 H 680.697 2.84627 2.40918 0
M  V30 7439 N 682.882 -0.391992 1.52647 0
M  V30 7440 C 684.298 -0.731848 1.41831 0
M  V30 7441 C 684.498 -1.9423 0.536361 0
M  V30 7442 O 683.554 -2.52499 0.00866571 0
M  V30 7443 C 684.867 -0.969743 2.84634 0
M  V30 7444 C 686.415 -1.0714 2.94092 0
M  V30 7445 C 686.89 -1.34195 4.37899 0
M  V30 7446 N 688.381 -1.41023 4.41211 0
M  V30 7447 C 689.116 -1.63616 5.49561 0
M  V30 7448 N 688.612 -1.83699 6.68002 0
M  V30 7449 N 690.405 -1.65771 5.371 0
M  V30 7450 H 682.556 0.404547 2.08512 0
M  V30 7451 H 684.819 0.11879 0.940528 0
M  V30 7452 H 684.525 -0.152465 3.51369 0
M  V30 7453 H 684.399 -1.88523 3.26709 0
M  V30 7454 H 686.786 -1.87925 2.27526 0
M  V30 7455 H 686.867 -0.133887 2.55449 0
M  V30 7456 H 686.511 -0.539207 5.0503 0
M  V30 7457 H 686.441 -2.29226 4.74092 0
M  V30 7458 H 688.932 -1.27223 3.55841 0
M  V30 7459 H 689.245 -2.00437 7.46354 0
M  V30 7460 H 687.59 -1.8093 6.71036 0
M  V30 7461 H 690.781 -1.4963 4.43541 0
M  V30 7462 H 690.954 -1.83038 6.21612 0
M  V30 7463 N 684.36 -1.4356 -0.65026 0
M  V30 7464 C 685.637 -1.35811 -1.40765 0
M  V30 7465 C 686.017 -0.00736379 -2.11099 0
M  V30 7466 O 685.365 1.00932 -2.05 0
M  V30 7467 C 685.575 -2.54332 -2.3899 0
M  V30 7468 C 686.923 -2.97551 -3.02901 0
M  V30 7469 O 687.947 -2.544 -2.49317 0
M  V30 7470 O 686.806 -3.72311 -4.00059 0
M  V30 7471 H 683.9 -0.536861 -0.629054 0
M  V30 7472 H 686.446 -1.55615 -0.676919 0
M  V30 7473 H 685.218 -3.44274 -1.85986 0
M  V30 7474 H 684.841 -2.36643 -3.19509 0
M  V30 7475 N 685.838 0.888903 -1.30139 0
M  V30 7476 C 687.084 1.64288 -1.19922 0
M  V30 7477 C 687.439 1.90839 0.244561 0
M  V30 7478 O 686.732 1.51544 1.17239 0
M  V30 7479 C 686.926 2.99041 -1.95728 0
M  V30 7480 C 686.755 2.85644 -3.47329 0
M  V30 7481 C 685.525 2.85836 -4.16685 0
M  V30 7482 C 687.723 2.6188 -4.42632 0
M  V30 7483 N 685.705 2.63289 -5.54574 0
M  V30 7484 C 687.076 2.48418 -5.68057 0
M  V30 7485 C 689.131 2.47073 -4.32272 0
M  V30 7486 C 687.834 2.21655 -6.84296 0
M  V30 7487 C 689.86 2.21695 -5.48275 0
M  V30 7488 C 689.222 2.09007 -6.72678 0
M  V30 7489 H 685.321 0.606315 -0.493868 0
M  V30 7490 H 687.905 1.0478 -1.64102 0
M  V30 7491 H 686.076 3.56589 -1.53945 0
M  V30 7492 H 687.808 3.63607 -1.77685 0
M  V30 7493 H 684.563 2.97521 -3.68481 0
M  V30 7494 H 684.987 2.55039 -6.27124 0
M  V30 7495 H 689.629 2.55621 -3.36776 0
M  V30 7496 H 687.347 2.11845 -7.79838 0
M  V30 7497 H 690.933 2.11067 -5.42164 0
M  V30 7498 H 689.813 1.89643 -7.60924 0
M  V30 7499 N 687.317 1.12792 1.10072 0
M  V30 7500 C 688.566 0.880232 1.81479 0
M  V30 7501 C 688.879 -0.595575 1.86312 0
M  V30 7502 O 690.085 -0.959979 2.53962 0
M  V30 7503 C 688.541 1.52514 3.25987 0
M  V30 7504 C 688.149 3.036 3.29441 0
M  V30 7505 C 689.893 1.35788 4.02196 0
M  V30 7506 C 687.8 3.61007 4.68431 0
M  V30 7507 H 686.73 0.325654 0.680048 0
M  V30 7508 H 689.381 1.35485 1.23758 0
M  V30 7509 H 687.763 0.978188 3.83728 0
M  V30 7510 H 688.937 3.64819 2.81502 0
M  V30 7511 H 687.252 3.19765 2.66719 0
M  V30 7512 H 689.849 1.76096 5.0487 0
M  V30 7513 H 690.192 0.301972 4.15203 0
M  V30 7514 H 690.725 1.87426 3.50879 0
M  V30 7515 H 687.464 4.66375 4.60625 0
M  V30 7516 H 686.984 3.04564 5.16721 0
M  V30 7517 H 688.663 3.60289 5.37402 0
M  V30 7518 N 688.795 -1.27931 0.920396 0
M  V30 7519 C 689.742 -2.27085 0.412422 0
M  V30 7520 C 690.712 -1.57858 -0.516725 0
M  V30 7521 O 691.897 -1.85717 -0.437475 0
M  V30 7522 C 689.037 -3.43466 -0.335399 0
M  V30 7523 C 688.15 -4.27425 0.627017 0
M  V30 7524 C 687.285 -5.31016 -0.139916 0
M  V30 7525 C 686.324 -6.06641 0.815683 0
M  V30 7526 N 685.461 -7.02052 0.0818439 0
M  V30 7527 H 690.301 -2.69913 1.26298 0
M  V30 7528 H 687.838 -1.32732 0.634076 0
M  V30 7529 H 689.796 -4.09744 -0.785226 0
M  V30 7530 H 688.426 -3.01611 -1.15025 0
M  V30 7531 H 687.478 -3.6113 1.19537 0
M  V30 7532 H 688.79 -4.79969 1.35763 0
M  V30 7533 H 687.944 -6.03208 -0.649998 0
M  V30 7534 H 686.683 -4.79257 -0.903543 0
M  V30 7535 H 685.688 -5.33294 1.33708 0
M  V30 7536 H 686.913 -6.60489 1.57897 0
M  V30 7537 H 684.859 -6.52634 -0.663671 0
M  V30 7538 H 684.776 -7.52249 0.752163 0
M  V30 7539 H 686.044 -7.78432 -0.407825 0
M  V30 7540 N 690.273 -0.685099 -1.4193 0
M  V30 7541 C 691.203 -0.0273506 -2.33484 0
M  V30 7542 C 692.184 0.778366 -1.51246 0
M  V30 7543 O 693.369 0.733449 -1.79817 0
M  V30 7544 C 690.499 0.917272 -3.34968 0
M  V30 7545 C 689.453 0.21941 -4.27437 0
M  V30 7546 C 688.779 1.27768 -5.1921 0
M  V30 7547 C 690.079 -0.907894 -5.14349 0
M  V30 7548 H 691.773 -0.791994 -2.88735 0
M  V30 7549 H 689.319 -0.382308 -1.38832 0
M  V30 7550 H 691.272 1.38657 -3.97935 0
M  V30 7551 H 689.996 1.71346 -2.78043 0
M  V30 7552 H 688.655 -0.229757 -3.65879 0
M  V30 7553 H 688.303 2.06612 -4.58607 0
M  V30 7554 H 688.003 0.815803 -5.81909 0
M  V30 7555 H 689.527 1.7477 -5.85054 0
M  V30 7556 H 690.941 -0.519348 -5.70943 0
M  V30 7557 H 689.338 -1.2962 -5.85934 0
M  V30 7558 H 690.408 -1.75218 -4.52136 0
M  V30 7559 N 691.751 1.51645 -0.429126 0
M  V30 7560 C 692.997 2.02314 0.140286 0
M  V30 7561 C 693.33 1.31314 1.43074 0
M  V30 7562 O 692.605 0.425531 1.89788 0
M  V30 7563 C 692.888 3.5822 0.36749 0
M  V30 7564 C 692.741 4.39846 -0.941039 0
M  V30 7565 C 694.06 4.25055 1.14089 0
M  V30 7566 H 691.179 0.735335 0.0495112 0
M  V30 7567 H 693.821 1.81358 -0.566514 0
M  V30 7568 H 691.971 3.76207 0.969556 0
M  V30 7569 H 693.643 4.33527 -1.57646 0
M  V30 7570 H 691.886 4.05259 -1.54751 0
M  V30 7571 H 692.557 5.47069 -0.73621 0
M  V30 7572 H 695.033 4.11288 0.630986 0
M  V30 7573 H 693.909 5.34038 1.26863 0
M  V30 7574 H 694.17 3.85358 2.16683 0
M  V30 7575 N 693.229 0.160201 1.56784 0
M  V30 7576 C 694.176 -0.774416 2.1742 0
M  V30 7577 C 695.146 -1.23483 1.11091 0
M  V30 7578 O 696.331 -1.30499 1.39193 0
M  V30 7579 C 693.471 -2.00283 2.81035 0
M  V30 7580 C 692.584 -1.58701 4.01793 0
M  V30 7581 C 691.719 -2.76824 4.53367 0
M  V30 7582 C 690.758 -2.31679 5.66561 0
M  V30 7583 N 689.895 -3.42856 6.12694 0
M  V30 7584 H 694.735 -0.250542 2.96945 0
M  V30 7585 H 692.272 -0.111943 1.46673 0
M  V30 7586 H 694.23 -2.72316 3.16069 0
M  V30 7587 H 692.86 -2.5006 2.04132 0
M  V30 7588 H 691.912 -0.76384 3.72652 0
M  V30 7589 H 693.224 -1.21555 4.83762 0
M  V30 7590 H 692.378 -3.57029 4.90525 0
M  V30 7591 H 691.117 -3.17223 3.70433 0
M  V30 7592 H 690.122 -1.49917 5.28966 0
M  V30 7593 H 691.347 -1.9235 6.5129 0
M  V30 7594 H 689.293 -3.82852 5.32692 0
M  V30 7595 H 689.21 -3.09767 6.89624 0
M  V30 7596 H 690.478 -4.23379 6.545 0
M  V30 7597 N 694.707 -1.5719 -0.113559 0
M  V30 7598 C 695.935 -1.89328 -0.834422 0
M  V30 7599 C 696.35 -0.752018 -1.73177 0
M  V30 7600 O 695.707 0.276912 -1.80387 0
M  V30 7601 C 695.758 -3.20962 -1.66329 0
M  V30 7602 O 695.479 -4.30695 -0.802069 0
M  V30 7603 C 696.98 -3.6684 -2.48884 0
M  V30 7604 H 694.2 -0.626769 -0.239587 0
M  V30 7605 H 696.744 -2.04273 -0.0963195 0
M  V30 7606 H 694.899 -3.0767 -2.35409 0
M  V30 7607 H 695.313 -5.06175 -1.37431 0
M  V30 7608 H 696.787 -4.61692 -3.02563 0
M  V30 7609 H 697.264 -2.93765 -3.26495 0
M  V30 7610 H 697.87 -3.82938 -1.85036 0
M  V30 7611 N 696.185 0.383891 -1.52853 0
M  V30 7612 C 697.133 1.48965 -1.7864 0
M  V30 7613 C 698.127 1.56242 -0.654577 0
M  V30 7614 O 699.333 1.59347 -0.83716 0
M  V30 7615 H 695.708 0.495892 -0.565328 0
M  V30 7616 H 697.679 1.24411 -2.71228 0
M  V30 7617 C 696.428 2.86036 -1.97683 0
M  V30 7618 H 695.751 2.81188 -2.84206 0
M  V30 7619 H 697.191 3.62632 -2.19713 0
M  V30 7620 C 695.65 3.28428 -0.750776 0
M  V30 7621 O 696.18 4.0164 0.0693491 0
M  V30 7622 N 694.386 2.84765 -0.579427 0
M  V30 7623 H 693.933 2.25353 -1.24795 0
M  V30 7624 H 693.891 3.13486 0.239544 0
M  V30 7625 N 697.663 1.43903 0.642637 0
M  V30 7626 C 698.61 1.49881 1.75512 0
M  V30 7627 C 699.58 0.347538 1.62423 0
M  V30 7628 O 700.765 0.556177 1.82514 0
M  V30 7629 C 697.905 1.43797 3.13714 0
M  V30 7630 C 697.018 2.6921 3.37861 0
M  V30 7631 C 696.153 2.5504 4.6597 0
M  V30 7632 C 695.192 3.75671 4.83257 0
M  V30 7633 N 694.329 3.60247 6.02633 0
M  V30 7634 H 699.169 2.44935 1.69737 0
M  V30 7635 H 696.706 1.21572 0.828165 0
M  V30 7636 H 698.664 1.38262 3.93624 0
M  V30 7637 H 697.294 0.523173 3.18532 0
M  V30 7638 H 696.346 2.8498 2.51973 0
M  V30 7639 H 697.658 3.58786 3.46517 0
M  V30 7640 H 696.812 2.47273 5.54023 0
M  V30 7641 H 695.551 1.63006 4.59653 0
M  V30 7642 H 694.556 3.83836 3.93637 0
M  V30 7643 H 695.781 4.68728 4.91397 0
M  V30 7644 H 693.727 2.70955 5.97427 0
M  V30 7645 H 693.644 4.43431 6.12295 0
M  V30 7646 H 694.912 3.56351 6.93278 0
M  V30 7647 N 699.141 -0.881989 1.30609 0
M  V30 7648 C 700.104 -1.96957 1.1722 0
M  V30 7649 C 701.104 -1.60472 0.102598 0
M  V30 7650 O 702.294 -1.70628 0.350943 0
M  V30 7651 C 699.426 -3.31463 0.796572 0
M  V30 7652 H 700.619 -2.10262 2.13846 0
M  V30 7653 H 698.172 -1.06877 1.14048 0
M  V30 7654 H 698.907 -3.23859 -0.169053 0
M  V30 7655 H 698.692 -3.59314 1.56959 0
M  V30 7656 H 700.182 -4.11233 0.72645 0
M  V30 7657 N 700.619 -1.13374 -1.09472 0
M  V30 7658 C 702.035 -0.871846 -1.33682 0
M  V30 7659 C 702.235 0.492847 -1.9538 0
M  V30 7660 O 701.291 1.23946 -2.19985 0
M  V30 7661 C 702.604 -1.99608 -2.24893 0
M  V30 7662 C 704.152 -2.02812 -2.38404 0
M  V30 7663 C 704.627 -3.14497 -3.3295 0
M  V30 7664 N 706.118 -3.14004 -3.40523 0
M  V30 7665 C 706.853 -3.97061 -4.13679 0
M  V30 7666 N 706.349 -4.90131 -4.89636 0
M  V30 7667 N 708.142 -3.85162 -4.09398 0
M  V30 7668 H 700.293 -2.01288 -0.677995 0
M  V30 7669 H 702.556 -0.876492 -0.361201 0
M  V30 7670 H 702.262 -2.98 -1.86786 0
M  V30 7671 H 702.136 -1.90981 -3.25278 0
M  V30 7672 H 704.523 -1.05034 -2.75775 0
M  V30 7673 H 704.604 -2.15511 -1.37799 0
M  V30 7674 H 704.248 -4.12514 -2.96302 0
M  V30 7675 H 704.178 -2.99035 -4.33458 0
M  V30 7676 H 706.669 -2.46587 -2.86362 0
M  V30 7677 H 706.982 -5.49996 -5.42885 0
M  V30 7678 H 705.327 -4.94138 -4.88726 0
M  V30 7679 H 708.518 -3.11779 -3.49158 0
M  V30 7680 H 708.691 -4.5012 -4.6615 0
M  V30 7681 N 702.098 1.27442 -0.927168 0
M  V30 7682 C 703.046 2.28844 -0.416333 0
M  V30 7683 C 704.04 1.61882 0.499057 0
M  V30 7684 O 705.246 1.75969 0.378817 0
M  V30 7685 H 701.621 0.742989 -0.116065 0
M  V30 7686 H 703.592 2.69344 -1.28438 0
M  V30 7687 C 702.341 3.4626 0.316107 0
M  V30 7688 H 701.664 3.97999 -0.379082 0
M  V30 7689 H 703.104 4.19173 0.637975 0
M  V30 7690 C 701.563 3.00211 1.5289 0
M  V30 7691 O 702.093 3.03837 2.62766 0
M  V30 7692 N 700.299 2.55713 1.38054 0
M  V30 7693 H 699.846 2.52962 0.4866 0
M  V30 7694 H 699.804 2.25264 2.19325 0
M  V30 7695 N 703.576 0.692616 1.41565 0
M  V30 7696 C 704.523 0.0254264 2.30786 0
M  V30 7697 C 705.493 -0.774347 1.46946 0
M  V30 7698 O 706.678 -0.742981 1.7574 0
M  V30 7699 C 703.818 -0.907123 3.32964 0
M  V30 7700 C 702.931 -0.0992784 4.31886 0
M  V30 7701 C 702.066 -1.0292 5.21134 0
M  V30 7702 C 701.105 -0.214088 6.11725 0
M  V30 7703 N 700.242 -1.09766 6.93467 0
M  V30 7704 H 705.082 0.792036 2.87282 0
M  V30 7705 H 702.619 0.4023 1.41492 0
M  V30 7706 H 704.577 -1.46181 3.90752 0
M  V30 7707 H 703.207 -1.64016 2.78026 0
M  V30 7708 H 702.259 0.572287 3.76071 0
M  V30 7709 H 703.571 0.532782 4.95946 0
M  V30 7710 H 702.725 -1.65321 5.83741 0
M  V30 7711 H 701.464 -1.69512 4.57293 0
M  V30 7712 H 700.469 0.42302 5.4817 0
M  V30 7713 H 701.694 0.447995 6.77621 0
M  V30 7714 H 699.64 -1.74965 6.32237 0
M  V30 7715 H 699.557 -0.521099 7.54202 0
M  V30 7716 H 700.825 -1.70858 7.60544 0
M  V30 7717 N 705.054 -1.51416 0.437162 0
M  V30 7718 C 706.303 -2.01275 -0.130865 0
M  V30 7719 C 706.616 -1.32593 -1.438 0
M  V30 7720 O 707.822 -1.7342 -2.08897 0
M  V30 7721 C 706.278 -3.5878 -0.283763 0
M  V30 7722 C 705.886 -4.36399 1.01293 0
M  V30 7723 C 707.63 -4.16786 -0.805569 0
M  V30 7724 C 705.537 -5.85608 0.825687 0
M  V30 7725 H 704.467 -0.752157 -0.0526818 0
M  V30 7726 H 707.118 -1.74524 0.566896 0
M  V30 7727 H 705.5 -3.81976 -1.04452 0
M  V30 7728 H 706.674 -4.24948 1.78201 0
M  V30 7729 H 704.989 -3.89843 1.46326 0
M  V30 7730 H 707.586 -5.25972 -0.962146 0
M  V30 7731 H 707.929 -3.75949 -1.78796 0
M  V30 7732 H 708.462 -3.97666 -0.103125 0
M  V30 7733 H 705.201 -6.30857 1.78045 0
M  V30 7734 H 704.721 -5.99723 0.0964029 0
M  V30 7735 H 706.4 -6.45226 0.478815 0
M  V30 7736 N 706.532 -0.168513 -1.56696 0
M  V30 7737 C 707.948 0.187686 -1.58493 0
M  V30 7738 C 708.148 1.63063 -1.18375 0
M  V30 7739 O 707.204 2.36142 -0.894042 0
M  V30 7740 C 708.517 -0.0905858 -3.00564 0
M  V30 7741 C 710.065 -0.028575 -3.12987 0
M  V30 7742 C 710.54 -0.279799 -4.57145 0
M  V30 7743 N 712.031 -0.227476 -4.62641 0
M  V30 7744 C 712.766 -0.396073 -5.7203 0
M  V30 7745 N 712.262 -0.623572 -6.89988 0
M  V30 7746 N 714.055 -0.332173 -5.61118 0
M  V30 7747 H 706.206 -1.11042 -1.81062 0
M  V30 7748 H 708.469 -0.441235 -0.839056 0
M  V30 7749 H 708.175 -1.09006 -3.34381 0
M  V30 7750 H 708.049 0.619078 -3.72085 0
M  V30 7751 H 710.436 0.961471 -2.78998 0
M  V30 7752 H 710.517 -0.770905 -2.43907 0
M  V30 7753 H 710.161 -1.26704 -4.91842 0
M  V30 7754 H 710.091 0.48311 -5.24379 0
M  V30 7755 H 712.582 -0.0571723 -3.77857 0
M  V30 7756 H 712.895 -0.741745 -7.69232 0
M  V30 7757 H 711.24 -0.660153 -6.91858 0
M  V30 7758 H 714.431 -0.155051 -4.67843 0
M  V30 7759 H 714.604 -0.466994 -6.46315 0
M  V30 7760 N 708.01 1.57248 0.105221 0
M  V30 7761 C 708.942 1.98008 1.15436 0
M  V30 7762 C 709.955 0.881236 1.36887 0
M  V30 7763 O 711.144 1.15943 1.35718 0
M  V30 7764 C 708.244 2.27509 2.51183 0
M  V30 7765 C 707.417 3.58811 2.50147 0
M  V30 7766 C 706.476 3.76365 3.67745 0
M  V30 7767 O 705.502 4.48329 3.50699 0
M  V30 7768 N 706.704 3.16174 4.86841 0
M  V30 7769 H 709.469 2.88616 0.807519 0
M  V30 7770 H 707.03 1.59202 0.29433 0
M  V30 7771 H 709.022 2.36455 3.28438 0
M  V30 7772 H 707.592 1.42959 2.77995 0
M  V30 7773 H 706.812 3.60927 1.5851 0
M  V30 7774 H 708.1 4.45088 2.46524 0
M  V30 7775 H 707.498 2.57701 5.03594 0
M  V30 7776 H 706.055 3.30621 5.61723 0
M  V30 7777 N 709.488 -0.375779 1.53054 0
M  V30 7778 C 710.735 -1.11948 1.68742 0
M  V30 7779 C 711.063 -1.89596 0.434015 0
M  V30 7780 O 710.318 -1.86787 -0.583867 0
M  V30 7781 C 710.617 -2.11356 2.88207 0
M  V30 7782 C 710.283 -1.50266 4.25124 0
M  V30 7783 C 708.945 -1.33333 4.62359 0
M  V30 7784 C 711.297 -1.05976 5.10312 0
M  V30 7785 C 708.625 -0.706765 5.82427 0
M  V30 7786 C 710.977 -0.447241 6.31017 0
M  V30 7787 C 709.641 -0.265314 6.66973 0
M  V30 7788 H 708.911 -0.409648 0.61747 0
M  V30 7789 H 711.558 -0.402492 1.87222 0
M  V30 7790 H 709.863 -2.89322 2.64197 0
M  V30 7791 H 711.56 -2.68833 2.97539 0
M  V30 7792 H 708.15 -1.64437 3.95801 0
M  V30 7793 H 712.334 -1.17855 4.82104 0
M  V30 7794 H 707.59 -0.554132 6.08884 0
M  V30 7795 H 711.764 -0.0958064 6.96334 0
M  V30 7796 H 709.391 0.222267 7.59875 0
M  V30 7797 N 710.966 -1.44241 -0.634997 0
M  V30 7798 C 712.213 -1.46821 -1.39463 0
M  V30 7799 C 712.541 -0.0993362 -1.94246 0
M  V30 7800 O 711.796 0.898325 -1.73864 0
M  V30 7801 C 712.095 -2.47279 -2.58046 0
M  V30 7802 C 711.761 -3.92703 -2.21574 0
M  V30 7803 C 710.423 -4.32306 -2.1134 0
M  V30 7804 C 712.775 -4.84271 -1.92695 0
M  V30 7805 C 710.103 -5.61407 -1.70409 0
M  V30 7806 C 712.455 -6.13755 -1.53258 0
M  V30 7807 C 711.119 -6.52316 -1.41562 0
M  V30 7808 H 710.389 -0.537256 -0.51033 0
M  V30 7809 H 713.036 -1.77431 -0.720441 0
M  V30 7810 H 711.341 -2.10138 -3.3068 0
M  V30 7811 H 713.038 -2.46523 -3.16271 0
M  V30 7812 H 709.628 -3.61369 -2.30456 0
M  V30 7813 H 713.812 -4.54432 -1.99513 0
M  V30 7814 H 709.068 -5.90105 -1.59955 0
M  V30 7815 H 713.242 -6.84168 -1.29949 0
M  V30 7816 H 710.869 -7.52255 -1.09619 0
M  V30 7817 N 712.444 0.87505 -1.31075 0
M  V30 7818 C 713.391 1.98178 -1.18296 0
M  V30 7819 C 714.361 1.65952 -0.0699923 0
M  V30 7820 O 715.546 1.8926 -0.241951 0
M  V30 7821 C 712.686 3.33399 -0.891024 0
M  V30 7822 C 711.799 3.78253 -2.08684 0
M  V30 7823 C 710.934 5.02166 -1.73212 0
M  V30 7824 C 709.973 5.39455 -2.89231 0
M  V30 7825 N 709.11 6.54549 -2.53989 0
M  V30 7826 H 713.95 2.0844 -2.12971 0
M  V30 7827 H 711.487 1.02047 -1.05948 0
M  V30 7828 H 713.445 4.11246 -0.702338 0
M  V30 7829 H 712.075 3.22794 0.0188799 0
M  V30 7830 H 711.127 2.9623 -2.38646 0
M  V30 7831 H 712.439 4.01821 -2.95536 0
M  V30 7832 H 711.593 5.87666 -1.50777 0
M  V30 7833 H 710.332 4.80491 -0.83544 0
M  V30 7834 H 709.337 4.52477 -3.12321 0
M  V30 7835 H 710.562 5.63098 -3.79601 0
M  V30 7836 H 708.508 6.3443 -1.66838 0
M  V30 7837 H 708.425 6.78035 -3.34372 0
M  V30 7838 H 709.693 7.43254 -2.34934 0
M  V30 7839 N 713.922 1.13953 1.08869 0
M  V30 7840 C 714.87 0.817664 2.17754 0
M  V30 7841 C 715.864 -0.202444 1.68186 0
M  V30 7842 O 717.07 -0.0590159 1.79903 0
M  V30 7843 H 713.445 0.246671 0.710392 0
M  V30 7844 H 715.416 1.74401 2.4213 0
M  V30 7845 C 714.165 0.3063 3.46348 0
M  V30 7846 H 713.488 1.08259 3.84864 0
M  V30 7847 H 714.928 0.119584 4.23831 0
M  V30 7848 C 713.387 -0.969158 3.22659 0
M  V30 7849 O 713.917 -2.04386 3.45817 0
M  V30 7850 N 712.123 -0.902516 2.7623 0
M  V30 7851 H 711.67 -0.027801 2.57585 0
M  V30 7852 H 711.628 -1.75649 2.60758 0
M  V30 7853 N 715.4 -1.26948 0.933913 0
M  V30 7854 C 716.332 -2.25768 0.395137 0
M  V30 7855 C 717.345 -1.55637 -0.477585 0
M  V30 7856 O 718.534 -1.76142 -0.289204 0
M  V30 7857 C 715.634 -3.35874 -0.451882 0
M  V30 7858 C 714.807 -4.3554 0.40299 0
M  V30 7859 C 713.866 -5.24809 -0.3824 0
M  V30 7860 O 712.892 -5.68805 0.212057 0
M  V30 7861 N 714.094 -5.55636 -1.68072 0
M  V30 7862 H 716.859 -2.72634 1.24463 0
M  V30 7863 H 714.42 -1.40639 0.802008 0
M  V30 7864 H 716.412 -3.92542 -0.984516 0
M  V30 7865 H 714.982 -2.8856 -1.20215 0
M  V30 7866 H 714.202 -3.78047 1.11688 0
M  V30 7867 H 715.49 -4.99131 0.987201 0
M  V30 7868 H 714.888 -5.2176 -2.18592 0
M  V30 7869 H 713.445 -6.14978 -2.15975 0
M  V30 7870 N 716.879 -0.700114 -1.41195 0
M  V30 7871 C 718.156 -0.160836 -1.94938 0
M  V30 7872 C 718.536 1.33014 -1.63922 0
M  V30 7873 O 717.884 2.07878 -0.948636 0
M  V30 7874 C 718.094 -0.456991 -3.45995 0
M  V30 7875 C 719.442 -0.387207 -4.22831 0
M  V30 7876 O 720.466 -0.392164 -3.54035 0
M  V30 7877 O 719.325 -0.351267 -5.4537 0
M  V30 7878 H 716.419 -0.0176304 -0.826812 0
M  V30 7879 H 718.965 -0.776586 -1.50888 0
M  V30 7880 H 717.737 -1.48884 -3.61869 0
M  V30 7881 H 717.36 0.189503 -3.97148 0
M  V30 7882 N 718.357 1.51182 -0.445186 0
M  V30 7883 C 719.304 2.27939 0.362291 0
M  V30 7884 C 720.274 1.31864 1.01 0
M  V30 7885 O 721.459 1.60776 1.02741 0
M  V30 7886 C 718.599 3.13016 1.45311 0
M  V30 7887 C 717.712 4.24093 0.822757 0
M  V30 7888 C 716.847 4.96467 1.88928 0
M  V30 7889 C 715.886 5.99454 1.23778 0
M  V30 7890 N 715.023 6.65206 2.24602 0
M  V30 7891 H 719.863 2.965 -0.29862 0
M  V30 7892 H 717.4 1.46237 -0.15911 0
M  V30 7893 H 719.358 3.60673 2.09692 0
M  V30 7894 H 717.988 2.46553 2.08354 0
M  V30 7895 H 717.04 3.80341 0.0670364 0
M  V30 7896 H 718.352 4.97853 0.307184 0
M  V30 7897 H 717.506 5.47712 2.60953 0
M  V30 7898 H 716.245 4.22355 2.4386 0
M  V30 7899 H 715.25 5.47494 0.503042 0
M  V30 7900 H 716.475 6.75527 0.695694 0
M  V30 7901 H 714.421 5.93901 2.78599 0
M  V30 7902 H 714.338 7.34756 1.77958 0
M  V30 7903 H 715.606 7.21078 2.96085 0
M  V30 7904 N 719.835 0.176821 1.56605 0
M  V30 7905 C 720.745 -0.763682 2.21822 0
M  V30 7906 C 721.761 -1.24889 1.21156 0
M  V30 7907 O 722.937 -1.29987 1.53836 0
M  V30 7908 C 720.002 -1.97352 2.8505 0
M  V30 7909 C 719.063 -1.53466 4.00932 0
M  V30 7910 C 718.296 -2.68682 4.61135 0
M  V30 7911 O 718.519 -3.85694 4.20234 0
M  V30 7912 O 717.453 -2.42442 5.50913 0
M  V30 7913 H 721.279 -0.238363 3.02763 0
M  V30 7914 H 718.864 -0.0516331 1.49311 0
M  V30 7915 H 720.746 -2.68096 3.25119 0
M  V30 7916 H 719.421 -2.48779 2.07101 0
M  V30 7917 H 718.328 -0.796551 3.65521 0
M  V30 7918 H 719.661 -1.06724 4.8049 0
M  V30 7919 N 721.313 -1.57302 -0.09688 0
M  V30 7920 C 722.243 -2.0497 -1.11846 0
M  V30 7921 C 723.224 -0.938278 -1.41882 0
M  V30 7922 O 724.409 -1.20943 -1.51942 0
M  V30 7923 C 721.539 -2.47264 -2.43881 0
M  V30 7924 C 720.493 -3.62053 -2.28257 0
M  V30 7925 C 719.819 -3.90318 -3.65453 0
M  V30 7926 C 721.119 -4.93005 -1.72461 0
M  V30 7927 H 722.813 -2.90567 -0.721888 0
M  V30 7928 H 720.359 -1.39786 -0.345803 0
M  V30 7929 H 722.312 -2.7922 -3.15617 0
M  V30 7930 H 721.036 -1.58664 -2.8547 0
M  V30 7931 H 719.695 -3.30341 -1.58967 0
M  V30 7932 H 719.343 -2.98889 -4.04567 0
M  V30 7933 H 719.043 -4.67597 -3.55846 0
M  V30 7934 H 720.567 -4.24747 -4.3866 0
M  V30 7935 H 721.981 -5.23354 -2.34036 0
M  V30 7936 H 720.378 -5.74436 -1.73618 0
M  V30 7937 H 721.448 -4.80053 -0.683898 0
M  V30 7938 N 722.791 0.367657 -1.53252 0
M  V30 7939 C 724.016 1.13566 -1.73544 0
M  V30 7940 C 724.441 1.82329 -0.462344 0
M  V30 7941 O 723.799 1.71655 0.583472 0
M  V30 7942 C 723.847 2.14322 -2.89997 0
M  V30 7943 O 722.951 3.21359 -2.58461 0
M  V30 7944 H 722.292 0.329614 -0.576412 0
M  V30 7945 H 724.822 0.425417 -2.00128 0
M  V30 7946 H 724.832 2.57958 -3.16104 0
M  V30 7947 H 723.507 1.63664 -3.82344 0
M  V30 7948 H 722.084 2.8271 -2.43165 0
M  V30 7949 N 724.269 1.44576 0.627338 0
M  V30 7950 C 725.515 1.47777 1.38888 0
M  V30 7951 C 725.848 0.111406 1.9388 0
M  V30 7952 O 725.123 -0.87149 1.73883 0
M  V30 7953 C 725.406 2.54119 2.55138 0
M  V30 7954 C 725.259 4.00128 2.0547 0
M  V30 7955 C 726.578 2.56929 3.57317 0
M  V30 7956 H 723.697 0.538048 0.50366 0
M  V30 7957 H 726.339 1.76277 0.708978 0
M  V30 7958 H 724.489 2.29948 3.13139 0
M  V30 7959 H 726.161 4.35444 1.5227 0
M  V30 7960 H 724.404 4.11724 1.36623 0
M  V30 7961 H 725.075 4.7019 2.89181 0
M  V30 7962 H 727.551 2.78536 3.09122 0
M  V30 7963 H 726.427 3.33234 4.36173 0
M  V30 7964 H 726.688 1.6127 4.11636 0
M  V30 7965 N 725.747 -0.868086 1.31537 0
M  V30 7966 C 726.695 -1.99688 1.1928 0
M  V30 7967 C 727.689 -1.69101 0.100656 0
M  V30 7968 O 728.895 -1.78073 0.262677 0
M  V30 7969 H 725.27 -0.655032 0.369374 0
M  V30 7970 H 727.241 -2.07157 2.14776 0
M  V30 7971 C 725.99 -3.35338 0.918892 0
M  V30 7972 H 725.313 -3.59396 1.75142 0
M  V30 7973 H 726.753 -4.14909 0.873311 0
M  V30 7974 C 725.212 -3.34769 -0.378366 0
M  V30 7975 O 725.742 -3.76716 -1.39456 0
M  V30 7976 N 723.948 -2.87895 -0.39557 0
M  V30 7977 H 723.495 -2.53954 0.431889 0
M  V30 7978 H 723.453 -2.87897 -1.26344 0
M  V30 7979 N 727.225 -1.14528 -1.08264 0
M  V30 7980 C 728.172 -0.833556 -2.15222 0
M  V30 7981 C 729.142 0.209539 -1.64773 0
M  V30 7982 O 730.327 0.0791388 -1.90636 0
M  V30 7983 C 727.467 -0.318799 -3.43624 0
M  V30 7984 C 726.58 -1.42237 -4.07913 0
M  V30 7985 C 725.715 -0.864704 -5.24115 0
M  V30 7986 C 724.754 -1.94585 -5.80347 0
M  V30 7987 N 723.891 -1.40525 -6.87893 0
M  V30 7988 H 728.731 -1.74965 -2.41228 0
M  V30 7989 H 726.268 -0.873169 -1.18381 0
M  V30 7990 H 728.226 -0.00213088 -4.172 0
M  V30 7991 H 726.856 0.560397 -3.17898 0
M  V30 7992 H 725.908 -1.8554 -3.32083 0
M  V30 7993 H 727.22 -2.23901 -4.45724 0
M  V30 7994 H 726.374 -0.500025 -6.04636 0
M  V30 7995 H 725.113 -0.0171219 -4.87697 0
M  V30 7996 H 724.118 -2.31946 -4.98479 0
M  V30 7997 H 725.343 -2.79704 -6.18823 0
M  V30 7998 H 723.289 -0.579873 -6.53432 0
M  V30 7999 H 723.206 -2.15825 -7.24538 0
M  V30 8000 H 724.474 -1.06852 -7.72142 0
M  V30 8001 N 728.703 1.26451 -0.940633 0
M  V30 8002 C 729.951 1.93395 -0.586748 0
M  V30 8003 C 730.272 1.7417 0.876921 0
M  V30 8004 O 729.542 1.097 1.62304 0
M  V30 8005 H 728.122 0.715687 -0.214012 0
M  V30 8006 H 730.784 1.53902 -1.19584 0
M  V30 8007 H 729.88 3.01565 -0.804059 0
M  V30 8008 N 730.181 0.707592 1.40822 0
M  V30 8009 C 731.597 0.38034 1.55002 0
M  V30 8010 C 731.797 -1.11163 1.68062 0
M  V30 8011 O 730.853 -1.89761 1.66574 0
M  V30 8012 C 732.166 1.1394 2.78277 0
M  V30 8013 C 733.714 1.12492 2.92087 0
M  V30 8014 C 734.189 1.86597 4.18265 0
M  V30 8015 N 735.68 1.83626 4.25248 0
M  V30 8016 C 736.415 2.37794 5.21768 0
M  V30 8017 N 735.911 3.00485 6.24244 0
M  V30 8018 N 737.704 2.27982 5.13791 0
M  V30 8019 H 729.855 1.67511 1.3059 0
M  V30 8020 H 732.118 0.707579 0.630901 0
M  V30 8021 H 731.824 2.19398 2.74877 0
M  V30 8022 H 731.698 0.725793 3.70151 0
M  V30 8023 H 734.085 0.0785564 2.94995 0
M  V30 8024 H 734.166 1.57768 2.01353 0
M  V30 8025 H 733.81 2.91219 4.16118 0
M  V30 8026 H 733.74 1.38746 5.07993 0
M  V30 8027 H 736.231 1.3793 3.51829 0
M  V30 8028 H 736.544 3.39355 6.94304 0
M  V30 8029 H 734.889 3.04567 6.24711 0
M  V30 8030 H 738.08 1.78669 4.3266 0
M  V30 8031 H 738.253 2.70499 5.88841 0
M  V30 8032 N 731.66 -1.50943 0.453197 0
M  V30 8033 C 732.937 -1.94872 -0.168633 0
M  V30 8034 C 733.317 -1.39272 -1.5864 0
M  V30 8035 O 732.665 -0.586272 -2.20851 0
M  V30 8036 C 732.875 -3.48757 -0.130217 0
M  V30 8037 C 734.223 -4.23331 -0.327975 0
M  V30 8038 O 735.247 -3.55594 -0.207619 0
M  V30 8039 O 734.106 -5.43529 -0.569077 0
M  V30 8040 H 731.2 -0.818042 -0.121394 0
M  V30 8041 H 733.746 -1.61782 0.512316 0
M  V30 8042 H 732.518 -3.81725 0.860346 0
M  V30 8043 H 732.141 -3.88333 -0.853397 0
M  V30 8044 N 733.138 -0.185124 -1.56509 0
M  V30 8045 C 734.071 0.77877 -2.145 0
M  V30 8046 C 735.049 1.21649 -1.07891 0
M  V30 8047 O 736.233 1.30579 -1.35946 0
M  V30 8048 C 733.36 2.05048 -2.69579 0
M  V30 8049 C 732.406 1.75569 -3.88687 0
M  V30 8050 S 733.239 0.912642 -5.27666 0
M  V30 8051 C 734.395 2.19471 -5.8616 0
M  V30 8052 H 734.628 0.285751 -2.95924 0
M  V30 8053 H 732.161 0.0297417 -1.54371 0
M  V30 8054 H 734.119 2.78085 -3.01958 0
M  V30 8055 H 732.78 2.51462 -1.88216 0
M  V30 8056 H 731.973 2.69962 -4.25601 0
M  V30 8057 H 731.575 1.10619 -3.57267 0
M  V30 8058 H 733.867 3.14815 -5.99915 0
M  V30 8059 H 734.81 1.87005 -6.8296 0
M  V30 8060 H 735.218 2.31862 -5.14685 0
M  V30 8061 N 734.616 1.57351 0.0885366 0
M  V30 8062 C 735.546 2.05561 1.10757 0
M  V30 8063 C 736.527 0.945789 1.41382 0
M  V30 8064 O 737.712 1.21747 1.51299 0
M  V30 8065 C 734.842 2.48554 2.42566 0
M  V30 8066 C 733.796 3.63259 2.26334 0
M  V30 8067 C 733.122 3.9225 3.63378 0
M  V30 8068 C 734.422 4.93913 1.69844 0
M  V30 8069 H 736.116 2.90946 0.706468 0
M  V30 8070 H 733.662 1.39968 0.338385 0
M  V30 8071 H 735.615 2.8089 3.14132 0
M  V30 8072 H 734.339 1.60176 2.84625 0
M  V30 8073 H 732.998 3.31179 1.57213 0
M  V30 8074 H 732.646 3.0103 4.02976 0
M  V30 8075 H 732.346 4.69478 3.53362 0
M  V30 8076 H 733.87 4.27067 4.36401 0
M  V30 8077 H 735.284 5.24588 2.31258 0
M  V30 8078 H 733.681 5.75349 1.70569 0
M  V30 8079 H 734.751 4.80409 0.65843 0
M  V30 8080 N 736.094 -0.359525 1.53444 0
M  V30 8081 C 737.34 -1.10315 1.70172 0
M  V30 8082 C 737.673 -1.88788 0.455287 0
M  V30 8083 O 736.948 -1.86635 -0.547514 0
M  V30 8084 C 737.231 -2.05744 2.95536 0
M  V30 8085 C 737.084 -1.3084 4.3035 0
M  V30 8086 C 738.403 -3.05784 3.16518 0
M  V30 8087 H 735.522 -0.399662 0.619225 0
M  V30 8088 H 738.164 -0.383338 1.86093 0
M  V30 8089 H 736.314 -2.67125 2.82093 0
M  V30 8090 H 737.986 -0.721959 4.55615 0
M  V30 8091 H 736.229 -0.610283 4.29486 0
M  V30 8092 H 736.9 -2.00718 5.14214 0
M  V30 8093 H 739.376 -2.5451 3.29187 0
M  V30 8094 H 738.252 -3.69772 4.05659 0
M  V30 8095 H 738.513 -3.76289 2.32076 0
M  V30 8096 N 737.572 -1.44907 -0.619662 0
M  V30 8097 C 738.797 -1.52021 -1.41083 0
M  V30 8098 C 739.222 -0.14976 -1.87503 0
M  V30 8099 O 738.58 0.863303 -1.59426 0
M  V30 8100 C 738.628 -2.49911 -2.59955 0
M  V30 8101 O 737.732 -2.00857 -3.60181 0
M  V30 8102 H 737.073 -0.512912 -0.421684 0
M  V30 8103 H 739.603 -1.90149 -0.755282 0
M  V30 8104 H 739.613 -2.68323 -3.07354 0
M  V30 8105 H 738.288 -3.4945 -2.25516 0
M  V30 8106 H 736.865 -1.92265 -3.19513 0
M  V30 8107 N 739.05 0.861098 -1.31996 0
M  V30 8108 C 740.28 1.64501 -1.24992 0
M  V30 8109 C 740.688 1.88288 0.185576 0
M  V30 8110 O 740.031 1.44756 1.131 0
M  V30 8111 C 740.093 3.03098 -1.93319 0
M  V30 8112 C 739.757 3.02381 -3.42658 0
M  V30 8113 C 740.754 2.79696 -4.38254 0
M  V30 8114 C 738.439 3.23221 -3.84491 0
M  V30 8115 C 740.433 2.77843 -5.73657 0
M  V30 8116 C 738.12 3.20996 -5.20005 0
M  V30 8117 C 739.118 2.98335 -6.14398 0
M  V30 8118 O 738.806 2.95971 -7.47433 0
M  V30 8119 H 738.538 0.519309 -0.432775 0
M  V30 8120 H 741.092 1.08241 -1.74565 0
M  V30 8121 H 739.322 3.61121 -1.38306 0
M  V30 8122 H 741.011 3.63751 -1.8011 0
M  V30 8123 H 741.777 2.63368 -4.07262 0
M  V30 8124 H 737.656 3.39887 -3.11445 0
M  V30 8125 H 741.2 2.60074 -6.47308 0
M  V30 8126 H 737.097 3.36865 -5.50629 0
M  V30 8127 H 737.865 3.1197 -7.56714 0
M  V30 8128 N 740.528 1.15101 1.07655 0
M  V30 8129 C 741.775 0.923974 1.80191 0
M  V30 8130 C 742.103 -0.549065 1.86589 0
M  V30 8131 O 741.358 -1.42307 1.3434 0
M  V30 8132 C 741.657 1.47954 3.25337 0
M  V30 8133 C 741.323 2.97253 3.39044 0
M  V30 8134 C 739.985 3.38012 3.42493 0
M  V30 8135 C 742.337 3.93219 3.42094 0
M  V30 8136 C 739.665 4.73384 3.4659 0
M  V30 8137 C 742.017 5.28458 3.47728 0
M  V30 8138 C 740.681 5.68717 3.49453 0
M  V30 8139 H 739.951 0.338106 0.659367 0
M  V30 8140 H 742.598 1.43594 1.26701 0
M  V30 8141 H 740.903 0.888691 3.81588 0
M  V30 8142 H 742.6 1.27972 3.80032 0
M  V30 8143 H 739.19 2.64746 3.37057 0
M  V30 8144 H 743.374 3.62805 3.38654 0
M  V30 8145 H 738.63 5.03925 3.46222 0
M  V30 8146 H 742.804 6.02618 3.49034 0
M  V30 8147 H 740.431 6.73596 3.5238 0
M  V30 8148 N 742.006 -1.2595 0.947325 0
M  V30 8149 C 742.938 -2.25336 0.41906 0
M  V30 8150 C 743.951 -1.56135 -0.461051 0
M  V30 8151 O 745.14 -1.76438 -0.270505 0
M  V30 8152 C 742.24 -3.36334 -0.416233 0
M  V30 8153 C 741.413 -4.35088 0.449162 0
M  V30 8154 C 740.472 -5.25185 -0.326716 0
M  V30 8155 O 739.498 -5.68548 0.272374 0
M  V30 8156 N 740.7 -5.57388 -1.6217 0
M  V30 8157 H 743.465 -2.71298 1.27348 0
M  V30 8158 H 741.026 -1.39781 0.81688 0
M  V30 8159 H 743.018 -3.93564 -0.942826 0
M  V30 8160 H 741.588 -2.89819 -1.17148 0
M  V30 8161 H 740.808 -3.76841 1.15692 0
M  V30 8162 H 742.096 -4.98056 1.04008 0
M  V30 8163 H 741.494 -5.2405 -2.13046 0
M  V30 8164 H 740.051 -6.17234 -2.0944 0
M  V30 8165 N 743.484 -0.715051 -1.40445 0
M  V30 8166 C 744.394 -0.0631624 -2.34515 0
M  V30 8167 C 745.41 0.744397 -1.57273 0
M  V30 8168 O 746.586 0.677475 -1.89663 0
M  V30 8169 C 743.651 0.847915 -3.36172 0
M  V30 8170 C 742.712 0.0303655 -4.29289 0
M  V30 8171 C 741.945 0.898051 -5.2609 0
M  V30 8172 O 742.168 2.13729 -5.28844 0
M  V30 8173 O 741.102 0.337328 -6.00954 0
M  V30 8174 H 744.928 -0.839078 -2.91879 0
M  V30 8175 H 742.513 -0.475527 -1.4163 0
M  V30 8176 H 744.395 1.3698 -3.98515 0
M  V30 8177 H 743.07 1.60299 -2.81222 0
M  V30 8178 H 741.977 -0.536573 -3.70232 0
M  V30 8179 H 743.31 -0.686474 -4.87389 0
M  V30 8180 N 744.962 1.50701 -0.461195 0
M  V30 8181 C 745.894 2.26124 0.374244 0
M  V30 8182 C 746.907 1.31064 0.965715 0
M  V30 8183 O 748.096 1.56647 0.855801 0
M  V30 8184 C 745.196 3.01996 1.5379 0
M  V30 8185 C 744.369 4.24336 1.06101 0
M  V30 8186 C 743.428 4.82585 2.09756 0
M  V30 8187 O 742.454 5.43775 1.68219 0
M  V30 8188 N 743.656 4.68712 3.42475 0
M  V30 8189 H 746.421 2.9846 -0.2723 0
M  V30 8190 H 743.982 1.59256 -0.291415 0
M  V30 8191 H 745.974 3.37846 2.22806 0
M  V30 8192 H 744.544 2.32521 2.08933 0
M  V30 8193 H 743.764 3.93707 0.197085 0
M  V30 8194 H 745.052 5.03678 0.720156 0
M  V30 8195 H 744.45 4.20026 3.78938 0
M  V30 8196 H 743.007 5.08858 4.07317 0
M  V30 8197 N 746.441 0.193421 1.56409 0
M  V30 8198 C 747.689 -0.444908 1.97142 0
M  V30 8199 C 748.01 -1.62268 1.08139 0
M  V30 8200 O 747.28 -1.95307 0.152326 0
M  V30 8201 H 745.86 -0.16736 0.728011 0
M  V30 8202 H 748.522 0.279763 1.92882 0
M  V30 8203 H 747.618 -0.790159 3.01932 0
M  V30 8204 N 747.919 -1.57396 -0.0801906 0
M  V30 8205 C 749.149 -1.90778 -0.792924 0
M  V30 8206 C 749.557 -0.786814 -1.72064 0
M  V30 8207 O 748.9 0.249259 -1.82001 0
M  V30 8208 C 748.962 -3.19552 -1.64702 0
M  V30 8209 C 748.626 -4.48259 -0.889567 0
M  V30 8210 C 749.623 -5.19465 -0.212602 0
M  V30 8211 C 747.308 -4.94896 -0.859229 0
M  V30 8212 C 749.302 -6.35555 0.484566 0
M  V30 8213 C 746.989 -6.10895 -0.158284 0
M  V30 8214 C 747.987 -6.81075 0.512421 0
M  V30 8215 O 747.675 -7.94862 1.20209 0
M  V30 8216 H 747.407 -0.63527 -0.231103 0
M  V30 8217 H 749.961 -2.0532 -0.0573081 0
M  V30 8218 H 748.191 -3.01196 -2.42524 0
M  V30 8219 H 749.88 -3.38649 -2.23767 0
M  V30 8220 H 750.646 -4.84467 -0.227403 0
M  V30 8221 H 746.525 -4.4015 -1.37073 0
M  V30 8222 H 750.069 -6.9027 1.00864 0
M  V30 8223 H 745.966 -6.45345 -0.141381 0
M  V30 8224 H 746.734 -8.10932 1.11051 0
M  V30 8225 N 749.397 0.351382 -1.53633 0
M  V30 8226 C 750.643 1.09411 -1.70754 0
M  V30 8227 C 750.976 1.88544 -0.465293 0
M  V30 8228 O 750.251 1.86923 0.537608 0
M  V30 8229 C 750.534 2.04173 -2.96623 0
M  V30 8230 C 750.387 1.28556 -4.31038 0
M  V30 8231 C 751.706 3.04102 -3.18136 0
M  V30 8232 H 748.825 0.396373 -0.621335 0
M  V30 8233 H 751.467 0.373464 -1.86293 0
M  V30 8234 H 749.617 2.65625 -2.83506 0
M  V30 8235 H 751.289 0.697786 -4.55992 0
M  V30 8236 H 749.532 0.587498 -4.29803 0
M  V30 8237 H 750.203 1.97989 -5.15271 0
M  V30 8238 H 752.679 2.5276 -3.30532 0
M  V30 8239 H 751.555 3.67616 -4.07615 0
M  V30 8240 H 751.816 3.75053 -2.34068 0
M  V30 8241 N 750.875 1.45233 0.611969 0
M  V30 8242 C 751.838 1.53189 1.70487 0
M  V30 8243 C 752.838 0.411839 1.55437 0
M  V30 8244 O 754.028 0.675164 1.60584 0
M  V30 8245 C 751.16 1.42422 3.09723 0
M  V30 8246 H 752.353 2.5056 1.64802 0
M  V30 8247 H 749.906 1.32609 0.827318 0
M  V30 8248 H 750.641 0.462185 3.2099 0
M  V30 8249 H 750.426 2.23658 3.22055 0
M  V30 8250 H 751.916 1.51012 3.89339 0
M  V30 8251 N 752.353 -0.854086 1.3245 0
M  V30 8252 C 753.301 -1.98411 1.21391 0
M  V30 8253 C 754.295 -1.68984 0.118586 0
M  V30 8254 O 755.501 -1.77784 0.281549 0
M  V30 8255 H 751.876 -0.651077 0.376301 0
M  V30 8256 H 753.847 -2.04867 2.16961 0
M  V30 8257 C 752.596 -3.34345 0.954407 0
M  V30 8258 H 751.919 -3.57518 1.78944 0
M  V30 8259 H 753.359 -4.13959 0.917269 0
M  V30 8260 C 751.818 -3.35151 -0.342838 0
M  V30 8261 O 752.348 -3.78174 -1.35452 0
M  V30 8262 N 750.554 -2.88298 -0.365012 0
M  V30 8263 H 750.101 -2.53481 0.4588 0
M  V30 8264 H 750.059 -2.8922 -1.23284 0
M  V30 8265 N 753.831 -1.1567 -1.07043 0
M  V30 8266 C 754.778 -0.856336 -2.14326 0
M  V30 8267 C 755.748 0.192051 -1.64986 0
M  V30 8268 O 756.933 0.0589148 -1.90709 0
M  V30 8269 C 754.073 -0.355227 -3.43267 0
M  V30 8270 C 753.186 -1.46555 -4.06381 0
M  V30 8271 C 752.321 -0.920245 -5.23168 0
M  V30 8272 C 751.36 -2.00729 -5.78251 0
M  V30 8273 N 750.497 -1.47813 -6.86364 0
M  V30 8274 H 755.337 -1.77514 -2.39359 0
M  V30 8275 H 752.874 -0.885676 -1.17449 0
M  V30 8276 H 754.832 -0.0463804 -4.17174 0
M  V30 8277 H 753.462 0.526649 -3.18475 0
M  V30 8278 H 752.514 -1.89052 -3.30096 0
M  V30 8279 H 753.826 -2.28616 -4.43324 0
M  V30 8280 H 752.98 -0.564127 -6.04072 0
M  V30 8281 H 751.719 -0.0688477 -4.87651 0
M  V30 8282 H 750.724 -2.3722 -4.95991 0
M  V30 8283 H 751.949 -2.86252 -6.15822 0
M  V30 8284 H 749.895 -0.649145 -6.5278 0
M  V30 8285 H 749.812 -2.23498 -7.22208 0
M  V30 8286 H 751.08 -1.15036 -7.70965 0
M  V30 8287 N 755.309 1.25446 -0.953992 0
M  V30 8288 C 756.539 1.96929 -0.624688 0
M  V30 8289 C 756.947 1.71112 0.807292 0
M  V30 8290 O 756.29 0.983512 1.55154 0
M  V30 8291 C 756.352 3.50425 -0.802676 0
M  V30 8292 C 756.016 3.99916 -2.21169 0
M  V30 8293 C 757.013 4.10662 -3.18831 0
M  V30 8294 C 754.698 4.33598 -2.53571 0
M  V30 8295 C 756.692 4.54401 -4.46988 0
M  V30 8296 C 754.379 4.77024 -3.81958 0
M  V30 8297 C 755.377 4.87388 -4.78478 0
M  V30 8298 O 755.065 5.29851 -6.04577 0
M  V30 8299 H 754.797 0.634511 -0.233179 0
M  V30 8300 H 757.351 1.60591 -1.28061 0
M  V30 8301 H 755.581 3.86596 -0.0896044 0
M  V30 8302 H 757.27 4.03117 -0.47452 0
M  V30 8303 H 758.036 3.84872 -2.95124 0
M  V30 8304 H 753.915 4.24757 -1.79171 0
M  V30 8305 H 757.459 4.62406 -5.22328 0
M  V30 8306 H 753.356 5.02258 -4.05471 0
M  V30 8307 H 754.124 5.48039 -6.07944 0
M  V30 8308 N 756.787 0.722489 1.40064 0
M  V30 8309 C 757.717 0.0892452 2.33329 0
M  V30 8310 C 758.698 -0.737992 1.53257 0
M  V30 8311 O 759.883 -0.685516 1.81698 0
M  V30 8312 C 757.013 -0.828139 3.37282 0
M  V30 8313 C 755.967 -0.106005 4.27869 0
M  V30 8314 C 755.293 -1.13957 5.22415 0
M  V30 8315 C 756.593 1.04395 5.11761 0
M  V30 8316 H 758.287 0.868269 2.86534 0
M  V30 8317 H 755.833 0.418982 1.3777 0
M  V30 8318 H 757.786 -1.28058 4.01471 0
M  V30 8319 H 756.51 -1.63914 2.82489 0
M  V30 8320 H 755.169 0.326683 3.65142 0
M  V30 8321 H 754.817 -1.9438 4.63924 0
M  V30 8322 H 754.517 -0.661233 5.83868 0
M  V30 8323 H 756.041 -1.59197 5.89482 0
M  V30 8324 H 757.455 0.670541 5.69365 0
M  V30 8325 H 755.852 1.4511 5.82291 0
M  V30 8326 H 756.922 1.87144 4.47331 0
M  V30 8327 N 758.265 -1.50454 0.469181 0
M  V30 8328 C 759.542 -1.9504 -0.147955 0
M  V30 8329 C 759.922 -1.40946 -1.57154 0
M  V30 8330 O 759.27 -0.609663 -2.20217 0
M  V30 8331 C 759.48 -3.48875 -0.0932198 0
M  V30 8332 C 760.828 -4.23655 -0.283056 0
M  V30 8333 O 761.852 -3.55795 -0.169892 0
M  V30 8334 O 760.711 -5.44102 -0.511396 0
M  V30 8335 H 757.805 -0.819283 -0.11271 0
M  V30 8336 H 760.351 -1.6123 0.529446 0
M  V30 8337 H 759.123 -3.80791 0.900784 0
M  V30 8338 H 758.746 -3.89217 -0.812161 0
M  V30 8339 N 759.743 -0.201713 -1.56304 0
M  V30 8340 C 760.69 0.716499 -2.19397 0
M  V30 8341 C 761.66 1.20494 -1.14326 0
M  V30 8342 O 762.845 1.26763 -1.42604 0
M  V30 8343 C 759.985 1.92762 -2.86246 0
M  V30 8344 C 759.098 1.47993 -4.0586 0
M  V30 8345 C 758.233 2.64706 -4.60547 0
M  V30 8346 C 757.272 2.16576 -5.72504 0
M  V30 8347 N 756.409 3.26491 -6.21569 0
M  V30 8348 H 761.249 0.171724 -2.97505 0
M  V30 8349 H 758.786 0.073016 -1.46919 0
M  V30 8350 H 760.744 2.6384 -3.23178 0
M  V30 8351 H 759.374 2.44559 -2.10691 0
M  V30 8352 H 758.426 0.66477 -3.74546 0
M  V30 8353 H 759.738 1.08686 -4.86815 0
M  V30 8354 H 758.892 3.43898 -4.99819 0
M  V30 8355 H 757.631 3.0729 -3.78713 0
M  V30 8356 H 756.636 1.3584 -5.32755 0
M  V30 8357 H 757.861 1.75015 -6.56161 0
M  V30 8358 H 755.807 3.68594 -5.42655 0
M  V30 8359 H 755.724 2.91374 -6.97594 0
M  V30 8360 H 756.992 4.05877 -6.65495 0
M  V30 8361 N 761.222 1.57436 0.0718424 0
M  V30 8362 C 762.169 2.03686 1.08539 0
M  V30 8363 C 763.139 0.917474 1.38462 0
M  V30 8364 O 764.324 1.18513 1.4953 0
M  V30 8365 C 761.464 2.48566 2.39393 0
M  V30 8366 C 760.577 3.74122 2.16001 0
M  V30 8367 C 759.712 4.07786 3.40418 0
M  V30 8368 C 758.751 5.26383 3.1239 0
M  V30 8369 N 757.888 5.55685 4.29138 0
M  V30 8370 H 762.728 2.90043 0.684018 0
M  V30 8371 H 760.265 1.43438 0.326183 0
M  V30 8372 H 762.223 2.72639 3.15791 0
M  V30 8373 H 760.853 1.65186 2.77333 0
M  V30 8374 H 759.905 3.57389 1.30296 0
M  V30 8375 H 761.217 4.60659 1.91298 0
M  V30 8376 H 760.371 4.32759 4.25211 0
M  V30 8377 H 759.11 3.19817 3.68197 0
M  V30 8378 H 758.115 5.01206 2.25993 0
M  V30 8379 H 759.34 6.1597 2.85934 0
M  V30 8380 H 757.286 4.70675 4.56948 0
M  V30 8381 H 757.203 6.3664 4.07708 0
M  V30 8382 H 758.471 5.85209 5.14928 0
M  V30 8383 N 762.7 -0.34323 1.53817 0
M  V30 8384 C 764.116 -0.686355 1.44088 0
M  V30 8385 C 764.316 -1.92426 0.597882 0
M  V30 8386 O 763.372 -2.52343 0.0889918 0
M  V30 8387 C 764.685 -0.878698 2.87575 0
M  V30 8388 C 766.233 -0.977296 2.97352 0
M  V30 8389 C 766.708 -1.20195 4.41947 0
M  V30 8390 N 768.199 -1.26915 4.45474 0
M  V30 8391 C 768.934 -1.46049 5.54488 0
M  V30 8392 N 768.43 -1.62354 6.73508 0
M  V30 8393 N 770.223 -1.48599 5.42102 0
M  V30 8394 H 762.374 0.470679 2.07119 0
M  V30 8395 H 764.637 0.148652 0.936273 0
M  V30 8396 H 764.343 -0.040602 3.51677 0
M  V30 8397 H 764.217 -1.78034 3.32541 0
M  V30 8398 H 766.604 -1.80591 2.3339 0
M  V30 8399 H 766.685 -0.0525498 2.55746 0
M  V30 8400 H 766.329 -0.378262 5.06489 0
M  V30 8401 H 766.259 -2.14027 4.81145 0
M  V30 8402 H 768.75 -1.15837 3.59708 0
M  V30 8403 H 769.063 -1.76591 7.52353 0
M  V30 8404 H 767.408 -1.5949 6.76453 0
M  V30 8405 H 770.599 -1.35443 4.48077 0
M  V30 8406 H 770.772 -1.6317 6.2712 0
M  V30 8407 N 764.178 -1.45556 -0.604258 0
M  V30 8408 C 765.427 -1.49019 -1.35928 0
M  V30 8409 C 765.74 -0.137409 -1.95117 0
M  V30 8410 O 766.946 -0.0497032 -2.71455 0
M  V30 8411 C 765.402 -2.62477 -2.46239 0
M  V30 8412 C 765.01 -4.04082 -1.93447 0
M  V30 8413 C 766.754 -2.7519 -3.23219 0
M  V30 8414 C 764.661 -5.08917 -3.0126 0
M  V30 8415 H 763.591 -0.554518 -0.510907 0
M  V30 8416 H 766.242 -1.71705 -0.647262 0
M  V30 8417 H 764.624 -2.3308 -3.2014 0
M  V30 8418 H 765.798 -4.43173 -1.26232 0
M  V30 8419 H 764.113 -3.95849 -1.29201 0
M  V30 8420 H 766.71 -3.50683 -4.0364 0
M  V30 8421 H 767.053 -1.81941 -3.74437 0
M  V30 8422 H 767.586 -3.04129 -2.56418 0
M  V30 8423 H 764.325 -6.03886 -2.54955 0
M  V30 8424 H 763.845 -4.74393 -3.67031 0
M  V30 8425 H 765.524 -5.33814 -3.65584 0
M  V30 8426 N 765.656 0.84705 -1.32902 0
M  V30 8427 C 766.566 1.98845 -1.2449 0
M  V30 8428 C 767.582 1.7329 -0.15702 0
M  V30 8429 O 768.758 1.978 -0.379104 0
M  V30 8430 C 765.823 3.32679 -0.975985 0
M  V30 8431 C 764.884 3.71405 -2.15306 0
M  V30 8432 C 764.117 4.98853 -1.89688 0
M  V30 8433 O 764.34 5.64134 -0.843168 0
M  V30 8434 O 763.274 5.34889 -2.76002 0
M  V30 8435 H 767.1 2.0888 -2.2046 0
M  V30 8436 H 764.685 0.978852 -1.12867 0
M  V30 8437 H 766.567 4.12885 -0.842826 0
M  V30 8438 H 765.242 3.23667 -0.0464954 0
M  V30 8439 H 764.149 2.91743 -2.34172 0
M  V30 8440 H 765.482 3.85073 -3.06561 0
M  V30 8441 N 767.134 1.16236 1.06428 0
M  V30 8442 C 768.097 0.870163 2.1204 0
M  V30 8443 C 769.097 -0.134239 1.60239 0
M  V30 8444 O 770.287 0.0964932 1.73933 0
M  V30 8445 C 767.419 0.301033 3.39568 0
M  V30 8446 H 768.612 1.8064 2.39394 0
M  V30 8447 H 766.165 0.971116 1.2247 0
M  V30 8448 H 766.9 -0.642948 3.17863 0
M  V30 8449 H 766.685 1.02475 3.78472 0
M  V30 8450 H 768.175 0.114494 4.17443 0
M  V30 8451 N 768.612 -1.24939 0.960631 0
M  V30 8452 C 769.861 -1.92118 0.614298 0
M  V30 8453 C 770.174 -1.75998 -0.853474 0
M  V30 8454 O 771.38 -2.37804 -1.31003 0
M  V30 8455 C 769.836 -3.44303 1.04801 0
M  V30 8456 C 769.444 -3.69123 2.53875 0
M  V30 8457 C 771.188 -4.17375 0.774497 0
M  V30 8458 C 769.095 -5.14843 2.91016 0
M  V30 8459 H 768.025 -0.719319 0.226045 0
M  V30 8460 H 770.676 -1.41701 1.16589 0
M  V30 8461 H 769.058 -3.93715 0.42479 0
M  V30 8462 H 770.232 -3.30339 3.21267 0
M  V30 8463 H 768.547 -3.09323 2.78762 0
M  V30 8464 H 771.144 -5.24723 1.02808 0
M  V30 8465 H 771.487 -4.15294 -0.289192 0
M  V30 8466 H 772.02 -3.7389 1.35835 0
M  V30 8467 H 768.759 -5.2204 3.96427 0
M  V30 8468 H 768.279 -5.54652 2.28302 0
M  V30 8469 H 769.958 -5.83017 2.80535 0
M  V30 8470 N 770.09 -0.729906 -1.39679 0
M  V30 8471 C 771.02 -0.101618 -2.33279 0
M  V30 8472 C 772.001 0.729854 -1.53646 0
M  V30 8473 O 773.186 0.67587 -1.82059 0
M  V30 8474 C 770.316 0.81024 -3.37716 0
M  V30 8475 C 769.27 0.0833126 -4.27919 0
M  V30 8476 C 768.596 1.11185 -5.23012 0
M  V30 8477 C 769.896 -1.07107 -5.112 0
M  V30 8478 H 771.59 -0.883452 -2.86069 0
M  V30 8479 H 769.136 -0.426283 -1.37546 0
M  V30 8480 H 771.089 1.25927 -4.02145 0
M  V30 8481 H 769.813 1.62413 -2.83354 0
M  V30 8482 H 768.472 -0.346043 -3.64963 0
M  V30 8483 H 768.12 1.91917 -4.64948 0
M  V30 8484 H 767.82 0.63026 -5.8421 0
M  V30 8485 H 769.344 1.56068 -5.90318 0
M  V30 8486 H 770.758 -0.700726 -5.69002 0
M  V30 8487 H 769.155 -1.48196 -5.81514 0
M  V30 8488 H 770.225 -1.89513 -4.46332 0
M  V30 8489 N 771.568 1.50203 -0.477153 0
M  V30 8490 C 772.979 1.86685 -0.0235041 0
M  V30 8491 C 773.33 1.39148 1.38319 0
M  V30 8492 O 772.455 0.759051 2.02651 0
M  V30 8493 C 773.05 3.38781 -0.0358767 0
M  V30 8494 C 771.609 3.74652 0.362327 0
M  V30 8495 C 770.756 2.7412 -0.41875 0
M  V30 8496 H 773.707 1.4286 -0.691133 0
M  V30 8497 H 773.728 3.72732 0.764924 0
M  V30 8498 H 773.24 3.73349 -1.05981 0
M  V30 8499 H 771.341 3.45686 1.39039 0
M  V30 8500 H 771.454 4.79063 0.059457 0
M  V30 8501 H 769.818 2.54376 0.128341 0
M  V30 8502 H 770.601 3.11532 -1.44231 0
M  V30 8503 N 773.046 0.209999 1.56195 0
M  V30 8504 C 773.993 -0.704854 2.19774 0
M  V30 8505 C 774.963 -1.19886 1.14964 0
M  V30 8506 O 776.148 -1.26005 1.43274 0
M  V30 8507 C 773.288 -1.91241 2.87265 0
M  V30 8508 C 772.401 -1.45838 4.06639 0
M  V30 8509 C 771.536 -2.6226 4.61945 0
M  V30 8510 C 770.575 -2.13537 5.73645 0
M  V30 8511 N 769.712 -3.2319 6.23292 0
M  V30 8512 H 774.552 -0.155944 2.97592 0
M  V30 8513 H 772.089 -0.0652235 1.46955 0
M  V30 8514 H 774.047 -2.62123 3.24573 0
M  V30 8515 H 772.677 -2.43439 2.11985 0
M  V30 8516 H 771.729 -0.644897 3.74894 0
M  V30 8517 H 773.041 -1.06103 4.87384 0
M  V30 8518 H 772.195 -3.41243 5.01636 0
M  V30 8519 H 770.934 -3.05278 3.80338 0
M  V30 8520 H 769.939 -1.33013 5.33468 0
M  V30 8521 H 771.164 -1.71533 6.57079 0
M  V30 8522 H 769.11 -3.65711 5.44602 0
M  V30 8523 H 769.027 -2.8767 6.99129 0
M  V30 8524 H 770.295 -4.02342 6.67639 0
M  V30 8525 N 774.524 -1.57472 -0.0634922 0
M  V30 8526 C 775.77 -1.87932 -0.762194 0
M  V30 8527 C 776.103 -0.803377 -1.76804 0
M  V30 8528 O 775.378 0.185468 -1.93614 0
M  V30 8529 C 775.661 -3.29053 -1.46275 0
M  V30 8530 C 775.514 -4.47309 -0.472755 0
M  V30 8531 C 776.833 -3.68537 -2.40558 0
M  V30 8532 H 773.952 -0.683521 -0.275624 0
M  V30 8533 H 776.594 -1.89983 -0.0252651 0
M  V30 8534 H 774.744 -3.27435 -2.0909 0
M  V30 8535 H 776.416 -4.61053 0.150828 0
M  V30 8536 H 774.659 -4.33286 0.211187 0
M  V30 8537 H 775.33 -5.42853 -1.00072 0
M  V30 8538 H 777.806 -3.71302 -1.87814 0
M  V30 8539 H 776.682 -4.68152 -2.86574 0
M  V30 8540 H 776.943 -2.98917 -3.25731 0
M  V30 8541 N 776.003 0.335068 -1.53997 0
M  V30 8542 C 777.228 1.09859 -1.75914 0
M  V30 8543 C 777.653 1.81308 -0.500915 0
M  V30 8544 O 777.011 1.72854 0.54693 0
M  V30 8545 C 777.059 2.08122 -2.94478 0
M  V30 8546 O 776.163 3.15805 -2.65219 0
M  V30 8547 H 775.504 0.317313 -0.583274 0
M  V30 8548 H 778.034 0.382872 -2.00986 0
M  V30 8549 H 778.044 2.51195 -3.21504 0
M  V30 8550 H 776.719 1.55517 -3.8573 0
M  V30 8551 H 775.296 2.77489 -2.49107 0
M  V30 8552 N 777.481 1.45874 0.596531 0
M  V30 8553 C 778.727 1.5069 1.35722 0
M  V30 8554 C 779.06 0.152506 1.936 0
M  V30 8555 O 778.335 -0.834411 1.75692 0
M  V30 8556 C 778.618 2.59474 2.4969 0
M  V30 8557 C 778.471 4.04396 1.96937 0
M  V30 8558 C 779.79 2.64451 3.51787 0
M  V30 8559 H 776.909 0.548611 0.492133 0
M  V30 8560 H 779.551 1.77741 0.671428 0
M  V30 8561 H 777.701 2.36539 3.08191 0
M  V30 8562 H 779.373 4.38576 1.43 0
M  V30 8563 H 777.616 4.14529 1.27859 0
M  V30 8564 H 778.287 4.76218 2.79143 0
M  V30 8565 H 780.763 2.85031 3.03145 0
M  V30 8566 H 779.639 3.42411 4.29006 0
M  V30 8567 H 779.9 1.69965 4.08123 0
M  V30 8568 N 778.959 -0.83999 1.33349 0
M  V30 8569 C 779.906 -1.94972 1.23509 0
M  V30 8570 C 780.876 -1.65709 0.113967 0
M  V30 8571 O 782.061 -1.88552 0.292045 0
M  V30 8572 C 779.201 -3.30919 0.979105 0
M  V30 8573 C 778.314 -3.72587 2.18639 0
M  V30 8574 C 777.449 -4.97397 1.86465 0
M  V30 8575 C 776.488 -5.31597 3.03432 0
M  V30 8576 N 775.625 -6.47584 2.71254 0
M  V30 8577 H 780.465 -2.0272 2.18423 0
M  V30 8578 H 778.002 -0.992017 1.08616 0
M  V30 8579 H 779.96 -4.09239 0.811126 0
M  V30 8580 H 778.59 -3.22731 0.0667099 0
M  V30 8581 H 777.642 -2.89799 2.46416 0
M  V30 8582 H 778.954 -3.93844 3.06086 0
M  V30 8583 H 778.108 -5.83462 1.66305 0
M  V30 8584 H 776.847 -4.78107 0.96254 0
M  V30 8585 H 775.852 -4.44037 3.24208 0
M  V30 8586 H 777.077 -5.52836 3.94397 0
M  V30 8587 H 775.023 -6.29783 1.836 0
M  V30 8588 H 774.94 -6.68931 3.52231 0
M  V30 8589 H 776.208 -7.36764 2.54558 0
M  V30 8590 N 780.437 -1.16799 -1.0581 0
M  V30 8591 C 781.662 -0.977402 -1.82925 0
M  V30 8592 C 782.087 0.469514 -1.82146 0
M  V30 8593 O 781.445 1.33576 -1.22585 0
M  V30 8594 C 781.493 -1.51543 -3.27211 0
M  V30 8595 O 780.597 -0.725021 -4.05977 0
M  V30 8596 H 779.938 -0.347474 -0.565825 0
M  V30 8597 H 782.468 -1.55151 -1.33376 0
M  V30 8598 H 782.478 -1.53502 -3.78023 0
M  V30 8599 H 781.153 -2.56872 -3.27093 0
M  V30 8600 H 779.73 -0.77634 -3.64729 0
M  V30 8601 N 781.915 1.24427 -0.967243 0
M  V30 8602 C 782.825 2.29109 -0.504592 0
M  V30 8603 C 783.841 1.68495 0.434224 0
M  V30 8604 O 785.017 1.99041 0.307379 0
M  V30 8605 C 782.082 3.46133 0.198273 0
M  V30 8606 C 781.143 4.22149 -0.780313 0
M  V30 8607 C 780.376 5.33585 -0.110896 0
M  V30 8608 O 780.599 5.59676 1.10088 0
M  V30 8609 O 779.533 5.96522 -0.802823 0
M  V30 8610 H 783.359 2.708 -1.37482 0
M  V30 8611 H 780.944 1.30111 -0.73426 0
M  V30 8612 H 782.826 4.17205 0.593124 0
M  V30 8613 H 781.501 3.0642 1.04347 0
M  V30 8614 H 780.408 3.53454 -1.22561 0
M  V30 8615 H 781.741 4.65677 -1.59392 0
M  V30 8616 N 783.393 0.737304 1.3929 0
M  V30 8617 C 784.303 0.100464 2.34385 0
M  V30 8618 C 785.319 -0.719282 1.58437 0
M  V30 8619 O 786.495 -0.647216 1.90717 0
M  V30 8620 C 783.56 -0.794325 3.37478 0
M  V30 8621 C 782.621 0.0379345 4.29283 0
M  V30 8622 C 781.854 -0.814241 5.27452 0
M  V30 8623 O 782.077 -2.05288 5.32177 0
M  V30 8624 O 781.011 -0.241679 6.01415 0
M  V30 8625 H 784.837 0.885407 2.90507 0
M  V30 8626 H 782.422 0.497999 1.40856 0
M  V30 8627 H 784.304 -1.30622 4.00644 0
M  V30 8628 H 782.979 -1.55804 2.83737 0
M  V30 8629 H 781.886 0.595405 3.69331 0
M  V30 8630 H 783.219 0.763926 4.86236 0
M  V30 8631 N 784.871 -1.49948 0.485112 0
M  V30 8632 C 786.096 -2.073 -0.0645059 0
M  V30 8633 C 786.521 -1.345 -1.31497 0
M  V30 8634 O 785.879 -0.39687 -1.76903 0
M  V30 8635 C 785.927 -3.59201 -0.317304 0
M  V30 8636 O 785.031 -3.88085 -1.39514 0
M  V30 8637 H 784.372 -0.663723 0.0191822 0
M  V30 8638 H 786.902 -1.92963 0.680179 0
M  V30 8639 H 786.912 -4.04227 -0.553604 0
M  V30 8640 H 785.587 -4.11602 0.596387 0
M  V30 8641 H 784.164 -3.54885 -1.14504 0
M  V30 8642 N 786.349 -0.21828 -1.56081 0
M  V30 8643 C 787.279 0.687922 -2.23136 0
M  V30 8644 C 788.26 1.20357 -1.202 0
M  V30 8645 O 789.445 1.24817 -1.48776 0
M  V30 8646 C 786.575 1.89762 -2.90874 0
M  V30 8647 C 785.529 1.51595 -4.00254 0
M  V30 8648 C 784.855 2.80415 -4.55271 0
M  V30 8649 C 786.155 0.708404 -5.17474 0
M  V30 8650 H 787.849 0.128854 -2.99123 0
M  V30 8651 H 785.395 0.0605354 -1.43873 0
M  V30 8652 H 787.348 2.53699 -3.36474 0
M  V30 8653 H 786.072 2.4816 -2.1233 0
M  V30 8654 H 784.731 0.900058 -3.55379 0
M  V30 8655 H 784.379 3.36951 -3.73461 0
M  V30 8656 H 784.079 2.55613 -5.2909 0
M  V30 8657 H 785.603 3.453 -5.03587 0
M  V30 8658 H 787.017 1.2514 -5.59476 0
M  V30 8659 H 785.414 0.557593 -5.97504 0
M  V30 8660 H 786.484 -0.285679 -4.84058 0
M  V30 8661 N 787.827 1.57504 0.0551401 0
M  V30 8662 C 789.057 1.92015 0.762472 0
M  V30 8663 C 789.465 0.814088 1.7079 0
M  V30 8664 O 788.808 -0.220273 1.82375 0
M  V30 8665 C 788.87 3.22132 1.59598 0
M  V30 8666 C 788.534 4.49617 0.818141 0
M  V30 8667 C 789.531 5.19738 0.129933 0
M  V30 8668 C 787.216 4.96201 0.780387 0
M  V30 8669 C 789.21 6.34704 -0.585616 0
M  V30 8670 C 786.897 6.11069 0.0610756 0
M  V30 8671 C 787.895 6.80174 -0.62071 0
M  V30 8672 O 787.583 7.92849 -1.3284 0
M  V30 8673 H 787.315 0.638866 0.220967 0
M  V30 8674 H 789.869 2.05385 0.0246362 0
M  V30 8675 H 788.099 3.05016 2.37701 0
M  V30 8676 H 789.788 3.42166 2.18351 0
M  V30 8677 H 790.554 4.84767 0.150299 0
M  V30 8678 H 786.433 4.42275 1.30054 0
M  V30 8679 H 789.977 6.88578 -1.11833 0
M  V30 8680 H 785.874 6.45488 0.0386945 0
M  V30 8681 H 786.642 8.09062 -1.23938 0
M  V30 8682 N 789.305 -0.326896 1.54172 0
M  V30 8683 C 790.268 -1.38515 1.8261 0
M  V30 8684 C 791.268 -1.44872 0.697771 0
M  V30 8685 O 792.458 -1.44957 0.966078 0
M  V30 8686 C 789.59 -2.77281 1.98313 0
M  V30 8687 H 790.783 -1.14556 2.77159 0
M  V30 8688 H 788.336 -0.562199 1.45839 0
M  V30 8689 H 789.071 -3.065 1.05964 0
M  V30 8690 H 788.856 -2.74061 2.80416 0
M  V30 8691 H 790.346 -3.53845 2.21773 0
M  V30 8692 N 790.784 -1.46188 -0.588786 0
M  V30 8693 C 791.747 -1.55882 -1.68029 0
M  V30 8694 C 792.747 -0.436515 -1.54762 0
M  V30 8695 O 793.937 -0.700626 -1.59489 0
M  V30 8696 C 791.069 -1.47332 -3.07418 0
M  V30 8697 H 792.262 -2.5315 -1.60795 0
M  V30 8698 H 789.815 -1.33908 -0.806116 0
M  V30 8699 H 790.55 -0.513193 -3.20214 0
M  V30 8700 H 790.335 -2.28753 -3.18456 0
M  V30 8701 H 791.825 -1.57187 -3.86887 0
M  V30 8702 N 792.262 0.832906 -1.33792 0
M  V30 8703 C 793.508 1.59089 -1.25772 0
M  V30 8704 C 793.841 1.93414 0.174601 0
M  V30 8705 O 793.116 1.59195 1.11746 0
M  V30 8706 C 793.399 2.89699 -2.13885 0
M  V30 8707 C 793.252 2.62017 -3.65605 0
M  V30 8708 C 794.571 3.91182 -2.01654 0
M  V30 8709 H 791.69 0.577232 -0.458227 0
M  V30 8710 H 794.332 0.960227 -1.6395 0
M  V30 8711 H 792.482 3.4352 -1.81456 0
M  V30 8712 H 794.154 2.14582 -4.08353 0
M  V30 8713 H 792.397 1.95621 -3.87189 0
M  V30 8714 H 793.068 3.55112 -4.2261 0
M  V30 8715 H 795.544 3.46684 -2.30107 0
M  V30 8716 H 794.42 4.80391 -2.65548 0
M  V30 8717 H 794.681 4.30861 -0.990536 0
M  V30 8718 N 793.74 1.17359 1.05189 0
M  V30 8719 C 794.988 0.960087 1.77839 0
M  V30 8720 C 795.309 -0.512554 1.88143 0
M  V30 8721 O 794.579 -1.3721 1.39822 0
M  V30 8722 H 793.159 0.352234 0.658741 0
M  V30 8723 H 795.821 1.47834 1.27008 0
M  V30 8724 H 794.917 1.38843 2.79516 0
M  V30 8725 N 795.218 -1.23913 0.973828 0
M  V30 8726 C 796.465 -1.92151 0.639079 0
M  V30 8727 C 796.793 -1.76064 -0.826545 0
M  V30 8728 O 796.048 -1.11126 -1.61088 0
M  V30 8729 C 796.347 -3.4406 0.967356 0
M  V30 8730 C 796.013 -3.80321 2.42212 0
M  V30 8731 C 794.675 -3.8993 2.81971 0
M  V30 8732 C 797.027 -3.97935 3.36596 0
M  V30 8733 C 794.355 -4.14575 4.15144 0
M  V30 8734 C 796.707 -4.24079 4.69404 0
M  V30 8735 C 795.371 -4.31908 5.08932 0
M  V30 8736 H 794.641 -0.70313 0.233856 0
M  V30 8737 H 797.288 -1.47072 1.22646 0
M  V30 8738 H 795.593 -3.90667 0.297807 0
M  V30 8739 H 797.29 -3.95077 0.686654 0
M  V30 8740 H 793.88 -3.73411 2.10385 0
M  V30 8741 H 798.064 -3.89908 3.07059 0
M  V30 8742 H 793.32 -4.18858 4.45385 0
M  V30 8743 H 797.494 -4.36652 5.42502 0
M  V30 8744 H 795.121 -4.50758 6.12145 0
M  V30 8745 N 796.696 -0.74468 -1.38897 0
M  V30 8746 C 797.944 -0.296298 -1.99916 0
M  V30 8747 C 798.265 1.12325 -1.59399 0
M  V30 8748 O 797.535 1.76658 -0.846689 0
M  V30 8749 H 796.115 -0.106561 -0.73936 0
M  V30 8750 H 798.777 -0.956793 -1.69798 0
M  V30 8751 H 797.873 -0.352356 -3.10105 0
M  V30 8752 N 798.174 1.49689 -0.493057 0
M  V30 8753 C 799.451 1.9525 0.116907 0
M  V30 8754 C 799.831 1.43429 1.54892 0
M  V30 8755 O 799.179 0.644621 2.19219 0
M  V30 8756 C 799.389 3.4898 0.037705 0
M  V30 8757 C 800.737 4.24052 0.215621 0
M  V30 8758 O 801.761 3.5602 0.113266 0
M  V30 8759 O 800.62 5.44847 0.42477 0
M  V30 8760 H 797.714 0.820973 0.099662 0
M  V30 8761 H 800.26 1.60367 -0.555029 0
M  V30 8762 H 799.032 3.79309 -0.961251 0
M  V30 8763 H 798.655 3.9046 0.750137 0
M  V30 8764 N 799.652 0.226554 1.55963 0
M  V30 8765 C 800.901 -0.40417 1.97609 0
M  V30 8766 C 801.214 -1.60541 1.1174 0
M  V30 8767 O 802.42 -2.30598 1.43307 0
M  V30 8768 C 800.876 -0.770466 3.51556 0
M  V30 8769 C 800.484 0.408244 4.46136 0
M  V30 8770 C 802.228 -1.36651 4.01904 0
M  V30 8771 C 800.135 0.0192347 5.91397 0
M  V30 8772 H 799.065 -0.15478 0.737943 0
M  V30 8773 H 801.716 0.323558 1.80625 0
M  V30 8774 H 800.098 -1.55575 3.6416 0
M  V30 8775 H 801.272 1.18575 4.45283 0
M  V30 8776 H 799.587 0.917859 4.06158 0
M  V30 8777 H 802.184 -1.67055 5.07934 0
M  V30 8778 H 802.527 -2.28403 3.48049 0
M  V30 8779 H 803.06 -0.644556 3.92543 0
M  V30 8780 H 799.799 0.90336 6.49245 0
M  V30 8781 H 799.319 -0.722485 5.95433 0
M  V30 8782 H 800.998 -0.405711 6.45727 0
M  V30 8783 N 801.13 -1.57531 -0.0467866 0
M  V30 8784 C 802.355 -1.93087 -0.757123 0
M  V30 8785 C 802.78 -0.825116 -1.69037 0
M  V30 8786 O 802.138 0.220449 -1.79955 0
M  V30 8787 C 802.186 -3.27669 -1.5055 0
M  V30 8788 O 801.29 -3.18667 -2.61773 0
M  V30 8789 H 800.631 -0.631597 -0.204892 0
M  V30 8790 H 803.161 -2.04599 -0.00755232 0
M  V30 8791 H 803.171 -3.6214 -1.87932 0
M  V30 8792 H 801.846 -4.07717 -0.820931 0
M  V30 8793 H 800.423 -2.95798 -2.27064 0
M  V30 8794 N 802.608 0.318715 -1.54344 0
M  V30 8795 C 804.019 0.89285 -1.63967 0
M  V30 8796 C 804.37 1.88712 -0.536855 0
M  V30 8797 O 803.495 2.13877 0.329457 0
M  V30 8798 C 804.09 1.62618 -2.97222 0
M  V30 8799 C 802.649 2.14897 -3.09025 0
M  V30 8800 C 801.796 0.975909 -2.5956 0
M  V30 8801 H 804.747 0.0961687 -1.58408 0
M  V30 8802 H 804.768 2.4907 -2.87653 0
M  V30 8803 H 804.28 0.902286 -3.77466 0
M  V30 8804 H 802.381 2.90387 -2.33465 0
M  V30 8805 H 802.494 2.39565 -4.14904 0
M  V30 8806 H 800.858 1.35646 -2.15574 0
M  V30 8807 H 801.641 0.266253 -3.42266 0
M  V30 8808 N 804.086 1.46499 0.581025 0
M  V30 8809 C 805.332 1.52121 1.34116 0
M  V30 8810 C 805.665 0.173031 1.93428 0
M  V30 8811 O 804.94 -0.815729 1.76568 0
M  V30 8812 C 805.223 2.62108 2.46924 0
M  V30 8813 C 805.076 4.06462 1.92636 0
M  V30 8814 C 806.395 2.68167 3.48962 0
M  V30 8815 H 803.514 0.5538 0.486287 0
M  V30 8816 H 806.156 1.78443 0.652538 0
M  V30 8817 H 804.306 2.39794 3.05665 0
M  V30 8818 H 805.978 4.40068 1.3834 0
M  V30 8819 H 804.221 4.15862 1.23455 0
M  V30 8820 H 804.892 4.79152 2.74076 0
M  V30 8821 H 807.368 2.8823 3.00104 0
M  V30 8822 H 806.244 3.46942 4.2535 0
M  V30 8823 H 806.505 1.74284 4.06297 0
M  V30 8824 N 805.565 -0.825799 1.34232 0
M  V30 8825 C 806.79 -1.61883 1.29648 0
M  V30 8826 C 807.215 -1.87669 -0.127295 0
M  V30 8827 O 806.573 -1.45016 -1.08813 0
M  V30 8828 C 806.621 -2.93846 2.09014 0
M  V30 8829 O 805.725 -3.85778 1.4577 0
M  V30 8830 H 805.066 -0.492454 0.445405 0
M  V30 8831 H 807.596 -1.02641 1.76992 0
M  V30 8832 H 807.606 -3.43435 2.20264 0
M  V30 8833 H 806.281 -2.74401 3.12533 0
M  V30 8834 H 804.858 -3.4429 1.43245 0
M  V30 8835 N 807.043 -1.17915 -1.04565 0
M  V30 8836 C 808.289 -0.972863 -1.77942 0
M  V30 8837 C 808.622 0.496753 -1.87739 0
M  V30 8838 O 807.897 1.3688 -1.38181 0
M  V30 8839 C 808.18 -1.62227 -3.21488 0
M  V30 8840 C 808.033 -3.16441 -3.19664 0
M  V30 8841 C 809.352 -1.33137 -4.19479 0
M  V30 8842 H 806.471 -0.354843 -0.645953 0
M  V30 8843 H 809.113 -1.45508 -1.22178 0
M  V30 8844 H 807.263 -1.21224 -3.69103 0
M  V30 8845 H 808.935 -3.66544 -2.80077 0
M  V30 8846 H 807.178 -3.48863 -2.57832 0
M  V30 8847 H 807.849 -3.57012 -4.21006 0
M  V30 8848 H 810.325 -1.68654 -3.80388 0
M  V30 8849 H 809.201 -1.81151 -5.18146 0
M  V30 8850 H 809.462 -0.253319 -4.41374 0
M  V30 8851 N 808.521 1.23394 -0.980386 0
M  V30 8852 C 809.768 1.91809 -0.649261 0
M  V30 8853 C 810.096 1.765 0.817197 0
M  V30 8854 O 809.351 1.11979 1.60497 0
M  V30 8855 C 809.65 3.43542 -0.985588 0
M  V30 8856 C 809.316 3.79031 -2.44225 0
M  V30 8857 C 807.978 3.88429 -2.84035 0
M  V30 8858 C 810.33 3.96145 -3.38702 0
M  V30 8859 C 807.658 4.12368 -4.17336 0
M  V30 8860 C 810.01 4.21583 -4.71646 0
M  V30 8861 C 808.674 4.29203 -5.11215 0
M  V30 8862 H 807.944 0.70188 -0.237581 0
M  V30 8863 H 810.591 1.4642 -1.23424 0
M  V30 8864 H 808.896 3.90503 -0.318521 0
M  V30 8865 H 810.593 3.94708 -0.707596 0
M  V30 8866 H 807.183 3.7229 -2.12362 0
M  V30 8867 H 811.367 3.88274 -3.09123 0
M  V30 8868 H 806.623 4.1649 -4.47601 0
M  V30 8869 H 810.797 4.33769 -5.4481 0
M  V30 8870 H 808.424 4.47505 -6.14527 0
M  V30 8871 N 809.999 0.752036 1.385 0
M  V30 8872 C 810.947 0.112634 2.32327 0
M  V30 8873 C 811.941 -0.707037 1.53939 0
M  V30 8874 O 813.147 -0.606309 1.69481 0
M  V30 8875 H 809.522 0.0176275 0.751793 0
M  V30 8876 H 811.493 0.920074 2.83861 0
M  V30 8877 C 810.242 -0.767458 3.39124 0
M  V30 8878 H 809.565 -0.146122 3.99533 0
M  V30 8879 H 811.005 -1.18216 4.07187 0
M  V30 8880 C 809.464 -1.90938 2.77568 0
M  V30 8881 O 809.994 -3.00342 2.66754 0
M  V30 8882 N 808.2 -1.70396 2.35401 0
M  V30 8883 H 807.747 -0.81413 2.44397 0
M  V30 8884 H 807.705 -2.46972 1.94557 0
M  V30 8885 N 811.477 -1.49425 0.500989 0
M  V30 8886 C 812.424 -2.29126 -0.277443 0
M  V30 8887 C 813.394 -1.35522 -0.960363 0
M  V30 8888 O 814.579 -1.64479 -0.967027 0
M  V30 8889 C 811.719 -3.18193 -1.33593 0
M  V30 8890 C 810.832 -4.26854 -0.664791 0
M  V30 8891 C 809.967 -5.03137 -1.70372 0
M  V30 8892 C 809.006 -6.03635 -1.01445 0
M  V30 8893 N 808.143 -6.73083 -1.99758 0
M  V30 8894 H 812.983 -2.95187 0.408458 0
M  V30 8895 H 810.52 -1.45546 0.213275 0
M  V30 8896 H 812.478 -3.68207 -1.96161 0
M  V30 8897 H 811.108 -2.54116 -1.9906 0
M  V30 8898 H 810.16 -3.80328 0.0741708 0
M  V30 8899 H 811.472 -4.9865 -0.122197 0
M  V30 8900 H 810.626 -5.5702 -2.40445 0
M  V30 8901 H 809.365 -4.31114 -2.28017 0
M  V30 8902 H 808.37 -5.48984 -0.299496 0
M  V30 8903 H 809.595 -6.77644 -0.444497 0
M  V30 8904 H 807.541 -6.03832 -2.56365 0
M  V30 8905 H 807.458 -7.40855 -1.50565 0
M  V30 8906 H 808.726 -7.3157 -2.69119 0
M  V30 8907 N 812.955 -0.234822 -1.55841 0
M  V30 8908 C 813.885 0.664217 -2.23854 0
M  V30 8909 C 814.866 1.19076 -1.2147 0
M  V30 8910 O 816.051 1.23232 -1.50091 0
M  V30 8911 C 813.181 1.86666 -2.9287 0
M  V30 8912 C 812.135 1.47341 -4.01839 0
M  V30 8913 C 811.461 2.75571 -4.58219 0
M  V30 8914 C 812.761 0.653479 -5.18196 0
M  V30 8915 H 814.455 0.0971213 -2.99242 0
M  V30 8916 H 812.001 0.0452724 -1.43929 0
M  V30 8917 H 813.954 2.50116 -3.39146 0
M  V30 8918 H 812.678 2.45894 -2.1495 0
M  V30 8919 H 811.337 0.862314 -3.56314 0
M  V30 8920 H 810.985 3.32971 -3.77014 0
M  V30 8921 H 810.685 2.49987 -5.31771 0
M  V30 8922 H 812.209 3.39939 -5.07221 0
M  V30 8923 H 813.623 1.19198 -5.60771 0
M  V30 8924 H 812.02 0.494188 -5.98062 0
M  V30 8925 H 813.09 -0.337004 -4.83728 0
M  V30 8926 N 814.433 1.57553 0.0384317 0
M  V30 8927 C 815.661 1.93093 0.743141 0
M  V30 8928 C 816.076 0.833787 1.69391 0
M  V30 8929 O 815.433 -0.190532 1.81503 0
M  V30 8930 C 815.484 3.28533 1.50826 0
M  V30 8931 O 815.205 4.34032 0.595665 0
M  V30 8932 C 816.706 3.78297 2.31098 0
M  V30 8933 H 813.926 0.637486 0.20941 0
M  V30 8934 H 816.47 2.045 -0.00125154 0
M  V30 8935 H 814.625 3.18552 2.20462 0
M  V30 8936 H 815.039 5.12155 1.13124 0
M  V30 8937 H 816.513 4.75602 2.80191 0
M  V30 8938 H 816.99 3.09008 3.12107 0
M  V30 8939 H 817.596 3.91331 1.66555 0
M  V30 8940 N 815.911 -0.310526 1.54511 0
M  V30 8941 C 816.821 -1.4054 1.87844 0
M  V30 8942 C 817.837 -1.55954 0.771635 0
M  V30 8943 O 819.013 -1.70801 1.06719 0
M  V30 8944 C 816.078 -2.75063 2.11048 0
M  V30 8945 C 815.139 -2.68715 3.348 0
M  V30 8946 C 814.372 -3.96821 3.56887 0
M  V30 8947 O 814.595 -4.95721 2.82165 0
M  V30 8948 O 813.529 -3.99291 4.50389 0
M  V30 8949 H 817.355 -1.15275 2.80972 0
M  V30 8950 H 814.94 -0.505732 1.4058 0
M  V30 8951 H 816.822 -3.54671 2.27566 0
M  V30 8952 H 815.497 -3.00191 1.21108 0
M  V30 8953 H 814.404 -1.87611 3.23655 0
M  V30 8954 H 815.737 -2.4854 4.2484 0
M  V30 8955 N 817.389 -1.46805 -0.573248 0
M  V30 8956 C 818.336 -1.58084 -1.68161 0
M  V30 8957 C 819.306 -0.424636 -1.6058 0
M  V30 8958 O 820.491 -0.642623 -1.79652 0
M  V30 8959 C 817.631 -1.58601 -3.06496 0
M  V30 8960 C 816.744 -2.85023 -3.24632 0
M  V30 8961 C 815.879 -2.76981 -4.53271 0
M  V30 8962 C 814.918 -3.983 -4.64783 0
M  V30 8963 N 814.055 -3.88589 -5.84759 0
M  V30 8964 H 818.895 -2.52755 -1.57858 0
M  V30 8965 H 816.432 -1.25385 -0.769218 0
M  V30 8966 H 818.39 -1.56885 -3.86579 0
M  V30 8967 H 817.02 -0.674553 -3.15673 0
M  V30 8968 H 816.072 -2.96678 -2.38089 0
M  V30 8969 H 817.384 -3.7491 -3.29004 0
M  V30 8970 H 816.538 -2.73424 -5.41594 0
M  V30 8971 H 815.277 -1.84751 -4.51352 0
M  V30 8972 H 814.282 -4.02179 -3.74876 0
M  V30 8973 H 815.507 -4.91639 -4.68474 0
M  V30 8974 H 813.453 -2.99151 -5.83819 0
M  V30 8975 H 813.37 -4.7214 -5.90441 0
M  V30 8976 H 814.638 -3.89022 -6.75486 0
M  V30 8977 N 818.867 0.818669 -1.34668 0
M  V30 8978 C 819.777 1.9616 -1.2868 0
M  V30 8979 C 820.793 1.72918 -0.193742 0
M  V30 8980 O 821.969 1.96951 -0.420975 0
M  V30 8981 C 819.034 3.30534 -1.04633 0
M  V30 8982 C 818.095 3.66755 -2.23136 0
M  V30 8983 C 817.328 4.94717 -2.00227 0
M  V30 8984 O 817.551 5.62218 -0.96264 0
M  V30 8985 O 816.485 5.28915 -2.87286 0
M  V30 8986 H 820.311 2.04157 -2.24842 0
M  V30 8987 H 817.896 0.954691 -1.14917 0
M  V30 8988 H 819.778 4.11005 -0.930216 0
M  V30 8989 H 818.453 3.23495 -0.115139 0
M  V30 8990 H 817.36 2.8671 -2.40308 0
M  V30 8991 H 818.693 3.78484 -3.1466 0
M  V30 8992 N 820.346 1.18468 1.03938 0
M  V30 8993 C 821.762 0.934635 1.29371 0
M  V30 8994 C 821.962 -0.399067 1.97509 0
M  V30 8995 O 821.018 -1.13309 2.25648 0
M  V30 8996 C 822.331 2.10111 2.15114 0
M  V30 8997 C 823.879 2.13955 2.28456 0
M  V30 8998 C 824.354 3.30024 3.17566 0
M  V30 8999 N 825.845 3.29893 3.25153 0
M  V30 9000 C 826.58 4.16346 3.94263 0
M  V30 9001 N 826.076 5.12934 4.65693 0
M  V30 9002 N 827.869 4.04256 3.90556 0
M  V30 9003 H 820.02 2.04294 0.581185 0
M  V30 9004 H 822.283 0.892727 0.318971 0
M  V30 9005 H 821.989 3.06572 1.72355 0
M  V30 9006 H 821.863 2.06283 3.15796 0
M  V30 9007 H 824.25 1.18072 2.7045 0
M  V30 9008 H 824.331 2.2184 1.2736 0
M  V30 9009 H 823.975 4.26181 2.76283 0
M  V30 9010 H 823.905 3.19376 4.18697 0
M  V30 9011 H 826.396 2.59969 2.74271 0
M  V30 9012 H 826.709 5.75271 5.16026 0
M  V30 9013 H 825.054 5.16893 4.64593 0
M  V30 9014 H 828.245 3.28083 3.33885 0
M  V30 9015 H 828.418 4.71848 4.44144 0
M  V30 9016 N 821.824 -1.22873 0.986916 0
M  V30 9017 C 823.24 -1.43594 0.696633 0
M  V30 9018 C 823.44 -1.87622 -0.734869 0
M  V30 9019 O 822.496 -2.02633 -1.50652 0
M  V30 9020 C 823.809 -2.48231 1.69711 0
M  V30 9021 C 825.357 -2.62037 1.71188 0
M  V30 9022 C 825.832 -3.6989 2.70084 0
M  V30 9023 N 827.323 -3.77341 2.68641 0
M  V30 9024 C 828.058 -4.6037 3.41829 0
M  V30 9025 N 827.554 -5.47438 4.24598 0
M  V30 9026 N 829.347 -4.54626 3.30563 0
M  V30 9027 H 821.498 -0.925982 1.91153 0
M  V30 9028 H 823.761 -0.46866 0.824052 0
M  V30 9029 H 823.467 -2.22812 2.72117 0
M  V30 9030 H 823.341 -3.46731 1.48516 0
M  V30 9031 H 825.728 -2.86803 0.694837 0
M  V30 9032 H 825.809 -1.63831 1.96451 0
M  V30 9033 H 825.453 -3.45872 3.71934 0
M  V30 9034 H 825.383 -4.67652 2.42093 0
M  V30 9035 H 827.874 -3.15124 2.08578 0
M  V30 9036 H 828.187 -6.078 4.77283 0
M  V30 9037 H 826.532 -5.4704 4.28687 0
M  V30 9038 H 829.723 -3.85627 2.65347 0
M  V30 9039 H 829.896 -5.19103 3.8786 0
M  V30 9040 N 823.302 -0.75937 -1.38099 0
M  V30 9041 C 824.212 -0.13774 -2.34195 0
M  V30 9042 C 825.228 0.693985 -1.59561 0
M  V30 9043 O 826.404 0.616792 -1.91723 0
M  V30 9044 C 823.469 0.740535 -3.38699 0
M  V30 9045 C 822.53 -0.106225 -4.29169 0
M  V30 9046 C 821.763 0.730225 -5.28681 0
M  V30 9047 O 821.986 1.96796 -5.35376 0
M  V30 9048 O 820.92 0.145969 -6.01723 0
M  V30 9049 H 824.746 -0.931512 -2.89061 0
M  V30 9050 H 822.331 -0.520345 -1.40046 0
M  V30 9051 H 824.213 1.24232 -4.02672 0
M  V30 9052 H 822.888 1.51271 -2.8618 0
M  V30 9053 H 821.795 -0.654088 -3.68337 0
M  V30 9054 H 823.128 -0.841186 -4.84959 0
M  V30 9055 N 824.78 1.49157 -0.508906 0
M  V30 9056 C 825.69 2.33045 0.269656 0
M  V30 9057 C 826.706 1.45143 0.959662 0
M  V30 9058 O 827.882 1.78155 0.939295 0
M  V30 9059 C 824.947 3.20772 1.31554 0
M  V30 9060 C 824.008 4.24531 0.638131 0
M  V30 9061 C 823.241 5.08065 1.63418 0
M  V30 9062 O 823.464 4.93238 2.86483 0
M  V30 9063 O 822.398 5.90117 1.18516 0
M  V30 9064 H 826.224 3.00821 -0.417183 0
M  V30 9065 H 823.809 1.46938 -0.270119 0
M  V30 9066 H 825.691 3.75095 1.92047 0
M  V30 9067 H 824.366 2.55681 1.98516 0
M  V30 9068 H 823.273 3.74099 -0.00674357 0
M  V30 9069 H 824.606 4.92199 0.0108155 0
M  V30 9070 N 826.258 0.243083 1.55714 0
M  V30 9071 C 827.168 -0.668913 2.24862 0
M  V30 9072 C 828.184 -1.19638 1.26344 0
M  V30 9073 O 829.36 -1.23345 1.5921 0
M  V30 9074 C 826.425 -1.85084 2.93163 0
M  V30 9075 C 825.486 -1.36323 4.07081 0
M  V30 9076 C 824.719 -2.48882 4.72116 0
M  V30 9077 O 824.942 -3.67523 4.36214 0
M  V30 9078 O 823.876 -2.18857 5.60701 0
M  V30 9079 H 827.702 -0.109737 3.03502 0
M  V30 9080 H 825.287 0.0117411 1.49395 0
M  V30 9081 H 827.169 -2.54065 3.36197 0
M  V30 9082 H 825.844 -2.39771 2.17466 0
M  V30 9083 H 824.751 -0.640804 3.68571 0
M  V30 9084 H 826.084 -0.86249 4.84584 0
M  V30 9085 N 827.736 -1.57571 -0.0300757 0
M  V30 9086 C 829.152 -1.54869 -0.385703 0
M  V30 9087 C 829.352 -0.969068 -1.76667 0
M  V30 9088 O 828.408 -0.589676 -2.45518 0
M  V30 9089 C 829.721 -2.99313 -0.288482 0
M  V30 9090 C 831.269 -3.10857 -0.365638 0
M  V30 9091 C 831.744 -4.5703 -0.297878 0
M  V30 9092 N 833.235 -4.61825 -0.356703 0
M  V30 9093 C 833.97 -5.72466 -0.327146 0
M  V30 9094 N 833.466 -6.92349 -0.249941 0
M  V30 9095 N 835.259 -5.60836 -0.376801 0
M  V30 9096 H 827.41 -1.936 0.87367 0
M  V30 9097 H 829.673 -0.887924 0.332106 0
M  V30 9098 H 829.379 -3.45443 0.66047 0
M  V30 9099 H 829.253 -3.61332 -1.08253 0
M  V30 9100 H 831.64 -2.64676 -1.30502 0
M  V30 9101 H 831.721 -2.51671 0.457744 0
M  V30 9102 H 831.365 -5.03879 0.637835 0
M  V30 9103 H 831.295 -5.14127 -1.13935 0
M  V30 9104 H 833.786 -3.75571 -0.418926 0
M  V30 9105 H 834.099 -7.7245 -0.23246 0
M  V30 9106 H 832.444 -6.94664 -0.216004 0
M  V30 9107 H 835.635 -4.66073 -0.435101 0
M  V30 9108 H 835.808 -6.47052 -0.350298 0
M  V30 9109 N 829.214 0.302327 -1.54673 0
M  V30 9110 C 830.177 1.35592 -1.8479 0
M  V30 9111 C 831.177 1.43743 -0.72073 0
M  V30 9112 O 832.367 1.43402 -0.989017 0
M  V30 9113 C 829.499 2.74091 -2.02699 0
M  V30 9114 H 830.692 1.10132 -2.78946 0
M  V30 9115 H 828.245 0.538926 -1.46715 0
M  V30 9116 H 828.98 3.04775 -1.10826 0
M  V30 9117 H 828.765 2.69565 -2.8474 0
M  V30 9118 H 830.255 3.50272 -2.27374 0
M  V30 9119 N 830.692 1.47107 0.565454 0
M  V30 9120 C 831.639 1.58974 1.6732 0
M  V30 9121 C 832.609 0.433146 1.60353 0
M  V30 9122 O 833.794 0.652141 1.79309 0
M  V30 9123 C 830.934 1.60224 3.05651 0
M  V30 9124 C 830.047 2.86741 3.23116 0
M  V30 9125 C 829.182 2.79381 4.51796 0
M  V30 9126 C 828.221 4.0076 4.62664 0
M  V30 9127 N 827.358 3.91685 5.8269 0
M  V30 9128 H 832.198 2.53588 1.56515 0
M  V30 9129 H 829.735 1.25791 0.762558 0
M  V30 9130 H 831.693 1.58933 3.85741 0
M  V30 9131 H 830.323 0.691285 3.15311 0
M  V30 9132 H 829.375 2.97936 2.36513 0
M  V30 9133 H 830.687 3.7665 3.27011 0
M  V30 9134 H 829.841 2.76293 5.40136 0
M  V30 9135 H 828.58 1.87142 4.50366 0
M  V30 9136 H 827.585 4.04162 3.72738 0
M  V30 9137 H 828.81 4.94117 4.6586 0
M  V30 9138 H 826.756 3.02243 5.82224 0
M  V30 9139 H 826.673 4.75264 5.87929 0
M  V30 9140 H 827.941 3.92599 6.73414 0
M  V30 9141 N 832.17 -0.811516 1.35101 0
M  V30 9142 C 833.133 -1.90467 1.27495 0
M  V30 9143 C 834.133 -1.59703 0.187516 0
M  V30 9144 O 835.323 -1.68528 0.440896 0
M  V30 9145 C 832.455 -3.26774 0.971154 0
M  V30 9146 H 833.648 -1.98631 2.2469 0
M  V30 9147 H 831.201 -1.00681 1.19553 0
M  V30 9148 H 831.936 -3.243 0.0028557 0
M  V30 9149 H 831.721 -3.50488 1.75785 0
M  V30 9150 H 833.211 -4.06804 0.943414 0
M  V30 9151 N 833.648 -1.19017 -1.03309 0
M  V30 9152 C 834.595 -0.924088 -2.11493 0
M  V30 9153 C 835.565 0.139464 -1.65513 0
M  V30 9154 O 836.75 -0.00178761 -1.908 0
M  V30 9155 C 833.89 -0.464255 -3.41963 0
M  V30 9156 C 833.003 -1.5941 -4.01513 0
M  V30 9157 C 832.138 -1.08622 -5.19976 0
M  V30 9158 C 831.177 -2.19024 -5.71572 0
M  V30 9159 N 830.314 -1.69575 -6.81314 0
M  V30 9160 H 835.154 -1.85039 -2.33591 0
M  V30 9161 H 832.691 -0.922593 -1.14572 0
M  V30 9162 H 834.649 -0.179078 -4.16815 0
M  V30 9163 H 833.279 0.425062 -3.19989 0
M  V30 9164 H 832.331 -1.99458 -3.23915 0
M  V30 9165 H 833.643 -2.42604 -4.35826 0
M  V30 9166 H 832.797 -0.756022 -6.01971 0
M  V30 9167 H 831.536 -0.223955 -4.87186 0
M  V30 9168 H 830.541 -2.5288 -4.88193 0
M  V30 9169 H 831.766 -3.05699 -6.06403 0
M  V30 9170 H 829.712 -0.856494 -6.50385 0
M  V30 9171 H 829.629 -2.46361 -7.14732 0
M  V30 9172 H 830.897 -1.39505 -7.66915 0
M  V30 9173 N 835.127 1.22348 -0.993418 0
M  V30 9174 C 836.09 2.22522 -0.549251 0
M  V30 9175 C 837.09 1.56529 0.368164 0
M  V30 9176 O 838.28 1.73463 0.16005 0
M  V30 9177 C 835.412 3.40307 0.201037 0
M  V30 9178 H 836.605 2.63332 -1.43515 0
M  V30 9179 H 834.158 1.35407 -0.78068 0
M  V30 9180 H 834.893 3.0497 1.10289 0
M  V30 9181 H 834.678 3.8942 -0.457685 0
M  V30 9182 H 836.168 4.14597 0.499946 0
M  V30 9183 N 836.605 0.766683 1.37694 0
M  V30 9184 C 837.515 0.150158 2.34119 0
M  V30 9185 C 838.531 -0.685513 1.59927 0
M  V30 9186 O 839.707 -0.606616 1.92047 0
M  V30 9187 C 836.772 -0.722562 3.39087 0
M  V30 9188 C 835.833 0.128983 4.29106 0
M  V30 9189 C 835.066 -0.702178 5.29061 0
M  V30 9190 O 835.289 -1.93954 5.36412 0
M  V30 9191 O 834.223 -0.114056 6.01792 0
M  V30 9192 H 838.049 0.946829 2.88563 0
M  V30 9193 H 835.634 0.527765 1.39768 0
M  V30 9194 H 837.516 -1.22095 4.03325 0
M  V30 9195 H 836.191 -1.49751 2.86978 0
M  V30 9196 H 835.098 0.673612 3.67985 0
M  V30 9197 H 836.431 0.866892 4.84506 0
M  V30 9198 N 838.083 -1.48885 0.516809 0
M  V30 9199 C 839.046 -2.27916 -0.242256 0
M  V30 9200 C 840.046 -1.34601 -0.879735 0
M  V30 9201 O 841.236 -1.57616 -0.74182 0
M  V30 9202 C 838.368 -3.13067 -1.34914 0
M  V30 9203 H 839.561 -2.96483 0.451444 0
M  V30 9204 H 837.114 -1.5391 0.272294 0
M  V30 9205 H 837.849 -2.49102 -2.07651 0
M  V30 9206 H 837.634 -3.81695 -0.897313 0
M  V30 9207 H 839.124 -3.72716 -1.88341 0
M  V30 9208 N 839.561 -0.251338 -1.55583 0
M  V30 9209 C 840.471 0.656978 -2.25213 0
M  V30 9210 C 841.487 1.18966 -1.26977 0
M  V30 9211 O 842.663 1.22499 -1.59862 0
M  V30 9212 C 839.728 1.83527 -2.94141 0
M  V30 9213 C 838.789 1.34162 -4.07798 0
M  V30 9214 C 838.022 2.46375 -4.73429 0
M  V30 9215 O 838.245 3.65205 -4.38157 0
M  V30 9216 O 837.179 2.15881 -5.61853 0
M  V30 9217 H 841.005 0.0936395 -3.03556 0
M  V30 9218 H 838.59 -0.0196638 -1.49387 0
M  V30 9219 H 840.472 2.52279 -3.3754 0
M  V30 9220 H 839.147 2.38614 -2.18735 0
M  V30 9221 H 838.054 0.621249 -3.68906 0
M  V30 9222 H 839.387 0.836779 -4.85035 0
M  V30 9223 N 841.039 1.57585 0.0217189 0
M  V30 9224 C 841.949 2.10444 1.03684 0
M  V30 9225 C 842.965 1.04472 1.39146 0
M  V30 9226 O 844.141 1.36249 1.48317 0
M  V30 9227 C 841.206 2.5794 2.31664 0
M  V30 9228 C 840.267 3.78425 2.02714 0
M  V30 9229 C 839.5 4.23646 3.24592 0
M  V30 9230 O 839.723 3.6834 4.35525 0
M  V30 9231 O 838.657 5.16013 3.09862 0
M  V30 9232 H 842.483 2.97354 0.617584 0
M  V30 9233 H 840.068 1.47473 0.239174 0
M  V30 9234 H 841.95 2.88785 3.06889 0
M  V30 9235 H 840.625 1.74138 2.7287 0
M  V30 9236 H 839.532 3.52587 1.25033 0
M  V30 9237 H 840.865 4.63234 1.66359 0
M  V30 9238 N 842.517 -0.29412 1.54831 0
M  V30 9239 C 843.447 -1.36757 1.89261 0
M  V30 9240 C 844.428 -1.52564 0.752214 0
M  V30 9241 O 845.613 -1.65958 1.00855 0
M  V30 9242 C 842.743 -2.73066 2.14597 0
M  V30 9243 C 841.697 -2.72017 3.3044 0
M  V30 9244 C 841.023 -4.11679 3.4121 0
M  V30 9245 C 842.323 -2.33149 4.67375 0
M  V30 9246 H 844.017 -1.08191 2.79169 0
M  V30 9247 H 841.563 -0.519014 1.34321 0
M  V30 9248 H 843.516 -3.48255 2.37269 0
M  V30 9249 H 842.24 -3.03172 1.21467 0
M  V30 9250 H 840.899 -1.99285 3.07703 0
M  V30 9251 H 840.547 -4.38973 2.45584 0
M  V30 9252 H 840.247 -4.11877 4.19084 0
M  V30 9253 H 841.771 -4.88637 3.6615 0
M  V30 9254 H 843.185 -2.98054 4.89731 0
M  V30 9255 H 841.582 -2.44546 5.48012 0
M  V30 9256 H 842.652 -1.28275 4.67626 0
M  V30 9257 N 843.995 -1.47404 -0.557645 0
M  V30 9258 C 845.241 -1.54235 -1.31679 0
M  V30 9259 C 845.574 -0.203782 -1.93128 0
M  V30 9260 O 844.849 0.787536 -1.77843 0
M  V30 9261 C 845.132 -2.66003 -2.42723 0
M  V30 9262 C 844.985 -4.09475 -1.86145 0
M  V30 9263 C 846.304 -2.73685 -3.44652 0
M  V30 9264 H 843.423 -0.561466 -0.477415 0
M  V30 9265 H 846.065 -1.79459 -0.624067 0
M  V30 9266 H 844.215 -2.44627 -3.01811 0
M  V30 9267 H 845.887 -4.42213 -1.31321 0
M  V30 9268 H 844.13 -4.17774 -1.16823 0
M  V30 9269 H 844.801 -4.83451 -2.66418 0
M  V30 9270 H 847.277 -2.92968 -2.95481 0
M  V30 9271 H 846.153 -3.53665 -4.19777 0
M  V30 9272 H 846.414 -1.80726 -4.03473 0
M  V30 9273 N 845.473 0.80434 -1.35529 0
M  V30 9274 C 846.421 1.93769 -1.28671 0
M  V30 9275 C 847.415 1.68428 -0.181222 0
M  V30 9276 O 848.621 1.76617 -0.347338 0
M  V30 9277 H 844.996 0.636663 -0.400206 0
M  V30 9278 H 846.967 1.96673 -2.24415 0
M  V30 9279 C 845.716 3.30572 -1.07784 0
M  V30 9280 H 845.039 3.5063 -1.9209 0
M  V30 9281 H 846.479 4.1027 -1.07027 0
M  V30 9282 C 844.938 3.36193 0.218213 0
M  V30 9283 O 845.468 3.82941 1.21323 0
M  V30 9284 N 843.674 2.89455 0.257761 0
M  V30 9285 H 843.221 2.51604 -0.552562 0
M  V30 9286 H 843.179 2.93597 1.12465 0
M  V30 9287 N 846.951 1.19563 1.02676 0
M  V30 9288 C 848.199 0.997593 1.75763 0
M  V30 9289 C 848.52 -0.47253 1.89188 0
M  V30 9290 O 847.79 -1.34214 1.42701 0
M  V30 9291 H 846.37 0.366128 0.651122 0
M  V30 9292 H 849.032 1.50495 1.23844 0
M  V30 9293 H 848.128 1.44741 2.76508 0
M  V30 9294 N 848.429 -1.21819 0.999893 0
M  V30 9295 C 849.677 -1.90375 0.678351 0
M  V30 9296 C 849.998 -1.78155 -0.792824 0
M  V30 9297 O 849.268 -1.17319 -1.56885 0
M  V30 9298 H 847.848 -0.704661 0.247915 0
M  V30 9299 H 850.51 -1.48021 1.2679 0
M  V30 9300 H 849.606 -2.97385 0.947023 0
M  V30 9301 N 849.908 -0.773975 -1.37286 0
M  V30 9302 C 850.818 -0.162571 -2.34036 0
M  V30 9303 C 851.834 0.677022 -1.60289 0
M  V30 9304 O 853.01 0.596423 -1.92366 0
M  V30 9305 C 850.075 0.70457 -3.39465 0
M  V30 9306 C 849.136 -0.151738 -4.29032 0
M  V30 9307 C 848.369 0.674111 -5.29426 0
M  V30 9308 O 848.592 1.91107 -5.37433 0
M  V30 9309 O 847.526 0.0821398 -6.01844 0
M  V30 9310 H 851.352 -0.962119 -2.88057 0
M  V30 9311 H 848.937 -0.53517 -1.39486 0
M  V30 9312 H 850.819 1.19954 -4.03967 0
M  V30 9313 H 849.494 1.48227 -2.87768 0
M  V30 9314 H 848.401 -0.693118 -3.67623 0
M  V30 9315 H 849.734 -0.892575 -4.84039 0
M  V30 9316 N 851.386 1.48609 -0.524698 0
M  V30 9317 C 852.635 2.01696 0.0132937 0
M  V30 9318 C 852.948 1.40751 1.35825 0
M  V30 9319 O 854.154 1.85304 1.9843 0
M  V30 9320 C 852.61 3.59824 0.0741012 0
M  V30 9321 C 852.218 4.2975 -1.26564 0
M  V30 9322 C 853.962 4.20774 0.5612 0
M  V30 9323 C 851.869 5.79798 -1.16571 0
M  V30 9324 H 850.799 0.753949 0.00873931 0
M  V30 9325 H 853.45 1.70922 -0.667684 0
M  V30 9326 H 851.832 3.87416 0.820043 0
M  V30 9327 H 853.006 4.13836 -2.02674 0
M  V30 9328 H 851.321 3.80649 -1.68806 0
M  V30 9329 H 853.918 5.30687 0.653853 0
M  V30 9330 H 854.261 3.85734 1.56573 0
M  V30 9331 H 854.794 3.97591 -0.128901 0
M  V30 9332 H 851.533 6.19403 -2.14523 0
M  V30 9333 H 851.053 5.9814 -0.445894 0
M  V30 9334 H 852.732 6.41337 -0.854186 0
M  V30 9335 N 852.864 0.259585 1.55447 0
M  V30 9336 C 853.811 -0.634578 2.21905 0
M  V30 9337 C 854.781 -1.16168 1.18719 0
M  V30 9338 O 855.966 -1.21383 1.4721 0
M  V30 9339 C 853.106 -1.82005 2.93203 0
M  V30 9340 C 852.219 -1.32828 4.11073 0
M  V30 9341 C 851.354 -2.47431 4.70055 0
M  V30 9342 C 850.393 -1.95179 5.80148 0
M  V30 9343 N 849.53 -3.03197 6.33258 0
M  V30 9344 H 854.37 -0.0611886 2.97937 0
M  V30 9345 H 851.907 -0.0184378 1.47088 0
M  V30 9346 H 853.865 -2.51664 3.32748 0
M  V30 9347 H 852.495 -2.36571 2.19622 0
M  V30 9348 H 851.547 -0.525301 3.76756 0
M  V30 9349 H 852.859 -0.905435 4.90513 0
M  V30 9350 H 852.013 -3.25111 5.12238 0
M  V30 9351 H 850.752 -2.93023 3.89857 0
M  V30 9352 H 849.757 -1.15974 5.37429 0
M  V30 9353 H 850.982 -1.50541 6.62204 0
M  V30 9354 H 848.928 -3.48199 5.55961 0
M  V30 9355 H 848.845 -2.65282 7.07928 0
M  V30 9356 H 850.113 -3.80898 6.80101 0
M  V30 9357 N 854.342 -1.57594 -0.0133615 0
M  V30 9358 C 855.292 -2.04048 -1.01726 0
M  V30 9359 C 856.276 -0.932682 -1.3111 0
M  V30 9360 O 857.468 -1.19652 -1.30432 0
M  V30 9361 C 854.597 -2.53637 -2.31351 0
M  V30 9362 C 853.683 -3.71269 -2.04989 0
M  V30 9363 N 854.074 -4.83436 -1.48739 0
M  V30 9364 C 852.372 -3.78943 -2.35198 0
M  V30 9365 C 853.073 -5.64961 -1.38542 0
M  V30 9366 N 852.049 -5.10554 -1.86643 0
M  V30 9367 H 855.851 -2.88188 -0.576623 0
M  V30 9368 H 853.365 -1.60912 -0.219344 0
M  V30 9369 H 855.362 -2.85186 -3.04096 0
M  V30 9370 H 854.022 -1.7091 -2.76079 0
M  V30 9371 H 855.033 -5.04558 -1.16798 0
M  V30 9372 H 851.71 -3.07047 -2.82893 0
M  V30 9373 H 853.1 -6.65092 -0.954075 0
M  V30 9374 N 855.82 0.285905 -1.54985 0
M  V30 9375 C 856.73 1.37534 -1.90057 0
M  V30 9376 C 857.746 1.54707 -0.796348 0
M  V30 9377 O 858.922 1.69082 -1.09423 0
M  V30 9378 C 855.987 2.7167 -2.15398 0
M  V30 9379 C 855.048 2.63354 -3.39033 0
M  V30 9380 C 854.281 3.91093 -3.63155 0
M  V30 9381 O 854.504 4.91169 -2.90015 0
M  V30 9382 O 853.438 3.92075 -4.56685 0
M  V30 9383 H 857.264 1.10791 -2.8277 0
M  V30 9384 H 854.849 0.483303 -1.41367 0
M  V30 9385 H 856.731 3.51006 -2.33179 0
M  V30 9386 H 855.406 2.98226 -1.25868 0
M  V30 9387 H 854.313 1.82438 -3.26599 0
M  V30 9388 H 855.646 2.41749 -4.2874 0
M  V30 9389 N 857.298 1.47698 0.54982 0
M  V30 9390 C 858.246 1.61156 1.67724 0
M  V30 9391 C 859.24 0.478606 1.62498 0
M  V30 9392 O 860.446 0.656661 1.67595 0
M  V30 9393 H 856.821 0.507304 0.55511 0
M  V30 9394 H 858.792 2.55884 1.53512 0
M  V30 9395 C 857.541 1.64994 3.06059 0
M  V30 9396 H 856.864 2.51525 3.10765 0
M  V30 9397 H 858.304 1.78459 3.84615 0
M  V30 9398 C 856.763 0.384677 3.34697 0
M  V30 9399 O 857.293 -0.511057 3.98436 0
M  V30 9400 N 855.499 0.262434 2.89413 0
M  V30 9401 H 855.046 0.99229 2.37721 0
M  V30 9402 H 855.004 -0.583177 3.08944 0
M  V30 9403 N 858.776 -0.797141 1.35954 0
M  V30 9404 C 859.723 -1.90944 1.2965 0
M  V30 9405 C 860.693 -1.65262 0.166628 0
M  V30 9406 O 861.878 -1.87527 0.351883 0
M  V30 9407 C 859.018 -3.27637 1.08389 0
M  V30 9408 C 858.131 -3.65442 2.30382 0
M  V30 9409 C 857.266 -4.91213 2.02195 0
M  V30 9410 C 856.305 -5.21674 3.20191 0
M  V30 9411 N 855.442 -6.38627 2.91719 0
M  V30 9412 H 860.282 -1.95668 2.24762 0
M  V30 9413 H 857.819 -0.95696 1.11717 0
M  V30 9414 H 859.777 -4.06451 0.940912 0
M  V30 9415 H 858.407 -3.22355 0.169351 0
M  V30 9416 H 857.459 -2.81813 2.55511 0
M  V30 9417 H 858.771 -3.83907 3.18461 0
M  V30 9418 H 857.925 -5.77876 1.84783 0
M  V30 9419 H 856.664 -4.74803 1.11416 0
M  V30 9420 H 855.669 -4.33498 3.38171 0
M  V30 9421 H 856.894 -5.40009 4.11786 0
M  V30 9422 H 854.84 -6.23623 2.03543 0
M  V30 9423 H 854.757 -6.57387 3.73334 0
M  V30 9424 H 856.025 -7.28292 2.77868 0
M  V30 9425 N 860.254 -1.20106 -1.0204 0
M  V30 9426 C 861.531 -0.918029 -1.72718 0
M  V30 9427 C 861.911 0.574163 -2.03142 0
M  V30 9428 O 861.259 1.53476 -1.69285 0
M  V30 9429 C 861.469 -1.78698 -2.9978 0
M  V30 9430 C 862.817 -2.02648 -3.7312 0
M  V30 9431 O 863.841 -1.75919 -3.09727 0
M  V30 9432 O 862.7 -2.47767 -4.87107 0
M  V30 9433 H 859.794 -0.342904 -0.752559 0
M  V30 9434 H 862.34 -1.30961 -1.07923 0
M  V30 9435 H 861.112 -2.79757 -2.7359 0
M  V30 9436 H 860.735 -1.39522 -3.72316 0
M  V30 9437 N 861.732 1.21287 -1.00634 0
M  V30 9438 C 862.978 1.90671 -0.690822 0
M  V30 9439 C 863.311 1.77996 0.776592 0
M  V30 9440 O 862.586 1.15748 1.5631 0
M  V30 9441 C 862.869 3.42426 -1.11428 0
M  V30 9442 C 862.722 3.64086 -2.64124 0
M  V30 9443 C 864.041 4.34851 -0.677686 0
M  V30 9444 H 861.16 0.692419 -0.252439 0
M  V30 9445 H 863.802 1.42893 -1.25226 0
M  V30 9446 H 861.952 3.83249 -0.636586 0
M  V30 9447 H 863.624 3.32582 -3.19667 0
M  V30 9448 H 861.867 3.07906 -3.05576 0
M  V30 9449 H 862.538 4.7042 -2.88806 0
M  V30 9450 H 865.014 4.01619 -1.0882 0
M  V30 9451 H 863.89 5.39675 -1.00213 0
M  V30 9452 H 864.151 4.4009 0.421125 0
M  V30 9453 N 863.21 0.781244 1.36873 0
M  V30 9454 C 864.14 0.188128 2.32741 0
M  V30 9455 C 865.121 -0.672326 1.56249 0
M  V30 9456 O 866.306 -0.607835 1.84442 0
M  V30 9457 C 863.436 -0.684341 3.40491 0
M  V30 9458 C 862.39 0.0755641 4.27933 0
M  V30 9459 C 861.716 -0.916968 5.26779 0
M  V30 9460 C 863.016 1.26006 5.06873 0
M  V30 9461 H 864.71 0.989016 2.82593 0
M  V30 9462 H 862.256 0.477038 1.35869 0
M  V30 9463 H 864.209 -1.10915 4.06541 0
M  V30 9464 H 862.933 -1.51785 2.89187 0
M  V30 9465 H 861.592 0.481258 3.63427 0
M  V30 9466 H 861.24 -1.74528 4.71751 0
M  V30 9467 H 860.94 -0.413 5.86147 0
M  V30 9468 H 862.464 -1.34052 5.95703 0
M  V30 9469 H 863.878 0.911425 5.66009 0
M  V30 9470 H 862.275 1.69676 5.75613 0
M  V30 9471 H 863.345 2.05948 4.38991 0
M  V30 9472 N 864.689 -1.48329 0.532571 0
M  V30 9473 C 865.636 -2.29663 -0.228779 0
M  V30 9474 C 866.606 -1.37529 -0.931401 0
M  V30 9475 O 867.791 -1.66493 -0.931921 0
M  V30 9476 C 864.931 -3.20955 -1.26814 0
M  V30 9477 C 864.044 -4.28168 -0.574099 0
M  V30 9478 C 863.179 -5.06638 -1.59661 0
M  V30 9479 C 862.218 -6.05651 -0.88618 0
M  V30 9480 N 861.355 -6.77169 -1.85436 0
M  V30 9481 H 866.195 -2.94255 0.47098 0
M  V30 9482 H 863.732 -1.45061 0.2441 0
M  V30 9483 H 865.69 -3.72285 -1.88307 0
M  V30 9484 H 864.32 -2.58281 -1.93625 0
M  V30 9485 H 863.372 -3.80085 0.154827 0
M  V30 9486 H 864.684 -4.98797 -0.0163984 0
M  V30 9487 H 863.838 -5.61995 -2.28576 0
M  V30 9488 H 862.577 -4.35854 -2.18821 0
M  V30 9489 H 861.582 -5.49495 -0.182981 0
M  V30 9490 H 862.807 -6.78434 -0.300659 0
M  V30 9491 H 860.753 -6.09134 -2.43499 0
M  V30 9492 H 860.67 -7.43882 -1.34816 0
M  V30 9493 H 861.938 -7.37114 -2.53541 0
M  V30 9494 N 866.167 -0.267825 -1.55308 0
M  V30 9495 C 867.413 0.351556 -1.9973 0
M  V30 9496 C 867.746 1.56049 -1.15596 0
M  V30 9497 O 867.021 1.93203 -0.224274 0
M  V30 9498 C 867.304 0.74091 -3.52395 0
M  V30 9499 C 867.157 -0.474861 -4.47286 0
M  V30 9500 C 868.476 1.5801 -4.10756 0
M  V30 9501 H 865.595 0.126308 -0.726096 0
M  V30 9502 H 868.237 -0.373316 -1.86296 0
M  V30 9503 H 866.387 1.35851 -3.63973 0
M  V30 9504 H 868.059 -1.1134 -4.47662 0
M  V30 9505 H 866.302 -1.11425 -4.19246 0
M  V30 9506 H 866.973 -0.158782 -5.51772 0
M  V30 9507 H 869.449 1.05857 -4.0241 0
M  V30 9508 H 868.325 1.82135 -5.17801 0
M  V30 9509 H 868.586 2.55878 -3.60526 0
M  V30 9510 N 867.645 1.57599 0.00500368 0
M  V30 9511 C 869.061 1.55463 0.361015 0
M  V30 9512 C 869.261 0.997051 1.75103 0
M  V30 9513 O 868.317 0.628661 2.44549 0
M  V30 9514 C 869.63 2.99734 0.240828 0
M  V30 9515 C 871.178 3.11399 0.316138 0
M  V30 9516 C 871.653 4.57446 0.22513 0
M  V30 9517 N 873.144 4.62334 0.283186 0
M  V30 9518 C 873.879 5.72914 0.23603 0
M  V30 9519 N 873.375 6.92659 0.139762 0
M  V30 9520 N 875.168 5.61364 0.287529 0
M  V30 9521 H 867.319 1.92185 -0.904359 0
M  V30 9522 H 869.582 0.882529 -0.34619 0
M  V30 9523 H 869.288 3.44348 -0.715343 0
M  V30 9524 H 869.162 3.63009 1.02491 0
M  V30 9525 H 871.549 2.66718 1.26275 0
M  V30 9526 H 871.63 2.50911 -0.497725 0
M  V30 9527 H 871.274 5.02801 -0.717917 0
M  V30 9528 H 871.204 5.15874 1.05742 0
M  V30 9529 H 873.695 3.7619 0.359123 0
M  V30 9530 H 874.008 7.72722 0.10954 0
M  V30 9531 H 872.353 6.9492 0.105462 0
M  V30 9532 H 875.544 4.66707 0.360897 0
M  V30 9533 H 875.717 6.47528 0.247313 0
M  V30 9534 N 869.123 -0.277682 1.55134 0
M  V30 9535 C 870.348 -1.03254 1.7987 0
M  V30 9536 C 870.773 -1.79324 0.567861 0
M  V30 9537 O 870.131 -1.74764 -0.4824 0
M  V30 9538 C 870.179 -1.9705 3.02 0
M  V30 9539 O 869.283 -3.05744 2.76757 0
M  V30 9540 H 868.624 -0.295447 0.594649 0
M  V30 9541 H 871.154 -0.308013 2.02268 0
M  V30 9542 H 871.164 -2.3909 3.30606 0
M  V30 9543 H 869.839 -1.41094 3.91236 0
M  V30 9544 H 868.416 -2.68052 2.59235 0
M  V30 9545 N 870.601 -1.47988 -0.541979 0
M  V30 9546 C 871.511 -1.64276 -1.67483 0
M  V30 9547 C 872.527 -0.525387 -1.65879 0
M  V30 9548 O 873.703 -0.794912 -1.85049 0
M  V30 9549 C 870.768 -1.66744 -3.03969 0
M  V30 9550 C 869.829 -2.90021 -3.16522 0
M  V30 9551 C 869.062 -2.92362 -4.46498 0
M  V30 9552 O 869.285 -2.03462 -5.32878 0
M  V30 9553 O 868.219 -3.84399 -4.63164 0
M  V30 9554 H 872.045 -2.60164 -1.5668 0
M  V30 9555 H 869.63 -1.31249 -0.71372 0
M  V30 9556 H 871.512 -1.70958 -3.85164 0
M  V30 9557 H 870.187 -0.740277 -3.15122 0
M  V30 9558 H 869.094 -2.91345 -2.34667 0
M  V30 9559 H 870.427 -3.82082 -3.10281 0
M  V30 9560 N 872.079 0.78992 -1.36375 0
M  V30 9561 C 873.027 1.92394 -1.30719 0
M  V30 9562 C 874.021 1.68226 -0.199076 0
M  V30 9563 O 875.227 1.76239 -0.366051 0
M  V30 9564 H 871.602 0.632382 -0.406936 0
M  V30 9565 H 873.573 1.94282 -2.26488 0
M  V30 9566 C 872.322 3.2941 -1.11284 0
M  V30 9567 H 871.645 3.48573 -1.95798 0
M  V30 9568 H 873.085 4.09111 -1.11373 0
M  V30 9569 C 871.544 3.36405 0.182543 0
M  V30 9570 O 872.074 3.84206 1.17255 0
M  V30 9571 N 870.28 2.89712 0.227046 0
M  V30 9572 H 869.827 2.51004 -0.579217 0
M  V30 9573 H 869.785 2.94773 1.09344 0
M  V30 9574 N 873.557 1.20646 1.01402 0
M  V30 9575 C 874.805 1.01618 1.74695 0
M  V30 9576 C 875.126 -0.452438 1.89679 0
M  V30 9577 O 874.396 -1.32693 1.44116 0
M  V30 9578 H 872.976 0.373013 0.647202 0
M  V30 9579 H 875.638 1.518 1.22241 0
M  V30 9580 H 874.734 1.47666 2.74957 0
M  V30 9581 N 875.035 -1.20752 1.01276 0
M  V30 9582 C 876.281 -1.90302 0.700924 0
M  V30 9583 C 876.614 -1.78406 -0.767142 0
M  V30 9584 O 875.889 -1.16575 -1.55694 0
M  V30 9585 C 876.172 -3.41831 1.13242 0
M  V30 9586 C 876.025 -3.6268 2.66051 0
M  V30 9587 C 877.344 -4.34486 0.700738 0
M  V30 9588 H 874.463 -0.69107 0.256107 0
M  V30 9589 H 877.105 -1.42227 1.25982 0
M  V30 9590 H 875.255 -3.82906 0.656902 0
M  V30 9591 H 876.927 -3.30882 3.21426 0
M  V30 9592 H 875.17 -3.06281 3.07204 0
M  V30 9593 H 875.841 -4.68882 2.91296 0
M  V30 9594 H 878.317 -4.01036 1.10948 0
M  V30 9595 H 877.193 -5.39136 1.03073 0
M  V30 9596 H 877.454 -4.40307 -0.39778 0
M  V30 9597 N 876.513 -0.788492 -1.36457 0
M  V30 9598 C 877.762 -0.357052 -1.98515 0
M  V30 9599 C 878.075 1.0769 -1.63285 0
M  V30 9600 O 879.281 1.61057 -2.1857 0
M  V30 9601 C 877.737 -0.587449 -3.55073 0
M  V30 9602 C 877.345 -2.03276 -3.99228 0
M  V30 9603 C 879.089 -0.220468 -4.23927 0
M  V30 9604 C 876.996 -2.20987 -5.48561 0
M  V30 9605 H 875.926 -0.129762 -0.74275 0
M  V30 9606 H 878.577 -0.969995 -1.55767 0
M  V30 9607 H 876.959 0.0951918 -3.95886 0
M  V30 9608 H 878.133 -2.75173 -3.69617 0
M  V30 9609 H 876.448 -2.3579 -3.43208 0
M  V30 9610 H 879.045 -0.331085 -5.33674 0
M  V30 9611 H 879.388 0.831306 -4.07915 0
M  V30 9612 H 879.921 -0.856309 -3.88474 0
M  V30 9613 H 876.66 -3.24543 -5.69519 0
M  V30 9614 H 876.18 -1.53594 -5.79801 0
M  V30 9615 H 877.859 -2.01656 -6.14771 0
M  V30 9616 N 877.991 1.48044 -0.54043 0
M  V30 9617 C 879.24 2.01698 -0.00809961 0
M  V30 9618 C 879.553 1.42184 1.34325 0
M  V30 9619 O 880.759 1.87398 1.96454 0
M  V30 9620 C 879.215 3.59882 0.035933 0
M  V30 9621 C 878.823 4.28384 -1.31115 0
M  V30 9622 C 880.567 4.21346 0.51654 0
M  V30 9623 C 878.474 5.78529 -1.22714 0
M  V30 9624 H 877.404 0.754 0.000742174 0
M  V30 9625 H 880.055 1.70204 -0.685775 0
M  V30 9626 H 878.437 3.88264 0.778906 0
M  V30 9627 H 879.611 4.11663 -2.07051 0
M  V30 9628 H 877.926 3.78837 -1.72834 0
M  V30 9629 H 880.523 5.31351 0.597529 0
M  V30 9630 H 880.866 3.87373 1.52473 0
M  V30 9631 H 881.399 3.97432 -0.171064 0
M  V30 9632 H 878.138 6.17093 -2.21081 0
M  V30 9633 H 877.658 5.97634 -0.50931 0
M  V30 9634 H 879.337 6.40395 -0.92216 0
M  V30 9635 N 879.47 0.276058 1.55163 0
M  V30 9636 C 880.402 -0.644254 2.19959 0
M  V30 9637 C 881.415 -1.11675 1.18459 0
M  V30 9638 O 882.604 -1.0385 1.45181 0
M  V30 9639 C 879.704 -1.89093 2.81242 0
M  V30 9640 C 878.877 -1.56509 4.08441 0
M  V30 9641 C 877.936 -2.66433 4.53762 0
M  V30 9642 O 876.962 -2.32579 5.19515 0
M  V30 9643 N 878.164 -3.96509 4.23982 0
M  V30 9644 H 880.929 -0.0896808 2.99566 0
M  V30 9645 H 878.49 0.0971981 1.61608 0
M  V30 9646 H 880.482 -2.61929 3.08505 0
M  V30 9647 H 879.052 -2.35453 2.05622 0
M  V30 9648 H 878.272 -0.670522 3.88455 0
M  V30 9649 H 879.56 -1.32242 4.91314 0
M  V30 9650 H 878.958 -4.26834 3.71254 0
M  V30 9651 H 877.515 -4.6572 4.56014 0
M  V30 9652 N 880.948 -1.576 0.00335426 0
M  V30 9653 C 882.196 -1.90336 -0.679446 0
M  V30 9654 C 882.517 -0.877777 -1.74127 0
M  V30 9655 O 881.787 0.0843585 -1.95718 0
M  V30 9656 H 880.367 -0.702509 -0.253948 0
M  V30 9657 H 883.029 -1.94848 0.0450731 0
M  V30 9658 H 882.125 -2.90197 -1.14857 0
M  V30 9659 N 882.426 0.269451 -1.5528 0
M  V30 9660 C 883.389 1.31642 -1.87625 0
M  V30 9661 C 884.389 1.42182 -0.751058 0
M  V30 9662 O 885.579 1.41272 -1.01921 0
M  V30 9663 C 882.711 2.6973 -2.08467 0
M  V30 9664 H 883.904 1.0419 -2.81219 0
M  V30 9665 H 881.457 0.507685 -1.47825 0
M  V30 9666 H 882.192 3.02356 -1.17266 0
M  V30 9667 H 881.977 2.63465 -2.90394 0
M  V30 9668 H 883.467 3.4537 -2.34753 0
M  V30 9669 N 883.904 1.48273 0.534124 0
M  V30 9670 C 885.129 1.59988 1.31979 0
M  V30 9671 C 885.554 0.258824 1.86311 0
M  V30 9672 O 884.912 -0.768885 1.64188 0
M  V30 9673 C 884.96 2.64642 2.44943 0
M  V30 9674 O 884.064 2.21515 3.47858 0
M  V30 9675 H 883.405 0.536625 0.391063 0
M  V30 9676 H 885.935 1.94229 0.643135 0
M  V30 9677 H 885.945 2.85786 2.91187 0
M  V30 9678 H 884.62 3.62004 2.04758 0
M  V30 9679 H 883.197 2.10567 3.0776 0
M  V30 9680 N 885.382 -0.782676 1.36792 0
M  V30 9681 C 886.63 -1.53778 1.31136 0
M  V30 9682 C 886.951 -1.94706 -0.107014 0
M  V30 9683 O 886.221 -1.65465 -1.04872 0
M  V30 9684 H 884.801 -0.570328 0.482426 0
M  V30 9685 H 887.463 -0.932181 1.71162 0
M  V30 9686 H 886.559 -2.44224 1.94321 0
M  V30 9687 N 886.86 -1.21182 -1.00761 0
M  V30 9688 C 887.79 -0.992773 -2.11344 0
M  V30 9689 C 888.771 0.0813618 -1.69905 0
M  V30 9690 O 889.956 -0.0779503 -1.94043 0
M  V30 9691 C 887.086 -0.553826 -3.42856 0
M  V30 9692 C 886.04 -1.57223 -3.98077 0
M  V30 9693 C 885.366 -0.989605 -5.25463 0
M  V30 9694 C 886.666 -2.95839 -4.30438 0
M  V30 9695 H 888.36 -1.91766 -2.29927 0
M  V30 9696 H 885.906 -0.923426 -1.10494 0
M  V30 9697 H 887.859 -0.387771 -4.19612 0
M  V30 9698 H 886.583 0.406702 -3.24058 0
M  V30 9699 H 885.242 -1.7258 -3.23437 0
M  V30 9700 H 884.89 -0.0208743 -5.02996 0
M  V30 9701 H 884.59 -1.66984 -5.63374 0
M  V30 9702 H 886.114 -0.834815 -6.04866 0
M  V30 9703 H 887.528 -2.8394 -4.98047 0
M  V30 9704 H 885.925 -3.60851 -4.79486 0
M  V30 9705 H 886.995 -3.46882 -3.38823 0
M  V30 9706 N 888.338 1.20213 -1.01915 0
M  V30 9707 C 889.268 2.25336 -0.612023 0
M  V30 9708 C 890.249 1.65933 0.374186 0
M  V30 9709 O 891.434 1.92464 0.259053 0
M  V30 9710 C 888.564 3.47267 0.047904 0
M  V30 9711 C 887.518 4.1928 -0.859557 0
M  V30 9712 C 886.844 5.3466 -0.0652655 0
M  V30 9713 C 888.144 4.75143 -2.1688 0
M  V30 9714 H 889.838 2.59645 -1.49079 0
M  V30 9715 H 887.384 1.24808 -0.718263 0
M  V30 9716 H 889.337 4.19991 0.344294 0
M  V30 9717 H 888.061 3.12129 0.961404 0
M  V30 9718 H 886.72 3.48425 -1.13999 0
M  V30 9719 H 886.368 4.95767 0.849964 0
M  V30 9720 H 886.068 5.83772 -0.669618 0
M  V30 9721 H 887.592 6.10187 0.224612 0
M  V30 9722 H 889.006 5.39672 -1.9346 0
M  V30 9723 H 887.403 5.34702 -2.72422 0
M  V30 9724 H 888.473 3.93744 -2.83008 0
M  V30 9725 N 889.816 0.795718 1.36037 0
M  V30 9726 C 890.749 0.144269 2.27744 0
M  V30 9727 C 891.727 -0.683351 1.47543 0
M  V30 9728 O 892.911 -0.652976 1.76829 0
M  V30 9729 C 890.038 -0.800944 3.29094 0
M  V30 9730 C 889.084 -0.0543234 4.26465 0
M  V30 9731 S 889.917 1.27426 5.20118 0
M  V30 9732 C 891.073 0.333213 6.25012 0
M  V30 9733 H 891.306 0.921827 2.82648 0
M  V30 9734 H 888.839 0.590241 1.42673 0
M  V30 9735 H 890.797 -1.34082 3.87985 0
M  V30 9736 H 889.458 -1.5518 2.7309 0
M  V30 9737 H 888.651 -0.771788 4.98056 0
M  V30 9738 H 888.253 0.415264 3.71687 0
M  V30 9739 H 890.545 -0.485604 6.75757 0
M  V30 9740 H 891.488 1.01798 7.00744 0
M  V30 9741 H 891.896 -0.066256 5.64461 0
M  V30 9742 N 891.294 -1.47756 0.548274 0
M  V30 9743 C 892.71 -1.58247 0.207401 0
M  V30 9744 C 892.91 -1.54804 -1.28988 0
M  V30 9745 O 891.966 -1.44673 -2.06944 0
M  V30 9746 C 893.279 -2.89129 0.826142 0
M  V30 9747 C 894.827 -3.02695 0.79655 0
M  V30 9748 C 895.302 -4.36264 1.3942 0
M  V30 9749 N 896.793 -4.42877 1.35698 0
M  V30 9750 C 897.528 -5.44773 1.78913 0
M  V30 9751 N 897.024 -6.53528 2.29942 0
M  V30 9752 N 898.817 -5.35765 1.70038 0
M  V30 9753 H 890.968 -1.48236 1.52117 0
M  V30 9754 H 893.231 -0.704957 0.633829 0
M  V30 9755 H 892.937 -2.97358 1.87806 0
M  V30 9756 H 892.811 -3.75891 0.313916 0
M  V30 9757 H 895.198 -2.94067 -0.246655 0
M  V30 9758 H 895.279 -2.17496 1.34644 0
M  V30 9759 H 894.923 -4.45646 2.43642 0
M  V30 9760 H 894.853 -5.20179 0.819827 0
M  V30 9761 H 897.344 -3.64874 0.983623 0
M  V30 9762 H 897.657 -7.27441 2.60863 0
M  V30 9763 H 896.002 -6.54442 2.33947 0
M  V30 9764 H 899.193 -4.49699 1.29955 0
M  V30 9765 H 899.366 -6.1504 2.04035 0
M  V30 9766 N 892.772 -0.284283 -1.55015 0
M  V30 9767 C 894.021 0.33055 -1.98973 0
M  V30 9768 C 894.334 1.56284 -1.17621 0
M  V30 9769 O 895.54 2.2512 -1.51767 0
M  V30 9770 C 893.996 0.639457 -3.54174 0
M  V30 9771 C 893.604 -0.573543 -4.44313 0
M  V30 9772 C 895.348 1.21641 -4.06699 0
M  V30 9773 C 893.255 -0.238715 -5.90918 0
M  V30 9774 H 892.185 0.127285 -0.743179 0
M  V30 9775 H 894.836 -0.390372 -1.793 0
M  V30 9776 H 893.218 1.41953 -3.69683 0
M  V30 9777 H 894.392 -1.3502 -4.40575 0
M  V30 9778 H 892.707 -1.06797 -4.02472 0
M  V30 9779 H 895.304 1.48088 -5.13784 0
M  V30 9780 H 895.647 2.15328 -3.56286 0
M  V30 9781 H 896.18 0.498422 -3.94665 0
M  V30 9782 H 892.919 -1.1437 -6.45445 0
M  V30 9783 H 892.439 0.500997 -5.97704 0
M  V30 9784 H 894.118 0.165774 -6.46788 0
M  V30 9785 N 894.251 1.57596 -0.0117121 0
M  V30 9786 C 895.214 2.08089 0.960816 0
M  V30 9787 C 896.214 0.992519 1.26514 0
M  V30 9788 O 897.404 1.25475 1.20837 0
M  V30 9789 C 894.536 2.53217 2.28241 0
M  V30 9790 H 895.729 2.9529 0.523829 0
M  V30 9791 H 893.282 1.54508 0.235995 0
M  V30 9792 H 894.017 1.69294 2.76604 0
M  V30 9793 H 893.802 3.32714 2.0747 0
M  V30 9794 H 895.292 2.92568 2.97983 0
M  V30 9795 N 895.729 -0.261212 1.5542 0
M  V30 9796 C 896.676 -1.32315 1.89107 0
M  V30 9797 C 897.646 -1.48517 0.743767 0
M  V30 9798 O 898.831 -1.62733 0.996123 0
M  V30 9799 C 895.971 -2.67626 2.17877 0
M  V30 9800 C 895.084 -2.59549 3.45338 0
M  V30 9801 C 894.219 -3.87118 3.63748 0
M  V30 9802 C 893.258 -3.736 4.8486 0
M  V30 9803 N 892.395 -4.93029 4.99867 0
M  V30 9804 H 897.235 -1.02886 2.79675 0
M  V30 9805 H 894.772 -0.496812 1.38456 0
M  V30 9806 H 896.73 -3.4637 2.32559 0
M  V30 9807 H 895.36 -2.95232 1.30529 0
M  V30 9808 H 894.412 -1.72452 3.39064 0
M  V30 9809 H 895.724 -2.45465 4.34222 0
M  V30 9810 H 894.878 -4.74305 3.78312 0
M  V30 9811 H 893.617 -4.04084 2.73071 0
M  V30 9812 H 892.622 -2.84797 4.70288 0
M  V30 9813 H 893.847 -3.58143 5.76984 0
M  V30 9814 H 891.793 -5.10383 4.12123 0
M  V30 9815 H 891.71 -4.81521 5.82815 0
M  V30 9816 H 892.978 -5.81754 5.18828 0
M  V30 9817 N 897.207 -1.48554 -0.526253 0
M  V30 9818 C 898.447 -1.58362 -1.29232 0
M  V30 9819 C 898.811 -0.253353 -1.90321 0
M  V30 9820 O 900.012 -0.226439 -2.67845 0
M  V30 9821 C 898.283 -2.69294 -2.3498 0
M  V30 9822 S 899.842 -2.98891 -3.21262 0
M  V30 9823 H 896.66 -0.558859 -0.439543 0
M  V30 9824 H 899.262 -1.86094 -0.599099 0
M  V30 9825 H 897.966 -3.64504 -1.88587 0
M  V30 9826 H 897.497 -2.43475 -3.09004 0
M  V30 9827 H 899.512 -2.38475 -4.35137 0
M  V30 9828 N 898.685 0.775411 -1.37205 0
M  V30 9829 C 899.925 1.54689 -1.33606 0
M  V30 9830 C 900.289 1.91834 0.0798549 0
M  V30 9831 O 901.49 2.67722 0.240531 0
M  V30 9832 C 899.761 2.7804 -2.24563 0
M  V30 9833 S 901.32 3.68143 -2.38781 0
M  V30 9834 H 898.138 0.529631 -0.474355 0
M  V30 9835 H 900.74 0.912128 -1.72918 0
M  V30 9836 H 899.444 2.48825 -3.26365 0
M  V30 9837 H 898.975 3.46479 -1.86322 0
M  V30 9838 H 900.99 4.69843 -1.59568 0
M  V30 9839 N 900.163 1.21714 1.00117 0
M  V30 9840 C 901.111 0.976937 2.11089 0
M  V30 9841 C 902.105 -0.0771295 1.69224 0
M  V30 9842 O 903.311 0.0745945 1.79845 0
M  V30 9843 H 899.686 0.298687 0.690138 0
M  V30 9844 H 901.657 1.91881 2.28526 0
M  V30 9845 C 900.406 0.562369 3.43122 0
M  V30 9846 H 899.729 1.36509 3.75773 0
M  V30 9847 H 901.169 0.433642 4.21777 0
M  V30 9848 C 899.628 -0.727148 3.28959 0
M  V30 9849 O 900.158 -1.78171 3.60025 0
M  V30 9850 N 898.364 -0.695129 2.82164 0
M  V30 9851 H 897.911 0.163346 2.57082 0
M  V30 9852 H 897.869 -1.55822 2.73069 0
M  V30 9853 N 901.641 -1.19671 1.02551 0
M  V30 9854 C 903.052 -1.70964 0.750208 0
M  V30 9855 C 903.403 -1.82095 -0.730461 0
M  V30 9856 O 902.528 -1.48974 -1.56958 0
M  V30 9857 C 903.123 -3.10516 1.35518 0
M  V30 9858 C 901.682 -3.59083 1.12854 0
M  V30 9859 C 900.829 -2.36041 1.45534 0
M  V30 9860 H 903.78 -1.04559 1.19386 0
M  V30 9861 H 903.801 -3.73028 0.750378 0
M  V30 9862 H 903.313 -3.02383 2.43282 0
M  V30 9863 H 901.414 -3.72536 0.0689627 0
M  V30 9864 H 901.527 -4.43395 1.81488 0
M  V30 9865 H 899.891 -2.39214 0.87458 0
M  V30 9866 H 900.674 -2.3054 2.54374 0
M  V30 9867 N 903.119 -0.802921 -1.35613 0
M  V30 9868 C 904.365 -0.382141 -1.99167 0
M  V30 9869 C 904.698 1.04704 -1.63556 0
M  V30 9870 O 903.973 1.72578 -0.89706 0
M  V30 9871 C 904.256 -0.561493 -3.55695 0
M  V30 9872 C 904.109 -2.03534 -4.01116 0
M  V30 9873 C 905.428 0.0151135 -4.40097 0
M  V30 9874 H 902.547 -0.140322 -0.723518 0
M  V30 9875 H 905.189 -1.01177 -1.6082 0
M  V30 9876 H 903.339 -0.0255083 -3.88492 0
M  V30 9877 H 905.011 -2.63343 -3.78746 0
M  V30 9878 H 903.254 -2.5331 -3.52159 0
M  V30 9879 H 903.925 -2.11173 -5.1001 0
M  V30 9880 H 906.401 -0.442582 -4.1374 0
M  V30 9881 H 905.277 -0.140316 -5.48721 0
M  V30 9882 H 905.538 1.10848 -4.27978 0
M  V30 9883 N 904.597 1.47463 -0.556102 0
M  V30 9884 C 906.008 1.86298 -0.122429 0
M  V30 9885 C 906.359 1.46285 1.30749 0
M  V30 9886 O 905.484 0.865405 1.98342 0
M  V30 9887 C 906.079 3.38115 -0.215407 0
M  V30 9888 C 904.638 3.76046 0.163223 0
M  V30 9889 C 903.785 2.71515 -0.563466 0
M  V30 9890 H 906.736 1.38996 -0.765888 0
M  V30 9891 H 906.757 3.76263 0.566271 0
M  V30 9892 H 906.269 3.67207 -1.25622 0
M  V30 9893 H 904.37 3.5257 1.20519 0
M  V30 9894 H 904.483 4.78705 -0.194568 0
M  V30 9895 H 902.847 2.54699 -0.00667879 0
M  V30 9896 H 903.63 3.03449 -1.60542 0
M  V30 9897 N 906.075 0.2925 1.54862 0
M  V30 9898 C 907.323 -0.318633 1.99572 0
M  V30 9899 C 907.644 -1.55062 1.1824 0
M  V30 9900 O 906.914 -1.93943 0.276226 0
M  V30 9901 H 905.494 -0.120722 0.737181 0
M  V30 9902 H 908.156 0.401862 1.90712 0
M  V30 9903 H 907.252 -0.596542 3.06346 0
M  V30 9904 N 907.553 -1.57587 0.0200696 0
M  V30 9905 C 908.83 -1.82696 -0.698677 0
M  V30 9906 C 909.21 -0.902082 -1.90855 0
M  V30 9907 O 908.558 0.0444834 -2.28457 0
M  V30 9908 C 908.768 -3.31691 -1.08546 0
M  V30 9909 C 910.116 -3.97938 -1.4809 0
M  V30 9910 O 911.14 -3.36133 -1.17869 0
M  V30 9911 O 909.999 -5.06851 -2.04364 0
M  V30 9912 H 907.093 -0.752997 -0.341942 0
M  V30 9913 H 909.639 -1.69635 0.04706 0
M  V30 9914 H 908.411 -3.90659 -0.223956 0
M  V30 9915 H 908.034 -3.49825 -1.88965 0
M  V30 9916 N 909.032 0.252966 -1.55557 0
M  V30 9917 C 910.443 0.822503 -1.67606 0
M  V30 9918 C 910.794 1.86265 -0.616411 0
M  V30 9919 O 909.919 2.15082 0.238447 0
M  V30 9920 C 910.514 1.49866 -3.03852 0
M  V30 9921 C 909.073 2.01597 -3.17861 0
M  V30 9922 C 908.22 0.864943 -2.63465 0
M  V30 9923 H 911.171 0.0288958 -1.58674 0
M  V30 9924 H 911.192 2.36646 -2.97958 0
M  V30 9925 H 910.704 0.741378 -3.80953 0
M  V30 9926 H 908.805 2.80224 -2.45571 0
M  V30 9927 H 908.918 2.21752 -4.24692 0
M  V30 9928 H 907.282 1.2638 -2.21134 0
M  V30 9929 H 908.065 0.120847 -3.43087 0
M  V30 9930 N 910.51 1.48831 0.518367 0
M  V30 9931 C 911.759 1.5669 1.27008 0
M  V30 9932 C 912.072 0.250934 1.93984 0
M  V30 9933 O 913.278 0.207884 2.70703 0
M  V30 9934 C 911.734 2.76387 2.30517 0
M  V30 9935 C 911.342 4.14673 1.69559 0
M  V30 9936 C 913.086 2.93566 3.06625 0
M  V30 9937 C 910.993 5.25616 2.71076 0
M  V30 9938 H 909.923 0.583362 0.477708 0
M  V30 9939 H 912.574 1.75187 0.546052 0
M  V30 9940 H 910.956 2.51348 3.06006 0
M  V30 9941 H 912.13 4.49779 1.00179 0
M  V30 9942 H 910.445 4.02708 1.05902 0
M  V30 9943 H 913.042 3.7362 3.82508 0
M  V30 9944 H 913.385 2.03462 3.63193 0
M  V30 9945 H 913.918 3.18562 2.38251 0
M  V30 9946 H 910.657 6.17723 2.19313 0
M  V30 9947 H 910.177 4.94985 3.38748 0
M  V30 9948 H 911.856 5.5422 3.3384 0
M  V30 9949 N 911.988 -0.768124 1.37614 0
M  V30 9950 C 912.898 -1.91249 1.35871 0
M  V30 9951 C 913.914 -1.7208 0.257786 0
M  V30 9952 O 915.09 -1.95253 0.493782 0
M  V30 9953 C 912.155 -3.26423 1.16829 0
M  V30 9954 C 911.216 -3.5822 2.36594 0
M  V30 9955 C 910.449 -4.86945 2.1845 0
M  V30 9956 O 910.672 -5.58258 1.17064 0
M  V30 9957 O 909.606 -5.17888 3.06718 0
M  V30 9958 H 913.432 -1.95671 2.32264 0
M  V30 9959 H 911.017 -0.911382 1.18382 0
M  V30 9960 H 912.899 -4.07269 1.08212 0
M  V30 9961 H 911.574 -3.22845 0.235123 0
M  V30 9962 H 910.481 -2.77594 2.50783 0
M  V30 9963 H 911.814 -3.66545 3.2849 0
M  V30 9964 N 913.466 -1.22244 -0.994698 0
M  V30 9965 C 914.714 -1.04384 -1.73056 0
M  V30 9966 C 915.035 0.422204 -1.90374 0
M  V30 9967 O 914.305 1.30383 -1.46209 0
M  V30 9968 H 912.885 -0.383263 -0.641185 0
M  V30 9969 H 915.547 -1.53725 -1.1981 0
M  V30 9970 H 914.643 -1.52021 -2.72573 0
M  V30 9971 N 914.944 1.19125 -1.03184 0
M  V30 9972 C 916.174 1.92558 -0.748663 0
M  V30 9973 C 916.582 1.759 0.696837 0
M  V30 9974 O 915.925 1.08019 1.48585 0
M  V30 9975 C 915.987 3.4461 -1.02391 0
M  V30 9976 C 915.651 3.85041 -2.46155 0
M  V30 9977 C 916.648 3.89554 -3.44302 0
M  V30 9978 C 914.333 4.16594 -2.80633 0
M  V30 9979 C 916.327 4.25055 -4.74981 0
M  V30 9980 C 914.014 4.51767 -4.11521 0
M  V30 9981 C 915.012 4.55972 -5.08506 0
M  V30 9982 O 914.7 4.9033 -6.37049 0
M  V30 9983 H 914.432 0.618397 -0.273059 0
M  V30 9984 H 916.986 1.52122 -1.38015 0
M  V30 9985 H 915.216 3.85244 -0.335284 0
M  V30 9986 H 916.905 3.99283 -0.729927 0
M  V30 9987 H 917.671 3.65324 -3.19003 0
M  V30 9988 H 913.55 4.12503 -2.05821 0
M  V30 9989 H 917.094 4.28252 -5.50678 0
M  V30 9990 H 912.991 4.75455 -4.36592 0
M  V30 9991 H 913.759 5.08266 -6.41566 0
M  V30 9992 N 916.422 0.810101 1.35185 0
M  V30 9993 C 917.671 0.388589 1.97921 0
M  V30 9994 C 917.984 -1.05079 1.64978 0
M  V30 9995 O 919.19 -1.57559 2.21105 0
M  V30 9996 C 917.646 0.643864 3.54094 0
M  V30 9997 C 917.254 2.09602 3.95943 0
M  V30 9998 C 918.998 0.287883 4.23523 0
M  V30 9999 C 916.905 2.29686 5.44976 0
M  V30 10000 H 915.835 0.141562 0.740592 0
M  V30 10001 H 918.486 0.994653 1.54204 0
M  V30 10002 H 916.868 -0.0321978 3.95987 0
M  V30 10003 H 918.042 2.81018 3.65192 0
M  V30 10004 H 916.357 2.4122 3.39414 0
M  V30 10005 H 918.954 0.415946 5.3308 0
M  V30 10006 H 919.297 -0.766305 4.09186 0
M  V30 10007 H 919.83 0.918004 3.87063 0
M  V30 10008 H 916.569 3.33563 5.64284 0
M  V30 10009 H 916.089 1.62798 5.77284 0
M  V30 10010 H 917.768 2.11411 6.11485 0
M  V30 10011 N 917.9 -1.47166 0.563914 0
M  V30 10012 C 919.128 -2.06846 0.0474287 0
M  V30 10013 C 919.543 -1.41557 -1.24928 0
M  V30 10014 O 918.9 -0.514376 -1.75101 0
M  V30 10015 C 918.951 -3.6121 -0.144831 0
M  V30 10016 O 918.672 -4.24052 1.10053 0
M  V30 10017 C 920.173 -4.37773 -0.69783 0
M  V30 10018 H 917.393 -0.669217 0.0488896 0
M  V30 10019 H 919.937 -1.89072 0.779235 0
M  V30 10020 H 918.092 -3.78474 -0.82679 0
M  V30 10021 H 918.506 -5.16677 0.902481 0
M  V30 10022 H 919.98 -5.46438 -0.781616 0
M  V30 10023 H 920.457 -4.04517 -1.71063 0
M  V30 10024 H 921.063 -4.25269 -0.0513516 0
M  V30 10025 N 919.378 -0.300708 -1.54705 0
M  V30 10026 C 920.325 0.57552 -2.23509 0
M  V30 10027 C 921.295 1.12979 -1.21758 0
M  V30 10028 O 922.48 1.17437 -1.50377 0
M  V30 10029 C 919.62 1.74167 -2.97926 0
M  V30 10030 C 918.733 1.21882 -4.1445 0
M  V30 10031 C 917.868 2.34881 -4.7645 0
M  V30 10032 C 916.907 1.79729 -5.85119 0
M  V30 10033 N 916.044 2.863 -6.41075 0
M  V30 10034 H 920.884 -0.0178257 -2.97995 0
M  V30 10035 H 918.421 -0.0205666 -1.47086 0
M  V30 10036 H 920.379 2.42753 -3.39303 0
M  V30 10037 H 919.009 2.30665 -2.25817 0
M  V30 10038 H 918.061 0.425227 -3.78016 0
M  V30 10039 H 919.373 0.775065 -4.92741 0
M  V30 10040 H 918.527 3.11415 -5.20678 0
M  V30 10041 H 917.266 2.82584 -3.97489 0
M  V30 10042 H 916.271 1.01684 -5.40315 0
M  V30 10043 H 917.496 1.32931 -6.65963 0
M  V30 10044 H 915.442 3.33337 -5.64998 0
M  V30 10045 H 915.359 2.46419 -7.14712 0
M  V30 10046 H 916.627 3.62732 -6.89961 0
M  V30 10047 N 920.856 1.57574 -0.0284266 0
M  V30 10048 C 922.104 1.91393 0.649079 0
M  V30 10049 C 922.425 0.905368 1.72708 0
M  V30 10050 O 921.695 -0.0532107 1.95828 0
M  V30 10051 H 920.275 0.70646 0.24274 0
M  V30 10052 H 922.937 1.94752 -0.076066 0
M  V30 10053 H 922.033 2.91988 1.10226 0
M  V30 10054 N 922.334 -0.244713 1.55689 0
M  V30 10055 C 923.75 -0.593331 1.48161 0
M  V30 10056 C 923.95 -1.88234 0.719047 0
M  V30 10057 O 923.006 -2.51266 0.249292 0
M  V30 10058 C 924.319 -0.694032 2.92581 0
M  V30 10059 C 925.867 -0.786213 3.02965 0
M  V30 10060 C 926.342 -0.918457 4.48696 0
M  V30 10061 N 927.833 -0.983272 4.52643 0
M  V30 10062 C 928.568 -1.1049 5.62654 0
M  V30 10063 N 928.064 -1.19193 6.8247 0
M  V30 10064 N 929.857 -1.13823 5.50455 0
M  V30 10065 H 922.008 0.601446 2.03707 0
M  V30 10066 H 924.271 0.207894 0.924924 0
M  V30 10067 H 923.977 0.183133 3.51223 0
M  V30 10068 H 923.851 -1.56525 3.4319 0
M  V30 10069 H 926.238 -1.65383 2.44402 0
M  V30 10070 H 926.319 0.110202 2.55563 0
M  V30 10071 H 925.963 -0.0553881 5.0787 0
M  V30 10072 H 925.893 -1.82994 4.93782 0
M  V30 10073 H 928.384 -0.927269 3.66347 0
M  V30 10074 H 928.697 -1.28387 7.62061 0
M  V30 10075 H 927.042 -1.16147 6.85226 0
M  V30 10076 H 930.233 -1.06673 4.55783 0
M  V30 10077 H 930.406 -1.22957 6.36228 0
M  V30 10078 N 923.813 -1.49104 -0.510467 0
M  V30 10079 C 925.061 -1.578 -1.26268 0
M  V30 10080 C 925.382 -0.262349 -1.93227 0
M  V30 10081 O 924.652 0.717624 -1.82283 0
M  V30 10082 H 923.232 -0.581387 -0.46904 0
M  V30 10083 H 925.894 -1.85678 -0.592423 0
M  V30 10084 H 924.99 -2.36919 -2.03165 0
M  V30 10085 N 925.291 0.760815 -1.38019 0
M  V30 10086 C 926.54 1.51506 -1.3315 0
M  V30 10087 C 926.853 1.95444 0.0782124 0
M  V30 10088 O 928.059 2.70352 0.249418 0
M  V30 10089 C 926.515 2.73636 -2.33776 0
M  V30 10090 C 926.123 2.36753 -3.80332 0
M  V30 10091 C 927.867 3.51548 -2.37937 0
M  V30 10092 C 925.774 3.55451 -4.72661 0
M  V30 10093 H 924.704 0.568844 -0.494907 0
M  V30 10094 H 927.355 0.832343 -1.63537 0
M  V30 10095 H 925.737 3.43852 -1.96422 0
M  V30 10096 H 926.911 1.7425 -4.26584 0
M  V30 10097 H 925.226 1.71991 -3.7922 0
M  V30 10098 H 927.823 4.39791 -3.04119 0
M  V30 10099 H 928.166 3.9219 -1.39617 0
M  V30 10100 H 928.699 2.88339 -2.74054 0
M  V30 10101 H 925.438 3.19882 -5.7215 0
M  V30 10102 H 924.958 4.17022 -4.31107 0
M  V30 10103 H 926.637 4.22125 -4.90326 0
M  V30 10104 N 926.769 1.22769 0.988202 0
M  V30 10105 C 927.732 1.00325 2.06076 0
M  V30 10106 C 928.732 -0.0320618 1.60768 0
M  V30 10107 O 929.922 0.206912 1.72967 0
M  V30 10108 C 927.054 0.516376 3.36966 0
M  V30 10109 H 928.247 1.95499 2.27421 0
M  V30 10110 H 925.8 1.04704 1.16047 0
M  V30 10111 H 926.535 -0.439498 3.21308 0
M  V30 10112 H 926.32 1.26337 3.71189 0
M  V30 10113 H 927.81 0.37974 4.1587 0
M  V30 10114 N 928.247 -1.18576 1.03814 0
M  V30 10115 C 929.496 -1.87822 0.735235 0
M  V30 10116 C 929.809 -1.81069 -0.739819 0
M  V30 10117 O 931.015 -2.45654 -1.15614 0
M  V30 10118 C 929.471 -3.36941 1.26486 0
M  V30 10119 C 929.079 -3.5223 2.76836 0
M  V30 10120 C 930.823 -4.11604 1.03836 0
M  V30 10121 C 928.73 -4.95294 3.23169 0
M  V30 10122 H 927.66 -0.703487 0.271333 0
M  V30 10123 H 930.311 -1.34 1.25365 0
M  V30 10124 H 928.693 -3.90217 0.674318 0
M  V30 10125 H 929.867 -3.09239 3.41625 0
M  V30 10126 H 928.182 -2.90969 2.97869 0
M  V30 10127 H 930.779 -5.17123 1.3597 0
M  V30 10128 H 931.122 -4.16293 -0.0244945 0
M  V30 10129 H 931.655 -3.64494 1.59338 0
M  V30 10130 H 928.394 -4.95772 4.28824 0
M  V30 10131 H 927.914 -5.3901 2.63113 0
M  V30 10132 H 929.593 -5.63996 3.17045 0
M  V30 10133 N 929.725 -0.817259 -1.34754 0
M  V30 10134 C 930.675 -0.207585 -2.27053 0
M  V30 10135 C 931.659 0.624836 -1.48272 0
M  V30 10136 O 932.851 0.480344 -1.70358 0
M  V30 10137 C 929.98 0.634281 -3.3739 0
M  V30 10138 C 929.066 -0.208456 -4.23587 0
M  V30 10139 N 929.457 -1.2767 -4.89422 0
M  V30 10140 C 927.755 0.00815096 -4.45999 0
M  V30 10141 C 928.456 -1.79209 -5.53407 0
M  V30 10142 N 927.432 -1.09686 -5.32419 0
M  V30 10143 H 931.234 -1.0248 -2.75454 0
M  V30 10144 H 928.748 -0.659492 -1.48406 0
M  V30 10145 H 930.745 1.08718 -4.02475 0
M  V30 10146 H 929.405 1.44972 -2.90539 0
M  V30 10147 H 930.416 -1.65945 -4.90594 0
M  V30 10148 H 927.093 0.791879 -4.09921 0
M  V30 10149 H 928.483 -2.68548 -6.15899 0
M  V30 10150 N 931.203 1.46865 -0.571711 0
M  V30 10151 C 932.619 1.57897 -0.23255 0
M  V30 10152 C 932.819 1.56836 1.26509 0
M  V30 10153 O 931.875 1.47947 2.04617 0
M  V30 10154 C 933.188 2.87778 -0.872036 0
M  V30 10155 C 934.736 3.01389 -0.844605 0
M  V30 10156 C 935.211 4.33991 -1.46343 0
M  V30 10157 N 936.702 4.40662 -1.42727 0
M  V30 10158 C 937.437 5.41858 -1.87557 0
M  V30 10159 N 936.933 6.49787 -2.4031 0
M  V30 10160 N 938.726 5.32992 -1.7854 0
M  V30 10161 H 930.877 1.45798 -1.54457 0
M  V30 10162 H 933.14 0.694785 -0.644964 0
M  V30 10163 H 932.846 2.94332 -1.92513 0
M  V30 10164 H 932.72 3.75345 -0.373677 0
M  V30 10165 H 935.107 2.94423 0.19984 0
M  V30 10166 H 935.188 2.15327 -1.38087 0
M  V30 10167 H 934.832 4.41714 -2.50701 0
M  V30 10168 H 934.762 5.18809 -0.902479 0
M  V30 10169 H 937.253 3.63263 -1.04155 0
M  V30 10170 H 937.566 7.23199 -2.72403 0
M  V30 10171 H 935.911 6.50637 -2.44329 0
M  V30 10172 H 939.102 4.47575 -1.37093 0
M  V30 10173 H 939.275 6.11716 -2.13794 0
M  V30 10174 N 932.681 0.308908 1.54543 0
M  V30 10175 C 933.644 -0.550857 2.22482 0
M  V30 10176 C 934.644 -1.0551 1.21344 0
M  V30 10177 O 935.834 -0.949866 1.46025 0
M  V30 10178 C 932.966 -1.76354 2.9174 0
M  V30 10179 H 934.159 0.0428395 2.99869 0
M  V30 10180 H 931.712 0.059825 1.56185 0
M  V30 10181 H 932.447 -2.39686 2.18451 0
M  V30 10182 H 932.232 -1.40954 3.65889 0
M  V30 10183 H 933.722 -2.37417 3.43545 0
M  V30 10184 N 934.159 -1.57557 0.0367827 0
M  V30 10185 C 935.436 -1.83427 -0.679261 0
M  V30 10186 C 935.816 -0.922274 -1.89888 0
M  V30 10187 O 935.164 0.02025 -2.28491 0
M  V30 10188 C 935.374 -3.32823 -1.05022 0
M  V30 10189 C 936.722 -3.99486 -1.43861 0
M  V30 10190 O 937.746 -3.37364 -1.14297 0
M  V30 10191 O 936.605 -5.0899 -1.98977 0
M  V30 10192 H 933.699 -0.756581 -0.333936 0
M  V30 10193 H 936.245 -1.69575 0.0650494 0
M  V30 10194 H 935.017 -3.90874 -0.182509 0
M  V30 10195 H 934.64 -3.5181 -1.85244 0
M  V30 10196 N 935.637 0.236453 -1.55816 0
M  V30 10197 C 936.877 0.970249 -1.79904 0
M  V30 10198 C 937.241 1.8212 -0.607965 0
M  V30 10199 O 938.442 2.58759 -0.727833 0
M  V30 10200 C 936.713 1.79938 -3.088 0
M  V30 10201 S 938.272 2.59084 -3.54148 0
M  V30 10202 H 935.09 0.32618 -0.631765 0
M  V30 10203 H 937.692 0.237147 -1.94056 0
M  V30 10204 H 936.396 1.16412 -3.93544 0
M  V30 10205 H 935.927 2.57504 -2.97414 0
M  V30 10206 H 937.942 3.82315 -3.16306 0
M  V30 10207 N 937.115 1.49373 0.502552 0
M  V30 10208 C 938.063 1.66411 1.62512 0
M  V30 10209 C 939.057 0.530062 1.60893 0
M  V30 10210 O 940.263 0.709648 1.65421 0
M  V30 10211 H 936.638 0.524707 0.538689 0
M  V30 10212 H 938.609 2.60639 1.45293 0
M  V30 10213 C 937.358 1.74648 3.00655 0
M  V30 10214 H 936.681 2.61285 3.02606 0
M  V30 10215 H 938.121 1.90605 3.78742 0
M  V30 10216 C 936.58 0.490963 3.33303 0
M  V30 10217 O 937.11 -0.384039 3.9986 0
M  V30 10218 N 935.316 0.354375 2.88431 0
M  V30 10219 H 934.863 1.06742 2.34444 0
M  V30 10220 H 934.821 -0.484593 3.10643 0
M  V30 10221 N 938.594 -0.753485 1.38421 0
M  V30 10222 C 939.542 -1.8886 1.35774 0
M  V30 10223 C 940.536 -1.67639 0.243608 0
M  V30 10224 O 941.742 -1.75206 0.412649 0
M  V30 10225 H 938.117 -0.62137 0.42356 0
M  V30 10226 H 940.088 -1.88209 2.3156 0
M  V30 10227 C 938.837 -3.26344 1.19979 0
M  V30 10228 H 938.16 -3.43259 2.04971 0
M  V30 10229 H 939.6 -4.06015 1.22181 0
M  V30 10230 C 938.059 -3.36771 -0.0932867 0
M  V30 10231 O 938.589 -3.8718 -1.07027 0
M  V30 10232 N 936.795 -2.90212 -0.150154 0
M  V30 10233 H 936.342 -2.4938 0.645562 0
M  V30 10234 H 936.3 -2.97569 -1.0149 0
M  V30 10235 N 940.072 -1.23292 -0.981677 0
M  V30 10236 C 941.321 -1.05832 -1.71705 0
M  V30 10237 C 941.634 0.40514 -1.91358 0
M  V30 10238 O 942.84 0.699645 -2.6233 0
M  V30 10239 C 941.296 -1.84532 -3.08992 0
M  V30 10240 C 940.904 -3.35199 -2.9723 0
M  V30 10241 C 942.648 -1.75557 -3.86497 0
M  V30 10242 C 940.555 -4.06296 -4.29741 0
M  V30 10243 H 939.485 -0.39241 -0.64384 0
M  V30 10244 H 942.136 -1.47247 -1.09502 0
M  V30 10245 H 940.518 -1.35923 -3.71942 0
M  V30 10246 H 941.692 -3.91286 -2.43377 0
M  V30 10247 H 940.007 -3.44973 -2.332 0
M  V30 10248 H 942.604 -2.25989 -4.84596 0
M  V30 10249 H 942.947 -0.718101 -4.1006 0
M  V30 10250 H 943.48 -2.21771 -3.30246 0
M  V30 10251 H 940.219 -5.10344 -4.11375 0
M  V30 10252 H 939.739 -3.54997 -4.83464 0
M  V30 10253 H 941.418 -4.12519 -4.98434 0
M  V30 10254 N 941.55 1.18024 -1.04442 0
M  V30 10255 C 942.497 2.21785 -0.638759 0
M  V30 10256 C 943.467 1.62255 0.355312 0
M  V30 10257 O 944.652 1.89176 0.24844 0
M  V30 10258 C 941.792 3.45098 -0.0118002 0
M  V30 10259 C 940.905 4.1895 -1.05379 0
M  V30 10260 C 940.04 5.2973 -0.394951 0
M  V30 10261 C 939.079 5.95359 -1.42178 0
M  V30 10262 N 938.216 6.97668 -0.787635 0
M  V30 10263 H 943.056 2.55839 -1.52808 0
M  V30 10264 H 940.593 1.25681 -0.764378 0
M  V30 10265 H 942.551 4.15564 0.369075 0
M  V30 10266 H 941.181 3.11652 0.84102 0
M  V30 10267 H 940.233 3.47274 -1.55258 0
M  V30 10268 H 941.545 4.63877 -1.83355 0
M  V30 10269 H 940.699 6.06687 0.0399244 0
M  V30 10270 H 939.438 4.85915 0.416867 0
M  V30 10271 H 938.443 5.17139 -1.86675 0
M  V30 10272 H 939.668 6.41255 -2.23536 0
M  V30 10273 H 937.614 6.56 0.00380893 0
M  V30 10274 H 937.531 7.40867 -1.50505 0
M  V30 10275 H 938.799 7.78586 -0.377282 0
M  V30 10276 N 943.028 0.824394 1.34319 0
M  V30 10277 C 944.253 0.425194 2.02995 0
M  V30 10278 C 944.678 -0.961476 1.6167 0
M  V30 10279 O 944.036 -1.62593 0.80207 0
M  V30 10280 C 944.084 0.537004 3.56579 0
M  V30 10281 O 943.188 -0.442576 4.10018 0
M  V30 10282 H 942.529 0.174853 0.640564 0
M  V30 10283 H 945.059 1.11522 1.71534 0
M  V30 10284 H 945.069 0.413311 4.05901 0
M  V30 10285 H 943.744 1.54836 3.86004 0
M  V30 10286 H 942.321 -0.277644 3.71865 0
M  V30 10287 N 944.506 -1.46559 0.579492 0
M  V30 10288 C 945.438 -2.28383 -0.19337 0
M  V30 10289 C 946.451 -1.38324 -0.858511 0
M  V30 10290 O 947.64 -1.62952 -0.728615 0
M  V30 10291 C 944.74 -3.13262 -1.29306 0
M  V30 10292 C 943.913 -4.31426 -0.720459 0
M  V30 10293 C 942.972 -4.97728 -1.70744 0
M  V30 10294 O 941.998 -5.55423 -1.24476 0
M  V30 10295 N 943.2 -4.94445 -3.04146 0
M  V30 10296 H 945.965 -2.95353 0.508611 0
M  V30 10297 H 943.526 -1.56436 0.417046 0
M  V30 10298 H 945.518 -3.54483 -1.95254 0
M  V30 10299 H 944.088 -2.48388 -1.89795 0
M  V30 10300 H 943.308 -3.94028 0.116398 0
M  V30 10301 H 944.596 -5.07808 -0.31763 0
M  V30 10302 H 943.994 -4.4881 -3.44363 0
M  V30 10303 H 942.551 -5.39616 -3.65592 0
M  V30 10304 N 945.984 -0.3171 -1.54377 0
M  V30 10305 C 947.261 0.341348 -1.92598 0
M  V30 10306 C 947.641 1.70402 -1.24605 0
M  V30 10307 O 946.989 2.25191 -0.387448 0
M  V30 10308 C 947.199 0.440003 -3.46215 0
M  V30 10309 C 948.547 0.703327 -4.18734 0
M  V30 10310 O 949.571 0.523181 -3.52337 0
M  V30 10311 O 948.43 1.05042 -5.3631 0
M  V30 10312 H 945.524 0.193696 -0.803997 0
M  V30 10313 H 948.07 -0.366341 -1.65699 0
M  V30 10314 H 946.842 -0.517299 -3.87866 0
M  V30 10315 H 946.465 1.19553 -3.792 0
M  V30 10316 N 947.462 1.57535 -0.0451378 0
M  V30 10317 C 948.71 1.92071 0.628743 0
M  V30 10318 C 949.031 0.923635 1.71738 0
M  V30 10319 O 948.301 -0.0324376 1.95873 0
M  V30 10320 H 946.881 0.708995 0.235233 0
M  V30 10321 H 949.543 1.9466 -0.0967177 0
M  V30 10322 H 948.639 2.9314 1.07123 0
M  V30 10323 N 948.94 -0.228186 1.55939 0
M  V30 10324 C 950.17 -0.969211 1.82455 0
M  V30 10325 C 950.578 -1.78714 0.621133 0
M  V30 10326 O 949.921 -1.78841 -0.419694 0
M  V30 10327 C 949.983 -1.94088 3.02605 0
M  V30 10328 C 949.647 -1.30811 4.37878 0
M  V30 10329 C 950.644 -0.701275 5.15149 0
M  V30 10330 C 948.329 -1.32187 4.84595 0
M  V30 10331 C 950.323 -0.116631 6.37293 0
M  V30 10332 C 948.01 -0.733375 6.06683 0
M  V30 10333 C 949.008 -0.131804 6.82873 0
M  V30 10334 O 948.696 0.447549 8.02653 0
M  V30 10335 H 948.428 -0.289951 0.610659 0
M  V30 10336 H 950.982 -0.250576 2.03866 0
M  V30 10337 H 949.212 -2.69833 2.76996 0
M  V30 10338 H 950.901 -2.5469 3.1605 0
M  V30 10339 H 951.667 -0.683022 4.80166 0
M  V30 10340 H 947.546 -1.77949 4.25271 0
M  V30 10341 H 951.09 0.353539 6.96704 0
M  V30 10342 H 946.987 -0.749019 6.4114 0
M  V30 10343 H 947.755 0.341224 8.17788 0
M  V30 10344 N 950.418 -1.49637 -0.494624 0
M  V30 10345 C 951.35 -1.62902 -1.61231 0
M  V30 10346 C 952.363 -0.511425 -1.54558 0
M  V30 10347 O 953.552 -0.783724 -1.60375 0
M  V30 10348 C 950.652 -1.57564 -3.00045 0
M  V30 10349 C 949.825 -2.84964 -3.31835 0
M  V30 10350 C 948.884 -2.72591 -4.5009 0
M  V30 10351 O 947.91 -3.46532 -4.51558 0
M  V30 10352 N 949.112 -1.84563 -5.50379 0
M  V30 10353 H 951.877 -2.59301 -1.50276 0
M  V30 10354 H 949.438 -1.46806 -0.68262 0
M  V30 10355 H 951.43 -1.46932 -3.77085 0
M  V30 10356 H 950 -0.689974 -3.0489 0
M  V30 10357 H 949.22 -3.099 -2.4363 0
M  V30 10358 H 950.508 -3.69412 -3.49875 0
M  V30 10359 H 949.906 -1.23758 -5.51997 0
M  V30 10360 H 948.463 -1.79849 -6.26496 0
M  V30 10361 N 951.896 0.746133 -1.38819 0
M  V30 10362 C 952.806 1.89063 -1.38897 0
M  V30 10363 C 953.822 1.71648 -0.28513 0
M  V30 10364 O 954.998 1.94443 -0.524783 0
M  V30 10365 C 952.063 3.24523 -1.22007 0
M  V30 10366 C 951.124 3.54411 -2.42263 0
M  V30 10367 C 950.357 4.83408 -2.26169 0
M  V30 10368 O 950.58 5.56325 -1.25931 0
M  V30 10369 O 949.514 5.12943 -3.14918 0
M  V30 10370 H 953.34 1.91951 -2.35347 0
M  V30 10371 H 950.925 0.892433 -1.19816 0
M  V30 10372 H 952.807 4.05496 -1.14677 0
M  V30 10373 H 951.482 3.2243 -0.286455 0
M  V30 10374 H 950.389 2.73569 -2.55168 0
M  V30 10375 H 951.722 3.61273 -3.3428 0
M  V30 10376 N 953.375 1.23811 0.975125 0
M  V30 10377 C 954.791 1.0019 1.24234 0
M  V30 10378 C 954.991 -0.293811 1.99346 0
M  V30 10379 O 954.047 -1.01189 2.31337 0
M  V30 10380 C 955.36 2.21218 2.03674 0
M  V30 10381 C 956.908 2.25764 2.16793 0
M  V30 10382 C 957.383 3.46394 2.99626 0
M  V30 10383 N 958.874 3.46665 3.07209 0
M  V30 10384 C 959.609 4.3666 3.71639 0
M  V30 10385 N 959.105 5.36899 4.37849 0
M  V30 10386 N 960.898 4.2439 3.68578 0
M  V30 10387 H 953.049 2.07087 0.472076 0
M  V30 10388 H 955.312 0.90838 0.271201 0
M  V30 10389 H 955.018 3.15277 1.55862 0
M  V30 10390 H 954.892 2.22733 3.04417 0
M  V30 10391 H 957.279 1.32242 2.63811 0
M  V30 10392 H 957.36 2.28279 1.15422 0
M  V30 10393 H 957.004 4.40227 2.53304 0
M  V30 10394 H 956.934 3.41121 4.01178 0
M  V30 10395 H 959.425 2.74142 2.60105 0
M  V30 10396 H 959.738 6.01816 4.84807 0
M  V30 10397 H 958.083 5.40793 4.36541 0
M  V30 10398 H 961.274 3.4532 3.16025 0
M  V30 10399 H 961.447 4.94727 4.18508 0
M  V30 10400 N 954.853 -1.17469 1.05066 0
M  V30 10401 C 955.783 -2.23635 0.671552 0
M  V30 10402 C 956.764 -1.66867 -0.33006 0
M  V30 10403 O 957.949 -1.93084 -0.207933 0
M  V30 10404 C 955.079 -3.47272 0.0441845 0
M  V30 10405 C 954.033 -4.16854 0.97042 0
M  V30 10406 C 953.359 -5.34299 0.206998 0
M  V30 10407 C 954.659 -4.69225 2.29401 0
M  V30 10408 H 956.353 -2.55602 1.55911 0
M  V30 10409 H 953.899 -1.2286 0.751101 0
M  V30 10410 H 955.852 -4.20756 -0.23282 0
M  V30 10411 H 954.576 -3.14568 -0.878311 0
M  V30 10412 H 953.235 -3.4528 1.23197 0
M  V30 10413 H 952.883 -4.97846 -0.718222 0
M  V30 10414 H 952.583 -5.81792 0.82416 0
M  V30 10415 H 954.107 -6.10568 -0.0627525 0
M  V30 10416 H 955.521 -5.34353 2.077 0
M  V30 10417 H 953.918 -5.27291 2.86503 0
M  V30 10418 H 954.988 -3.86102 2.93348 0
M  V30 10419 N 956.331 -0.831506 -1.3388 0
M  V30 10420 C 957.58 -0.420028 -1.97278 0
M  V30 10421 C 957.893 1.02441 -1.66629 0
M  V30 10422 O 959.099 1.54021 -2.23584 0
M  V30 10423 C 957.555 -0.700116 -3.53025 0
M  V30 10424 C 957.163 -2.15874 -3.92559 0
M  V30 10425 C 958.907 -0.355226 -4.23011 0
M  V30 10426 C 956.814 -2.38327 -5.41252 0
M  V30 10427 H 955.744 -0.153326 -0.738246 0
M  V30 10428 H 958.395 -1.01906 -1.52602 0
M  V30 10429 H 956.777 -0.0308044 -3.95988 0
M  V30 10430 H 957.951 -2.86792 -3.60675 0
M  V30 10431 H 956.266 -2.4659 -3.35533 0
M  V30 10432 H 958.863 -0.500701 -5.32351 0
M  V30 10433 H 959.206 0.70111 -4.10354 0
M  V30 10434 H 959.739 -0.979466 -3.85553 0
M  V30 10435 H 956.478 -3.42498 -5.58906 0
M  V30 10436 H 955.998 -1.71962 -5.74621 0
M  V30 10437 H 957.677 -2.21113 -6.08045 0
M  V30 10438 N 957.809 1.4625 -0.587256 0
M  V30 10439 C 958.719 2.34147 0.145744 0
M  V30 10440 C 959.735 1.50026 0.881376 0
M  V30 10441 O 960.911 1.82884 0.843539 0
M  V30 10442 C 957.976 3.27294 1.14366 0
M  V30 10443 C 957.037 4.27317 0.412199 0
M  V30 10444 C 956.27 5.16013 1.36257 0
M  V30 10445 O 956.493 5.0773 2.59934 0
M  V30 10446 O 955.427 5.95569 0.870681 0
M  V30 10447 H 959.253 2.98187 -0.576055 0
M  V30 10448 H 956.838 1.45299 -0.347628 0
M  V30 10449 H 958.72 3.84747 1.71894 0
M  V30 10450 H 957.395 2.65845 1.84684 0
M  V30 10451 H 956.302 3.73538 -0.205036 0
M  V30 10452 H 957.635 4.91564 -0.250104 0
M  V30 10453 N 959.287 0.325282 1.54207 0
M  V30 10454 C 960.533 -0.277185 2.00897 0
M  V30 10455 C 960.866 -1.51651 1.21308 0
M  V30 10456 O 960.141 -1.92237 0.295825 0
M  V30 10457 C 960.424 -0.60961 3.54902 0
M  V30 10458 C 960.277 0.640542 4.45216 0
M  V30 10459 C 961.596 -1.42656 4.16338 0
M  V30 10460 H 958.715 -0.0992722 0.730284 0
M  V30 10461 H 961.357 0.442201 1.84783 0
M  V30 10462 H 959.507 -1.22249 3.68765 0
M  V30 10463 H 961.179 1.27878 4.43221 0
M  V30 10464 H 959.422 1.26908 4.14821 0
M  V30 10465 H 960.093 0.363459 5.50802 0
M  V30 10466 H 962.569 -0.908494 4.06061 0
M  V30 10467 H 961.445 -1.62792 5.24204 0
M  V30 10468 H 961.706 -2.42321 3.69774 0
M  V30 10469 N 960.765 -1.57509 0.0534917 0
M  V30 10470 C 961.675 -2.15152 -0.935249 0
M  V30 10471 C 962.691 -1.10991 -1.34003 0
M  V30 10472 O 963.867 -1.43171 -1.41648 0
M  V30 10473 C 960.932 -2.68699 -2.19093 0
M  V30 10474 C 959.993 -3.87666 -1.84428 0
M  V30 10475 C 959.226 -4.3865 -3.0401 0
M  V30 10476 O 959.449 -3.887 -4.17455 0
M  V30 10477 O 958.383 -5.30209 -2.84889 0
M  V30 10478 H 962.209 -2.99962 -0.475009 0
M  V30 10479 H 959.794 -1.48446 -0.16854 0
M  V30 10480 H 961.676 -3.03098 -2.92762 0
M  V30 10481 H 960.351 -1.86958 -2.6425 0
M  V30 10482 H 959.258 -3.58151 -1.08068 0
M  V30 10483 H 960.591 -4.70643 -1.44068 0
M  V30 10484 N 962.243 0.219913 -1.56058 0
M  V30 10485 C 963.489 0.941055 -1.80321 0
M  V30 10486 C 963.844 1.81906 -0.626735 0
M  V30 10487 O 963.137 1.87811 0.379147 0
M  V30 10488 C 963.331 1.81293 -3.08006 0
M  V30 10489 C 963.16 1.02082 -4.37961 0
M  V30 10490 C 961.93 0.715096 -5.00214 0
M  V30 10491 C 964.128 0.385342 -5.12854 0
M  V30 10492 N 962.11 -0.098246 -6.13821 0
M  V30 10493 C 963.481 -0.291319 -6.19315 0
M  V30 10494 C 965.536 0.29854 -4.97004 0
M  V30 10495 C 964.239 -1.04648 -7.11647 0
M  V30 10496 C 966.265 -0.443159 -5.89737 0
M  V30 10497 C 965.627 -1.10836 -6.95625 0
M  V30 10498 H 961.726 0.324568 -0.711463 0
M  V30 10499 H 964.31 0.211795 -1.93545 0
M  V30 10500 H 962.481 2.51399 -2.96063 0
M  V30 10501 H 964.213 2.47167 -3.20454 0
M  V30 10502 H 960.968 1.03352 -4.62185 0
M  V30 10503 H 961.392 -0.4938 -6.75197 0
M  V30 10504 H 966.034 0.798478 -4.15192 0
M  V30 10505 H 963.752 -1.55793 -7.9294 0
M  V30 10506 H 967.338 -0.511348 -5.79549 0
M  V30 10507 H 966.218 -1.6731 -7.66144 0
M  V30 10508 N 963.721 1.49897 0.486681 0
M  V30 10509 C 964.998 1.50614 1.24799 0
M  V30 10510 C 965.378 0.24193 2.09709 0
M  V30 10511 O 964.726 -0.775237 2.14947 0
M  V30 10512 C 964.936 2.79318 2.09243 0
M  V30 10513 C 966.284 3.29371 2.67955 0
M  V30 10514 O 967.308 2.80533 2.19499 0
M  V30 10515 O 966.167 4.14466 3.56202 0
M  V30 10516 H 963.261 0.603447 0.565491 0
M  V30 10517 H 965.807 1.62174 0.499778 0
M  V30 10518 H 964.579 3.62812 1.46572 0
M  V30 10519 H 964.202 2.70687 2.91229 0
M  V30 10520 N 965.199 -0.738761 1.39212 0
M  V30 10521 C 966.129 -1.86602 1.40364 0
M  V30 10522 C 967.11 -1.67984 0.267495 0
M  V30 10523 O 968.295 -1.88358 0.472765 0
M  V30 10524 C 965.425 -3.24308 1.24265 0
M  V30 10525 C 964.379 -3.57557 2.35239 0
M  V30 10526 C 963.705 -4.94159 2.04233 0
M  V30 10527 C 965.005 -3.60914 3.77543 0
M  V30 10528 H 966.699 -1.85896 2.34698 0
M  V30 10529 H 964.245 -0.892959 1.1297 0
M  V30 10530 H 966.198 -4.02838 1.23692 0
M  V30 10531 H 964.922 -3.25531 0.263974 0
M  V30 10532 H 963.581 -2.81354 2.35022 0
M  V30 10533 H 963.229 -4.91959 1.04813 0
M  V30 10534 H 962.929 -5.17373 2.78567 0
M  V30 10535 H 964.453 -5.7505 2.05303 0
M  V30 10536 H 965.867 -4.29528 3.79709 0
M  V30 10537 H 964.264 -3.95644 4.51205 0
M  V30 10538 H 965.334 -2.60803 4.08791 0
M  V30 10539 N 966.677 -1.24326 -0.968545 0
M  V30 10540 C 967.954 -0.990459 -1.68669 0
M  V30 10541 C 968.334 0.487487 -2.05394 0
M  V30 10542 O 967.682 1.46158 -1.75642 0
M  V30 10543 C 967.892 -1.91251 -2.91931 0
M  V30 10544 C 969.24 -2.18291 -3.6419 0
M  V30 10545 O 970.264 -1.88897 -3.01987 0
M  V30 10546 O 969.123 -2.68204 -4.76161 0
M  V30 10547 H 966.217 -0.374515 -0.737338 0
M  V30 10548 H 968.763 -1.35421 -1.02271 0
M  V30 10549 H 967.535 -2.9111 -2.61478 0
M  V30 10550 H 967.158 -1.55188 -3.66064 0
M  V30 10551 N 968.156 1.1691 -1.05688 0
M  V30 10552 C 969.104 2.2315 -0.656262 0
M  V30 10553 C 970.098 1.66256 0.324873 0
M  V30 10554 O 971.304 1.7899 0.190397 0
M  V30 10555 H 967.679 0.726527 -0.19407 0
M  V30 10556 H 969.65 2.54233 -1.56231 0
M  V30 10557 C 968.399 3.47661 -0.0522431 0
M  V30 10558 H 967.722 3.91749 -0.798299 0
M  V30 10559 H 969.162 4.23571 0.190626 0
M  V30 10560 C 967.621 3.14709 1.20248 0
M  V30 10561 O 968.151 3.29947 2.29124 0
M  V30 10562 N 966.357 2.68892 1.10207 0
M  V30 10563 H 965.904 2.56692 0.216063 0
M  V30 10564 H 965.862 2.47218 1.94244 0
M  V30 10565 N 969.634 0.838594 1.33437 0
M  V30 10566 C 970.859 0.446701 2.02532 0
M  V30 10567 C 971.284 -0.944275 1.62681 0
M  V30 10568 O 970.642 -1.61733 0.81927 0
M  V30 10569 C 970.69 0.574794 3.55989 0
M  V30 10570 O 969.794 -0.399063 4.10465 0
M  V30 10571 H 969.135 0.181637 0.638674 0
M  V30 10572 H 971.665 1.13335 1.70342 0
M  V30 10573 H 971.675 0.456339 4.0544 0
M  V30 10574 H 970.35 1.58921 3.8434 0
M  V30 10575 H 968.927 -0.238187 3.72139 0
M  V30 10576 N 971.112 -1.45937 0.595003 0
M  V30 10577 C 972.337 -2.07207 0.0894416 0
M  V30 10578 C 972.762 -1.43884 -1.21157 0
M  V30 10579 O 972.12 -0.526998 -1.73472 0
M  V30 10580 C 972.168 -3.60565 -0.0499828 0
M  V30 10581 O 971.272 -3.97364 -1.10342 0
M  V30 10582 H 970.613 -0.660471 0.0683627 0
M  V30 10583 H 973.143 -1.87386 0.82144 0
M  V30 10584 H 973.153 -4.0722 -0.252234 0
M  V30 10585 H 971.828 -4.06044 0.90006 0
M  V30 10586 H 970.405 -3.62401 -0.878645 0
M  V30 10587 N 972.59 -0.333456 -1.54032 0
M  V30 10588 C 973.537 0.527981 -2.2468 0
M  V30 10589 C 974.507 1.10371 -1.24127 0
M  V30 10590 O 975.692 1.14221 -1.52834 0
M  V30 10591 C 972.832 1.67808 -3.01553 0
M  V30 10592 C 971.945 1.13064 -4.16942 0
M  V30 10593 C 971.08 2.24722 -4.81325 0
M  V30 10594 C 970.119 1.67277 -5.88799 0
M  V30 10595 N 969.256 2.72638 -6.47003 0
M  V30 10596 H 974.096 -0.0810308 -2.9789 0
M  V30 10597 H 971.633 -0.051761 -1.47009 0
M  V30 10598 H 973.591 2.35502 -3.44376 0
M  V30 10599 H 972.221 2.25823 -2.30659 0
M  V30 10600 H 971.273 0.344948 -3.78833 0
M  V30 10601 H 972.585 0.670373 -4.94275 0
M  V30 10602 H 971.739 3.00301 -5.27166 0
M  V30 10603 H 970.478 2.74089 -4.03394 0
M  V30 10604 H 969.483 0.902002 -5.4235 0
M  V30 10605 H 970.708 1.18775 -6.68632 0
M  V30 10606 H 968.654 3.21277 -5.71941 0
M  V30 10607 H 968.571 2.31204 -7.19778 0
M  V30 10608 H 969.839 3.48015 -6.97499 0
M  V30 10609 N 974.068 1.57479 -0.061844 0
M  V30 10610 C 975.345 1.84484 0.649993 0
M  V30 10611 C 975.725 0.952366 1.88396 0
M  V30 10612 O 975.073 0.0161035 2.28494 0
M  V30 10613 C 975.283 3.34452 0.997133 0
M  V30 10614 C 976.631 4.01724 1.37488 0
M  V30 10615 O 977.655 3.3914 1.08916 0
M  V30 10616 O 976.514 5.12091 1.90854 0
M  V30 10617 H 973.608 0.761798 0.321858 0
M  V30 10618 H 976.154 1.6945 -0.0920192 0
M  V30 10619 H 974.926 3.91115 0.120301 0
M  V30 10620 H 974.549 3.54713 1.79624 0
M  V30 10621 N 975.546 -0.211634 1.56173 0
M  V30 10622 C 976.776 -0.949805 1.83473 0
M  V30 10623 C 977.184 -1.78045 0.640053 0
M  V30 10624 O 976.527 -1.79277 -0.400702 0
M  V30 10625 C 976.589 -1.90868 3.04647 0
M  V30 10626 C 976.253 -1.26159 4.39241 0
M  V30 10627 C 977.25 -0.646597 5.15863 0
M  V30 10628 C 974.935 -1.27039 4.85969 0
M  V30 10629 C 976.929 -0.0490313 6.37381 0
M  V30 10630 C 974.616 -0.668987 6.07427 0
M  V30 10631 C 975.614 -0.0593687 6.82974 0
M  V30 10632 O 975.302 0.532656 8.02133 0
M  V30 10633 H 975.034 -0.283458 0.6137 0
M  V30 10634 H 977.588 -0.22894 2.0412 0
M  V30 10635 H 975.818 -2.6688 2.79843 0
M  V30 10636 H 977.507 -2.51323 3.18734 0
M  V30 10637 H 978.273 -0.632056 4.80864 0
M  V30 10638 H 974.152 -1.73429 4.27134 0
M  V30 10639 H 977.696 0.427414 6.96289 0
M  V30 10640 H 973.593 -0.680975 6.41898 0
M  V30 10641 H 974.361 0.427942 8.17381 0
M  V30 10642 N 977.024 -1.50153 -0.478725 0
M  V30 10643 C 977.956 -1.64603 -1.59494 0
M  V30 10644 C 978.969 -0.527789 -1.54007 0
M  V30 10645 O 980.158 -0.80069 -1.59534 0
M  V30 10646 C 977.258 -1.60738 -2.98356 0
M  V30 10647 C 976.431 -2.88468 -3.28794 0
M  V30 10648 C 975.49 -2.77349 -4.47173 0
M  V30 10649 O 974.516 -3.51302 -4.47857 0
M  V30 10650 N 975.718 -1.9039 -5.4839 0
M  V30 10651 H 978.483 -2.6088 -1.47518 0
M  V30 10652 H 976.044 -1.47521 -0.667011 0
M  V30 10653 H 978.036 -1.50923 -3.75505 0
M  V30 10654 H 976.606 -0.722273 -3.04141 0
M  V30 10655 H 975.826 -3.12467 -2.40329 0
M  V30 10656 H 977.114 -3.73102 -3.45937 0
M  V30 10657 H 976.512 -1.29606 -5.50653 0
M  V30 10658 H 975.069 -1.86484 -6.24553 0
M  V30 10659 N 978.502 0.731368 -1.39602 0
M  V30 10660 C 979.465 1.8271 -1.38383 0
M  V30 10661 C 980.465 1.58338 -0.280309 0
M  V30 10662 O 981.655 1.65671 -0.538402 0
M  V30 10663 C 978.787 3.20556 -1.16002 0
M  V30 10664 H 979.98 1.85193 -2.35889 0
M  V30 10665 H 977.533 0.935396 -1.2522 0
M  V30 10666 H 978.268 3.23732 -0.191927 0
M  V30 10667 H 978.053 3.39643 -1.9592 0
M  V30 10668 H 979.543 4.00612 -1.17899 0
M  V30 10669 N 979.98 1.24838 0.961938 0
M  V30 10670 C 980.89 1.06304 2.09133 0
M  V30 10671 C 981.906 0.00221475 1.74 0
M  V30 10672 O 983.082 0.201611 2.00388 0
M  V30 10673 C 980.147 0.676117 3.40043 0
M  V30 10674 C 979.208 1.81407 3.89089 0
M  V30 10675 C 978.441 1.44551 5.13752 0
M  V30 10676 O 978.664 0.337894 5.69398 0
M  V30 10677 O 977.598 2.27316 5.57325 0
M  V30 10678 H 981.424 2.01001 2.27667 0
M  V30 10679 H 979.009 1.0371 1.07539 0
M  V30 10680 H 980.891 0.472124 4.18747 0
M  V30 10681 H 979.566 -0.241667 3.22797 0
M  V30 10682 H 978.473 2.07286 3.11421 0
M  V30 10683 H 979.806 2.71083 4.10822 0
M  V30 10684 N 981.458 -1.16348 1.06306 0
M  V30 10685 C 982.707 -1.8622 0.774909 0
M  V30 10686 C 983.02 -1.82598 -0.701245 0
M  V30 10687 O 984.226 -2.48051 -1.10377 0
M  V30 10688 C 982.682 -3.34182 1.33604 0
M  V30 10689 C 982.29 -3.46279 2.84245 0
M  V30 10690 C 984.034 -4.09309 1.12544 0
M  V30 10691 C 981.941 -4.88327 3.33602 0
M  V30 10692 H 980.871 -0.697574 0.286194 0
M  V30 10693 H 983.522 -1.31311 1.28179 0
M  V30 10694 H 981.904 -3.88698 0.756937 0
M  V30 10695 H 983.078 -3.01923 3.48108 0
M  V30 10696 H 981.393 -2.84585 3.03974 0
M  V30 10697 H 983.99 -5.14123 1.46909 0
M  V30 10698 H 984.333 -4.16251 0.0638129 0
M  V30 10699 H 984.866 -3.61032 1.67034 0
M  V30 10700 H 981.605 -4.86565 4.39244 0
M  V30 10701 H 981.125 -5.33307 2.74487 0
M  V30 10702 H 982.804 -5.57144 3.28937 0
M  V30 10703 N 982.937 -0.845659 -1.3299 0
M  V30 10704 C 984.214 -0.366306 -1.92139 0
M  V30 10705 C 984.594 1.14912 -1.77083 0
M  V30 10706 O 983.942 1.96667 -1.16338 0
M  V30 10707 C 984.152 -0.820716 -3.39213 0
M  V30 10708 C 985.5 -0.832667 -4.16355 0
M  V30 10709 O 986.524 -0.764764 -3.47893 0
M  V30 10710 O 985.383 -0.926658 -5.38586 0
M  V30 10711 H 982.477 -0.105063 -0.820299 0
M  V30 10712 H 985.023 -0.931962 -1.41819 0
M  V30 10713 H 983.795 -1.86357 -3.44074 0
M  V30 10714 H 983.418 -0.232009 -3.96923 0
M  V30 10715 N 984.415 1.45619 -0.602734 0
M  V30 10716 C 985.664 2.01483 -0.0936395 0
M  V30 10717 C 985.977 1.47753 1.28173 0
M  V30 10718 O 987.183 1.95562 1.88329 0
M  V30 10719 C 985.639 3.59711 -0.116738 0
M  V30 10720 C 985.247 4.22437 -1.49166 0
M  V30 10721 C 986.991 4.23157 0.337368 0
M  V30 10722 C 984.898 5.72803 -1.47141 0
M  V30 10723 H 983.828 0.753353 -0.0312382 0
M  V30 10724 H 986.479 1.67142 -0.757347 0
M  V30 10725 H 984.861 3.91218 0.613529 0
M  V30 10726 H 986.035 4.02511 -2.24325 0
M  V30 10727 H 984.35 3.71166 -1.88746 0
M  V30 10728 H 986.947 5.33407 0.371628 0
M  V30 10729 H 987.29 3.93491 1.35906 0
M  V30 10730 H 987.823 3.96349 -0.339474 0
M  V30 10731 H 984.562 6.07161 -2.47055 0
M  V30 10732 H 984.082 5.94936 -0.762329 0
M  V30 10733 H 985.761 6.35907 -1.19294 0
M  V30 10734 N 985.893 0.34162 1.53853 0
M  V30 10735 C 987.123 -0.256557 2.05001 0
M  V30 10736 C 987.531 -1.44916 1.21639 0
M  V30 10737 O 986.874 -1.8207 0.244138 0
M  V30 10738 C 986.936 -0.737109 3.51862 0
M  V30 10739 C 986.6 0.335584 4.55766 0
M  V30 10740 C 987.597 1.17765 5.06387 0
M  V30 10741 C 985.282 0.488958 4.99914 0
M  V30 10742 C 987.276 2.15865 5.99734 0
M  V30 10743 C 984.963 1.47336 5.93073 0
M  V30 10744 C 985.961 2.30666 6.4287 0
M  V30 10745 O 985.649 3.2743 7.34197 0
M  V30 10746 H 985.381 -0.0536867 0.673865 0
M  V30 10747 H 987.935 0.49123 1.99439 0
M  V30 10748 H 986.165 -1.53611 3.54881 0
M  V30 10749 H 987.854 -1.25562 3.85991 0
M  V30 10750 H 988.62 1.07023 4.73044 0
M  V30 10751 H 984.499 -0.149807 4.60757 0
M  V30 10752 H 988.043 2.80945 6.38526 0
M  V30 10753 H 983.94 1.58134 6.25831 0
M  V30 10754 H 984.708 3.22879 7.52125 0
M  V30 10755 N 987.371 -1.57444 0.0701946 0
M  V30 10756 C 988.619 -1.93047 -0.598106 0
M  V30 10757 C 988.94 -0.950841 -1.70247 0
M  V30 10758 O 988.21 0.00127177 -1.959 0
M  V30 10759 H 986.79 -0.712648 -0.223924 0
M  V30 10760 H 989.452 -1.94481 0.127674 0
M  V30 10761 H 988.548 -2.94807 -1.02445 0
M  V30 10762 N 988.849 0.203349 -1.56283 0
M  V30 10763 C 989.779 1.2549 -1.96912 0
M  V30 10764 C 990.76 1.47919 -0.839884 0
M  V30 10765 O 991.945 1.59795 -1.10359 0
M  V30 10766 C 989.075 2.6009 -2.30153 0
M  V30 10767 C 988.029 2.52289 -3.45738 0
M  V30 10768 C 987.355 3.91086 -3.64632 0
M  V30 10769 C 988.655 2.05503 -4.80173 0
M  V30 10770 H 990.349 0.917306 -2.85002 0
M  V30 10771 H 987.895 0.439818 -1.37119 0
M  V30 10772 H 989.848 3.33829 -2.5717 0
M  V30 10773 H 988.572 2.95574 -1.38937 0
M  V30 10774 H 987.231 1.81006 -3.18798 0
M  V30 10775 H 986.879 4.23908 -2.7076 0
M  V30 10776 H 986.579 3.86742 -4.42385 0
M  V30 10777 H 988.103 4.66459 -3.94016 0
M  V30 10778 H 989.517 2.68995 -5.06275 0
M  V30 10779 H 987.914 2.1218 -5.61337 0
M  V30 10780 H 988.984 1.00793 -4.74309 0
M  V30 10781 N 990.327 1.50405 0.470755 0
M  V30 10782 C 991.275 1.6982 1.58946 0
M  V30 10783 C 992.269 0.56407 1.59733 0
M  V30 10784 O 993.475 0.744576 1.63878 0
M  V30 10785 H 989.85 0.536016 0.527438 0
M  V30 10786 H 991.821 2.63662 1.39732 0
M  V30 10787 C 990.57 1.80986 2.96883 0
M  V30 10788 H 989.893 2.67645 2.96996 0
M  V30 10789 H 991.333 1.98596 3.74614 0
M  V30 10790 C 989.792 0.561551 3.32187 0
M  V30 10791 O 990.322 -0.299136 4.00585 0
M  V30 10792 N 988.528 0.415476 2.87615 0
M  V30 10793 H 988.075 1.11691 2.32127 0
M  V30 10794 H 988.033 -0.418592 3.11601 0
M  V30 10795 N 991.805 -0.723954 1.39988 0
M  V30 10796 C 993.221 -1.03095 1.21834 0
M  V30 10797 C 993.421 -2.01309 0.0876647 0
M  V30 10798 O 992.477 -2.46277 -0.55714 0
M  V30 10799 C 993.79 -1.58267 2.5568 0
M  V30 10800 C 995.338 -1.70293 2.6262 0
M  V30 10801 C 995.813 -2.28872 3.96713 0
M  V30 10802 N 997.304 -2.36269 3.98411 0
M  V30 10803 C 998.039 -2.82557 4.98948 0
M  V30 10804 N 997.535 -3.28661 6.0988 0
M  V30 10805 N 999.328 -2.81866 4.86321 0
M  V30 10806 H 991.479 -0.0727891 2.12275 0
M  V30 10807 H 993.742 -0.0949029 0.943238 0
M  V30 10808 H 993.448 -0.935642 3.39026 0
M  V30 10809 H 993.322 -2.56914 2.76179 0
M  V30 10810 H 995.709 -2.34115 1.7965 0
M  V30 10811 H 995.79 -0.70268 2.45959 0
M  V30 10812 H 995.434 -1.65675 4.80119 0
M  V30 10813 H 995.364 -3.29595 4.107 0
M  V30 10814 H 997.855 -2.03697 3.18302 0
M  V30 10815 H 998.168 -3.62524 6.82493 0
M  V30 10816 H 996.513 -3.26641 6.13458 0
M  V30 10817 H 999.704 -2.45179 3.98754 0
M  V30 10818 H 999.877 -3.17626 5.64817 0
M  V30 10819 N 993.283 -1.25346 -0.955304 0
M  V30 10820 C 994.699 -1.02154 -1.22625 0
M  V30 10821 C 994.899 0.26206 -1.99789 0
M  V30 10822 O 993.955 0.974958 -2.32918 0
M  V30 10823 C 995.268 -2.2443 -2.00129 0
M  V30 10824 C 996.816 -2.29185 -2.13174 0
M  V30 10825 C 997.291 -3.51117 -2.94077 0
M  V30 10826 N 998.782 -3.51509 -3.01655 0
M  V30 10827 C 999.517 -4.42517 -3.64645 0
M  V30 10828 N 999.013 -5.43796 -4.29252 0
M  V30 10829 N 1000.81 -4.302 -3.61779 0
M  V30 10830 H 992.957 -2.07812 -0.439071 0
M  V30 10831 H 995.22 -0.91258 -0.256715 0
M  V30 10832 H 994.926 -3.17717 -1.50827 0
M  V30 10833 H 994.8 -2.27548 -3.00835 0
M  V30 10834 H 997.187 -1.36422 -2.61674 0
M  V30 10835 H 997.268 -2.30087 -1.11775 0
M  V30 10836 H 996.912 -4.44201 -2.46268 0
M  V30 10837 H 996.842 -3.4746 -3.95701 0
M  V30 10838 H 999.333 -2.78245 -2.55711 0
M  V30 10839 H 999.646 -6.09453 -4.75171 0
M  V30 10840 H 997.991 -5.4767 -4.27882 0
M  V30 10841 H 1001.18 -3.50304 -3.10491 0
M  V30 10842 H 1001.36 -5.01323 -4.10584 0
M  V30 10843 N 994.761 1.15782 -1.06922 0
M  V30 10844 C 996.009 1.86097 -0.788192 0
M  V30 10845 C 996.33 1.82475 0.687606 0
M  V30 10846 O 995.6 1.26266 1.49778 0
M  V30 10847 H 994.18 0.689008 -0.288577 0
M  V30 10848 H 996.842 1.40377 -1.35205 0
M  V30 10849 H 995.938 2.91358 -1.1188 0
M  V30 10850 N 996.239 0.8527 1.3254 0
M  V30 10851 C 997.169 0.311234 2.31416 0
M  V30 10852 C 998.15 -0.588557 1.59593 0
M  V30 10853 O 999.335 -0.509211 1.87405 0
M  V30 10854 C 996.465 -0.502892 3.4364 0
M  V30 10855 C 995.419 0.302296 4.26931 0
M  V30 10856 C 994.745 -0.636445 5.30899 0
M  V30 10857 C 996.045 1.52697 4.99481 0
M  V30 10858 H 997.739 1.13742 2.76953 0
M  V30 10859 H 995.285 0.548389 1.33149 0
M  V30 10860 H 997.238 -0.892092 4.11849 0
M  V30 10861 H 995.962 -1.36242 2.96826 0
M  V30 10862 H 994.621 0.673226 3.60365 0
M  V30 10863 H 994.269 -1.49277 4.80339 0
M  V30 10864 H 993.969 -0.101716 5.87512 0
M  V30 10865 H 995.493 -1.02286 6.01972 0
M  V30 10866 H 996.907 1.21017 5.60382 0
M  V30 10867 H 995.304 1.9995 5.65809 0
M  V30 10868 H 996.374 2.28929 4.27457 0
M  V30 10869 N 997.718 -1.45297 0.610449 0
M  V30 10870 C 998.648 -2.33311 -0.0939698 0
M  V30 10871 C 999.629 -1.46999 -0.85588 0
M  V30 10872 O 1000.81 -1.75764 -0.825865 0
M  V30 10873 C 997.944 -3.29751 -1.09003 0
M  V30 10874 C 996.898 -4.2572 -0.441146 0
M  V30 10875 C 996.224 -5.11873 -1.54566 0
M  V30 10876 C 997.524 -5.1837 0.639489 0
M  V30 10877 H 999.218 -2.92459 0.640941 0
M  V30 10878 H 996.764 -1.40631 0.309675 0
M  V30 10879 H 998.717 -3.90195 -1.59141 0
M  V30 10880 H 997.441 -2.68768 -1.85557 0
M  V30 10881 H 996.1 -3.66579 0.0393908 0
M  V30 10882 H 995.748 -4.47256 -2.30155 0
M  V30 10883 H 995.448 -5.76886 -1.11698 0
M  V30 10884 H 996.972 -5.75185 -2.04925 0
M  V30 10885 H 998.386 -5.7287 0.22207 0
M  V30 10886 H 996.783 -5.91876 0.990089 0
M  V30 10887 H 997.853 -4.60627 1.51495 0
M  V30 10888 N 999.196 -0.349774 -1.5367 0
M  V30 10889 C 1000.14 0.519396 -2.26727 0
M  V30 10890 C 1001.14 1.09673 -1.29105 0
M  V30 10891 O 1002.34 1.04176 -1.46791 0
M  V30 10892 H 998.719 0.186192 -0.728585 0
M  V30 10893 H 1000.69 -0.118736 -2.98164 0
M  V30 10894 C 999.439 1.65535 -3.05767 0
M  V30 10895 H 998.762 1.22038 -3.80719 0
M  V30 10896 H 1000.2 2.23856 -3.6009 0
M  V30 10897 C 998.661 2.58844 -2.15642 0
M  V30 10898 O 999.191 3.61254 -1.75665 0
M  V30 10899 N 997.397 2.27671 -1.80595 0
M  V30 10900 H 996.944 1.44429 -2.13302 0
M  V30 10901 H 996.902 2.90359 -1.20577 0
M  V30 10902 N 1000.67 1.57404 -0.0785433 0
M  V30 10903 C 1001.95 1.85163 0.630389 0
M  V30 10904 C 1002.33 0.972295 1.87376 0
M  V30 10905 O 1001.68 0.0403375 2.28464 0
M  V30 10906 C 1001.89 3.35491 0.961604 0
M  V30 10907 C 1003.24 4.0316 1.33219 0
M  V30 10908 O 1004.26 3.40276 1.05313 0
M  V30 10909 O 1003.12 5.14086 1.85412 0
M  V30 10910 H 1000.21 0.765169 0.31376 0
M  V30 10911 H 1002.76 1.69343 -0.109986 0
M  V30 10912 H 1001.53 3.91221 0.0788113 0
M  V30 10913 H 1001.15 3.56598 1.75852 0
M  V30 10914 N 1002.15 -0.195058 1.56388 0
M  V30 10915 C 1003.4 -0.9168 1.80894 0
M  V30 10916 C 1003.73 -1.82907 0.652592 0
M  V30 10917 O 1003.01 -1.91382 -0.346853 0
M  V30 10918 C 1003.29 -1.733 3.15657 0
M  V30 10919 C 1003.14 -0.845449 4.41783 0
M  V30 10920 C 1004.46 -2.70557 3.47112 0
M  V30 10921 H 1001.58 -0.331861 0.658056 0
M  V30 10922 H 1004.22 -0.184174 1.89105 0
M  V30 10923 H 1002.37 -2.3576 3.08787 0
M  V30 10924 H 1004.04 -0.235557 4.60698 0
M  V30 10925 H 1002.29 -0.152172 4.33533 0
M  V30 10926 H 1002.96 -1.45152 5.32574 0
M  V30 10927 H 1005.43 -2.1823 3.54281 0
M  V30 10928 H 1004.31 -3.24749 4.42526 0
M  V30 10929 H 1004.57 -3.49605 2.70608 0
M  V30 10930 N 1003.63 -1.50653 -0.462772 0
M  V30 10931 C 1004.56 -1.73056 -1.5676 0
M  V30 10932 C 1005.54 -0.579699 -1.59917 0
M  V30 10933 O 1006.73 -0.819729 -1.76051 0
M  V30 10934 C 1003.86 -1.83234 -2.9503 0
M  V30 10935 C 1002.81 -2.98488 -3.06739 0
M  V30 10936 C 1002.14 -2.93818 -4.46738 0
M  V30 10937 C 1003.44 -4.38869 -2.83181 0
M  V30 10938 H 1005.13 -2.65562 -1.38265 0
M  V30 10939 H 1002.68 -1.27792 -0.663722 0
M  V30 10940 H 1004.63 -1.97491 -3.72257 0
M  V30 10941 H 1003.35 -0.873558 -3.14701 0
M  V30 10942 H 1002.01 -2.83895 -2.31946 0
M  V30 10943 H 1001.66 -1.95769 -4.63339 0
M  V30 10944 H 1001.36 -3.71197 -4.55507 0
M  V30 10945 H 1002.88 -3.10135 -5.25974 0
M  V30 10946 H 1004.3 -4.53945 -3.50153 0
M  V30 10947 H 1002.69 -5.17762 -3.03386 0
M  V30 10948 H 1003.76 -4.50663 -1.78972 0
M  V30 10949 N 1005.11 0.71652 -1.4037 0
M  V30 10950 C 1006.04 1.84138 -1.36477 0
M  V30 10951 C 1007.05 1.6054 -0.27033 0
M  V30 10952 O 1008.24 1.70431 -0.530612 0
M  V30 10953 C 1005.34 3.20523 -1.10082 0
M  V30 10954 C 1004.52 3.71326 -2.31162 0
M  V30 10955 C 1003.57 4.86322 -2.00942 0
M  V30 10956 O 1002.6 4.99022 -2.73799 0
M  V30 10957 N 1003.8 5.72051 -0.986812 0
M  V30 10958 H 1006.57 1.87977 -2.3342 0
M  V30 10959 H 1004.13 0.89802 -1.34712 0
M  V30 10960 H 1006.12 3.95049 -0.878526 0
M  V30 10961 H 1004.69 3.11838 -0.21809 0
M  V30 10962 H 1003.91 2.87941 -2.69227 0
M  V30 10963 H 1005.2 4.02003 -3.11883 0
M  V30 10964 H 1004.6 5.64399 -0.383381 0
M  V30 10965 H 1003.15 6.46565 -0.824419 0
M  V30 10966 N 1006.59 1.25851 0.948643 0
M  V30 10967 C 1007.84 1.10347 1.68838 0
M  V30 10968 C 1008.15 -0.354262 1.92365 0
M  V30 10969 O 1009.35 -0.629847 2.64093 0
M  V30 10970 C 1007.81 1.92659 3.03991 0
M  V30 10971 C 1007.42 3.42962 2.88238 0
M  V30 10972 C 1009.16 1.85743 3.81707 0
M  V30 10973 C 1007.07 4.17547 4.18818 0
M  V30 10974 H 1006 0.409342 0.63321 0
M  V30 10975 H 1008.65 1.50098 1.05559 0
M  V30 10976 H 1007.03 1.45736 3.68208 0
M  V30 10977 H 1008.21 3.97601 2.32917 0
M  V30 10978 H 1006.52 3.51035 2.23972 0
M  V30 10979 H 1009.12 2.38758 4.78434 0
M  V30 10980 H 1009.46 0.826568 4.08012 0
M  V30 10981 H 1009.99 2.30449 3.2425 0
M  V30 10982 H 1006.73 5.21072 3.97699 0
M  V30 10983 H 1006.25 3.6769 4.73882 0
M  V30 10984 H 1007.93 4.25589 4.87322 0
M  V30 10985 N 1008.06 -1.15214 1.07534 0
M  V30 10986 C 1008.99 -2.2216 0.718837 0
M  V30 10987 C 1009.98 -1.6753 -0.29459 0
M  V30 10988 O 1011.16 -1.93481 -0.166931 0
M  V30 10989 C 1008.29 -3.471 0.117836 0
M  V30 10990 C 1007.24 -4.14701 1.05862 0
M  V30 10991 C 1006.57 -5.3374 0.320284 0
M  V30 10992 C 1007.87 -4.64254 2.39302 0
M  V30 10993 H 1009.56 -2.52237 1.61297 0
M  V30 10994 H 1007.11 -1.21239 0.776992 0
M  V30 10995 H 1009.06 -4.21156 -0.143519 0
M  V30 10996 H 1007.79 -3.16361 -0.811389 0
M  V30 10997 H 1006.45 -3.42589 1.30493 0
M  V30 10998 H 1006.09 -4.99257 -0.61246 0
M  V30 10999 H 1005.79 -5.79912 0.947381 0
M  V30 11000 H 1007.32 -6.10563 0.0667721 0
M  V30 11001 H 1008.73 -5.29827 2.18988 0
M  V30 11002 H 1007.13 -5.21095 2.97623 0
M  V30 11003 H 1008.2 -3.79793 3.01472 0
M  V30 11004 N 1009.54 -0.859717 -1.32086 0
M  V30 11005 C 1010.77 -0.478865 -2.01796 0
M  V30 11006 C 1011.19 0.918274 -1.64163 0
M  V30 11007 O 1010.55 1.60409 -0.844896 0
M  V30 11008 C 1010.6 -0.631356 -3.5503 0
M  V30 11009 O 1009.7 0.333712 -4.11048 0
M  V30 11010 H 1009.04 -0.191775 -0.635703 0
M  V30 11011 H 1011.57 -1.16031 -1.68517 0
M  V30 11012 H 1011.58 -0.520783 -4.04663 0
M  V30 11013 H 1010.26 -1.65015 -3.81763 0
M  V30 11014 H 1008.84 0.178953 -3.7247 0
M  V30 11015 N 1011.02 1.44971 -0.618145 0
M  V30 11016 C 1011.97 2.32354 0.106846 0
M  V30 11017 C 1012.96 1.4659 0.848984 0
M  V30 11018 O 1014.17 1.63012 0.763354 0
M  V30 11019 H 1010.54 0.750108 0.0533109 0
M  V30 11020 H 1012.51 2.9127 -0.648426 0
M  V30 11021 C 1011.26 3.30381 1.08368 0
M  V30 11022 H 1010.59 3.96377 0.52205 0
M  V30 11023 H 1012.03 3.94231 1.56069 0
M  V30 11024 C 1010.49 2.58336 2.1625 0
M  V30 11025 O 1011.02 2.37258 3.24148 0
M  V30 11026 N 1009.22 2.18292 1.91825 0
M  V30 11027 H 1008.77 2.35635 1.04086 0
M  V30 11028 H 1008.73 1.70413 2.6421 0
M  V30 11029 N 1012.5 0.357919 1.53482 0
M  V30 11030 C 1013.72 -0.237769 2.06033 0
M  V30 11031 C 1014.15 -1.42292 1.23023 0
M  V30 11032 O 1013.51 -1.79604 0.247427 0
M  V30 11033 C 1013.55 -0.616806 3.55286 0
M  V30 11034 O 1012.66 -1.71503 3.75047 0
M  V30 11035 H 1012 -0.0364322 0.663 0
M  V30 11036 H 1014.53 0.516301 1.97979 0
M  V30 11037 H 1014.54 -0.88996 3.98175 0
M  V30 11038 H 1013.21 0.249825 4.15149 0
M  V30 11039 H 1011.79 -1.43803 3.44057 0
M  V30 11040 N 1013.98 -1.5736 0.0868897 0
M  V30 11041 C 1015.2 -1.98388 -0.587349 0
M  V30 11042 C 1015.62 -0.965757 -1.6223 0
M  V30 11043 O 1014.98 0.0456981 -1.82443 0
M  V30 11044 C 1015.03 -3.39479 -1.24242 0
M  V30 11045 O 1014.75 -4.37393 -0.248878 0
M  V30 11046 C 1016.25 -3.95465 -2.00305 0
M  V30 11047 H 1013.47 -0.652111 -0.15809 0
M  V30 11048 H 1016.01 -2.03843 0.163754 0
M  V30 11049 H 1014.17 -3.35063 -1.94451 0
M  V30 11050 H 1014.58 -5.19525 -0.720678 0
M  V30 11051 H 1016.06 -4.96363 -2.41511 0
M  V30 11052 H 1016.53 -3.32832 -2.86565 0
M  V30 11053 H 1017.14 -4.03328 -1.34931 0
M  V30 11054 N 1015.45 0.186762 -1.56489 0
M  V30 11055 C 1016.4 1.23141 -1.95205 0
M  V30 11056 C 1017.37 1.44799 -0.81378 0
M  V30 11057 O 1018.56 1.57795 -1.07263 0
M  V30 11058 C 1015.7 2.56926 -2.30397 0
M  V30 11059 C 1014.81 2.42777 -3.57328 0
M  V30 11060 C 1013.94 3.69323 -3.81804 0
M  V30 11061 C 1012.98 3.50041 -5.02133 0
M  V30 11062 N 1012.12 4.68619 -5.2282 0
M  V30 11063 H 1016.96 0.894256 -2.84266 0
M  V30 11064 H 1014.5 0.430187 -1.40669 0
M  V30 11065 H 1016.46 3.3488 -2.4882 0
M  V30 11066 H 1015.09 2.88668 -1.44466 0
M  V30 11067 H 1014.14 1.56078 -3.46906 0
M  V30 11068 H 1015.45 2.24468 -4.45439 0
M  V30 11069 H 1014.6 4.55715 -4.00511 0
M  V30 11070 H 1013.34 3.90595 -2.92039 0
M  V30 11071 H 1012.35 2.62034 -4.8334 0
M  V30 11072 H 1013.57 3.30206 -5.93414 0
M  V30 11073 H 1011.52 4.90139 -4.36005 0
M  V30 11074 H 1011.44 4.53165 -6.05126 0
M  V30 11075 H 1012.7 5.56338 -5.45993 0
M  V30 11076 N 1016.93 1.50896 0.454776 0
M  V30 11077 C 1018.16 1.66759 1.23313 0
M  V30 11078 C 1018.58 0.35722 1.84677 0
M  V30 11079 O 1017.94 -0.680771 1.68033 0
M  V30 11080 C 1017.99 2.77254 2.3057 0
M  V30 11081 O 1017.09 2.39642 3.35627 0
M  V30 11082 H 1016.43 0.556599 0.362068 0
M  V30 11083 H 1018.96 1.97365 0.539274 0
M  V30 11084 H 1018.97 3.0082 2.75629 0
M  V30 11085 H 1017.65 3.72349 1.85281 0
M  V30 11086 H 1016.23 2.26584 2.96165 0
M  V30 11087 N 1018.41 -0.709066 1.40748 0
M  V30 11088 C 1019.66 -1.4646 1.38681 0
M  V30 11089 C 1019.97 -1.95599 -0.0056209 0
M  V30 11090 O 1021.18 -2.71091 -0.148907 0
M  V30 11091 C 1019.63 -2.64771 2.43771 0
M  V30 11092 C 1019.24 -2.22474 3.88856 0
M  V30 11093 C 1020.99 -3.42475 2.50821 0
M  V30 11094 C 1018.89 -3.37663 4.85528 0
M  V30 11095 H 1017.82 -0.550084 0.515678 0
M  V30 11096 H 1020.47 -0.771074 1.66513 0
M  V30 11097 H 1018.86 -3.36325 2.09048 0
M  V30 11098 H 1020.03 -1.58297 4.32757 0
M  V30 11099 H 1018.35 -1.57798 3.85342 0
M  V30 11100 H 1020.94 -4.28201 3.20232 0
M  V30 11101 H 1021.29 -3.86738 1.54076 0
M  V30 11102 H 1021.82 -2.77969 2.84567 0
M  V30 11103 H 1018.56 -2.98426 5.83628 0
M  V30 11104 H 1018.08 -4.00734 4.46287 0
M  V30 11105 H 1019.76 -4.03636 5.05655 0
M  V30 11106 N 1019.89 -1.26353 -0.941956 0
M  V30 11107 C 1021.11 -1.14731 -1.72776 0
M  V30 11108 C 1021.54 0.293766 -1.85792 0
M  V30 11109 O 1020.9 1.21284 -1.34759 0
M  V30 11110 C 1020.95 -1.82041 -3.11277 0
M  V30 11111 O 1020.05 -1.10867 -3.97218 0
M  V30 11112 H 1019.39 -0.399823 -0.53013 0
M  V30 11113 H 1021.92 -1.67157 -1.17981 0
M  V30 11114 H 1021.93 -1.88834 -3.61671 0
M  V30 11115 H 1020.61 -2.86879 -3.0112 0
M  V30 11116 H 1019.18 -1.12044 -3.55669 0
M  V30 11117 N 1021.37 1.14642 -1.08144 0
M  V30 11118 C 1022.6 1.89484 -0.830864 0
M  V30 11119 C 1023.01 1.78443 0.616722 0
M  V30 11120 O 1022.37 1.14191 1.42361 0
M  V30 11121 C 1022.42 3.39554 -1.24039 0
M  V30 11122 O 1022.14 3.50286 -2.63119 0
M  V30 11123 C 1023.64 4.31399 -1.02029 0
M  V30 11124 H 1020.86 0.600283 -0.299835 0
M  V30 11125 H 1023.4 1.45204 -1.44001 0
M  V30 11126 H 1021.56 3.81467 -0.675407 0
M  V30 11127 H 1021.97 4.43481 -2.80045 0
M  V30 11128 H 1023.45 5.35079 -1.35625 0
M  V30 11129 H 1023.92 4.39179 0.0428697 0
M  V30 11130 H 1024.53 3.95238 -1.57057 0
M  V30 11131 N 1022.85 0.866709 1.31628 0
M  V30 11132 C 1024.09 0.476731 1.97117 0
M  V30 11133 C 1024.42 -0.967813 1.68366 0
M  V30 11134 O 1023.7 -1.68101 0.978377 0
M  V30 11135 C 1023.98 0.730561 3.52611 0
M  V30 11136 C 1023.84 2.2244 3.90948 0
M  V30 11137 C 1025.15 0.19488 4.39668 0
M  V30 11138 H 1022.27 0.174682 0.715999 0
M  V30 11139 H 1024.92 1.08735 1.5581 0
M  V30 11140 H 1023.07 0.210834 3.87927 0
M  V30 11141 H 1024.74 2.81113 3.6575 0
M  V30 11142 H 1022.98 2.69824 3.39673 0
M  V30 11143 H 1023.65 2.35266 4.99353 0
M  V30 11144 H 1026.13 0.639478 4.11157 0
M  V30 11145 H 1025 0.401958 5.47426 0
M  V30 11146 H 1025.26 -0.90302 4.32779 0
M  V30 11147 N 1024.32 -1.44642 0.625825 0
M  V30 11148 C 1025.27 -2.32408 -0.0945221 0
M  V30 11149 C 1026.27 -1.47038 -0.841198 0
M  V30 11150 O 1027.47 -1.63415 -0.754698 0
M  V30 11151 H 1023.85 -0.75038 -0.0493321 0
M  V30 11152 H 1025.82 -2.90922 0.663863 0
M  V30 11153 C 1024.57 -3.30951 -1.06615 0
M  V30 11154 H 1023.89 -3.96648 -0.501021 0
M  V30 11155 H 1025.33 -3.95054 -1.53976 0
M  V30 11156 C 1023.79 -2.59479 -2.14877 0
M  V30 11157 O 1024.32 -2.38974 -3.22885 0
M  V30 11158 N 1022.52 -2.19307 -1.90665 0
M  V30 11159 H 1022.07 -2.36184 -1.02835 0
M  V30 11160 H 1022.03 -1.71811 -2.63303 0
M  V30 11161 N 1025.8 -0.366053 -1.5329 0
M  V30 11162 C 1026.76 0.467904 -2.24373 0
M  V30 11163 C 1027.76 1.00934 -1.25176 0
M  V30 11164 O 1028.95 0.895015 -1.49449 0
M  V30 11165 C 1026.09 1.65405 -2.98084 0
M  V30 11166 H 1027.28 -0.154105 -2.99504 0
M  V30 11167 H 1024.83 -0.117751 -1.55856 0
M  V30 11168 H 1025.57 2.31413 -2.27197 0
M  V30 11169 H 1025.35 1.27277 -3.70868 0
M  V30 11170 H 1026.84 2.24503 -3.52119 0
M  V30 11171 N 1027.28 1.57312 -0.0952337 0
M  V30 11172 C 1028.21 2.11059 0.893678 0
M  V30 11173 C 1029.22 1.04787 1.24594 0
M  V30 11174 O 1030.41 1.32233 1.19903 0
M  V30 11175 C 1027.51 2.57552 2.20272 0
M  V30 11176 C 1026.69 3.87661 2.02578 0
M  V30 11177 C 1025.75 4.2 3.16996 0
M  V30 11178 O 1024.77 4.89219 2.90953 0
M  V30 11179 N 1025.97 3.75414 4.42769 0
M  V30 11180 H 1028.74 2.96532 0.434632 0
M  V30 11181 H 1026.3 1.6165 0.0898661 0
M  V30 11182 H 1028.29 2.76232 2.95766 0
M  V30 11183 H 1026.86 1.7709 2.576 0
M  V30 11184 H 1026.08 3.78128 1.11413 0
M  V30 11185 H 1027.37 4.7278 1.88032 0
M  V30 11186 H 1026.77 3.1954 4.66809 0
M  V30 11187 H 1025.32 3.99249 5.15212 0
M  V30 11188 N 1028.76 -0.17846 1.56586 0
M  V30 11189 C 1030.17 -0.741599 1.71339 0
M  V30 11190 C 1030.52 -1.83112 0.704579 0
M  V30 11191 O 1029.64 -2.15975 -0.135557 0
M  V30 11192 C 1030.24 -1.35198 3.10656 0
M  V30 11193 C 1028.8 -1.86202 3.27118 0
M  V30 11194 C 1027.95 -0.738255 2.67292 0
M  V30 11195 H 1030.9 0.0468424 1.58631 0
M  V30 11196 H 1030.92 -2.2216 3.0891 0
M  V30 11197 H 1030.43 -0.558776 3.84056 0
M  V30 11198 H 1028.53 -2.68188 2.58661 0
M  V30 11199 H 1028.64 -2.01237 4.34788 0
M  V30 11200 H 1027.01 -1.15686 2.26912 0
M  V30 11201 H 1027.79 0.0429821 3.43273 0
M  V30 11202 N 1030.24 -1.51135 -0.446768 0
M  V30 11203 C 1031.46 -1.67129 -1.21965 0
M  V30 11204 C 1031.88 -0.36467 -1.85245 0
M  V30 11205 O 1031.24 0.655908 -1.70306 0
M  V30 11206 C 1031.29 -2.78016 -2.31061 0
M  V30 11207 O 1031.01 -4.03615 -1.70371 0
M  V30 11208 C 1032.51 -3.05197 -3.21511 0
M  V30 11209 H 1029.73 -0.561111 -0.367961 0
M  V30 11210 H 1032.27 -1.97499 -0.530517 0
M  V30 11211 H 1030.43 -2.50272 -2.95707 0
M  V30 11212 H 1030.84 -4.65126 -2.424 0
M  V30 11213 H 1032.32 -3.8639 -3.94216 0
M  V30 11214 H 1032.79 -2.17228 -3.81718 0
M  V30 11215 H 1033.4 -3.34565 -2.62577 0
M  V30 11216 N 1031.71 0.701592 -1.41122 0
M  V30 11217 C 1032.66 1.81559 -1.42495 0
M  V30 11218 C 1033.63 1.63722 -0.280078 0
M  V30 11219 O 1034.82 1.84658 -0.480231 0
M  V30 11220 C 1031.96 3.19392 -1.30702 0
M  V30 11221 C 1031.07 3.48704 -2.55009 0
M  V30 11222 C 1030.2 4.76118 -2.35554 0
M  V30 11223 C 1029.24 4.98378 -3.55367 0
M  V30 11224 N 1028.38 6.17014 -3.3502 0
M  V30 11225 H 1033.22 1.7972 -2.37707 0
M  V30 11226 H 1030.76 0.877727 -1.18044 0
M  V30 11227 H 1032.71 3.99004 -1.21867 0
M  V30 11228 H 1031.34 3.20423 -0.391012 0
M  V30 11229 H 1030.4 2.63542 -2.74317 0
M  V30 11230 H 1031.71 3.61057 -3.44151 0
M  V30 11231 H 1030.86 5.63774 -2.24152 0
M  V30 11232 H 1029.6 4.66 -1.43859 0
M  V30 11233 H 1028.61 4.09172 -3.6723 0
M  V30 11234 H 1029.83 5.10359 -4.48007 0
M  V30 11235 H 1027.78 6.0812 -2.4602 0
M  V30 11236 H 1027.69 6.30107 -4.17733 0
M  V30 11237 H 1028.96 7.0742 -3.27379 0
M  V30 11238 N 1033.19 1.2685 0.935242 0
M  V30 11239 C 1034.47 1.03483 1.65984 0
M  V30 11240 C 1034.85 -0.432859 2.06614 0
M  V30 11241 O 1034.2 -1.4145 1.79455 0
M  V30 11242 C 1034.41 1.98924 2.86758 0
M  V30 11243 C 1035.75 2.2787 3.58274 0
M  V30 11244 O 1036.78 1.96838 2.96873 0
M  V30 11245 O 1035.64 2.80734 4.68882 0
M  V30 11246 H 1032.73 0.393932 0.72715 0
M  V30 11247 H 1035.28 1.38085 0.986445 0
M  V30 11248 H 1034.05 2.9794 2.53668 0
M  V30 11249 H 1033.67 1.64839 3.6182 0
M  V30 11250 N 1034.67 -1.14067 1.0875 0
M  V30 11251 C 1035.6 -2.18306 0.664652 0
M  V30 11252 C 1036.58 -1.59312 -0.325359 0
M  V30 11253 O 1037.77 -1.87111 -0.228385 0
M  V30 11254 C 1034.89 -3.38693 -0.0218723 0
M  V30 11255 C 1033.94 -4.16263 0.928844 0
M  V30 11256 S 1034.77 -4.76817 2.43734 0
M  V30 11257 C 1035.93 -6.00557 1.76302 0
M  V30 11258 H 1036.16 -2.53837 1.54772 0
M  V30 11259 H 1033.69 -1.25254 0.902817 0
M  V30 11260 H 1035.65 -4.0843 -0.411686 0
M  V30 11261 H 1034.31 -3.01478 -0.881481 0
M  V30 11262 H 1033.51 -5.02446 0.395446 0
M  V30 11263 H 1033.11 -3.52146 1.25972 0
M  V30 11264 H 1035.4 -6.68788 1.08301 0
M  V30 11265 H 1036.34 -6.58492 2.60373 0
M  V30 11266 H 1036.75 -5.50827 1.23489 0
M  V30 11267 N 1036.15 -0.873678 -1.31166 0
M  V30 11268 C 1037.1 -0.330288 -2.28424 0
M  V30 11269 C 1038.07 0.573299 -1.55893 0
M  V30 11270 O 1039.25 0.504143 -1.84019 0
M  V30 11271 C 1036.39 0.459004 -3.42034 0
M  V30 11272 C 1035.5 -0.472519 -4.29408 0
M  V30 11273 C 1034.64 0.331261 -5.30166 0
M  V30 11274 C 1033.68 -0.596453 -6.09187 0
M  V30 11275 N 1032.81 0.171305 -7.01891 0
M  V30 11276 H 1037.65 -1.16485 -2.7429 0
M  V30 11277 H 1035.19 -0.585813 -1.34932 0
M  V30 11278 H 1037.15 0.932432 -4.06647 0
M  V30 11279 H 1035.78 1.25824 -2.97268 0
M  V30 11280 H 1034.83 -1.06441 -3.65205 0
M  V30 11281 H 1036.14 -1.18372 -4.84551 0
M  V30 11282 H 1035.3 0.867038 -6.00473 0
M  V30 11283 H 1034.04 1.07573 -4.75688 0
M  V30 11284 H 1033.04 -1.14395 -5.37767 0
M  V30 11285 H 1034.27 -1.33983 -6.65752 0
M  V30 11286 H 1032.21 0.89852 -6.49817 0
M  V30 11287 H 1032.13 -0.480481 -7.54472 0
M  V30 11288 H 1033.4 0.688192 -7.76456 0
M  V30 11289 N 1037.63 1.44308 -0.633487 0
M  V30 11290 C 1038.87 2.02023 -0.138917 0
M  V30 11291 C 1039.2 1.49841 1.24008 0
M  V30 11292 O 1038.46 0.673718 1.83738 0
M  V30 11293 C 1038.76 3.57316 -0.0773886 0
M  V30 11294 C 1038.42 4.28762 -1.39548 0
M  V30 11295 C 1037.08 4.47997 -1.75648 0
M  V30 11296 C 1039.44 4.69391 -2.26542 0
M  V30 11297 C 1036.76 5.05121 -2.98445 0
M  V30 11298 C 1039.12 5.27876 -3.48612 0
M  V30 11299 C 1037.78 5.45329 -3.84932 0
M  V30 11300 H 1037.05 0.739254 -0.0508333 0
M  V30 11301 H 1039.7 1.73043 -0.820271 0
M  V30 11302 H 1038 3.85724 0.687345 0
M  V30 11303 H 1039.7 3.99706 0.321837 0
M  V30 11304 H 1036.29 4.14122 -1.10456 0
M  V30 11305 H 1040.47 4.54241 -1.99946 0
M  V30 11306 H 1035.73 5.16821 -3.26658 0
M  V30 11307 H 1039.9 5.58307 -4.16253 0
M  V30 11308 H 1037.53 5.8936 -4.80166 0
M  V30 11309 N 1039.1 0.374177 1.53094 0
M  V30 11310 C 1040.07 -0.455999 2.24618 0
M  V30 11311 C 1041.07 -1.00269 1.25709 0
M  V30 11312 O 1042.26 -0.887077 1.49922 0
M  V30 11313 C 1039.39 -1.63822 2.98957 0
M  V30 11314 H 1040.58 0.169986 2.99418 0
M  V30 11315 H 1038.14 0.126015 1.55791 0
M  V30 11316 H 1038.87 -2.30205 2.28421 0
M  V30 11317 H 1038.66 -1.25308 3.71538 0
M  V30 11318 H 1040.15 -2.22633 3.53305 0
M  V30 11319 N 1040.58 -1.57259 0.103575 0
M  V30 11320 C 1041.53 -2.15727 -0.869739 0
M  V30 11321 C 1042.52 -1.10236 -1.28625 0
M  V30 11322 O 1043.73 -1.28567 -1.25979 0
M  V30 11323 H 1040.11 -0.690204 -0.298535 0
M  V30 11324 H 1042.08 -2.96317 -0.351984 0
M  V30 11325 C 1040.83 -2.75905 -2.11593 0
M  V30 11326 H 1040.15 -3.56768 -1.80434 0
M  V30 11327 H 1041.59 -3.20373 -2.77736 0
M  V30 11328 C 1040.05 -1.72218 -2.89556 0
M  V30 11329 O 1040.58 -1.16623 -3.84398 0
M  V30 11330 N 1038.78 -1.42514 -2.53255 0
M  V30 11331 H 1038.33 -1.87914 -1.76198 0
M  V30 11332 H 1038.29 -0.733782 -3.05717 0
M  V30 11333 N 1042.06 0.170153 -1.56679 0
M  V30 11334 C 1043.31 0.884902 -1.81252 0
M  V30 11335 C 1043.62 1.83361 -0.681024 0
M  V30 11336 O 1044.83 2.59082 -0.811722 0
M  V30 11337 C 1043.28 1.62408 -3.21172 0
M  V30 11338 C 1042.89 0.718947 -4.42194 0
M  V30 11339 C 1044.64 2.32699 -3.55037 0
M  V30 11340 C 1042.54 1.45843 -5.73135 0
M  V30 11341 H 1041.47 0.33418 -0.675899 0
M  V30 11342 H 1044.12 0.137818 -1.82982 0
M  V30 11343 H 1042.51 2.41596 -3.13763 0
M  V30 11344 H 1043.68 -0.0360521 -4.60786 0
M  V30 11345 H 1042 0.125634 -4.1621 0
M  V30 11346 H 1044.59 2.88621 -4.50114 0
M  V30 11347 H 1044.94 3.08092 -2.79974 0
M  V30 11348 H 1045.47 1.60453 -3.64005 0
M  V30 11349 H 1042.21 0.746799 -6.51232 0
M  V30 11350 H 1041.73 2.18672 -5.58518 0
M  V30 11351 H 1043.41 2.0056 -6.1513 0
M  V30 11352 N 1043.54 1.5137 0.438746 0
M  V30 11353 C 1044.49 1.68966 1.53083 0
M  V30 11354 C 1045.47 0.543669 1.51437 0
M  V30 11355 O 1046.66 0.799519 1.57914 0
M  V30 11356 C 1043.79 1.8168 2.91286 0
M  V30 11357 C 1042.88 3.02059 2.97693 0
M  V30 11358 N 1043.27 4.25254 2.73848 0
M  V30 11359 C 1041.57 3.01284 3.28852 0
M  V30 11360 C 1042.27 5.06501 2.86062 0
M  V30 11361 N 1041.25 4.41119 3.17671 0
M  V30 11362 H 1045.05 2.61883 1.33397 0
M  V30 11363 H 1042.56 1.48997 0.64603 0
M  V30 11364 H 1044.56 1.92396 3.6985 0
M  V30 11365 H 1043.22 0.899438 3.11994 0
M  V30 11366 H 1044.23 4.54222 2.48803 0
M  V30 11367 H 1040.91 2.19174 3.55344 0
M  V30 11368 H 1042.3 6.14563 2.71592 0
M  V30 11369 N 1045.02 -0.694098 1.41492 0
M  V30 11370 C 1046.26 -1.4563 1.41137 0
M  V30 11371 C 1046.6 -1.94189 0.0208428 0
M  V30 11372 O 1045.87 -1.69628 -0.951655 0
M  V30 11373 C 1046.15 -2.66714 2.41941 0
M  V30 11374 C 1046.01 -2.23912 3.90107 0
M  V30 11375 C 1047.33 -3.68913 2.39981 0
M  V30 11376 H 1044.44 -0.52821 0.513968 0
M  V30 11377 H 1047.09 -0.790437 1.72778 0
M  V30 11378 H 1045.24 -3.23525 2.1509 0
M  V30 11379 H 1046.91 -1.72417 4.27867 0
M  V30 11380 H 1045.15 -1.5568 4.04903 0
M  V30 11381 H 1045.82 -3.108 4.56188 0
M  V30 11382 H 1048.3 -3.21779 2.63813 0
M  V30 11383 H 1047.17 -4.51242 3.12524 0
M  V30 11384 H 1047.44 -4.18711 1.41892 0
M  V30 11385 N 1046.49 -1.27344 -0.928501 0
M  V30 11386 C 1047.72 -1.16557 -1.7155 0
M  V30 11387 C 1048.14 0.274044 -1.86093 0
M  V30 11388 O 1047.5 1.19847 -1.36038 0
M  V30 11389 C 1047.55 -1.85332 -3.09329 0
M  V30 11390 O 1046.65 -1.15074 -3.9602 0
M  V30 11391 H 1046 -0.405423 -0.525859 0
M  V30 11392 H 1048.53 -1.68399 -1.16202 0
M  V30 11393 H 1048.54 -1.92659 -3.59648 0
M  V30 11394 H 1047.21 -2.90056 -2.98061 0
M  V30 11395 H 1045.79 -1.1581 -3.54461 0
M  V30 11396 N 1047.97 1.13488 -1.09353 0
M  V30 11397 C 1049.22 1.84748 -0.829126 0
M  V30 11398 C 1049.55 1.83485 0.645247 0
M  V30 11399 O 1048.8 1.26767 1.49093 0
M  V30 11400 C 1049.1 3.32584 -1.30854 0
M  V30 11401 C 1048.77 3.54028 -2.7924 0
M  V30 11402 C 1047.43 3.59588 -3.19765 0
M  V30 11403 C 1049.78 3.62058 -3.74918 0
M  V30 11404 C 1047.11 3.70712 -4.54741 0
M  V30 11405 C 1049.46 3.7471 -5.09682 0
M  V30 11406 C 1048.13 3.78523 -5.49797 0
M  V30 11407 H 1047.4 0.67604 -0.303399 0
M  V30 11408 H 1050.04 1.33989 -1.36818 0
M  V30 11409 H 1048.35 3.85689 -0.689275 0
M  V30 11410 H 1050.04 3.86166 -1.08059 0
M  V30 11411 H 1046.63 3.50354 -2.4688 0
M  V30 11412 H 1050.82 3.57043 -3.44723 0
M  V30 11413 H 1046.07 3.71931 -4.8526 0
M  V30 11414 H 1050.25 3.79866 -5.83674 0
M  V30 11415 H 1047.88 3.86895 -6.54382 0
M  V30 11416 N 1049.45 0.880621 1.30701 0
M  V30 11417 C 1050.7 0.495894 1.95922 0
M  V30 11418 C 1051.02 -0.957214 1.69889 0
M  V30 11419 O 1050.29 -1.67245 1.0201 0
M  V30 11420 H 1048.87 0.180394 0.724891 0
M  V30 11421 H 1051.53 1.12274 1.59313 0
M  V30 11422 H 1050.63 0.662508 3.04987 0
M  V30 11423 N 1050.93 -1.4397 0.641131 0
M  V30 11424 C 1052.18 -2.01163 0.147026 0
M  V30 11425 C 1052.49 -1.51099 -1.24211 0
M  V30 11426 O 1053.7 -2.00487 -1.83078 0
M  V30 11427 C 1052.15 -3.59275 0.212068 0
M  V30 11428 C 1051.76 -4.18334 1.60314 0
M  V30 11429 C 1053.51 -4.23903 -0.225057 0
M  V30 11430 C 1051.41 -5.68701 1.62276 0
M  V30 11431 H 1050.34 -0.75226 0.051201 0
M  V30 11432 H 1052.99 -1.65075 0.801396 0
M  V30 11433 H 1051.38 -3.92708 -0.509589 0
M  V30 11434 H 1052.55 -3.96422 2.34918 0
M  V30 11435 H 1050.86 -3.66031 1.9852 0
M  V30 11436 H 1053.46 -5.34205 -0.230074 0
M  V30 11437 H 1053.8 -3.96956 -1.25426 0
M  V30 11438 H 1054.34 -3.95309 0.44444 0
M  V30 11439 H 1051.08 -6.00397 2.63066 0
M  V30 11440 H 1050.6 -5.92705 0.919797 0
M  V30 11441 H 1052.28 -6.32521 1.36112 0
M  V30 11442 N 1052.41 -0.382291 -1.52893 0
M  V30 11443 C 1053.82 0.0932841 -1.86467 0
M  V30 11444 C 1054.17 1.4675 -1.30226 0
M  V30 11445 O 1053.29 2.07001 -0.63084 0
M  V30 11446 C 1053.89 0.176048 -3.38342 0
M  V30 11447 C 1052.45 0.595904 -3.71653 0
M  V30 11448 C 1051.6 -0.246511 -2.76202 0
M  V30 11449 H 1054.55 -0.600443 -1.46903 0
M  V30 11450 H 1054.57 0.996512 -3.67219 0
M  V30 11451 H 1054.08 -0.824264 -3.79246 0
M  V30 11452 H 1052.18 1.60384 -3.36315 0
M  V30 11453 H 1052.29 0.358919 -4.77754 0
M  V30 11454 H 1050.66 0.287162 -2.53076 0
M  V30 11455 H 1051.44 -1.24467 -3.19942 0
M  V30 11456 N 1053.89 1.57202 -0.111913 0
M  V30 11457 C 1054.83 2.16186 0.858286 0
M  V30 11458 C 1055.83 1.10917 1.28039 0
M  V30 11459 O 1057.03 1.29233 1.25295 0
M  V30 11460 H 1053.41 0.691777 0.29487 0
M  V30 11461 H 1055.38 2.96499 0.336265 0
M  V30 11462 C 1054.13 2.77024 2.10127 0
M  V30 11463 H 1053.45 3.5772 1.78539 0
M  V30 11464 H 1054.89 3.21841 2.76033 0
M  V30 11465 C 1053.35 1.73752 2.88638 0
M  V30 11466 O 1053.88 1.18659 3.83774 0
M  V30 11467 N 1052.09 1.43855 2.52496 0
M  V30 11468 H 1051.63 1.88846 1.75199 0
M  V30 11469 H 1051.59 0.749985 3.05324 0
M  V30 11470 N 1055.36 -0.161842 1.56767 0
M  V30 11471 C 1056.29 -1.20226 2.0017 0
M  V30 11472 C 1057.27 -1.4564 0.878807 0
M  V30 11473 O 1058.46 -1.56813 1.14557 0
M  V30 11474 C 1055.59 -2.53897 2.36968 0
M  V30 11475 C 1054.54 -2.43033 3.52305 0
M  V30 11476 C 1053.87 -3.81281 3.74872 0
M  V30 11477 C 1055.17 -1.927 4.85453 0
M  V30 11478 H 1056.86 -0.84142 2.87333 0
M  V30 11479 H 1054.41 -0.403309 1.38237 0
M  V30 11480 H 1056.36 -3.26893 2.6593 0
M  V30 11481 H 1055.09 -2.91787 1.46724 0
M  V30 11482 H 1053.75 -1.7249 3.23485 0
M  V30 11483 H 1053.39 -4.1658 2.81904 0
M  V30 11484 H 1053.09 -3.74877 4.52483 0
M  V30 11485 H 1054.62 -4.55848 4.06245 0
M  V30 11486 H 1056.03 -2.55477 5.13229 0
M  V30 11487 H 1054.43 -1.97222 5.66766 0
M  V30 11488 H 1055.5 -0.881816 4.76814 0
M  V30 11489 N 1056.84 -1.516 -0.430713 0
M  V30 11490 C 1058.07 -1.68414 -1.20185 0
M  V30 11491 C 1058.48 -0.384297 -1.84847 0
M  V30 11492 O 1057.84 0.637808 -1.70992 0
M  V30 11493 C 1057.89 -2.80451 -2.28099 0
M  V30 11494 O 1057.61 -4.05399 -1.66081 0
M  V30 11495 C 1059.11 -3.0859 -3.18256 0
M  V30 11496 H 1056.33 -0.564982 -0.361989 0
M  V30 11497 H 1058.88 -1.9805 -0.50954 0
M  V30 11498 H 1057.03 -2.53395 -2.93036 0
M  V30 11499 H 1057.45 -4.67671 -2.37453 0
M  V30 11500 H 1058.92 -3.9055 -3.90096 0
M  V30 11501 H 1059.4 -2.21264 -3.79393 0
M  V30 11502 H 1060 -3.37331 -2.59014 0
M  V30 11503 N 1058.32 0.686584 -1.41858 0
M  V30 11504 C 1059.27 1.79271 -1.40875 0
M  V30 11505 C 1060.25 1.58413 -0.281782 0
M  V30 11506 O 1061.45 1.69093 -0.523132 0
M  V30 11507 C 1058.57 3.17647 -1.30213 0
M  V30 11508 C 1057.66 3.44168 -2.47808 0
M  V30 11509 N 1058.05 3.41339 -3.73258 0
M  V30 11510 C 1056.35 3.74755 -2.41815 0
M  V30 11511 C 1057.05 3.67016 -4.51303 0
M  V30 11512 N 1056.03 3.87203 -3.81543 0
M  V30 11513 H 1059.83 1.75459 -2.35778 0
M  V30 11514 H 1057.34 0.886946 -1.36041 0
M  V30 11515 H 1059.34 3.96896 -1.2759 0
M  V30 11516 H 1058 3.22664 -0.363021 0
M  V30 11517 H 1059.01 3.21511 -4.06018 0
M  V30 11518 H 1055.69 3.87089 -1.56423 0
M  V30 11519 H 1057.08 3.70888 -5.6026 0
M  V30 11520 N 1059.8 1.27835 0.921735 0
M  V30 11521 C 1060.73 1.136 2.04003 0
M  V30 11522 C 1061.71 0.0358756 1.70062 0
M  V30 11523 O 1062.89 0.211438 1.93046 0
M  V30 11524 C 1060.02 0.788697 3.38226 0
M  V30 11525 C 1058.98 1.84272 3.863 0
M  V30 11526 C 1058.3 1.34923 5.17397 0
M  V30 11527 C 1059.6 3.24788 4.09035 0
M  V30 11528 H 1061.3 2.07149 2.1617 0
M  V30 11529 H 1058.84 0.997349 1.0387 0
M  V30 11530 H 1060.8 0.675911 4.15944 0
M  V30 11531 H 1059.52 -0.182499 3.2609 0
M  V30 11532 H 1058.18 1.94451 3.1078 0
M  V30 11533 H 1057.83 0.367328 5.01657 0
M  V30 11534 H 1057.53 2.05397 5.50532 0
M  V30 11535 H 1059.05 1.24951 5.97678 0
M  V30 11536 H 1060.47 3.17575 4.77304 0
M  V30 11537 H 1058.86 3.93025 4.53488 0
M  V30 11538 H 1059.93 3.69398 3.14122 0
M  V30 11539 N 1061.28 -1.12907 1.09954 0
M  V30 11540 C 1062.5 -1.88138 0.860905 0
M  V30 11541 C 1062.92 -1.79402 -0.588256 0
M  V30 11542 O 1062.28 -1.16442 -1.40526 0
M  V30 11543 C 1062.33 -3.37537 1.29425 0
M  V30 11544 O 1062.05 -3.46056 2.68658 0
M  V30 11545 C 1063.55 -4.29721 1.08879 0
M  V30 11546 H 1060.77 -0.595437 0.309347 0
M  V30 11547 H 1063.31 -1.42894 1.46292 0
M  V30 11548 H 1061.47 -3.80344 0.736009 0
M  V30 11549 H 1061.88 -4.38969 2.87065 0
M  V30 11550 H 1063.36 -5.32854 1.4412 0
M  V30 11551 H 1063.83 -4.39192 0.0270053 0
M  V30 11552 H 1064.44 -3.9269 1.63325 0
M  V30 11553 N 1062.75 -0.88754 -1.30232 0
M  V30 11554 C 1063.98 -0.522306 -2.00199 0
M  V30 11555 C 1064.4 0.889866 -1.66514 0
M  V30 11556 O 1063.75 1.58558 -0.903639 0
M  V30 11557 C 1063.8 -0.690551 -3.54843 0
M  V30 11558 O 1063.53 -2.04713 -3.8733 0
M  V30 11559 C 1065.03 -0.328649 -4.4208 0
M  V30 11560 H 1062.25 -0.201628 -0.63999 0
M  V30 11561 H 1064.79 -1.19355 -1.66056 0
M  V30 11562 H 1062.95 -0.0666493 -3.87343 0
M  V30 11563 H 1063.36 -2.06762 -4.82027 0
M  V30 11564 H 1064.83 -0.497257 -5.49756 0
M  V30 11565 H 1065.31 0.733502 -4.33032 0
M  V30 11566 H 1065.92 -0.928982 -4.1503 0
M  V30 11567 N 1064.23 1.43628 -0.648757 0
M  V30 11568 C 1065.48 2.02163 -0.160574 0
M  V30 11569 C 1065.81 1.51037 1.22072 0
M  V30 11570 O 1065.09 0.701633 1.81404 0
M  V30 11571 C 1065.37 3.59715 -0.166528 0
M  V30 11572 C 1065.22 4.21083 -1.58142 0
M  V30 11573 C 1066.54 4.37256 0.499485 0
M  V30 11574 H 1063.66 0.734568 -0.0598238 0
M  V30 11575 H 1066.3 1.70981 -0.828592 0
M  V30 11576 H 1064.45 3.86411 0.402302 0
M  V30 11577 H 1066.12 4.05433 -2.2005 0
M  V30 11578 H 1064.37 3.77904 -2.13005 0
M  V30 11579 H 1065.04 5.30156 -1.53748 0
M  V30 11580 H 1067.51 4.16097 0.0155561 0
M  V30 11581 H 1066.39 5.4693 0.464574 0
M  V30 11582 H 1066.65 4.13175 1.57286 0
M  V30 11583 N 1065.71 0.390394 1.52688 0
M  V30 11584 C 1066.96 -0.191729 2.01892 0
M  V30 11585 C 1067.29 -1.4637 1.27631 0
M  V30 11586 O 1066.56 -1.90809 0.377094 0
M  V30 11587 C 1066.85 -0.458535 3.57169 0
M  V30 11588 C 1066.7 0.828796 4.42098 0
M  V30 11589 C 1068.02 -1.2487 4.22014 0
M  V30 11590 H 1065.14 -0.0682091 0.733837 0
M  V30 11591 H 1067.78 0.520176 1.82741 0
M  V30 11592 H 1065.93 -1.06498 3.73618 0
M  V30 11593 H 1067.6 1.46562 4.37398 0
M  V30 11594 H 1065.85 1.44388 4.09066 0
M  V30 11595 H 1066.52 0.596746 5.48765 0
M  V30 11596 H 1068.99 -0.735452 4.09549 0
M  V30 11597 H 1067.87 -1.40412 5.30637 0
M  V30 11598 H 1068.13 -2.2642 3.79719 0
M  V30 11599 N 1067.19 -1.57141 0.120249 0
M  V30 11600 C 1068.1 -2.18925 -0.843155 0
M  V30 11601 C 1069.11 -1.16575 -1.29175 0
M  V30 11602 O 1070.29 -1.4905 -1.35448 0
M  V30 11603 C 1067.36 -2.7775 -2.075 0
M  V30 11604 C 1066.42 -3.95139 -1.6782 0
M  V30 11605 C 1065.65 -4.51149 -2.85132 0
M  V30 11606 O 1065.87 -4.06056 -4.00593 0
M  V30 11607 O 1064.81 -5.41815 -2.62145 0
M  V30 11608 H 1068.63 -3.01707 -0.347357 0
M  V30 11609 H 1066.22 -1.49028 -0.105427 0
M  V30 11610 H 1068.1 -3.15243 -2.79643 0
M  V30 11611 H 1066.77 -1.97998 -2.56083 0
M  V30 11612 H 1065.68 -3.62412 -0.927807 0
M  V30 11613 H 1067.01 -4.7633 -1.23977 0
M  V30 11614 N 1068.67 0.153526 -1.5685 0
M  V30 11615 C 1069.61 1.18973 -1.97773 0
M  V30 11616 C 1070.58 1.43041 -0.844311 0
M  V30 11617 O 1071.77 1.55484 -1.10586 0
M  V30 11618 C 1068.91 2.51981 -2.35795 0
M  V30 11619 C 1068.02 2.35143 -3.62397 0
M  V30 11620 C 1067.16 3.61141 -3.89552 0
M  V30 11621 C 1066.2 3.39311 -5.09445 0
M  V30 11622 N 1065.33 4.57423 -5.32643 0
M  V30 11623 H 1070.17 0.833758 -2.86099 0
M  V30 11624 H 1067.71 0.400252 -1.4155 0
M  V30 11625 H 1069.67 3.29527 -2.55867 0
M  V30 11626 H 1068.3 2.85539 -1.50557 0
M  V30 11627 H 1067.35 1.48684 -3.50139 0
M  V30 11628 H 1068.66 2.14969 -4.501 0
M  V30 11629 H 1067.82 4.47117 -4.10087 0
M  V30 11630 H 1066.55 3.84312 -3.00259 0
M  V30 11631 H 1065.56 2.51723 -4.8879 0
M  V30 11632 H 1066.78 3.17545 -6.00285 0
M  V30 11633 H 1064.73 4.8078 -4.46303 0
M  V30 11634 H 1064.65 4.40228 -6.14602 0
M  V30 11635 H 1065.92 5.44632 -5.57671 0
M  V30 11636 N 1070.14 1.51827 0.422667 0
M  V30 11637 C 1071.39 1.6445 1.16786 0
M  V30 11638 C 1071.71 0.373792 1.91995 0
M  V30 11639 O 1072.91 0.379621 2.68833 0
M  V30 11640 C 1071.37 2.90488 2.12473 0
M  V30 11641 C 1070.98 4.24617 1.42844 0
M  V30 11642 C 1072.72 3.12472 2.87335 0
M  V30 11643 C 1070.63 5.41791 2.371 0
M  V30 11644 H 1069.56 0.612561 0.439641 0
M  V30 11645 H 1072.21 1.78305 0.433534 0
M  V30 11646 H 1070.59 2.703 2.89402 0
M  V30 11647 H 1071.76 4.55239 0.71372 0
M  V30 11648 H 1070.08 4.08628 0.800769 0
M  V30 11649 H 1072.68 3.9719 3.57973 0
M  V30 11650 H 1073.02 2.26148 3.49518 0
M  V30 11651 H 1073.55 3.33069 2.17509 0
M  V30 11652 H 1070.29 6.3042 1.79584 0
M  V30 11653 H 1069.81 5.15526 3.06583 0
M  V30 11654 H 1071.49 5.74329 2.97918 0
M  V30 11655 N 1071.62 -0.679052 1.4222 0
M  V30 11656 C 1072.57 -1.79269 1.45366 0
M  V30 11657 C 1073.54 -1.63255 0.306089 0
M  V30 11658 O 1074.72 -1.8387 0.509548 0
M  V30 11659 C 1071.86 -3.17272 1.35766 0
M  V30 11660 C 1070.98 -3.44603 2.60525 0
M  V30 11661 C 1070.11 -4.7231 2.43098 0
M  V30 11662 C 1069.15 -4.92661 3.63251 0
M  V30 11663 N 1068.29 -6.11606 3.44794 0
M  V30 11664 H 1073.13 -1.75916 2.40536 0
M  V30 11665 H 1070.67 -0.858836 1.19425 0
M  V30 11666 H 1072.62 -3.97015 1.282 0
M  V30 11667 H 1071.25 -3.1976 0.441939 0
M  V30 11668 H 1070.31 -2.59144 2.78475 0
M  V30 11669 H 1071.62 -3.55536 3.49851 0
M  V30 11670 H 1070.77 -5.60136 2.33093 0
M  V30 11671 H 1069.51 -4.63652 1.51255 0
M  V30 11672 H 1068.52 -4.03278 3.73693 0
M  V30 11673 H 1069.74 -5.03167 4.5607 0
M  V30 11674 H 1067.69 -6.04129 2.55663 0
M  V30 11675 H 1067.6 -6.23381 4.27705 0
M  V30 11676 H 1068.87 -7.02122 3.38592 0
M  V30 11677 N 1073.1 -1.28322 -0.914942 0
M  V30 11678 C 1074.06 -1.12169 -1.99877 0
M  V30 11679 C 1075.06 -0.0617252 -1.60681 0
M  V30 11680 O 1076.25 -0.307405 -1.71466 0
M  V30 11681 C 1073.39 -0.711959 -3.33383 0
M  V30 11682 H 1074.58 -2.08425 -2.15636 0
M  V30 11683 H 1072.13 -1.11291 -1.09745 0
M  V30 11684 H 1072.87 0.251418 -3.23324 0
M  V30 11685 H 1072.65 -1.47764 -3.63192 0
M  V30 11686 H 1074.14 -0.621558 -4.12948 0
M  V30 11687 N 1074.58 1.12322 -1.10551 0
M  V30 11688 C 1075.82 1.8413 -0.849932 0
M  V30 11689 C 1076.16 1.83938 0.622946 0
M  V30 11690 O 1075.43 1.28579 1.45937 0
M  V30 11691 C 1075.72 3.31751 -1.40048 0
M  V30 11692 C 1075.57 3.40391 -2.9403 0
M  V30 11693 C 1076.89 4.27543 -1.04379 0
M  V30 11694 H 1074.01 0.668533 -0.310213 0
M  V30 11695 H 1076.65 1.31766 -1.36886 0
M  V30 11696 H 1074.8 3.76475 -0.959102 0
M  V30 11697 H 1076.47 3.04294 -3.46703 0
M  V30 11698 H 1074.71 2.809 -3.30571 0
M  V30 11699 H 1075.38 4.44252 -3.27635 0
M  V30 11700 H 1077.86 3.90951 -1.42466 0
M  V30 11701 H 1076.74 5.2924 -1.4559 0
M  V30 11702 H 1077 4.42075 0.0466316 0
M  V30 11703 N 1076.06 0.894434 1.2976 0
M  V30 11704 C 1077.47 0.566892 1.77885 0
M  V30 11705 C 1077.82 -0.917289 1.73437 0
M  V30 11706 O 1076.94 -1.71707 1.31703 0
M  V30 11707 C 1077.54 1.02227 3.2301 0
M  V30 11708 C 1076.1 0.745978 3.68934 0
M  V30 11709 C 1075.24 1.19993 2.49994 0
M  V30 11710 H 1078.2 1.0777 1.16496 0
M  V30 11711 H 1078.22 0.355281 3.78838 0
M  V30 11712 H 1077.73 2.1025 3.26215 0
M  V30 11713 H 1075.83 -0.321866 3.71207 0
M  V30 11714 H 1075.94 1.34017 4.59974 0
M  V30 11715 H 1074.31 0.619047 2.47063 0
M  V30 11716 H 1075.09 2.28811 2.55931 0
M  V30 11717 N 1077.53 -1.43282 0.656365 0
M  V30 11718 C 1078.81 -1.9534 0.100816 0
M  V30 11719 C 1079.19 -1.59755 -1.37992 0
M  V30 11720 O 1078.54 -0.884264 -2.10697 0
M  V30 11721 C 1078.75 -3.47237 0.35038 0
M  V30 11722 C 1080.1 -4.23822 0.257001 0
M  V30 11723 O 1081.12 -3.55073 0.283111 0
M  V30 11724 O 1079.98 -5.46192 0.183397 0
M  V30 11725 H 1077.07 -0.826963 -0.00780287 0
M  V30 11726 H 1079.62 -1.53205 0.72982 0
M  V30 11727 H 1078.39 -3.66276 1.37685 0
M  V30 11728 H 1078.02 -3.96378 -0.311539 0
M  V30 11729 N 1079.01 -0.398486 -1.52479 0
M  V30 11730 C 1080.26 0.181019 -2.0199 0
M  V30 11731 C 1080.59 1.45691 -1.28405 0
M  V30 11732 O 1079.87 1.90607 -0.387207 0
M  V30 11733 C 1080.15 0.439587 -3.57407 0
M  V30 11734 C 1080 -0.85223 -4.41653 0
M  V30 11735 C 1081.32 1.2263 -4.2267 0
M  V30 11736 H 1078.44 0.0643164 -0.734188 0
M  V30 11737 H 1081.08 -0.52986 -1.82462 0
M  V30 11738 H 1079.23 1.04516 -3.74177 0
M  V30 11739 H 1080.91 -1.48879 -4.36615 0
M  V30 11740 H 1079.15 -1.46555 -4.08294 0
M  V30 11741 H 1079.82 -0.625839 -5.48441 0
M  V30 11742 H 1082.3 0.713722 -4.09933 0
M  V30 11743 H 1081.17 1.37596 -5.31374 0
M  V30 11744 H 1081.43 2.24403 -3.80914 0
M  V30 11745 N 1080.49 1.57075 -0.12858 0
M  V30 11746 C 1081.72 1.99586 0.533769 0
M  V30 11747 C 1082.13 1.00737 1.60152 0
M  V30 11748 O 1081.47 -0.00647783 1.83699 0
M  V30 11749 C 1081.53 3.3852 1.21014 0
M  V30 11750 C 1081.2 4.56084 0.289191 0
M  V30 11751 C 1082.2 5.17717 -0.475963 0
M  V30 11752 C 1079.88 5.01912 0.197467 0
M  V30 11753 C 1081.87 6.23572 -1.32048 0
M  V30 11754 C 1079.56 6.07626 -0.65067 0
M  V30 11755 C 1080.56 6.68324 -1.40826 0
M  V30 11756 O 1080.25 7.71995 -2.2423 0
M  V30 11757 H 1079.98 0.660245 0.145096 0
M  V30 11758 H 1082.53 2.04276 -0.214615 0
M  V30 11759 H 1080.76 3.30613 2.00579 0
M  V30 11760 H 1082.45 3.65258 1.77036 0
M  V30 11761 H 1083.22 4.83221 -0.415027 0
M  V30 11762 H 1079.1 4.54407 0.776853 0
M  V30 11763 H 1082.64 6.70878 -1.91228 0
M  V30 11764 H 1078.54 6.41551 -0.712965 0
M  V30 11765 H 1079.31 7.89135 -2.17276 0
M  V30 11766 N 1081.97 -0.145205 1.5693 0
M  V30 11767 C 1083.19 -0.876386 1.87974 0
M  V30 11768 C 1083.62 -1.73866 0.717795 0
M  V30 11769 O 1082.98 -1.78224 -0.332551 0
M  V30 11770 C 1083.03 -1.70746 3.17613 0
M  V30 11771 O 1082.13 -2.81188 3.01674 0
M  V30 11772 H 1081.47 -0.243987 0.617549 0
M  V30 11773 H 1084 -0.135482 2.04151 0
M  V30 11774 H 1084.01 -2.1021 3.49679 0
M  V30 11775 H 1082.69 -1.07429 4.01786 0
M  V30 11776 H 1081.26 -2.45117 2.81019 0
M  V30 11777 N 1083.45 -1.52049 -0.414609 0
M  V30 11778 C 1084.69 -1.66084 -1.16379 0
M  V30 11779 C 1085.03 -0.386932 -1.90306 0
M  V30 11780 O 1084.3 0.614441 -1.8454 0
M  V30 11781 C 1084.58 -2.87927 -2.16264 0
M  V30 11782 C 1084.44 -4.25353 -1.46269 0
M  V30 11783 C 1085.76 -3.05289 -3.16996 0
M  V30 11784 H 1082.88 -0.604414 -0.421726 0
M  V30 11785 H 1085.52 -1.8459 -0.450177 0
M  V30 11786 H 1083.67 -2.7228 -2.77121 0
M  V30 11787 H 1085.34 -4.52717 -0.885743 0
M  V30 11788 H 1083.58 -4.27006 -0.76472 0
M  V30 11789 H 1084.25 -5.06644 -2.19126 0
M  V30 11790 H 1086.73 -3.19798 -2.66212 0
M  V30 11791 H 1085.61 -3.92065 -3.84156 0
M  V30 11792 H 1085.87 -2.1836 -3.84411 0
M  V30 11793 N 1084.93 0.6715 -1.42579 0
M  V30 11794 C 1085.87 1.78496 -1.46314 0
M  V30 11795 C 1086.84 1.63091 -0.314743 0
M  V30 11796 O 1088.03 1.83597 -0.519292 0
M  V30 11797 C 1085.17 3.16548 -1.37447 0
M  V30 11798 C 1084.28 3.43216 -2.62348 0
M  V30 11799 C 1083.42 4.71014 -2.456 0
M  V30 11800 C 1082.45 4.90728 -3.65859 0
M  V30 11801 N 1081.59 6.09769 -3.48032 0
M  V30 11802 H 1086.43 1.74638 -2.41466 0
M  V30 11803 H 1083.97 0.852491 -1.19879 0
M  V30 11804 H 1085.93 3.96329 -1.30303 0
M  V30 11805 H 1084.56 3.19522 -0.458891 0
M  V30 11806 H 1083.61 2.57664 -2.79846 0
M  V30 11807 H 1084.92 3.53675 -3.51732 0
M  V30 11808 H 1084.07 5.58892 -2.3606 0
M  V30 11809 H 1082.81 4.62843 -1.53712 0
M  V30 11810 H 1081.82 4.01291 -3.75827 0
M  V30 11811 H 1083.04 5.00741 -4.58732 0
M  V30 11812 H 1080.99 6.02765 -2.58864 0
M  V30 11813 H 1080.91 6.21104 -4.31005 0
M  V30 11814 H 1082.17 7.00317 -3.42311 0
M  V30 11815 N 1086.4 1.28806 0.908124 0
M  V30 11816 C 1087.82 1.06634 1.18749 0
M  V30 11817 C 1088.02 -0.187729 2.00624 0
M  V30 11818 O 1087.08 -0.88784 2.36376 0
M  V30 11819 C 1088.39 2.31703 1.91661 0
M  V30 11820 C 1089.94 2.36939 2.04521 0
M  V30 11821 C 1090.41 3.61789 2.80843 0
M  V30 11822 N 1091.9 3.62462 2.88402 0
M  V30 11823 C 1092.64 4.55746 3.47971 0
M  V30 11824 N 1092.13 5.59353 4.08774 0
M  V30 11825 N 1093.93 4.43331 3.45564 0
M  V30 11826 H 1086.08 2.09299 0.36164 0
M  V30 11827 H 1088.34 0.921479 0.222668 0
M  V30 11828 H 1088.05 3.23096 1.38931 0
M  V30 11829 H 1087.92 2.38556 2.92183 0
M  V30 11830 H 1090.31 1.4604 2.5643 0
M  V30 11831 H 1090.39 2.34077 1.03159 0
M  V30 11832 H 1090.03 4.53035 2.29612 0
M  V30 11833 H 1089.96 3.61907 3.82532 0
M  V30 11834 H 1092.45 2.87544 2.45208 0
M  V30 11835 H 1092.77 6.26668 4.52224 0
M  V30 11836 H 1091.11 5.63173 4.07261 0
M  V30 11837 H 1094.3 3.61587 2.97276 0
M  V30 11838 H 1094.48 5.16216 3.91695 0
M  V30 11839 N 1087.88 -1.11734 1.11145 0
M  V30 11840 C 1089.11 -1.87215 0.880811 0
M  V30 11841 C 1089.52 -1.80016 -0.569195 0
M  V30 11842 O 1088.88 -1.17926 -1.39283 0
M  V30 11843 C 1088.93 -3.36146 1.32998 0
M  V30 11844 O 1088.65 -3.43187 2.72313 0
M  V30 11845 C 1090.15 -4.28542 1.1343 0
M  V30 11846 H 1087.37 -0.592123 0.315645 0
M  V30 11847 H 1089.92 -1.41335 1.478 0
M  V30 11848 H 1088.07 -3.79542 0.776308 0
M  V30 11849 H 1088.49 -4.359 2.91705 0
M  V30 11850 H 1089.96 -5.31295 1.49764 0
M  V30 11851 H 1090.44 -4.39138 0.0735859 0
M  V30 11852 H 1091.04 -3.90935 1.67481 0
M  V30 11853 N 1089.36 -0.901303 -1.29284 0
M  V30 11854 C 1090.31 -0.370142 -2.29636 0
M  V30 11855 C 1091.3 0.53157 -1.60844 0
M  V30 11856 O 1092.51 0.414194 -1.7517 0
M  V30 11857 H 1088.88 -0.101072 -0.745177 0
M  V30 11858 H 1090.85 -1.22985 -2.71877 0
M  V30 11859 C 1089.6 0.385806 -3.45553 0
M  V30 11860 H 1088.93 -0.298818 -3.98682 0
M  V30 11861 H 1090.37 0.722299 -4.17802 0
M  V30 11862 C 1088.82 1.58907 -2.97069 0
M  V30 11863 O 1089.35 2.68835 -2.98481 0
M  V30 11864 N 1087.56 1.43178 -2.5288 0
M  V30 11865 H 1087.11 0.537467 -2.51931 0
M  V30 11866 H 1087.07 2.23819 -2.208 0
M  V30 11867 N 1090.84 1.42931 -0.663954 0
M  V30 11868 C 1092.09 2.01284 -0.181379 0
M  V30 11869 C 1092.41 1.52708 1.21265 0
M  V30 11870 O 1091.68 0.744181 1.81215 0
M  V30 11871 H 1090.26 0.744248 -0.0640646 0
M  V30 11872 H 1092.92 1.74997 -0.858031 0
M  V30 11873 H 1092.01 3.11613 -0.174273 0
M  V30 11874 O 1092.35 0.548716 1.51893 0
M  V30 11875 H 1093.05 0.043897 1.9365 0
M  V30 END ATOM
M  V30 BEGIN BOND
M  V30 END BOND
M  V30 END CTAB
M  END
$$$$
