drugbank_target|Q00441 6-deoxyerythronolide B hydroxylase (DB01536; DB03369; DB04070)
 OpenBabel12092119573D

  0  0  0     0  0            999 V3000
M  V30 BEGIN CTAB
M  V30 COUNTS 6344 6412 0 0 0
M  V30 BEGIN ATOM
M  V30 1 H -0.908 1.98254 -0.117106 0
M  V30 2 N 0 1.576 0 0
M  V30 3 C 0.933 2.03868 1.02534 0
M  V30 4 C 1.911 0.928543 1.3348 0
M  V30 5 O 3.095 1.19667 1.45644 0
M  V30 6 C 0.222 2.43627 2.35294 0
M  V30 7 C -0.732 3.65373 2.2001 0
M  V30 8 S 0.101 5.13292 1.52614 0
M  V30 9 C 1.257 5.56322 2.86805 0
M  V30 10 H 1.49 2.90518 0.631377 0
M  V30 11 H -0.977 1.52953 0.210867 0
M  V30 12 H 0.981 2.67203 3.11629 0
M  V30 13 H -0.358 1.57376 2.7183 0
M  V30 14 H -1.165 3.90944 3.18086 0
M  V30 15 H -1.563 3.418 1.51819 0
M  V30 16 H 0.729 5.58782 3.83104 0
M  V30 17 H 1.672 6.56266 2.65933 0
M  V30 18 H 2.08 4.83886 2.90714 0
M  V30 19 N 1.4781 -0.272755 1.55222 0
M  V30 20 C 2.7061 -1.02255 1.79865 0
M  V30 21 C 3.1211 -1.79924 0.572088 0
M  V30 22 O 2.4781 -1.76638 -0.458842 0
M  V30 23 C 2.5291 -1.98094 3.02392 0
M  V30 24 O 2.2501 -1.23572 4.20311 0
M  V30 25 C 3.7511 -2.84884 3.39641 0
M  V30 26 H 0.9711 -0.302057 0.599168 0
M  V30 27 H 3.5151 -0.303465 2.02236 0
M  V30 28 H 1.6701 -2.65465 2.82147 0
M  V30 29 H 2.0841 -1.88172 4.89583 0
M  V30 30 H 3.5581 -3.47927 4.28545 0
M  V30 31 H 4.0351 -3.54665 2.59055 0
M  V30 32 H 4.6411 -2.23003 3.62146 0
M  V30 33 N 2.9562 -1.48159 -0.537278 0
M  V30 34 C 4.1842 -1.59454 -1.31841 0
M  V30 35 C 4.5992 -0.252065 -1.8711 0
M  V30 36 O 3.9562 0.757621 -1.66031 0
M  V30 37 C 4.0072 -2.63546 -2.47439 0
M  V30 38 O 3.7282 -3.92583 -1.94449 0
M  V30 39 C 5.2292 -2.85212 -3.39366 0
M  V30 40 H 2.4492 -0.53785 -0.401196 0
M  V30 41 H 4.9932 -1.93932 -0.648891 0
M  V30 42 H 3.1482 -2.31946 -3.1029 0
M  V30 43 H 3.5622 -4.49629 -2.70063 0
M  V30 44 H 5.0362 -3.61863 -4.16844 0
M  V30 45 H 5.5132 -1.93765 -3.94147 0
M  V30 46 H 6.1192 -3.18086 -2.82314 0
M  V30 47 N 4.4343 0.785586 -1.36625 0
M  V30 48 C 5.6803 1.54591 -1.31261 0
M  V30 49 C 6.0133 1.93906 0.106823 0
M  V30 50 O 5.2883 1.63007 1.06108 0
M  V30 51 C 5.5713 2.82038 -2.23889 0
M  V30 52 C 5.4243 2.49066 -3.74548 0
M  V30 53 C 6.7433 3.83887 -2.15217 0
M  V30 54 H 3.8623 0.560846 -0.478143 0
M  V30 55 H 6.5043 0.902278 -1.67209 0
M  V30 56 H 4.6543 3.36961 -1.93363 0
M  V30 57 H 6.3263 2.00164 -4.15611 0
M  V30 58 H 4.5693 1.81954 -3.93796 0
M  V30 59 H 5.2403 3.40109 -4.34776 0
M  V30 60 H 7.7163 3.38421 -2.42096 0
M  V30 61 H 6.5923 4.70806 -2.82193 0
M  V30 62 H 6.8533 4.27131 -1.14068 0
M  V30 63 N 5.9124 1.20967 1.01018 0
M  V30 64 C 7.3234 1.02319 1.56165 0
M  V30 65 C 7.6744 -0.418546 1.91684 0
M  V30 66 O 6.7994 -1.30096 1.72928 0
M  V30 67 C 7.3944 1.85109 2.8376 0
M  V30 68 C 5.9534 1.70809 3.35412 0
M  V30 69 C 5.1004 1.82643 2.08655 0
M  V30 70 H 8.0514 1.35065 0.833255 0
M  V30 71 H 8.0724 1.35827 3.55431 0
M  V30 72 H 7.5844 2.90035 2.57878 0
M  V30 73 H 5.6854 0.685464 3.66241 0
M  V30 74 H 5.7984 2.52467 4.07182 0
M  V30 75 H 4.1624 1.25896 2.21409 0
M  V30 76 H 4.9454 2.89066 1.85191 0
M  V30 77 N 7.3905 -1.2043 1.01659 0
M  V30 78 C 8.6675 -1.8548 0.621004 0
M  V30 79 C 9.0475 -1.9091 -0.900919 0
M  V30 80 O 8.3955 -1.41694 -1.79263 0
M  V30 81 C 8.6055 -3.25119 1.2688 0
M  V30 82 C 9.9535 -4.01403 1.38423 0
M  V30 83 O 10.9775 -3.34473 1.22501 0
M  V30 84 O 9.8365 -5.21265 1.64151 0
M  V30 85 H 6.9305 -0.798761 0.214266 0
M  V30 86 H 9.4765 -1.28019 1.11396 0
M  V30 87 H 8.2485 -3.15932 2.30873 0
M  V30 88 H 7.8715 -3.90212 0.762917 0
M  V30 89 N 8.8686 -0.792821 -1.36206 0
M  V30 90 C 9.7986 -0.207853 -2.32573 0
M  V30 91 C 10.7796 0.659055 -1.56813 0
M  V30 92 O 11.9646 0.592176 -1.84951 0
M  V30 93 C 9.0946 0.655449 -3.41059 0
M  V30 94 C 8.0486 -0.111842 -4.27854 0
M  V30 95 C 7.3746 0.872274 -5.27537 0
M  V30 96 C 8.6746 -1.30299 -5.05786 0
M  V30 97 H 10.3686 -1.01294 -2.81744 0
M  V30 98 H 7.9146 -0.48854 -1.3546 0
M  V30 99 H 9.8676 1.07464 -4.07467 0
M  V30 100 H 8.5916 1.49328 -2.90463 0
M  V30 101 H 7.2506 -0.512053 -3.63006 0
M  V30 102 H 6.8986 1.70523 -4.73214 0
M  V30 103 H 6.5986 0.363291 -5.86476 0
M  V30 104 H 8.1226 1.28996 -5.96818 0
M  V30 105 H 9.5366 -0.959379 -5.65216 0
M  V30 106 H 7.9336 -1.7455 -5.74154 0
M  V30 107 H 9.0036 -2.09663 -4.37229 0
M  V30 108 N 10.3467 1.47872 -0.545128 0
M  V30 109 C 11.2567 2.33633 0.212746 0
M  V30 110 C 12.2727 1.4744 0.923983 0
M  V30 111 O 13.4487 1.80393 0.895572 0
M  V30 112 C 10.5137 3.23884 1.23693 0
M  V30 113 C 9.5747 4.25961 0.534417 0
M  V30 114 C 8.8077 5.11899 1.5098 0
M  V30 115 O 9.0307 5.00077 2.7437 0
M  V30 116 O 7.9647 5.92831 1.0409 0
M  V30 117 H 11.7907 2.99714 -0.490416 0
M  V30 118 H 9.3757 1.46235 -0.305871 0
M  V30 119 H 11.2577 3.79666 1.82843 0
M  V30 120 H 9.9327 2.60446 1.92222 0
M  V30 121 H 8.8397 3.73972 -0.0979679 0
M  V30 122 H 10.1727 4.92079 -0.109213 0
M  V30 123 N 11.8248 0.280983 1.55075 0
M  V30 124 C 13.0498 -0.340154 2.04592 0
M  V30 125 C 13.4748 -1.48246 1.15779 0
M  V30 126 O 12.8328 -1.80614 0.15761 0
M  V30 127 C 12.8808 -0.793104 3.5177 0
M  V30 128 O 11.9848 -1.89981 3.66034 0
M  V30 129 H 11.3258 -0.0694289 0.66036 0
M  V30 130 H 13.8558 0.416993 2.00306 0
M  V30 131 H 13.8658 -1.08729 3.93245 0
M  V30 132 H 12.5408 0.0426163 4.15878 0
M  V30 133 H 11.1178 -1.60771 3.36463 0
M  V30 134 N 13.3029 -1.57598 0.00835791 0
M  V30 135 C 14.5799 -1.82172 -0.712235 0
M  V30 136 C 14.9599 -0.887873 -1.9152 0
M  V30 137 O 14.3079 0.06146 -2.28417 0
M  V30 138 C 14.5179 -3.30875 -1.11008 0
M  V30 139 C 15.8659 -3.96826 -1.51044 0
M  V30 140 O 16.8899 -3.35248 -1.20364 0
M  V30 141 O 15.7489 -5.05318 -2.08125 0
M  V30 142 H 12.8429 -0.750435 -0.347529 0
M  V30 143 H 15.3889 -1.69665 0.0344523 0
M  V30 144 H 14.1609 -3.90481 -0.252982 0
M  V30 145 H 13.7839 -3.48412 -1.9156 0
M  V30 146 N 14.781 0.264519 -1.55364 0
M  V30 147 C 16.006 1.01726 -1.80739 0
M  V30 148 C 16.431 1.78836 -0.583044 0
M  V30 149 O 15.789 1.75167 0.467566 0
M  V30 150 C 15.837 1.94482 -3.03659 0
M  V30 151 O 14.941 3.03386 -2.7934 0
M  V30 152 H 14.282 0.290395 -0.597132 0
M  V30 153 H 16.812 0.290854 -2.02522 0
M  V30 154 H 16.822 2.36278 -3.32621 0
M  V30 155 H 15.497 1.37772 -3.92418 0
M  V30 156 H 14.074 2.65844 -2.61498 0
M  V30 157 N 16.2591 1.48442 0.529413 0
M  V30 158 C 17.5061 1.56488 1.28521 0
M  V30 159 C 17.8341 0.239042 1.93025 0
M  V30 160 O 17.0891 -0.770713 1.79885 0
M  V30 161 C 17.3881 2.6523 2.39558 0
M  V30 162 C 17.0541 4.07648 1.92702 0
M  V30 163 C 15.7161 4.46411 1.79641 0
M  V30 164 C 18.0681 4.96896 1.573 0
M  V30 165 C 15.3961 5.72226 1.29514 0
M  V30 166 C 17.7481 6.23202 1.08636 0
M  V30 167 C 16.4121 6.60821 0.941919 0
M  V30 168 H 15.6821 0.572631 0.470292 0
M  V30 169 H 18.3291 1.82161 0.59072 0
M  V30 170 H 16.6341 2.33419 3.14679 0
M  V30 171 H 18.3311 2.68671 2.97686 0
M  V30 172 H 14.9211 3.77036 2.03819 0
M  V30 173 H 19.1051 4.67626 1.66251 0
M  V30 174 H 14.3611 6.00097 1.17019 0
M  V30 175 H 18.5351 6.91753 0.803136 0
M  V30 176 H 16.1621 7.58198 0.5513 0
M  V30 177 N 17.7372 -0.778329 1.37039 0
M  V30 178 C 18.6872 -1.88142 1.28789 0
M  V30 179 C 19.6712 -1.59923 0.177063 0
M  V30 180 O 20.8632 -1.72165 0.410873 0
M  V30 181 C 17.9922 -3.25518 1.09055 0
M  V30 182 C 17.0782 -3.5971 2.24654 0
M  V30 183 N 17.4692 -3.65131 3.50018 0
M  V30 184 C 15.7672 -3.89837 2.16663 0
M  V30 185 C 16.4682 -3.95882 4.26207 0
M  V30 186 N 15.4442 -4.11441 3.55271 0
M  V30 187 H 19.2462 -1.90575 2.23737 0
M  V30 188 H 16.7602 -0.974435 1.29917 0
M  V30 189 H 18.7572 -4.04423 1.0123 0
M  V30 190 H 17.4172 -3.24353 0.15018 0
M  V30 191 H 18.4282 -3.475 3.84011 0
M  V30 192 H 15.1052 -3.96533 1.30645 0
M  V30 193 H 16.4952 -4.06907 5.34674 0
M  V30 194 N 19.2153 -1.21501 -1.00376 0
M  V30 195 C 20.4613 -1.03452 -1.74429 0
M  V30 196 C 20.7943 0.430764 -1.89362 0
M  V30 197 O 20.0693 1.31962 -1.42886 0
M  V30 198 C 20.3523 -1.73375 -3.15615 0
M  V30 199 C 20.2053 -3.27431 -3.08397 0
M  V30 200 C 21.5243 -1.47732 -4.14564 0
M  V30 201 H 18.6433 -0.377226 -0.633143 0
M  V30 202 H 21.2853 -1.49693 -1.17013 0
M  V30 203 H 19.4353 -1.34064 -3.64636 0
M  V30 204 H 21.1073 -3.76119 -2.67081 0
M  V30 205 H 19.3503 -3.5767 -2.45468 0
M  V30 206 H 20.0213 -3.71524 -4.08258 0
M  V30 207 H 22.4973 -1.8186 -3.74254 0
M  V30 208 H 21.3733 -1.99169 -5.11491 0
M  V30 209 H 21.6343 -0.407589 -4.40217 0
M  V30 210 N 20.6934 1.19889 -1.02296 0
M  V30 211 C 21.9704 1.85148 -0.630832 0
M  V30 212 C 22.3504 1.91385 0.890782 0
M  V30 213 O 21.6984 1.42642 1.78509 0
M  V30 214 C 21.9084 3.24442 -1.28602 0
M  V30 215 C 23.2564 4.00663 -1.4055 0
M  V30 216 O 24.2804 3.33818 -1.24273 0
M  V30 217 O 23.1394 5.20387 -1.66913 0
M  V30 218 H 20.2334 0.797613 -0.218499 0
M  V30 219 H 22.7794 1.27427 -1.12074 0
M  V30 220 H 21.5514 3.14704 -2.32545 0
M  V30 221 H 21.1744 3.89802 -0.7836 0
M  V30 222 N 22.1715 0.800033 1.35784 0
M  V30 223 C 23.4175 0.38701 1.99684 0
M  V30 224 C 23.7725 -1.03268 1.62338 0
M  V30 225 O 23.0655 -1.70543 0.87325 0
M  V30 226 C 23.2595 0.500276 3.53881 0
M  V30 227 C 23.0885 1.92942 4.06206 0
M  V30 228 C 21.8585 2.55637 4.35865 0
M  V30 229 C 24.0565 2.89307 4.25213 0
M  V30 230 N 22.0385 3.9003 4.74078 0
M  V30 231 C 23.4095 4.08556 4.66349 0
M  V30 232 C 25.4645 2.86225 4.07406 0
M  V30 233 C 24.1675 5.25146 4.91543 0
M  V30 234 C 26.1935 4.02011 4.33752 0
M  V30 235 C 25.5555 5.20007 4.75155 0
M  V30 236 H 21.6545 0.189252 0.758754 0
M  V30 237 H 24.2385 1.03988 1.64604 0
M  V30 238 H 22.4095 -0.122568 3.88207 0
M  V30 239 H 24.1415 0.0624733 4.04652 0
M  V30 240 H 20.8965 2.07039 4.25948 0
M  V30 241 H 21.3205 4.59205 4.97454 0
M  V30 242 H 25.9625 1.96154 3.74544 0
M  V30 243 H 23.6805 6.15794 5.23281 0
M  V30 244 H 27.2665 4.00999 4.21534 0
M  V30 245 H 26.1465 6.08113 4.95145 0
M  V30 246 N 23.6496 -1.47581 0.552962 0
M  V30 247 C 24.8796 -2.06575 0.0320091 0
M  V30 248 C 25.2876 -1.4067 -1.26525 0
M  V30 249 O 24.6306 -0.495808 -1.76883 0
M  V30 250 C 24.6926 -3.58705 -0.238913 0
M  V30 251 C 24.3566 -4.46625 0.968272 0
M  V30 252 C 25.3536 -4.85 1.87274 0
M  V30 253 C 23.0386 -4.88201 1.18175 0
M  V30 254 C 25.0326 -5.63745 2.9744 0
M  V30 255 C 22.7196 -5.66712 2.28651 0
M  V30 256 C 23.7176 -6.04394 3.18114 0
M  V30 257 O 23.4056 -6.81324 4.26676 0
M  V30 258 H 23.1376 -0.674763 0.0408689 0
M  V30 259 H 25.6916 -1.90634 0.764719 0
M  V30 260 H 23.9216 -3.72844 -1.02588 0
M  V30 261 H 25.6106 -3.99735 -0.704731 0
M  V30 262 H 26.3766 -4.53482 1.71984 0
M  V30 263 H 22.2556 -4.58339 0.494593 0
M  V30 264 H 25.7996 -5.93077 3.67296 0
M  V30 265 H 21.6966 -5.97642 2.43915 0
M  V30 266 H 22.4646 -6.99712 4.24671 0
M  V30 267 N 25.1277 -0.289203 -1.54924 0
M  V30 268 C 26.5437 0.0645403 -1.59469 0
M  V30 269 C 26.7437 1.53419 -1.30632 0
M  V30 270 O 25.7997 2.2852 -1.074 0
M  V30 271 C 27.1127 -0.32278 -2.98963 0
M  V30 272 C 28.6607 -0.270564 -3.11828 0
M  V30 273 C 29.1357 -0.632532 -4.53611 0
M  V30 274 N 30.6267 -0.584617 -4.59496 0
M  V30 275 C 31.3617 -0.837314 -5.67254 0
M  V30 276 N 30.8577 -1.15536 -6.83098 0
M  V30 277 N 32.6507 -0.765166 -5.56868 0
M  V30 278 H 24.8017 -1.24714 -1.71931 0
M  V30 279 H 27.0647 -0.504809 -0.802416 0
M  V30 280 H 26.7707 -1.34541 -3.24948 0
M  V30 281 H 26.6447 0.32944 -3.75759 0
M  V30 282 H 29.0317 0.742805 -2.85598 0
M  V30 283 H 29.1127 -0.957242 -2.37214 0
M  V30 284 H 28.7567 -1.64365 -4.80569 0
M  V30 285 H 28.6867 0.07609 -5.26545 0
M  V30 286 H 31.1777 -0.349248 -3.76283 0
M  V30 287 H 31.4907 -1.33447 -7.61191 0
M  V30 288 H 29.8357 -1.19328 -6.84679 0
M  V30 289 H 33.0267 -0.516432 -4.65243 0
M  V30 290 H 33.1997 -0.965477 -6.40767 0
M  V30 291 N 26.6058 1.57591 -0.0167156 0
M  V30 292 C 27.8338 1.95575 0.675128 0
M  V30 293 C 28.2488 0.892542 1.6637 0
M  V30 294 O 27.6058 -0.126912 1.82058 0
M  V30 295 C 27.6568 3.33608 1.39239 0
M  V30 296 O 27.3778 4.3585 0.443444 0
M  V30 297 C 28.8788 3.86151 2.17721 0
M  V30 298 H 26.0988 0.644423 0.186978 0
M  V30 299 H 28.6428 2.0437 -0.0728 0
M  V30 300 H 26.7978 3.2607 2.09182 0
M  V30 301 H 27.2118 5.158 0.951358 0
M  V30 302 H 28.6858 4.85114 2.63379 0
M  V30 303 H 29.1628 3.19738 3.01105 0
M  V30 304 H 29.7688 3.96918 1.52761 0
M  V30 305 N 28.0839 -0.256276 1.55502 0
M  V30 306 C 29.3139 -1.00196 1.80677 0
M  V30 307 C 29.7219 -1.79805 0.588797 0
M  V30 308 O 29.0649 -1.78055 -0.451883 0
M  V30 309 C 29.1269 -1.99515 2.99055 0
M  V30 310 C 28.7909 -1.38688 4.35448 0
M  V30 311 C 29.7879 -0.794079 5.138 0
M  V30 312 C 27.4729 -1.40906 4.82132 0
M  V30 313 C 29.4669 -0.231562 6.36979 0
M  V30 314 C 27.1539 -0.842684 6.05262 0
M  V30 315 C 28.1519 -0.254953 6.82524 0
M  V30 316 O 27.8399 0.3027 8.0333 0
M  V30 317 H 27.5719 -0.300919 0.60533 0
M  V30 318 H 30.1259 -0.287307 2.03381 0
M  V30 319 H 28.3559 -2.74785 2.72084 0
M  V30 320 H 30.0449 -2.60349 3.11405 0
M  V30 321 H 30.8109 -0.769519 4.78856 0
M  V30 322 H 26.6899 -1.85591 4.21992 0
M  V30 323 H 30.2339 0.227816 6.97228 0
M  V30 324 H 26.1309 -0.86454 6.39684 0
M  V30 325 H 26.8989 0.193662 8.18271 0
M  V30 326 N 29.562 -1.4872 -0.521534 0
M  V30 327 C 30.525 -1.63379 -1.60748 0
M  V30 328 C 31.525 -0.50661 -1.52611 0
M  V30 329 O 32.715 -0.772601 -1.5613 0
M  V30 330 C 29.847 -1.61192 -3.00383 0
M  V30 331 H 31.04 -2.60217 -1.49087 0
M  V30 332 H 28.593 -1.37444 -0.744235 0
M  V30 333 H 29.328 -0.65863 -3.17541 0
M  V30 334 H 29.113 -2.43032 -3.07698 0
M  V30 335 H 30.603 -1.7466 -3.7932 0
M  V30 336 N 31.0401 0.771051 -1.3745 0
M  V30 337 C 31.9501 1.91538 -1.35464 0
M  V30 338 C 32.9661 1.72134 -0.254123 0
M  V30 339 O 34.1421 1.95358 -0.489626 0
M  V30 340 C 31.2071 3.26671 -1.16134 0
M  V30 341 C 30.2681 3.58723 -2.35831 0
M  V30 342 C 29.5011 4.87409 -2.17413 0
M  V30 343 O 29.7241 5.58506 -1.15876 0
M  V30 344 O 28.6581 5.18539 -3.05615 0
M  V30 345 H 32.4841 1.96165 -2.31847 0
M  V30 346 H 30.0691 0.9139 -1.18187 0
M  V30 347 H 31.9511 4.07499 -1.07345 0
M  V30 348 H 30.6261 3.22894 -0.228251 0
M  V30 349 H 29.5331 2.78127 -2.50192 0
M  V30 350 H 30.8661 3.67243 -3.27709 0
M  V30 351 N 32.5182 1.22032 0.997298 0
M  V30 352 C 33.4482 1.01065 2.10495 0
M  V30 353 C 34.4292 -0.0669542 1.69968 0
M  V30 354 O 35.6142 0.0943987 1.9397 0
M  V30 355 C 32.7442 0.582874 3.42374 0
M  V30 356 C 31.6982 1.60592 3.96729 0
M  V30 357 C 31.0242 1.03412 5.24605 0
M  V30 358 C 32.3242 2.99478 4.27914 0
M  V30 359 H 34.0182 1.93708 2.28292 0
M  V30 360 H 31.5642 0.932761 1.09707 0
M  V30 361 H 33.5172 0.423332 4.19268 0
M  V30 362 H 32.2412 -0.379213 3.24391 0
M  V30 363 H 30.9002 1.75316 3.21963 0
M  V30 364 H 30.5482 0.063518 5.0296 0
M  V30 365 H 30.2482 1.71754 5.61938 0
M  V30 366 H 31.7722 0.886066 6.04137 0
M  V30 367 H 33.1862 2.88153 4.95622 0
M  V30 368 H 31.5832 3.64903 4.76409 0
M  V30 369 H 32.6532 3.49742 3.3587 0
M  V30 370 N 33.9963 -1.19345 1.0293 0
M  V30 371 C 35.4123 -1.41069 0.746446 0
M  V30 372 C 35.6123 -1.90078 -0.668776 0
M  V30 373 O 34.6683 -2.0778 -1.4347 0
M  V30 374 C 35.9813 -2.42141 1.78292 0
M  V30 375 C 37.5293 -2.55887 1.80252 0
M  V30 376 C 38.0043 -3.60214 2.8286 0
M  V30 377 N 39.4953 -3.67711 2.81679 0
M  V30 378 C 40.2303 -4.48128 3.57727 0
M  V30 379 N 39.7263 -5.32248 4.43491 0
M  V30 380 N 41.5193 -4.42782 3.46267 0
M  V30 381 H 33.6703 -0.858536 1.94275 0
M  V30 382 H 35.9333 -0.439541 0.839945 0
M  V30 383 H 35.6393 -2.13155 2.79746 0
M  V30 384 H 35.5133 -3.41323 1.60557 0
M  V30 385 H 37.9003 -2.84196 0.794757 0
M  V30 386 H 37.9813 -1.56858 2.02062 0
M  V30 387 H 37.6253 -3.32647 3.83807 0
M  V30 388 H 37.5553 -4.58895 2.58307 0
M  V30 389 H 40.0463 -3.07634 2.19476 0
M  V30 390 H 40.3593 -5.90729 4.98256 0
M  V30 391 H 38.7043 -5.31707 4.47564 0
M  V30 392 H 41.8953 -3.76107 2.78677 0
M  V30 393 H 42.0683 -5.05215 4.05785 0
M  V30 394 N 35.4744 -0.807222 -1.35358 0
M  V30 395 C 36.3844 -0.219594 -2.3357 0
M  V30 396 C 37.4004 0.637734 -1.61892 0
M  V30 397 O 38.5764 0.549336 -1.93763 0
M  V30 398 C 35.6414 0.62158 -3.41083 0
M  V30 399 C 34.7024 -0.256315 -4.28534 0
M  V30 400 C 33.9354 0.544807 -5.30912 0
M  V30 401 O 34.1584 1.77944 -5.41934 0
M  V30 402 O 33.0924 -0.0646478 -6.01865 0
M  V30 403 H 36.9184 -1.03208 -2.85625 0
M  V30 404 H 34.5034 -0.569025 -1.38139 0
M  V30 405 H 36.3854 1.10067 -4.06772 0
M  V30 406 H 35.0604 1.41165 -2.91297 0
M  V30 407 H 33.9674 -0.782559 -3.65823 0
M  V30 408 H 35.3004 -1.01034 -4.81719 0
M  V30 409 N 36.9525 1.47285 -0.560781 0
M  V30 410 C 38.1805 2.06855 -0.0430262 0
M  V30 411 C 38.5955 1.41291 1.25229 0
M  V30 412 O 37.9525 0.510648 1.7521 0
M  V30 413 C 38.0035 3.61178 0.152518 0
M  V30 414 O 37.7245 4.24285 -1.0915 0
M  V30 415 C 39.2255 4.37624 0.707145 0
M  V30 416 H 36.4455 0.669319 -0.0474652 0
M  V30 417 H 38.9895 1.89237 -0.77521 0
M  V30 418 H 37.1445 3.78298 0.834843 0
M  V30 419 H 37.5585 5.16868 -0.891482 0
M  V30 420 H 39.0325 5.46271 0.793244 0
M  V30 421 H 39.5095 4.04152 1.71923 0
M  V30 422 H 40.1155 4.25257 0.0604027 0
M  V30 423 N 38.4306 0.297415 1.54768 0
M  V30 424 C 39.3936 -0.567375 2.22066 0
M  V30 425 C 40.3936 -1.06409 1.20556 0
M  V30 426 O 41.5836 -0.960691 1.45315 0
M  V30 427 C 38.7156 -1.78517 2.90421 0
M  V30 428 H 39.9086 0.0205534 2.99893 0
M  V30 429 H 37.4616 0.0482163 1.56226 0
M  V30 430 H 38.1966 -2.41303 2.16664 0
M  V30 431 H 37.9816 -1.43669 3.64831 0
M  V30 432 H 39.4716 -2.39964 3.41771 0
M  V30 433 N 39.9087 -1.5758 0.0250728 0
M  V30 434 C 41.3197 -1.79476 -0.514323 0
M  V30 435 C 41.6707 -0.934956 -1.72491 0
M  V30 436 O 40.7957 -0.144245 -2.15919 0
M  V30 437 C 41.3907 -3.25503 -0.939842 0
M  V30 438 C 39.9497 -3.48408 -1.42438 0
M  V30 439 C 39.0967 -2.74583 -0.387201 0
M  V30 440 H 42.0477 -1.567 0.25113 0
M  V30 441 H 42.0687 -3.34992 -1.80445 0
M  V30 442 H 41.5807 -3.88056 -0.0585628 0
M  V30 443 H 39.6817 -2.91103 -2.32572 0
M  V30 444 H 39.7947 -4.57119 -1.43455 0
M  V30 445 H 38.1587 -2.39942 -0.854409 0
M  V30 446 H 38.9417 -3.39849 0.485543 0
M  V30 447 N 41.3868 0.248026 -1.55636 0
M  V30 448 C 42.6328 0.97767 -1.77678 0
M  V30 449 C 42.9658 1.85016 -0.590135 0
M  V30 450 O 42.2408 1.90095 0.411611 0
M  V30 451 C 42.5238 1.83914 -3.09593 0
M  V30 452 C 42.3768 0.99491 -4.38659 0
M  V30 453 C 43.6958 2.82183 -3.37729 0
M  V30 454 H 40.8148 0.354005 -0.646413 0
M  V30 455 H 43.4568 0.248253 -1.88371 0
M  V30 456 H 41.6068 2.46104 -3.00608 0
M  V30 457 H 43.2788 0.391789 -4.59633 0
M  V30 458 H 41.5218 0.299231 -4.32767 0
M  V30 459 H 42.1928 1.63145 -5.2734 0
M  V30 460 H 44.6688 2.30129 -3.4667 0
M  V30 461 H 43.5448 3.39582 -4.31249 0
M  V30 462 H 43.8058 3.58588 -2.58586 0
M  V30 463 N 42.8649 1.48995 0.513639 0
M  V30 464 C 44.0929 1.61531 1.29288 0
M  V30 465 C 44.5079 0.281801 1.86685 0
M  V30 466 O 43.8649 -0.731111 1.67215 0
M  V30 467 C 43.9159 2.67449 2.43215 0
M  V30 468 O 43.6369 3.95626 1.88179 0
M  V30 469 C 45.1379 2.90575 3.34785 0
M  V30 470 H 42.3579 0.544165 0.392588 0
M  V30 471 H 44.9019 1.9494 0.617956 0
M  V30 472 H 43.0569 2.36853 3.0656 0
M  V30 473 H 43.4709 4.53868 2.62876 0
M  V30 474 H 44.9449 3.68449 4.11035 0
M  V30 475 H 45.4219 2.00011 3.91015 0
M  V30 476 H 46.0279 3.22538 2.77218 0
M  V30 477 N 44.343 -0.763751 1.37857 0
M  V30 478 C 45.754 -1.3405 1.29952 0
M  V30 479 C 46.105 -1.96138 -0.0492898 0
M  V30 480 O 45.23 -1.94372 -0.951239 0
M  V30 481 C 45.825 -2.43729 2.35333 0
M  V30 482 C 44.384 -2.97151 2.31037 0
M  V30 483 C 43.531 -1.70438 2.18738 0
M  V30 484 H 46.482 -0.563396 1.48363 0
M  V30 485 H 46.503 -3.23412 2.00462 0
M  V30 486 H 46.015 -1.9851 3.33489 0
M  V30 487 H 44.116 -3.46724 1.3643 0
M  V30 488 H 44.229 -3.52221 3.24772 0
M  V30 489 H 42.593 -1.93673 1.65418 0
M  V30 490 H 43.376 -1.27312 3.18821 0
M  V30 491 N 45.8211 -1.22559 -0.990812 0
M  V30 492 C 47.0671 -1.05297 -1.73322 0
M  V30 493 C 47.4001 0.410655 -1.89808 0
M  V30 494 O 46.6751 1.30439 -1.44277 0
M  V30 495 C 46.9581 -1.76713 -3.13759 0
M  V30 496 C 46.8111 -3.30684 -3.04907 0
M  V30 497 C 48.1301 -1.52121 -4.12974 0
M  V30 498 H 45.2491 -0.38392 -0.629106 0
M  V30 499 H 47.8911 -1.50926 -1.15418 0
M  V30 500 H 46.0411 -1.37924 -3.63193 0
M  V30 501 H 47.7131 -3.7893 -2.63077 0
M  V30 502 H 45.9561 -3.60253 -2.41661 0
M  V30 503 H 46.6271 -3.75833 -4.04294 0
M  V30 504 H 49.1031 -1.85819 -3.72304 0
M  V30 505 H 47.9791 -2.04582 -5.0935 0
M  V30 506 H 48.2401 -0.454257 -4.3976 0
M  V30 507 N 47.2992 1.18797 -1.03562 0
M  V30 508 C 48.7152 1.40671 -0.753917 0
M  V30 509 C 48.9152 1.9043 0.658686 0
M  V30 510 O 47.9712 2.08538 1.42366 0
M  V30 511 C 49.2842 2.41192 -1.79574 0
M  V30 512 C 50.8322 2.54928 -1.81606 0
M  V30 513 C 51.3072 3.58709 -2.84766 0
M  V30 514 N 52.7982 3.66212 -2.83625 0
M  V30 515 C 53.5332 4.46225 -3.60098 0
M  V30 516 N 53.0292 5.29888 -4.46308 0
M  V30 517 N 54.8222 4.40939 -3.4861 0
M  V30 518 H 46.9732 0.848221 -1.94728 0
M  V30 519 H 49.2362 0.435081 -0.842264 0
M  V30 520 H 48.9422 2.11669 -2.80872 0
M  V30 521 H 48.8162 3.40467 -1.62365 0
M  V30 522 H 51.2032 2.83771 -0.809817 0
M  V30 523 H 51.2842 1.55784 -2.02891 0
M  V30 524 H 50.9282 3.30607 -3.85566 0
M  V30 525 H 50.8582 4.57519 -2.60737 0
M  V30 526 H 53.3492 3.06466 -2.21105 0
M  V30 527 H 53.6622 5.88078 -5.01382 0
M  V30 528 H 52.0072 5.29326 -4.50377 0
M  V30 529 H 55.1982 3.74624 -2.80668 0
M  V30 530 H 55.3712 5.03056 -4.08459 0
M  V30 531 N 48.7773 0.814389 1.34928 0
M  V30 532 C 50.0243 0.398423 1.98542 0
M  V30 533 C 50.3523 -1.03638 1.64589 0
M  V30 534 O 49.6073 -1.73509 0.90516 0
M  V30 535 C 49.9063 0.537781 3.53331 0
M  V30 536 C 49.5723 1.93704 4.07172 0
M  V30 537 C 48.2343 2.31984 4.21589 0
M  V30 538 C 50.5863 2.85213 4.36237 0
M  V30 539 C 47.9143 3.61125 4.62391 0
M  V30 540 C 50.2663 4.13809 4.78482 0
M  V30 541 C 48.9303 4.52077 4.91104 0
M  V30 542 H 48.2003 0.145793 0.726516 0
M  V30 543 H 50.8473 1.03669 1.61012 0
M  V30 544 H 49.1523 -0.183906 3.91368 0
M  V30 545 H 50.8493 0.196588 4.00518 0
M  V30 546 H 47.4393 1.62966 3.96409 0
M  V30 547 H 51.6233 2.56885 4.24645 0
M  V30 548 H 46.8793 3.90612 4.70353 0
M  V30 549 H 51.0533 4.84811 4.99932 0
M  V30 550 H 48.6803 5.52196 5.22478 0
M  V30 551 N 50.2554 -1.46986 0.568584 0
M  V30 552 C 51.1854 -2.32946 -0.160753 0
M  V30 553 C 52.1664 -1.44487 -0.897631 0
M  V30 554 O 53.3514 -1.73327 -0.875867 0
M  V30 555 C 50.4814 -3.26494 -1.18403 0
M  V30 556 C 49.4354 -4.24282 -0.562895 0
M  V30 557 C 48.7614 -5.07236 -1.69163 0
M  V30 558 C 50.0614 -5.19989 0.490761 0
M  V30 559 H 51.7554 -2.94175 0.556916 0
M  V30 560 H 49.3014 -1.4146 0.26927 0
M  V30 561 H 51.2544 -3.85477 -1.70251 0
M  V30 562 H 49.9784 -2.63343 -1.93179 0
M  V30 563 H 48.6374 -3.66541 -0.0656164 0
M  V30 564 H 48.2854 -4.4048 -2.42871 0
M  V30 565 H 47.9854 -5.7345 -1.28174 0
M  V30 566 H 49.5094 -5.6908 -2.21314 0
M  V30 567 H 50.9234 -5.73271 0.0579047 0
M  V30 568 H 49.3204 -5.94469 0.820165 0
M  V30 569 H 50.3904 -4.64777 1.3824 0
M  V30 570 N 51.7335 -0.305618 -1.54608 0
M  V30 571 C 52.9815 0.301701 -1.99835 0
M  V30 572 C 53.3025 1.54054 -1.19551 0
M  V30 573 O 52.5725 1.93702 -0.292658 0
M  V30 574 H 51.1525 0.114468 -0.738178 0
M  V30 575 H 53.8145 -0.418016 -1.90364 0
M  V30 576 H 52.9105 0.570548 -3.06841 0
M  V30 577 N 53.2116 1.57565 -0.0334293 0
M  V30 578 C 54.1436 2.0739 0.975811 0
M  V30 579 C 55.1566 0.998166 1.2861 0
M  V30 580 O 56.3456 1.27426 1.25 0
M  V30 581 C 53.4456 2.4871 2.30209 0
M  V30 582 C 52.6186 3.79413 2.17634 0
M  V30 583 C 51.6776 4.07237 3.33233 0
M  V30 584 O 50.7036 4.77425 3.09927 0
M  V30 585 N 51.9056 3.5775 4.5716 0
M  V30 586 H 54.6706 2.94598 0.55066 0
M  V30 587 H 52.2316 1.61173 0.15323 0
M  V30 588 H 54.2236 2.64413 3.06378 0
M  V30 589 H 52.7936 1.66845 2.64351 0
M  V30 590 H 52.0136 3.73465 1.26165 0
M  V30 591 H 53.3016 4.65038 2.0644 0
M  V30 592 H 52.6996 3.00976 4.78989 0
M  V30 593 H 51.2566 3.78724 5.30482 0
M  V30 594 N 54.6897 -0.239769 1.55765 0
M  V30 595 C 55.9667 -0.990056 1.68693 0
M  V30 596 C 56.3467 -2.03107 0.5754 0
M  V30 597 O 55.6947 -2.24604 -0.42017 0
M  V30 598 C 55.9047 -1.61696 3.09282 0
M  V30 599 C 57.2527 -2.11613 3.6811 0
M  V30 600 O 58.2767 -1.71624 3.12127 0
M  V30 601 O 57.1357 -2.85057 4.66267 0
M  V30 602 H 54.2297 -0.461299 0.686391 0
M  V30 603 H 56.7757 -0.232991 1.68093 0
M  V30 604 H 55.5477 -0.864357 3.81634 0
M  V30 605 H 55.1707 -2.44005 3.13923 0
M  V30 606 N 56.1678 -1.49265 -0.50573 0
M  V30 607 C 57.1308 -1.65075 -1.59006 0
M  V30 608 C 58.1308 -0.522768 -1.52065 0
M  V30 609 O 59.3208 -0.789117 -1.55302 0
M  V30 610 C 56.4528 -1.64369 -2.98656 0
M  V30 611 H 57.6458 -2.61784 -1.46319 0
M  V30 612 H 55.1988 -1.38226 -0.729616 0
M  V30 613 H 55.9338 -0.692272 -3.16825 0
M  V30 614 H 55.7188 -2.46282 -3.05103 0
M  V30 615 H 57.2088 -1.78674 -3.77446 0
M  V30 616 N 57.6459 0.756429 -1.3826 0
M  V30 617 C 58.8919 1.5168 -1.35517 0
M  V30 618 C 59.2469 1.9232 0.0554451 0
M  V30 619 O 58.5399 1.62352 1.01746 0
M  V30 620 C 58.7339 2.78313 -2.24224 0
M  V30 621 C 58.5629 2.50053 -3.7377 0
M  V30 622 C 57.3329 2.43414 -4.42807 0
M  V30 623 C 59.5309 2.1702 -4.66269 0
M  V30 624 N 57.5129 2.07398 -5.77805 0
M  V30 625 C 58.8839 1.91271 -5.89759 0
M  V30 626 C 60.9389 2.03305 -4.54501 0
M  V30 627 C 59.6419 1.53192 -7.02798 0
M  V30 628 C 61.6679 1.66627 -5.67441 0
M  V30 629 C 61.0299 1.4175 -6.8999 0
M  V30 630 H 57.1289 0.554735 -0.551174 0
M  V30 631 H 59.7129 0.881106 -1.73622 0
M  V30 632 H 57.8839 3.39696 -1.88311 0
M  V30 633 H 59.6159 3.44343 -2.12627 0
M  V30 634 H 56.3709 2.59789 -3.95988 0
M  V30 635 H 56.7949 1.92044 -6.4919 0
M  V30 636 H 61.4369 2.21215 -3.60311 0
M  V30 637 H 59.1549 1.34022 -7.96909 0
M  V30 638 H 62.7409 1.56652 -5.60314 0
M  V30 639 H 61.6209 1.1379 -7.759 0
M  V30 640 N 59.124 1.23083 0.984299 0
M  V30 641 C 60.054 1.03292 2.09411 0
M  V30 642 C 61.035 -0.048923 1.7003 0
M  V30 643 O 62.22 0.114967 1.93859 0
M  V30 644 C 59.35 0.619155 3.41736 0
M  V30 645 C 58.304 1.64791 3.95004 0
M  V30 646 C 57.63 1.0897 5.23478 0
M  V30 647 C 58.93 3.03999 4.24714 0
M  V30 648 H 60.624 1.96119 2.26225 0
M  V30 649 H 58.17 0.944344 1.08711 0
M  V30 650 H 60.123 0.467777 4.18796 0
M  V30 651 H 58.847 -0.344786 3.24775 0
M  V30 652 H 57.506 1.78721 3.20085 0
M  V30 653 H 57.154 0.11686 5.02864 0
M  V30 654 H 56.854 1.77704 5.60085 0
M  V30 655 H 58.378 0.950093 6.03163 0
M  V30 656 H 59.792 2.93393 4.92538 0
M  V30 657 H 58.189 3.69936 4.72512 0
M  V30 658 H 59.259 3.53285 3.32142 0
M  V30 659 N 60.6021 -1.18246 1.0419 0
M  V30 660 C 61.8481 -1.88536 0.747122 0
M  V30 661 C 62.1811 -1.80223 -0.723409 0
M  V30 662 O 61.4561 -1.20337 -1.52804 0
M  V30 663 C 61.7391 -3.38968 1.21544 0
M  V30 664 C 61.5921 -3.56084 2.74816 0
M  V30 665 C 62.9111 -4.32648 0.806482 0
M  V30 666 H 60.0301 -0.684619 0.272883 0
M  V30 667 H 62.6721 -1.39113 1.29413 0
M  V30 668 H 60.8221 -3.8119 0.750081 0
M  V30 669 H 62.4941 -3.22946 3.29399 0
M  V30 670 H 60.7371 -2.98699 3.14582 0
M  V30 671 H 61.4081 -4.61639 3.02644 0
M  V30 672 H 63.8841 -3.98211 1.20695 0
M  V30 673 H 62.7601 -5.36462 1.1619 0
M  V30 674 H 63.0211 -4.41146 -0.29029 0
M  V30 675 N 62.0802 -0.821533 -1.34494 0
M  V30 676 C 63.3082 -0.421884 -2.02553 0
M  V30 677 C 63.7232 0.971745 -1.61872 0
M  V30 678 O 63.0802 1.62864 -0.823496 0
M  V30 679 C 63.1312 -0.51285 -3.57844 0
M  V30 680 O 62.8522 -1.85155 -3.97051 0
M  V30 681 C 64.3532 -0.107921 -4.43169 0
M  V30 682 H 61.5732 -0.169482 -0.649243 0
M  V30 683 H 64.1172 -1.1093 -1.71798 0
M  V30 684 H 62.2722 0.126474 -3.87193 0
M  V30 685 H 62.6862 -1.82482 -4.91732 0
M  V30 686 H 64.1602 -0.222657 -5.51551 0
M  V30 687 H 64.6372 0.948401 -4.28838 0
M  V30 688 H 65.2432 -0.720989 -4.19144 0
M  V30 689 N 63.5583 1.46682 -0.576371 0
M  V30 690 C 64.8063 2.02013 -0.0594163 0
M  V30 691 C 65.1273 1.45101 1.30271 0
M  V30 692 O 64.3973 0.633317 1.8538 0
M  V30 693 H 62.9773 0.746759 -0.0189745 0
M  V30 694 H 65.6393 1.79862 -0.750717 0
M  V30 695 H 64.7353 3.12097 0.014345 0
M  V30 696 N 65.0364 0.313813 1.54444 0
M  V30 697 C 66.2664 -0.293491 2.04505 0
M  V30 698 C 66.6744 -1.47086 1.19005 0
M  V30 699 O 66.0174 -1.82481 0.211257 0
M  V30 700 C 66.0794 -0.800455 3.50475 0
M  V30 701 C 65.7434 0.253322 4.56297 0
M  V30 702 C 66.7404 1.08612 5.08428 0
M  V30 703 C 64.4254 0.398708 5.00715 0
M  V30 704 C 66.4194 2.05013 6.0353 0
M  V30 705 C 64.1064 1.36614 5.95634 0
M  V30 706 C 65.1044 2.19033 6.46926 0
M  V30 707 O 64.7924 3.14134 7.39983 0
M  V30 708 H 64.5244 -0.0658325 0.672787 0
M  V30 709 H 67.0784 0.455177 2.00293 0
M  V30 710 H 65.3084 -1.59987 3.52053 0
M  V30 711 H 66.9974 -1.32504 3.83663 0
M  V30 712 H 67.7634 0.984736 4.74898 0
M  V30 713 H 63.6424 -0.23289 4.60411 0
M  V30 714 H 67.1864 2.69382 6.4349 0
M  V30 715 H 63.0834 1.4682 6.28581 0
M  V30 716 H 63.8514 3.0926 7.57826 0
M  V30 717 N 66.5145 -1.57545 0.0417849 0
M  V30 718 C 67.7915 -1.83642 -0.673433 0
M  V30 719 C 68.1715 -0.928298 -1.89594 0
M  V30 720 O 67.5195 0.0129955 -2.28496 0
M  V30 721 C 67.7295 -3.33155 -1.03964 0
M  V30 722 C 69.0775 -3.99941 -1.42592 0
M  V30 723 O 70.1015 -3.37725 -1.13226 0
M  V30 724 O 68.9605 -5.09619 -1.9736 0
M  V30 725 H 66.0545 -0.757638 -0.331533 0
M  V30 726 H 68.6005 -1.69554 0.070433 0
M  V30 727 H 67.3725 -3.9093 -0.170098 0
M  V30 728 H 66.9955 -3.52396 -1.84126 0
M  V30 729 N 67.9926 0.231505 -1.5589 0
M  V30 730 C 68.9026 1.308 -1.94752 0
M  V30 731 C 69.9186 1.51826 -0.849989 0
M  V30 732 O 71.0946 1.6515 -1.15271 0
M  V30 733 C 68.1596 2.63968 -2.24771 0
M  V30 734 C 67.2206 2.51331 -3.48039 0
M  V30 735 C 66.4536 3.78148 -3.76616 0
M  V30 736 O 66.6766 4.80722 -3.07022 0
M  V30 737 O 65.6106 3.75857 -4.70123 0
M  V30 738 H 69.4366 1.0083 -2.86474 0
M  V30 739 H 67.0216 0.433547 -1.42971 0
M  V30 740 H 68.9036 3.42633 -2.45318 0
M  V30 741 H 67.5786 2.9364 -1.36225 0
M  V30 742 H 66.4856 1.709 -3.32782 0
M  V30 743 H 67.8186 2.26601 -4.36936 0
M  V30 744 N 69.4707 1.49531 0.497807 0
M  V30 745 C 70.4337 1.65916 1.58128 0
M  V30 746 C 71.4337 0.530825 1.51786 0
M  V30 747 O 72.6237 0.797342 1.54881 0
M  V30 748 C 69.7557 1.65951 2.9778 0
M  V30 749 H 70.9487 2.62556 1.44929 0
M  V30 750 H 68.5017 1.38611 0.722275 0
M  V30 751 H 69.2367 0.709065 3.16453 0
M  V30 752 H 69.0217 2.47897 3.03792 0
M  V30 753 H 70.5117 1.80673 3.76493 0
M  V30 754 N 70.9488 -0.749086 1.3866 0
M  V30 755 C 71.8958 -1.86291 1.36251 0
M  V30 756 C 72.8658 -1.64578 0.224347 0
M  V30 757 O 74.0508 -1.86181 0.417279 0
M  V30 758 C 71.1908 -3.23644 1.19786 0
M  V30 759 C 70.3038 -3.57158 2.43027 0
M  V30 760 C 69.4388 -4.83838 2.19258 0
M  V30 761 C 68.4778 -5.10152 3.38247 0
M  V30 762 N 67.6148 -6.28029 3.13884 0
M  V30 763 H 72.4548 -1.87685 2.3147 0
M  V30 764 H 69.9918 -0.917287 1.14997 0
M  V30 765 H 71.9498 -4.0291 1.08254 0
M  V30 766 H 70.5798 -3.21566 0.282031 0
M  V30 767 H 69.6318 -2.72701 2.65214 0
M  V30 768 H 70.9438 -3.7253 3.31697 0
M  V30 769 H 70.0978 -5.71057 2.04888 0
M  V30 770 H 68.8368 -4.70614 1.2796 0
M  V30 771 H 67.8418 -4.21401 3.53131 0
M  V30 772 H 69.0668 -5.25271 4.30427 0
M  V30 773 H 67.0128 -6.1612 2.25238 0
M  V30 774 H 66.9298 -6.43922 3.96106 0
M  V30 775 H 68.1978 -7.18124 3.03179 0
M  V30 776 N 72.4269 -1.23603 -0.977757 0
M  V30 777 C 73.3899 -1.02069 -2.05218 0
M  V30 778 C 74.3899 0.0184305 -1.60789 0
M  V30 779 O 75.5799 -0.221569 -1.72785 0
M  V30 780 C 72.7119 -0.544926 -3.36517 0
M  V30 781 H 73.9049 -1.9742 -2.25755 0
M  V30 782 H 71.4579 -1.05684 -1.15155 0
M  V30 783 H 72.1929 0.412241 -3.21669 0
M  V30 784 H 71.9779 -1.2948 -3.70105 0
M  V30 785 H 73.4679 -0.414985 -4.15533 0
M  V30 786 N 73.905 1.17692 -1.04816 0
M  V30 787 C 74.868 2.19787 -0.650117 0
M  V30 788 C 75.868 1.58044 0.296427 0
M  V30 789 O 77.058 1.74012 0.0808097 0
M  V30 790 C 74.19 3.40869 0.0456987 0
M  V30 791 H 75.383 2.56516 -1.5537 0
M  V30 792 H 72.936 1.31708 -0.841594 0
M  V30 793 H 73.671 3.09681 0.962726 0
M  V30 794 H 73.456 3.86928 -0.634727 0
M  V30 795 H 74.946 4.16445 0.310432 0
M  V30 796 N 75.3831 0.828654 1.34056 0
M  V30 797 C 76.3131 0.269443 2.3194 0
M  V30 798 C 77.2941 -0.617247 1.58506 0
M  V30 799 O 78.4791 -0.542931 1.86456 0
M  V30 800 C 75.6091 -0.564793 3.42677 0
M  V30 801 C 74.5631 0.225241 4.27407 0
M  V30 802 C 73.8891 -0.7321 5.29664 0
M  V30 803 C 75.1891 1.43663 5.02154 0
M  V30 804 H 76.8831 1.08728 2.7896 0
M  V30 805 H 74.4291 0.524283 1.34117 0
M  V30 806 H 76.3821 -0.966233 4.10173 0
M  V30 807 H 75.1061 -1.41574 2.9432 0
M  V30 808 H 73.7651 0.608117 3.61521 0
M  V30 809 H 73.4131 -1.57916 4.77568 0
M  V30 810 H 73.1131 -0.20767 5.87233 0
M  V30 811 H 74.6371 -1.13128 6.00029 0
M  V30 812 H 76.0511 1.1089 5.62473 0
M  V30 813 H 74.4481 1.89711 5.69324 0
M  V30 814 H 75.5181 2.21181 4.31517 0
M  V30 815 N 76.8612 -1.46375 0.584142 0
M  V30 816 C 78.0862 -2.07268 0.0740405 0
M  V30 817 C 78.5112 -1.42979 -1.22223 0
M  V30 818 O 77.8692 -0.514092 -1.73859 0
M  V30 819 C 77.9172 -3.60518 -0.0767769 0
M  V30 820 O 77.0212 -3.96533 -1.13292 0
M  V30 821 H 76.3622 -0.660961 0.0634524 0
M  V30 822 H 78.8922 -1.87991 0.807492 0
M  V30 823 H 78.9022 -4.07021 -0.282489 0
M  V30 824 H 77.5772 -4.06702 0.86986 0
M  V30 825 H 76.1542 -3.61738 -0.905553 0
M  V30 826 N 78.3393 -0.321999 -1.54275 0
M  V30 827 C 79.6163 0.335232 -1.92706 0
M  V30 828 C 79.9963 1.70006 -1.25145 0
M  V30 829 O 79.3443 2.25067 -0.394596 0
M  V30 830 C 79.5543 0.429008 -3.46353 0
M  V30 831 C 80.9023 0.690029 -4.18956 0
M  V30 832 O 81.9263 0.511992 -3.52501 0
M  V30 833 O 80.7853 1.03338 -5.36641 0
M  V30 834 H 77.8793 0.191143 -0.804608 0
M  V30 835 H 80.4253 -0.3716 -1.65581 0
M  V30 836 H 79.1973 -0.529611 -3.87699 0
M  V30 837 H 78.8203 1.18348 -3.79578 0
M  V30 838 N 79.8174 1.5752 -0.0501392 0
M  V30 839 C 80.7474 2.14502 0.922566 0
M  V30 840 C 81.7284 1.06642 1.3252 0
M  V30 841 O 82.9134 1.34577 1.4001 0
M  V30 842 C 80.0434 2.68916 2.19776 0
M  V30 843 C 78.9974 3.8175 1.93523 0
M  V30 844 C 78.3234 4.22677 3.27487 0
M  V30 845 C 79.6234 5.06932 1.25765 0
M  V30 846 H 81.3174 2.9603 0.447952 0
M  V30 847 H 78.8634 1.42401 0.214024 0
M  V30 848 H 80.8164 3.07419 2.88222 0
M  V30 849 H 79.5404 1.84578 2.69441 0
M  V30 850 H 78.1994 3.43718 1.27489 0
M  V30 851 H 77.8474 3.35291 3.74952 0
M  V30 852 H 77.5474 4.98725 3.1072 0
M  V30 853 H 79.0714 4.63779 3.97166 0
M  V30 854 H 80.4854 5.42888 1.84244 0
M  V30 855 H 78.8824 5.88116 1.19328 0
M  V30 856 H 79.9524 4.84337 0.233536 0
M  V30 857 N 81.2955 -0.223234 1.56011 0
M  V30 858 C 82.7115 -0.572856 1.48965 0
M  V30 859 C 82.9115 -1.87225 0.74492 0
M  V30 860 O 81.9675 -2.50899 0.283896 0
M  V30 861 C 83.2805 -0.653646 2.9351 0
M  V30 862 C 84.8285 -0.744386 3.0402 0
M  V30 863 C 85.3035 -0.856535 4.49919 0
M  V30 864 N 86.7945 -0.9208 4.53955 0
M  V30 865 C 87.5295 -1.02726 5.64123 0
M  V30 866 N 87.0255 -1.09777 6.84047 0
M  V30 867 N 88.8185 -1.06226 5.51971 0
M  V30 868 H 80.9695 0.629462 2.02858 0
M  V30 869 H 83.2325 0.220621 0.921971 0
M  V30 870 H 82.9385 0.231518 3.50937 0
M  V30 871 H 82.8125 -1.51781 3.45315 0
M  V30 872 H 85.1995 -1.61999 2.46658 0
M  V30 873 H 85.2805 0.14541 2.55386 0
M  V30 874 H 84.9245 0.0146069 5.07898 0
M  V30 875 H 84.8545 -1.76172 4.96257 0
M  V30 876 H 87.3455 -0.876694 3.6759 0
M  V30 877 H 87.6585 -1.17872 7.63758 0
M  V30 878 H 86.0035 -1.06693 6.86762 0
M  V30 879 H 89.1945 -1.00382 4.5721 0
M  V30 880 H 89.3675 -1.14177 6.37862 0
M  V30 881 N 82.7736 -1.49793 -0.48987 0
M  V30 882 C 83.7036 -1.70201 -1.59856 0
M  V30 883 C 84.6846 -0.55076 -1.60937 0
M  V30 884 O 85.8696 -0.787841 -1.77501 0
M  V30 885 C 82.9996 -1.77882 -2.98287 0
M  V30 886 C 81.9536 -2.92907 -3.12073 0
M  V30 887 C 81.2796 -2.85712 -4.51965 0
M  V30 888 C 82.5796 -4.3369 -2.91051 0
M  V30 889 H 84.2736 -2.63025 -1.43032 0
M  V30 890 H 81.8196 -1.26574 -0.686664 0
M  V30 891 H 83.7726 -1.90744 -3.75759 0
M  V30 892 H 82.4966 -0.816653 -3.16225 0
M  V30 893 H 81.1556 -2.79665 -2.37029 0
M  V30 894 H 80.8036 -1.8738 -4.66795 0
M  V30 895 H 80.5036 -3.62921 -4.62128 0
M  V30 896 H 82.0276 -3.00598 -5.31482 0
M  V30 897 H 83.4416 -4.47555 -3.58284 0
M  V30 898 H 81.8386 -5.12205 -3.12675 0
M  V30 899 H 82.9086 -4.47362 -1.87071 0
M  V30 900 N 84.2517 0.741722 -1.39055 0
M  V30 901 C 85.4767 1.53607 -1.39354 0
M  V30 902 C 85.9017 1.88096 0.0116905 0
M  V30 903 O 85.2597 1.5143 0.996924 0
M  V30 904 C 85.3077 2.80441 -2.26682 0
M  V30 905 O 84.4117 3.76088 -1.69208 0
M  V30 906 H 83.7527 0.464142 -0.474835 0
M  V30 907 H 86.2827 0.915665 -1.82967 0
M  V30 908 H 86.2927 3.29246 -2.40959 0
M  V30 909 H 84.9677 2.5467 -3.2881 0
M  V30 910 H 83.5447 3.34833 -1.64138 0
M  V30 911 N 85.7298 1.2412 0.971189 0
M  V30 912 C 86.9548 1.10667 1.75407 0
M  V30 913 C 87.3798 -0.337048 1.85056 0
M  V30 914 O 86.7378 -1.24396 1.31892 0
M  V30 915 C 86.7858 1.74726 3.15441 0
M  V30 916 O 85.8898 1.01566 3.99697 0
M  V30 917 H 85.2308 0.387341 0.539317 0
M  V30 918 H 87.7608 1.64358 1.2185 0
M  V30 919 H 87.7708 1.80341 3.6598 0
M  V30 920 H 86.4458 2.79773 3.07734 0
M  V30 921 H 85.0228 1.03713 3.58187 0
M  V30 922 N 87.2079 -1.17134 1.05439 0
M  V30 923 C 88.4849 -1.83411 0.679699 0
M  V30 924 C 88.8649 -1.9368 -0.839726 0
M  V30 925 O 88.2129 -1.47325 -1.74664 0
M  V30 926 C 88.4229 -3.20918 1.37159 0
M  V30 927 C 89.7709 -3.96796 1.51123 0
M  V30 928 O 90.7949 -3.30406 1.3308 0
M  V30 929 O 89.6539 -5.15778 1.80651 0
M  V30 930 H 86.7479 -0.79154 0.239569 0
M  V30 931 H 89.2939 -1.24411 1.15413 0
M  V30 932 H 88.0659 -3.08428 2.40807 0
M  V30 933 H 87.6889 -3.87587 0.886674 0
M  V30 934 N 88.686 -0.835752 -1.33615 0
M  V30 935 C 90.097 -0.487099 -1.80234 0
M  V30 936 C 90.448 0.993627 -1.69179 0
M  V30 937 O 89.573 1.77403 -1.23924 0
M  V30 938 C 90.168 -0.877385 -3.27242 0
M  V30 939 C 88.727 -0.580915 -3.7189 0
M  V30 940 C 87.874 -1.0874 -2.5509 0
M  V30 941 H 90.825 -1.02474 -1.2118 0
M  V30 942 H 90.846 -0.186195 -3.80044 0
M  V30 943 H 90.358 -1.95512 -3.35256 0
M  V30 944 H 88.459 0.486881 -3.69405 0
M  V30 945 H 88.572 -1.13396 -4.65487 0
M  V30 946 H 86.936 -0.508392 -2.49575 0
M  V30 947 H 87.719 -2.17184 -2.65868 0
M  V30 948 N 90.1641 1.46063 -0.591896 0
M  V30 949 C 91.1111 2.30399 0.136069 0
M  V30 950 C 92.0811 1.41169 0.875238 0
M  V30 951 O 93.2661 1.70112 0.86409 0
M  V30 952 C 90.4061 3.25804 1.13781 0
M  V30 953 C 89.5191 4.30134 0.401137 0
M  V30 954 C 88.6541 5.12659 1.39121 0
M  V30 955 C 87.6931 6.0873 0.641462 0
M  V30 956 N 86.8301 6.8409 1.58004 0
M  V30 957 H 91.6701 2.92118 -0.589144 0
M  V30 958 H 89.2071 1.43959 -0.302342 0
M  V30 959 H 91.1651 3.79569 1.73156 0
M  V30 960 H 89.7951 2.65872 1.83062 0
M  V30 961 H 88.8471 3.79152 -0.307826 0
M  V30 962 H 90.1591 4.98458 -0.184565 0
M  V30 963 H 89.3131 5.70747 2.05749 0
M  V30 964 H 88.0521 4.44316 2.01084 0
M  V30 965 H 87.0571 5.49786 -0.0385419 0
M  V30 966 H 88.2821 6.79095 0.0270945 0
M  V30 967 H 86.2281 6.18449 2.18761 0
M  V30 968 H 86.1451 7.48709 1.04738 0
M  V30 969 H 87.4131 7.4673 2.23639 0
M  V30 970 N 91.6422 0.330177 1.54103 0
M  V30 971 C 92.5892 -0.532762 2.24567 0
M  V30 972 C 93.5592 -1.10635 1.23892 0
M  V30 973 O 94.7442 -1.14546 1.5259 0
M  V30 974 C 91.8842 -1.6845 3.01195 0
M  V30 975 C 90.9972 -1.13951 4.167 0
M  V30 976 C 90.1322 -2.25746 4.80845 0
M  V30 977 C 89.1712 -1.6853 5.88442 0
M  V30 978 N 88.3082 -2.74014 6.46421 0
M  V30 979 H 93.1482 0.0746905 2.97906 0
M  V30 980 H 90.6852 0.048632 1.4702 0
M  V30 981 H 92.6432 -2.36234 3.43874 0
M  V30 982 H 91.2732 -2.26314 2.30178 0
M  V30 983 H 90.3252 -0.35301 3.78758 0
M  V30 984 H 91.6372 -0.680892 4.94131 0
M  V30 985 H 90.7912 -3.01422 5.26526 0
M  V30 986 H 89.5302 -2.74947 4.0281 0
M  V30 987 H 88.5352 -0.913543 5.42157 0
M  V30 988 H 89.7602 -1.20198 6.68378 0
M  V30 989 H 87.7062 -3.22494 5.71256 0
M  V30 990 H 87.6232 -2.32735 7.19285 0
M  V30 991 H 88.8912 -3.49499 6.96757 0
M  V30 992 N 93.1203 -1.57491 0.0584922 0
M  V30 993 C 94.0673 -2.11958 -0.913376 0
M  V30 994 C 95.0373 -1.02875 -1.30407 0
M  V30 995 O 96.2223 -1.30464 -1.39226 0
M  V30 996 C 93.3623 -2.67497 -2.18035 0
M  V30 997 C 92.4753 -3.90691 -1.84349 0
M  V30 998 C 91.6103 -4.3452 -3.05559 0
M  V30 999 C 90.6493 -5.50395 -2.67827 0
M  V30 1000 N 89.7863 -5.89244 -3.81754 0
M  V30 1001 H 94.6263 -2.94704 -0.442017 0
M  V30 1002 H 92.1633 -1.45643 -0.206545 0
M  V30 1003 H 94.1213 -2.978 -2.92183 0
M  V30 1004 H 92.7513 -1.87537 -2.62735 0
M  V30 1005 H 91.8033 -3.66934 -1.00319 0
M  V30 1006 H 93.1153 -4.7489 -1.5258 0
M  V30 1007 H 92.2693 -4.66414 -3.87998 0
M  V30 1008 H 91.0083 -3.49147 -3.40511 0
M  V30 1009 H 90.0133 -5.18165 -1.83806 0
M  V30 1010 H 91.2383 -6.3749 -2.34059 0
M  V30 1011 H 89.1843 -5.06823 -4.16493 0
M  V30 1012 H 89.1013 -6.68151 -3.53708 0
M  V30 1013 H 90.3693 -6.25756 -4.64811 0
M  V30 1014 N 94.5984 0.214957 -1.56127 0
M  V30 1015 C 95.8284 0.953707 -1.8327 0
M  V30 1016 C 96.2364 1.78181 -0.636262 0
M  V30 1017 O 95.5794 1.79191 0.404516 0
M  V30 1018 C 95.6414 1.91516 -3.0424 0
M  V30 1019 C 95.3054 1.27094 -4.38972 0
M  V30 1020 C 96.3024 0.657575 -5.15725 0
M  V30 1021 C 93.9874 1.28073 -4.85698 0
M  V30 1022 C 95.9814 0.0625968 -6.37369 0
M  V30 1023 C 93.6684 0.681914 -6.07283 0
M  V30 1024 C 94.6664 0.0739046 -6.8296 0
M  V30 1025 O 94.3544 -0.515582 -8.02245 0
M  V30 1026 H 94.0864 0.284764 -0.613095 0
M  V30 1027 H 96.6404 0.233283 -2.04071 0
M  V30 1028 H 94.8704 2.67475 -2.79274 0
M  V30 1029 H 96.5594 2.52001 -3.18198 0
M  V30 1030 H 97.3254 0.642288 -4.80728 0
M  V30 1031 H 93.2044 1.74337 -4.26764 0
M  V30 1032 H 96.7484 -0.412593 -6.96379 0
M  V30 1033 H 92.6454 0.694636 -6.41752 0
M  V30 1034 H 93.4134 -0.410544 -8.1747 0
M  V30 1035 N 96.0765 1.50051 0.48192 0
M  V30 1036 C 97.4875 1.5348 1.06305 0
M  V30 1037 C 97.8385 0.331997 1.93371 0
M  V30 1038 O 96.9635 -0.556256 2.09129 0
M  V30 1039 C 97.5585 2.7813 1.93466 0
M  V30 1040 C 96.1175 2.84275 2.46707 0
M  V30 1041 C 95.2645 2.47637 1.24785 0
M  V30 1042 H 98.2155 1.56472 0.264995 0
M  V30 1043 H 98.2365 2.59372 2.78399 0
M  V30 1044 H 97.7485 3.65654 1.30072 0
M  V30 1045 H 95.8495 2.01077 3.13686 0
M  V30 1046 H 95.9625 3.8691 2.82555 0
M  V30 1047 H 94.3265 1.99835 1.57918 0
M  V30 1048 H 95.1095 3.37457 0.630694 0
M  V30 1049 N 97.5546 -0.734337 1.39446 0
M  V30 1050 C 98.8026 -1.49096 1.36436 0
M  V30 1051 C 99.1236 -1.94961 -0.0388255 0
M  V30 1052 O 98.3936 -1.69033 -0.990191 0
M  V30 1053 H 96.9736 -0.5531 0.502085 0
M  V30 1054 H 99.6356 -0.871725 1.74319 0
M  V30 1055 H 98.7316 -2.37276 2.02747 0
M  V30 1056 N 99.0327 -1.24633 -0.964593 0
M  V30 1057 C 100.279 -1.08949 -1.71049 0
M  V30 1058 C 100.612 0.370302 -1.90637 0
M  V30 1059 O 99.8867 1.27349 -1.47011 0
M  V30 1060 C 100.17 -1.83329 -3.0994 0
M  V30 1061 C 100.023 -3.37077 -2.97824 0
M  V30 1062 C 101.342 -1.60846 -4.09654 0
M  V30 1063 H 98.4607 -0.397178 -0.620821 0
M  V30 1064 H 101.103 -1.5334 -1.12191 0
M  V30 1065 H 99.2527 -1.45597 -3.60186 0
M  V30 1066 H 100.925 -3.84425 -2.5498 0
M  V30 1067 H 99.1677 -3.65298 -2.33965 0
M  V30 1068 H 99.8387 -3.84324 -3.96231 0
M  V30 1069 H 102.315 -1.93674 -3.68279 0
M  V30 1070 H 101.191 -2.1534 -5.04896 0
M  V30 1071 H 101.452 -0.547434 -4.38698 0
M  V30 1072 N 100.511 1.16574 -1.06058 0
M  V30 1073 C 101.421 2.2452 -0.680282 0
M  V30 1074 C 102.437 1.71348 0.302604 0
M  V30 1075 O 103.613 2.00822 0.152513 0
M  V30 1076 C 100.678 3.46629 -0.0700315 0
M  V30 1077 C 99.7388 4.14849 -1.10448 0
M  V30 1078 C 98.9718 5.31129 -0.523256 0
M  V30 1079 O 99.1948 5.66514 0.664709 0
M  V30 1080 O 98.1288 5.88526 -1.26179 0
M  V30 1081 H 101.955 2.59355 -1.58015 0
M  V30 1082 H 99.5398 1.24043 -0.832694 0
M  V30 1083 H 101.422 4.20543 0.268667 0
M  V30 1084 H 100.097 3.13573 0.803353 0
M  V30 1085 H 99.0038 3.42916 -1.49532 0
M  V30 1086 H 100.337 4.51954 -1.94931 0
M  V30 1087 N 101.989 0.842826 1.3317 0
M  V30 1088 C 103.235 0.441099 1.97945 0
M  V30 1089 C 103.568 -0.998024 1.66593 0
M  V30 1090 O 102.843 -1.69839 0.947898 0
M  V30 1091 C 103.126 0.666841 3.53872 0
M  V30 1092 C 102.979 2.15352 3.94897 0
M  V30 1093 C 104.298 0.115544 4.39948 0
M  V30 1094 H 101.417 0.161739 0.719034 0
M  V30 1095 H 104.059 1.05907 1.57746 0
M  V30 1096 H 102.209 0.140828 3.88245 0
M  V30 1097 H 103.881 2.7447 3.70761 0
M  V30 1098 H 102.124 2.63653 3.44484 0
M  V30 1099 H 102.795 2.26221 5.03516 0
M  V30 1100 H 105.271 0.565213 4.12243 0
M  V30 1101 H 104.147 0.303152 5.48062 0
M  V30 1102 H 104.408 -0.980935 4.3108 0
M  V30 1103 N 103.467 -1.45747 0.599634 0
M  V30 1104 C 104.377 -2.34262 -0.125888 0
M  V30 1105 C 105.393 -1.50768 -0.868625 0
M  V30 1106 O 106.569 -1.83592 -0.828003 0
M  V30 1107 C 103.634 -3.28252 -1.11587 0
M  V30 1108 C 102.695 -4.27651 -0.375956 0
M  V30 1109 C 101.928 -5.1715 -1.31877 0
M  V30 1110 O 102.151 -5.09916 -2.55621 0
M  V30 1111 O 101.085 -5.96286 -0.820157 0
M  V30 1112 H 104.911 -2.97688 0.601315 0
M  V30 1113 H 102.496 -1.44999 0.359934 0
M  V30 1114 H 104.378 -3.86191 -1.68626 0
M  V30 1115 H 103.053 -2.67401 -1.82424 0
M  V30 1116 H 101.96 -3.7335 0.236698 0
M  V30 1117 H 103.293 -4.91334 0.29177 0
M  V30 1118 N 104.945 -0.338344 -1.53925 0
M  V30 1119 C 106.192 0.259758 -2.00827 0
M  V30 1120 C 106.52 1.50973 -1.22628 0
M  V30 1121 O 105.775 1.93379 -0.300509 0
M  V30 1122 C 106.074 0.62448 -3.51902 0
M  V30 1123 C 105.74 -0.528006 -4.47798 0
M  V30 1124 C 104.402 -0.844298 -4.73735 0
M  V30 1125 C 106.754 -1.30143 -5.0469 0
M  V30 1126 C 104.082 -1.93648 -5.53821 0
M  V30 1127 C 106.434 -2.38382 -5.85967 0
M  V30 1128 C 105.098 -2.70576 -6.10201 0
M  V30 1129 H 104.368 0.0950523 -0.734878 0
M  V30 1130 H 107.015 -0.465182 -1.85764 0
M  V30 1131 H 105.32 1.43006 -3.64769 0
M  V30 1132 H 107.017 1.09905 -3.85645 0
M  V30 1133 H 103.607 -0.271421 -4.2774 0
M  V30 1134 H 107.791 -1.07033 -4.84621 0
M  V30 1135 H 103.047 -2.19021 -5.70824 0
M  V30 1136 H 107.221 -2.98746 -6.29066 0
M  V30 1137 H 104.848 -3.55333 -6.72044 0
M  V30 1138 N 106.423 1.57458 -0.0668435 0
M  V30 1139 C 107.834 1.80776 0.466558 0
M  V30 1140 C 108.185 0.980361 1.69951 0
M  V30 1141 O 107.31 0.201441 2.1546 0
M  V30 1142 C 107.905 3.27881 0.85321 0
M  V30 1143 C 106.464 3.52062 1.3315 0
M  V30 1144 C 105.611 2.75513 0.314264 0
M  V30 1145 H 108.562 1.5598 -0.292588 0
M  V30 1146 H 108.583 3.39659 1.715 0
M  V30 1147 H 108.095 3.88075 -0.0443439 0
M  V30 1148 H 106.196 2.97167 2.24772 0
M  V30 1149 H 106.309 4.60762 1.31285 0
M  V30 1150 H 104.673 2.42123 0.790492 0
M  V30 1151 H 105.456 3.38442 -0.575477 0
M  V30 1152 N 107.901 -0.206675 1.56239 0
M  V30 1153 C 108.864 -1.23976 1.92776 0
M  V30 1154 C 109.864 -1.39041 0.807729 0
M  V30 1155 O 111.054 -1.37051 1.0753 0
M  V30 1156 C 108.186 -2.61112 2.19165 0
M  V30 1157 H 109.379 -0.927764 2.85189 0
M  V30 1158 H 106.932 -0.447718 1.4975 0
M  V30 1159 H 107.667 -2.97386 1.29352 0
M  V30 1160 H 107.452 -2.51552 3.00772 0
M  V30 1161 H 108.942 -3.35633 2.48476 0
M  V30 1162 N 109.379 -1.50304 -0.473955 0
M  V30 1163 C 110.609 -1.64663 -1.24778 0
M  V30 1164 C 111.017 -0.328174 -1.86332 0
M  V30 1165 O 110.36 0.699536 -1.69859 0
M  V30 1166 C 110.422 -2.6778 -2.39863 0
M  V30 1167 C 110.086 -4.11413 -1.98969 0
M  V30 1168 C 111.083 -4.97372 -1.51385 0
M  V30 1169 C 108.768 -4.57312 -2.07777 0
M  V30 1170 C 110.762 -6.27277 -1.13148 0
M  V30 1171 C 108.449 -5.87223 -1.69152 0
M  V30 1172 C 109.447 -6.72031 -1.21915 0
M  V30 1173 O 109.135 -7.99518 -0.838237 0
M  V30 1174 H 108.867 -0.556602 -0.383627 0
M  V30 1175 H 111.421 -1.9726 -0.572491 0
M  V30 1176 H 109.651 -2.30419 -3.10554 0
M  V30 1177 H 111.34 -2.71388 -3.01833 0
M  V30 1178 H 112.106 -4.63128 -1.44004 0
M  V30 1179 H 107.985 -3.91449 -2.43493 0
M  V30 1180 H 111.529 -6.93425 -0.762077 0
M  V30 1181 H 107.426 -6.20989 -1.76191 0
M  V30 1182 H 108.194 -8.12764 -0.967339 0
M  V30 1183 N 110.857 0.726932 -1.39834 0
M  V30 1184 C 111.787 1.85405 -1.41941 0
M  V30 1185 C 112.768 1.67751 -0.281728 0
M  V30 1186 O 113.953 1.8795 -0.488717 0
M  V30 1187 C 111.083 3.23243 -1.2701 0
M  V30 1188 C 110.037 3.55549 -2.38262 0
M  V30 1189 C 109.363 4.9241 -2.08415 0
M  V30 1190 C 110.663 3.577 -3.80589 0
M  V30 1191 H 112.357 1.83899 -2.36266 0
M  V30 1192 H 109.903 0.883349 -1.13723 0
M  V30 1193 H 111.856 4.01775 -1.27103 0
M  V30 1194 H 110.58 3.25296 -0.291564 0
M  V30 1195 H 109.239 2.79351 -2.37399 0
M  V30 1196 H 108.887 4.91052 -1.0898 0
M  V30 1197 H 108.587 5.14992 -2.82943 0
M  V30 1198 H 110.111 5.73289 -2.10171 0
M  V30 1199 H 111.525 4.26293 -3.83337 0
M  V30 1200 H 109.922 3.91804 -4.54543 0
M  V30 1201 H 110.992 2.57328 -4.10987 0
M  V30 1202 N 112.336 1.25143 0.95797 0
M  V30 1203 C 113.584 1.09476 1.69881 0
M  V30 1204 C 113.905 -0.365502 1.91544 0
M  V30 1205 O 113.175 -1.25985 1.50015 0
M  V30 1206 H 111.755 0.402128 0.629525 0
M  V30 1207 H 114.417 1.57214 1.15194 0
M  V30 1208 H 113.513 1.60046 2.6794 0
M  V30 1209 N 113.814 -1.1601 1.06675 0
M  V30 1210 C 115.061 -1.86633 0.785781 0
M  V30 1211 C 115.389 -1.81929 -0.687896 0
M  V30 1212 O 114.644 -1.23253 -1.52011 0
M  V30 1213 C 114.943 -3.35547 1.23057 0
M  V30 1214 C 114.609 -3.60448 2.70902 0
M  V30 1215 C 113.271 -3.66954 3.11285 0
M  V30 1216 C 115.623 -3.7071 3.66365 0
M  V30 1217 C 112.951 -3.81225 4.45965 0
M  V30 1218 C 115.303 -3.86503 5.00797 0
M  V30 1219 C 113.967 -3.91252 5.40813 0
M  V30 1220 H 113.237 -0.682937 0.287538 0
M  V30 1221 H 115.884 -1.37146 1.33654 0
M  V30 1222 H 114.189 -3.87193 0.59907 0
M  V30 1223 H 115.886 -3.88583 0.990163 0
M  V30 1224 H 112.476 -3.56021 2.38636 0
M  V30 1225 H 116.66 -3.64991 3.36296 0
M  V30 1226 H 111.916 -3.83155 4.76447 0
M  V30 1227 H 116.09 -3.93385 5.74649 0
M  V30 1228 H 113.717 -4.02062 6.45174 0
M  V30 1229 N 115.292 -0.849877 -1.32721 0
M  V30 1230 C 116.703 -0.506188 -1.79707 0
M  V30 1231 C 117.054 0.975627 -1.70223 0
M  V30 1232 O 116.179 1.76078 -1.25799 0
M  V30 1233 C 116.774 -0.912044 -3.26293 0
M  V30 1234 C 115.333 -0.620326 -3.71253 0
M  V30 1235 C 114.48 -1.11439 -2.53922 0
M  V30 1236 H 117.431 -1.03754 -1.20087 0
M  V30 1237 H 117.452 -0.226493 -3.79825 0
M  V30 1238 H 116.964 -1.99057 -3.33164 0
M  V30 1239 H 115.065 0.447674 -3.69901 0
M  V30 1240 H 115.178 -1.18327 -4.64258 0
M  V30 1241 H 113.542 -0.534834 -2.49021 0
M  V30 1242 H 114.325 -2.19992 -2.6355 0
M  V30 1243 N 116.77 1.45427 -0.607355 0
M  V30 1244 C 117.68 2.34325 0.113463 0
M  V30 1245 C 118.696 1.51226 0.860617 0
M  V30 1246 O 119.872 1.84029 0.818255 0
M  V30 1247 C 116.937 3.28839 1.09844 0
M  V30 1248 C 115.998 4.27844 0.353271 0
M  V30 1249 C 115.231 5.17842 1.29133 0
M  V30 1250 O 115.454 5.11264 2.52913 0
M  V30 1251 O 114.388 5.96713 0.788523 0
M  V30 1252 H 118.214 2.97364 -0.617094 0
M  V30 1253 H 115.799 1.44807 -0.367619 0
M  V30 1254 H 117.681 3.8708 1.66575 0
M  V30 1255 H 116.356 2.68365 1.81003 0
M  V30 1256 H 115.263 3.7322 -0.256494 0
M  V30 1257 H 116.596 4.91173 -0.317822 0
M  V30 1258 N 118.248 0.346503 1.53744 0
M  V30 1259 C 119.525 -0.304532 1.93215 0
M  V30 1260 C 119.905 -1.67993 1.27834 0
M  V30 1261 O 119.253 -2.24411 0.430352 0
M  V30 1262 C 119.463 -0.373852 3.46992 0
M  V30 1263 C 120.811 -0.62329 4.2 0
M  V30 1264 O 121.835 -0.455847 3.53271 0
M  V30 1265 O 120.694 -0.947879 5.38217 0
M  V30 1266 H 117.788 -0.178318 0.807547 0
M  V30 1267 H 120.334 0.397895 1.64969 0
M  V30 1268 H 119.106 0.591224 3.86808 0
M  V30 1269 H 118.729 -1.12294 3.81413 0
M  V30 1270 N 119.726 -1.57421 0.075193 0
M  V30 1271 C 120.972 -1.93905 -0.594025 0
M  V30 1272 C 121.305 -0.955701 -1.69056 0
M  V30 1273 O 120.58 0.0145373 -1.94495 0
M  V30 1274 C 120.863 -3.40638 -1.1678 0
M  V30 1275 C 120.716 -4.49733 -0.0776792 0
M  V30 1276 C 122.035 -3.88259 -2.07228 0
M  V30 1277 H 119.154 -0.705105 -0.214466 0
M  V30 1278 H 121.796 -1.8947 0.141854 0
M  V30 1279 H 119.946 -3.44549 -1.79494 0
M  V30 1280 H 121.618 -4.57942 0.555573 0
M  V30 1281 H 119.861 -4.29751 0.591286 0
M  V30 1282 H 120.532 -5.49549 -0.519603 0
M  V30 1283 H 123.008 -3.86376 -1.54445 0
M  V30 1284 H 121.884 -4.91533 -2.44308 0
M  V30 1285 H 122.145 -3.26396 -2.98191 0
M  V30 1286 N 121.204 0.198386 -1.56346 0
M  V30 1287 C 122.62 0.549085 -1.49857 0
M  V30 1288 C 122.82 1.86016 -0.774611 0
M  V30 1289 O 121.876 2.50416 -0.323776 0
M  V30 1290 C 123.189 0.606868 -2.94512 0
M  V30 1291 C 124.737 0.695925 -3.05165 0
M  V30 1292 C 125.212 0.784848 -4.51225 0
M  V30 1293 N 126.703 0.848463 -4.55363 0
M  V30 1294 C 127.438 0.937378 -5.65686 0
M  V30 1295 N 126.934 0.9888 -6.85707 0
M  V30 1296 N 128.727 0.974312 -5.53592 0
M  V30 1297 H 120.878 -0.661655 -2.01831 0
M  V30 1298 H 123.141 -0.235261 -0.918344 0
M  V30 1299 H 122.847 -0.28732 -3.50524 0
M  V30 1300 H 122.721 1.46268 -3.47686 0
M  V30 1301 H 125.108 1.58055 -2.49204 0
M  V30 1302 H 125.189 -0.186022 -2.55123 0
M  V30 1303 H 124.833 -0.0954072 -5.0781 0
M  V30 1304 H 124.763 1.68255 -4.98997 0
M  V30 1305 H 127.254 0.818103 -3.68938 0
M  V30 1306 H 127.567 1.05707 -7.65536 0
M  V30 1307 H 125.912 0.957534 -6.88372 0
M  V30 1308 H 129.103 0.930954 -4.58749 0
M  V30 1309 H 129.276 1.04015 -6.39597 0
M  V30 1310 N 122.682 1.50554 0.465978 0
M  V30 1311 C 123.63 1.70324 1.58406 0
M  V30 1312 C 124.624 0.569139 1.59553 0
M  V30 1313 O 125.83 0.749776 1.63641 0
M  V30 1314 H 122.205 0.537688 0.525734 0
M  V30 1315 H 124.176 2.64104 1.38894 0
M  V30 1316 C 122.925 1.81928 2.96307 0
M  V30 1317 H 122.248 2.68586 2.96144 0
M  V30 1318 H 123.688 1.99784 3.73982 0
M  V30 1319 C 122.147 0.572095 3.32007 0
M  V30 1320 O 122.677 -0.286416 4.00678 0
M  V30 1321 N 120.883 0.424606 2.87481 0
M  V30 1322 H 120.43 1.12427 2.31771 0
M  V30 1323 H 120.388 -0.408697 3.11732 0
M  V30 1324 N 124.16 -0.719506 1.40217 0
M  V30 1325 C 125.39 -1.50646 1.41384 0
M  V30 1326 C 125.798 -1.89197 0.0107743 0
M  V30 1327 O 125.141 -1.55709 -0.974708 0
M  V30 1328 C 125.203 -2.81405 2.23722 0
M  V30 1329 C 124.867 -2.65199 3.72181 0
M  V30 1330 C 125.864 -2.32717 4.64907 0
M  V30 1331 C 123.549 -2.81586 4.1595 0
M  V30 1332 C 125.543 -2.16827 5.99387 0
M  V30 1333 C 123.23 -2.65313 5.50502 0
M  V30 1334 C 124.228 -2.32981 6.42035 0
M  V30 1335 O 123.916 -2.16827 7.74107 0
M  V30 1336 H 123.648 -0.471606 0.484318 0
M  V30 1337 H 126.202 -0.895456 1.84853 0
M  V30 1338 H 124.432 -3.44823 1.75026 0
M  V30 1339 H 126.121 -3.43102 2.16878 0
M  V30 1340 H 126.887 -2.19694 4.32388 0
M  V30 1341 H 122.766 -3.0574 3.45027 0
M  V30 1342 H 126.31 -1.91513 6.70797 0
M  V30 1343 H 122.207 -2.7792 5.82607 0
M  V30 1344 H 122.975 -2.31778 7.84998 0
M  V30 1345 N 125.638 -1.25649 -0.95132 0
M  V30 1346 C 126.885 -1.10594 -1.69633 0
M  V30 1347 C 127.213 0.352515 -1.91279 0
M  V30 1348 O 126.468 1.27601 -1.4838 0
M  V30 1349 C 126.767 -1.80909 -3.08231 0
M  V30 1350 C 126.433 -3.30825 -3.06375 0
M  V30 1351 C 125.095 -3.71722 -3.05576 0
M  V30 1352 C 127.447 -4.26589 -2.99452 0
M  V30 1353 C 124.775 -5.06788 -2.95606 0
M  V30 1354 C 127.127 -5.61683 -2.91024 0
M  V30 1355 C 125.791 -6.01904 -2.88562 0
M  V30 1356 H 125.061 -0.404691 -0.620731 0
M  V30 1357 H 127.708 -1.55964 -1.11119 0
M  V30 1358 H 126.013 -1.27979 -3.70309 0
M  V30 1359 H 127.71 -1.6671 -3.64704 0
M  V30 1360 H 124.3 -2.98287 -3.07771 0
M  V30 1361 H 128.484 -3.95982 -2.99185 0
M  V30 1362 H 123.74 -5.37126 -2.92071 0
M  V30 1363 H 127.914 -6.35578 -2.84629 0
M  V30 1364 H 125.541 -7.06521 -2.80593 0
M  V30 1365 N 127.117 1.15442 -1.07289 0
M  V30 1366 C 128.08 2.18358 -0.696591 0
M  V30 1367 C 129.08 1.58637 0.262837 0
M  V30 1368 O 130.27 1.74145 0.0438809 0
M  V30 1369 C 127.402 3.4089 -0.0266151 0
M  V30 1370 H 128.595 2.53162 -1.60776 0
M  V30 1371 H 126.148 1.29893 -0.869342 0
M  V30 1372 H 126.883 3.11653 0.896822 0
M  V30 1373 H 126.668 3.85495 -0.716657 0
M  V30 1374 H 128.158 4.17009 0.222028 0
M  V30 1375 N 128.595 0.856903 1.32268 0
M  V30 1376 C 129.823 0.475439 2.01363 0
M  V30 1377 C 130.238 -0.928486 1.64392 0
M  V30 1378 O 129.595 -1.60624 0.866387 0
M  V30 1379 C 129.646 0.607545 3.56358 0
M  V30 1380 O 129.367 1.95617 3.92002 0
M  V30 1381 C 130.868 0.225382 4.42727 0
M  V30 1382 H 128.088 0.186636 0.644521 0
M  V30 1383 H 130.632 1.15446 1.68797 0
M  V30 1384 H 128.787 -0.0237719 3.87393 0
M  V30 1385 H 129.201 1.95455 4.86721 0
M  V30 1386 H 130.675 0.368813 5.50767 0
M  V30 1387 H 131.152 -0.834369 4.31202 0
M  V30 1388 H 131.758 0.831864 4.17085 0
M  V30 1389 N 130.073 -1.45103 0.615059 0
M  V30 1390 C 131.021 -2.32331 -0.111791 0
M  V30 1391 C 132.015 -1.46409 -0.852102 0
M  V30 1392 O 133.221 -1.62849 -0.766821 0
M  V30 1393 H 129.596 -0.749993 -0.0549072 0
M  V30 1394 H 131.567 -2.91407 0.642225 0
M  V30 1395 C 130.316 -3.3015 -1.09071 0
M  V30 1396 H 129.639 -3.96265 -0.530485 0
M  V30 1397 H 131.079 -3.93898 -1.56908 0
M  V30 1398 C 129.538 -2.57875 -2.168 0
M  V30 1399 O 130.068 -2.36567 -3.24652 0
M  V30 1400 N 128.274 -2.17884 -1.92289 0
M  V30 1401 H 127.821 -2.35413 -1.04587 0
M  V30 1402 H 127.779 -1.6985 -2.64572 0
M  V30 1403 N 131.551 -0.354651 -1.53558 0
M  V30 1404 C 132.484 0.540273 -2.21712 0
M  V30 1405 C 133.462 1.09161 -1.2051 0
M  V30 1406 O 134.646 1.14979 -1.49372 0
M  V30 1407 C 131.773 1.74435 -2.90328 0
M  V30 1408 C 130.819 1.32146 -4.05512 0
M  V30 1409 S 131.652 0.331924 -5.3447 0
M  V30 1410 C 132.808 1.54258 -6.06593 0
M  V30 1411 H 133.041 -0.0385776 -2.97275 0
M  V30 1412 H 130.574 -0.138736 -1.53775 0
M  V30 1413 H 132.532 2.43507 -3.30476 0
M  V30 1414 H 131.193 2.29444 -2.1451 0
M  V30 1415 H 130.386 2.21952 -4.52497 0
M  V30 1416 H 129.988 0.710091 -3.67197 0
M  V30 1417 H 132.28 2.47534 -6.30661 0
M  V30 1418 H 133.223 1.11431 -6.99277 0
M  V30 1419 H 133.631 1.74367 -5.36895 0
M  V30 1420 N 133.029 1.57378 -0.0835403 0
M  V30 1421 C 134.277 1.93547 0.581718 0
M  V30 1422 C 134.598 0.96524 1.69435 0
M  V30 1423 O 133.868 0.0153369 1.95894 0
M  V30 1424 H 132.448 0.714521 0.217874 0
M  V30 1425 H 135.11 1.94366 -0.144158 0
M  V30 1426 H 134.206 2.95665 0.999423 0
M  V30 1427 N 134.507 -0.190092 1.56449 0
M  V30 1428 C 135.735 -0.925772 1.85033 0
M  V30 1429 C 136.15 -1.76638 0.666658 0
M  V30 1430 O 135.507 -1.78822 -0.364565 0
M  V30 1431 C 135.558 -1.81786 3.12468 0
M  V30 1432 O 135.279 -1.01118 4.26271 0
M  V30 1433 C 136.78 -2.6648 3.54265 0
M  V30 1434 H 134 -0.269872 0.614337 0
M  V30 1435 H 136.544 -0.195837 2.0356 0
M  V30 1436 H 134.699 -2.50136 2.95822 0
M  V30 1437 H 135.113 -1.61956 4.98869 0
M  V30 1438 H 136.587 -3.24722 4.46385 0
M  V30 1439 H 137.064 -3.40434 2.77491 0
M  V30 1440 H 137.67 -2.03493 3.73458 0
M  V30 1441 N 135.985 -1.50799 -0.457987 0
M  V30 1442 C 137.21 -1.66496 -1.23668 0
M  V30 1443 C 137.635 -0.353288 -1.84752 0
M  V30 1444 O 136.993 0.684346 -1.67888 0
M  V30 1445 C 137.041 -2.76763 -2.3116 0
M  V30 1446 O 136.145 -2.38928 -3.36136 0
M  V30 1447 H 135.486 -0.555828 -0.363252 0
M  V30 1448 H 138.016 -1.9725 -0.543474 0
M  V30 1449 H 138.026 -3.00232 -2.76269 0
M  V30 1450 H 136.701 -3.71954 -1.86073 0
M  V30 1451 H 135.278 -2.25953 -2.96647 0
M  V30 1452 N 137.463 0.71206 -1.40597 0
M  V30 1453 C 138.74 1.46536 -1.29563 0
M  V30 1454 C 139.12 2.10931 0.0844217 0
M  V30 1455 O 138.468 2.00418 1.0975 0
M  V30 1456 C 138.678 2.49821 -2.43701 0
M  V30 1457 C 140.026 3.15551 -2.841 0
M  V30 1458 O 141.05 2.60142 -2.4332 0
M  V30 1459 O 139.909 4.15867 -3.54566 0
M  V30 1460 H 137.003 0.651801 -0.509004 0
M  V30 1461 H 139.549 0.743935 -1.52524 0
M  V30 1462 H 138.321 2.00778 -3.35863 0
M  V30 1463 H 137.944 3.29495 -2.22528 0
M  V30 1464 N 138.941 1.26152 0.944643 0
M  V30 1465 C 140.352 1.10454 1.50522 0
M  V30 1466 C 140.703 -0.31635 1.93633 0
M  V30 1467 O 139.828 -1.20746 1.79581 0
M  V30 1468 C 140.423 1.99891 2.73549 0
M  V30 1469 C 138.982 1.88348 3.25886 0
M  V30 1470 C 138.129 1.93447 1.9868 0
M  V30 1471 H 141.08 1.39292 0.760489 0
M  V30 1472 H 141.101 1.54477 3.47732 0
M  V30 1473 H 140.613 3.03297 2.42141 0
M  V30 1474 H 138.714 0.878636 3.62092 0
M  V30 1475 H 138.827 2.73696 3.93227 0
M  V30 1476 H 137.191 1.37456 2.14425 0
M  V30 1477 H 137.974 2.98476 1.69607 0
M  V30 1478 N 140.419 -1.14872 1.07899 0
M  V30 1479 C 141.83 -1.67367 0.827363 0
M  V30 1480 C 142.181 -1.85236 -0.646693 0
M  V30 1481 O 141.306 -1.55974 -1.50004 0
M  V30 1482 C 141.901 -3.04016 1.49532 0
M  V30 1483 C 140.46 -3.53566 1.29106 0
M  V30 1484 C 139.607 -2.29161 1.56143 0
M  V30 1485 H 142.558 -0.990083 1.24028 0
M  V30 1486 H 142.579 -3.69219 0.919643 0
M  V30 1487 H 142.091 -2.90978 2.56814 0
M  V30 1488 H 140.192 -3.71835 0.238713 0
M  V30 1489 H 140.305 -4.34661 2.01511 0
M  V30 1490 H 138.669 -2.34978 0.982717 0
M  V30 1491 H 139.452 -2.18705 2.64619 0
M  V30 1492 N 141.898 -0.863906 -1.31812 0
M  V30 1493 C 143.126 -0.486111 -2.01108 0
M  V30 1494 C 143.541 0.919755 -1.64882 0
M  V30 1495 O 142.898 1.60162 -0.874893 0
M  V30 1496 C 142.949 -0.626435 -3.56031 0
M  V30 1497 O 142.67 -1.97693 -3.90959 0
M  V30 1498 C 144.171 -0.248857 -4.42601 0
M  V30 1499 H 141.391 -0.190052 -0.643523 0
M  V30 1500 H 143.935 -1.1634 -1.68182 0
M  V30 1501 H 142.09 0.00322717 -3.874 0
M  V30 1502 H 142.504 -1.98034 -4.85678 0
M  V30 1503 H 143.978 -0.398016 -5.50563 0
M  V30 1504 H 144.455 0.811489 -4.31638 0
M  V30 1505 H 145.061 -0.853971 -4.16638 0
M  V30 1506 N 143.376 1.44774 -0.622745 0
M  V30 1507 C 144.326 2.2774 0.108889 0
M  V30 1508 C 145.31 1.38189 0.824175 0
M  V30 1509 O 146.502 1.62063 0.711664 0
M  V30 1510 C 143.631 3.25353 1.09546 0
M  V30 1511 C 142.717 4.22392 0.380232 0
M  V30 1512 N 143.108 5.02388 -0.586535 0
M  V30 1513 C 141.406 4.41588 0.625792 0
M  V30 1514 C 142.107 5.72894 -1.00834 0
M  V30 1515 N 141.083 5.42479 -0.348878 0
M  V30 1516 H 144.885 2.86993 -0.63341 0
M  V30 1517 H 142.399 1.5611 -0.447589 0
M  V30 1518 H 144.396 3.83538 1.63414 0
M  V30 1519 H 143.056 2.6766 1.83815 0
M  V30 1520 H 144.067 5.0885 -0.963975 0
M  V30 1521 H 140.744 3.95003 1.352 0
M  V30 1522 H 142.134 6.47158 -1.80656 0
M  V30 1523 N 144.854 0.36279 1.53368 0
M  V30 1524 C 146.082 -0.228613 2.05633 0
M  V30 1525 C 146.497 -1.42676 1.23649 0
M  V30 1526 O 145.854 -1.80394 0.27647 0
M  V30 1527 C 145.905 -0.624845 3.56059 0
M  V30 1528 O 145.626 0.525675 4.34935 0
M  V30 1529 C 147.127 -1.27493 4.24571 0
M  V30 1530 H 144.347 -0.0407183 0.669763 0
M  V30 1531 H 146.891 0.520352 1.97769 0
M  V30 1532 H 145.046 -1.32373 3.64083 0
M  V30 1533 H 145.46 0.205969 5.24095 0
M  V30 1534 H 146.934 -1.50277 5.31151 0
M  V30 1535 H 147.411 -2.23439 3.78116 0
M  V30 1536 H 148.017 -0.617558 4.20792 0
M  V30 1537 N 146.332 -1.57332 0.0918853 0
M  V30 1538 C 147.748 -1.57389 -0.264766 0
M  V30 1539 C 147.948 -1.10281 -1.68643 0
M  V30 1540 O 147.004 -0.777801 -2.40222 0
M  V30 1541 C 148.317 -3.00648 -0.0561195 0
M  V30 1542 C 149.865 -3.12754 -0.124116 0
M  V30 1543 C 150.34 -4.57965 0.0564972 0
M  V30 1544 N 151.831 -4.632 0.00155611 0
M  V30 1545 C 152.566 -5.73281 0.116598 0
M  V30 1546 N 152.062 -6.92208 0.286294 0
M  V30 1547 N 153.855 -5.6207 0.0580973 0
M  V30 1548 H 146.006 -1.86262 1.02079 0
M  V30 1549 H 148.269 -0.859579 0.399786 0
M  V30 1550 H 147.975 -3.393 0.925669 0
M  V30 1551 H 147.849 -3.68623 -0.799823 0
M  V30 1552 H 150.236 -2.73976 -1.09641 0
M  V30 1553 H 150.317 -2.47377 0.651024 0
M  V30 1554 H 149.961 -4.97436 1.02564 0
M  V30 1555 H 149.891 -5.21399 -0.738297 0
M  V30 1556 H 152.382 -3.77686 -0.127192 0
M  V30 1557 H 152.695 -7.71934 0.365676 0
M  V30 1558 H 151.04 -6.94254 0.32192 0
M  V30 1559 H 154.231 -4.68043 -0.0733204 0
M  V30 1560 H 154.404 -6.47824 0.151203 0
M  V30 1561 N 147.81 0.181792 -1.56548 0
M  V30 1562 C 148.74 1.22765 -1.98623 0
M  V30 1563 C 149.721 1.46747 -0.860189 0
M  V30 1564 O 150.906 1.58259 -1.12551 0
M  V30 1565 C 148.036 2.56894 -2.33715 0
M  V30 1566 C 146.99 2.475 -3.49182 0
M  V30 1567 C 146.316 3.86023 -3.69986 0
M  V30 1568 C 147.616 1.98866 -4.82959 0
M  V30 1569 H 149.31 0.877942 -2.86239 0
M  V30 1570 H 146.856 0.42088 -1.37712 0
M  V30 1571 H 148.809 3.30253 -2.61746 0
M  V30 1572 H 147.533 2.93632 -1.42997 0
M  V30 1573 H 146.192 1.76596 -3.21262 0
M  V30 1574 H 145.84 4.20136 -2.76576 0
M  V30 1575 H 145.54 3.80609 -4.47672 0
M  V30 1576 H 147.064 4.60984 -4.00407 0
M  V30 1577 H 148.478 2.61992 -5.09934 0
M  V30 1578 H 146.875 2.04424 -5.64208 0
M  V30 1579 H 147.945 0.942465 -4.75653 0
M  V30 1580 N 149.288 1.51039 0.449983 0
M  V30 1581 C 150.704 1.38934 0.785462 0
M  V30 1582 C 150.904 0.461817 1.96136 0
M  V30 1583 O 149.96 -0.0877389 2.52348 0
M  V30 1584 C 151.273 2.80724 1.0777 0
M  V30 1585 C 152.821 2.89787 1.1829 0
M  V30 1586 C 153.296 4.32457 1.50815 0
M  V30 1587 N 154.787 4.35505 1.57764 0
M  V30 1588 C 155.522 5.42914 1.84477 0
M  V30 1589 N 155.018 6.60502 2.09068 0
M  V30 1590 N 156.811 5.3038 1.86155 0
M  V30 1591 H 148.962 2.09904 -0.324647 0
M  V30 1592 H 151.225 0.944378 -0.0827957 0
M  V30 1593 H 150.931 3.50531 0.286498 0
M  V30 1594 H 150.805 3.19273 2.00859 0
M  V30 1595 H 153.192 2.20186 1.96474 0
M  V30 1596 H 153.273 2.54752 0.231314 0
M  V30 1597 H 152.917 5.02603 0.731622 0
M  V30 1598 H 152.847 4.64995 2.47158 0
M  V30 1599 H 155.338 3.50724 1.40715 0
M  V30 1600 H 155.651 7.38158 2.28785 0
M  V30 1601 H 153.996 6.63639 2.06416 0
M  V30 1602 H 157.187 4.37505 1.66454 0
M  V30 1603 H 157.36 6.1417 2.06637 0
M  V30 1604 N 150.766 -0.704594 1.40972 0
M  V30 1605 C 151.713 -1.81862 1.42109 0
M  V30 1606 C 152.683 -1.63781 0.276593 0
M  V30 1607 O 153.868 -1.84759 0.4763 0
M  V30 1608 C 151.008 -3.19669 1.30022 0
M  V30 1609 C 150.121 -3.49246 2.54267 0
M  V30 1610 C 149.256 -4.76618 2.3454 0
M  V30 1611 C 148.295 -4.99133 3.54306 0
M  V30 1612 N 147.432 -6.17726 3.33706 0
M  V30 1613 H 152.272 -1.80226 2.37324 0
M  V30 1614 H 149.809 -0.880238 1.17857 0
M  V30 1615 H 151.767 -3.99263 1.21018 0
M  V30 1616 H 150.397 -3.20506 0.384192 0
M  V30 1617 H 149.449 -2.64125 2.73756 0
M  V30 1618 H 150.761 -3.61788 3.43381 0
M  V30 1619 H 149.915 -5.64249 2.22952 0
M  V30 1620 H 148.654 -4.66305 1.42867 0
M  V30 1621 H 147.659 -4.09953 3.66359 0
M  V30 1622 H 148.884 -5.11311 4.4692 0
M  V30 1623 H 146.83 -6.08642 2.44725 0
M  V30 1624 H 146.747 -6.30995 4.16391 0
M  V30 1625 H 148.015 -7.08115 3.25873 0
M  V30 1626 N 152.244 -1.26651 -0.937939 0
M  V30 1627 C 153.174 -1.10993 -2.05433 0
M  V30 1628 C 154.155 -0.0142161 -1.70094 0
M  V30 1629 O 155.34 -0.186837 -1.93299 0
M  V30 1630 C 152.47 -0.745561 -3.39203 0
M  V30 1631 C 151.424 -1.79337 -3.88616 0
M  V30 1632 C 150.75 -1.28324 -5.19073 0
M  V30 1633 C 152.05 -3.19553 -4.13138 0
M  V30 1634 H 153.744 -2.0438 -2.1879 0
M  V30 1635 H 151.29 -0.984041 -1.05131 0
M  V30 1636 H 153.243 -0.622888 -4.16771 0
M  V30 1637 H 151.967 0.22401 -3.25831 0
M  V30 1638 H 150.626 -1.90477 -3.13231 0
M  V30 1639 H 150.274 -0.303414 -5.02084 0
M  V30 1640 H 149.974 -1.98369 -5.53103 0
M  V30 1641 H 151.498 -1.1733 -5.99221 0
M  V30 1642 H 152.912 -3.11471 -4.81309 0
M  V30 1643 H 151.309 -3.87218 -4.58457 0
M  V30 1644 H 152.379 -3.65368 -3.18801 0
M  V30 1645 N 153.722 1.14298 -1.08507 0
M  V30 1646 C 154.968 1.85633 -0.816581 0
M  V30 1647 C 155.301 1.82784 0.656021 0
M  V30 1648 O 154.576 1.25926 1.48233 0
M  V30 1649 C 154.859 3.34223 -1.34041 0
M  V30 1650 C 154.712 3.45639 -2.87843 0
M  V30 1651 C 156.031 4.29356 -0.9665 0
M  V30 1652 H 153.15 0.67402 -0.298104 0
M  V30 1653 H 155.792 1.34214 -1.34487 0
M  V30 1654 H 153.942 3.78144 -0.89104 0
M  V30 1655 H 155.614 3.10498 -3.41158 0
M  V30 1656 H 153.857 2.86817 -3.25451 0
M  V30 1657 H 154.528 4.50089 -3.19569 0
M  V30 1658 H 157.004 3.93457 -1.35391 0
M  V30 1659 H 155.88 5.3178 -1.3602 0
M  V30 1660 H 156.141 4.41919 0.126362 0
M  V30 1661 N 155.201 0.870884 1.31352 0
M  V30 1662 C 156.426 0.495957 2.01383 0
M  V30 1663 C 156.851 -0.904324 1.64935 0
M  V30 1664 O 156.209 -1.59687 0.858466 0
M  V30 1665 C 156.257 0.661433 3.54482 0
M  V30 1666 O 155.361 -0.298851 4.11316 0
M  V30 1667 H 154.702 0.197158 0.634054 0
M  V30 1668 H 157.232 1.17455 1.67527 0
M  V30 1669 H 157.242 0.555072 4.04207 0
M  V30 1670 H 155.917 1.68246 3.8035 0
M  V30 1671 H 154.494 -0.147368 3.72609 0
M  V30 1672 N 156.679 -1.44442 0.630414 0
M  V30 1673 C 157.611 -2.2892 -0.113347 0
M  V30 1674 C 158.624 -1.41243 -0.80959 0
M  V30 1675 O 159.813 -1.65402 -0.671156 0
M  V30 1676 C 156.913 -3.17594 -1.18266 0
M  V30 1677 C 156.086 -4.33682 -0.569073 0
M  V30 1678 C 155.145 -5.03397 -1.53226 0
M  V30 1679 O 154.171 -5.59438 -1.04967 0
M  V30 1680 N 155.373 -5.04783 -2.86661 0
M  V30 1681 H 158.138 -2.93392 0.611636 0
M  V30 1682 H 155.699 -1.54881 0.471523 0
M  V30 1683 H 157.691 -3.61097 -1.82732 0
M  V30 1684 H 156.261 -2.54876 -1.80988 0
M  V30 1685 H 155.481 -3.9338 0.254187 0
M  V30 1686 H 156.769 -5.08608 -0.139767 0
M  V30 1687 H 156.167 -4.60584 -3.28449 0
M  V30 1688 H 154.724 -5.52077 -3.46489 0
M  V30 1689 N 158.157 -0.370918 -1.53173 0
M  V30 1690 C 159.067 0.480823 -2.2962 0
M  V30 1691 C 160.083 1.08789 -1.35798 0
M  V30 1692 O 161.259 1.09768 -1.68858 0
M  V30 1693 C 158.324 1.60227 -3.07454 0
M  V30 1694 C 157.385 1.0222 -4.16953 0
M  V30 1695 C 156.618 2.0902 -4.91066 0
M  V30 1696 O 156.841 3.30222 -4.65091 0
M  V30 1697 O 155.775 1.71778 -5.76867 0
M  V30 1698 H 159.601 -0.141421 -3.03371 0
M  V30 1699 H 157.186 -0.135146 -1.48787 0
M  V30 1700 H 159.068 2.25417 -3.56041 0
M  V30 1701 H 157.743 2.20982 -2.36535 0
M  V30 1702 H 156.65 0.334064 -3.72605 0
M  V30 1703 H 157.983 0.459131 -4.90054 0
M  V30 1704 N 159.635 1.57281 -0.100228 0
M  V30 1705 C 160.882 1.94537 0.562268 0
M  V30 1706 C 161.21 0.982315 1.67871 0
M  V30 1707 O 160.465 0.00280936 1.957 0
M  V30 1708 C 160.764 3.38305 1.15259 0
M  V30 1709 C 160.43 4.50618 0.159409 0
M  V30 1710 C 159.092 4.81066 -0.113741 0
M  V30 1711 C 161.444 5.18615 -0.518461 0
M  V30 1712 C 158.772 5.76835 -1.07137 0
M  V30 1713 C 161.124 6.15412 -1.46459 0
M  V30 1714 C 159.788 6.44262 -1.74592 0
M  V30 1715 H 159.058 0.711863 0.205748 0
M  V30 1716 H 161.705 1.90679 -0.17715 0
M  V30 1717 H 160.01 3.38766 1.96836 0
M  V30 1718 H 161.707 3.64435 1.67297 0
M  V30 1719 H 158.297 4.2689 0.382491 0
M  V30 1720 H 162.481 4.95264 -0.320581 0
M  V30 1721 H 157.737 5.975 -1.29628 0
M  V30 1722 H 161.911 6.67194 -1.99564 0
M  V30 1723 H 159.538 7.1828 -2.48953 0
M  V30 1724 N 161.113 -0.173488 1.56642 0
M  V30 1725 C 162.341 -0.906095 1.86004 0
M  V30 1726 C 162.756 -1.75921 0.685355 0
M  V30 1727 O 162.113 -1.79198 -0.345578 0
M  V30 1728 C 162.164 -1.78462 3.14378 0
M  V30 1729 O 161.885 -0.965914 4.27319 0
M  V30 1730 C 163.386 -2.62707 3.57071 0
M  V30 1731 H 160.606 -0.263341 0.617165 0
M  V30 1732 H 163.15 -0.174236 2.03756 0
M  V30 1733 H 161.305 -2.46984 2.98459 0
M  V30 1734 H 161.719 -1.56655 5.00559 0
M  V30 1735 H 163.193 -3.19969 4.49804 0
M  V30 1736 H 163.67 -3.37472 2.81086 0
M  V30 1737 H 164.276 -1.99521 3.75595 0
M  V30 1738 N 162.591 -1.51276 -0.441967 0
M  V30 1739 C 163.837 -1.63958 -1.19355 0
M  V30 1740 C 164.17 -0.352543 -1.90973 0
M  V30 1741 O 163.445 0.647627 -1.83401 0
M  V30 1742 C 163.728 -2.83979 -2.21422 0
M  V30 1743 C 163.581 -4.22646 -1.53918 0
M  V30 1744 C 164.9 -2.99521 -3.22451 0
M  V30 1745 H 162.019 -0.596709 -0.432559 0
M  V30 1746 H 164.661 -1.83748 -0.483398 0
M  V30 1747 H 162.811 -2.67237 -2.81987 0
M  V30 1748 H 164.483 -4.51045 -0.967256 0
M  V30 1749 H 162.726 -4.25558 -0.841615 0
M  V30 1750 H 163.397 -5.02609 -2.28229 0
M  V30 1751 H 165.873 -3.14944 -2.71937 0
M  V30 1752 H 164.749 -3.85072 -3.91166 0
M  V30 1753 H 165.01 -2.11391 -3.88287 0
M  V30 1754 N 164.069 0.697108 -1.41344 0
M  V30 1755 C 165.485 1.00751 -1.2378 0
M  V30 1756 C 165.685 2.01105 -0.126066 0
M  V30 1757 O 164.741 2.47295 0.51004 0
M  V30 1758 C 166.054 1.53359 -2.58653 0
M  V30 1759 C 167.602 1.6525 -2.65822 0
M  V30 1760 C 168.077 2.2126 -4.01009 0
M  V30 1761 N 169.568 2.28622 -4.02847 0
M  V30 1762 C 170.303 2.72984 -5.04249 0
M  V30 1763 N 169.799 3.16962 -6.16041 0
M  V30 1764 N 171.592 2.72534 -4.91611 0
M  V30 1765 H 163.743 0.0322662 -2.12375 0
M  V30 1766 H 166.006 0.0768853 -0.944877 0
M  V30 1767 H 165.712 0.870773 -3.4075 0
M  V30 1768 H 165.586 2.51597 -2.81032 0
M  V30 1769 H 167.973 2.30644 -1.84086 0
M  V30 1770 H 168.054 0.655614 -2.47256 0
M  V30 1771 H 167.698 1.56482 -4.83193 0
M  V30 1772 H 167.628 3.21698 -4.16915 0
M  V30 1773 H 170.119 1.97585 -3.22131 0
M  V30 1774 H 170.432 3.49434 -6.89287 0
M  V30 1775 H 168.777 3.14875 -6.1958 0
M  V30 1776 H 171.968 2.37525 -4.0336 0
M  V30 1777 H 172.141 3.06789 -5.70775 0
M  V30 1778 N 165.547 1.27147 0.931209 0
M  V30 1779 C 166.963 1.04475 1.20653 0
M  V30 1780 C 167.163 -0.223885 2.00252 0
M  V30 1781 O 166.219 -0.930332 2.34736 0
M  V30 1782 C 167.532 2.28209 1.95809 0
M  V30 1783 C 169.08 2.33211 2.08762 0
M  V30 1784 C 169.555 3.56665 2.87323 0
M  V30 1785 N 171.046 3.57201 2.94892 0
M  V30 1786 C 171.781 4.49395 3.56134 0
M  V30 1787 N 171.277 5.51889 4.18796 0
M  V30 1788 N 173.07 4.37026 3.53504 0
M  V30 1789 H 165.221 2.08612 0.399333 0
M  V30 1790 H 167.484 0.917312 0.239253 0
M  V30 1791 H 167.19 3.20538 1.44736 0
M  V30 1792 H 167.064 2.33247 2.96438 0
M  V30 1793 H 169.451 1.41391 2.59023 0
M  V30 1794 H 169.532 2.32178 1.07364 0
M  V30 1795 H 169.176 4.4882 2.37746 0
M  V30 1796 H 169.106 3.54948 3.88998 0
M  V30 1797 H 171.597 2.83074 2.50354 0
M  V30 1798 H 171.91 6.18409 4.63454 0
M  V30 1799 H 170.255 5.55735 4.17353 0
M  V30 1800 H 173.446 3.56166 3.03749 0
M  V30 1801 H 173.619 5.09067 4.00942 0
M  V30 1802 N 167.025 -1.13721 1.09112 0
M  V30 1803 C 168.271 -1.85198 0.826414 0
M  V30 1804 C 168.604 -1.83129 -0.646319 0
M  V30 1805 O 167.879 -1.2671 -1.47563 0
M  V30 1806 C 168.162 -3.33507 1.35812 0
M  V30 1807 C 168.015 -3.44108 2.89672 0
M  V30 1808 C 169.334 -4.28838 0.989256 0
M  V30 1809 H 166.453 -0.67243 0.301675 0
M  V30 1810 H 169.095 -1.33499 1.35197 0
M  V30 1811 H 167.245 -3.77666 0.911082 0
M  V30 1812 H 168.917 -3.08684 3.428 0
M  V30 1813 H 167.16 -2.85087 3.26967 0
M  V30 1814 H 167.831 -4.48388 3.21951 0
M  V30 1815 H 170.307 -3.92734 1.37475 0
M  V30 1816 H 169.183 -5.31051 1.38838 0
M  V30 1817 H 169.444 -4.4198 -0.102924 0
M  V30 1818 N 168.503 -0.877838 -1.30888 0
M  V30 1819 C 169.413 -0.343096 -2.32078 0
M  V30 1820 C 170.429 0.551022 -1.65045 0
M  V30 1821 O 171.605 0.445854 -1.96403 0
M  V30 1822 C 168.67 0.439905 -3.43898 0
M  V30 1823 C 167.731 -0.483111 -4.26573 0
M  V30 1824 C 166.964 0.262616 -5.33053 0
M  V30 1825 O 167.187 1.48967 -5.50604 0
M  V30 1826 O 166.121 -0.383593 -6.00676 0
M  V30 1827 H 169.947 -1.18203 -2.79753 0
M  V30 1828 H 167.532 -0.64145 -1.34929 0
M  V30 1829 H 169.414 0.883504 -4.12034 0
M  V30 1830 H 168.089 1.25526 -2.98371 0
M  V30 1831 H 166.996 -0.975374 -3.61161 0
M  V30 1832 H 168.329 -1.26427 -4.75686 0
M  V30 1833 N 169.982 1.44106 -0.638065 0
M  V30 1834 C 170.945 2.29138 0.0531013 0
M  V30 1835 C 171.945 1.41409 0.765506 0
M  V30 1836 O 173.135 1.63206 0.609046 0
M  V30 1837 C 170.267 3.23144 1.08584 0
M  V30 1838 H 171.46 2.91739 -0.694883 0
M  V30 1839 H 169.013 1.51134 -0.398538 0
M  V30 1840 H 169.748 2.65408 1.86357 0
M  V30 1841 H 169.533 3.87804 0.578852 0
M  V30 1842 H 171.023 3.87004 1.56899 0
M  V30 1843 N 171.46 0.379036 1.52974 0
M  V30 1844 C 172.393 -0.504932 2.22544 0
M  V30 1845 C 173.371 -1.0723 1.22231 0
M  V30 1846 O 174.555 -1.12589 1.51182 0
M  V30 1847 C 171.682 -1.69794 2.93066 0
M  V30 1848 C 170.728 -1.25678 4.07563 0
M  V30 1849 S 171.561 -0.246852 5.34931 0
M  V30 1850 C 172.717 -1.44588 6.08971 0
M  V30 1851 H 172.95 0.0858666 2.97176 0
M  V30 1852 H 170.483 0.163183 1.53535 0
M  V30 1853 H 172.441 -2.38219 3.34308 0
M  V30 1854 H 171.102 -2.26002 2.18133 0
M  V30 1855 H 170.295 -2.14725 4.5597 0
M  V30 1856 H 169.897 -0.651584 3.6828 0
M  V30 1857 H 172.189 -2.37469 6.34519 0
M  V30 1858 H 173.132 -1.00292 7.00962 0
M  V30 1859 H 173.54 -1.65804 5.39601 0
M  V30 1860 N 172.938 -1.57226 0.108567 0
M  V30 1861 C 174.354 -1.5766 -0.248058 0
M  V30 1862 C 174.554 -1.12063 -1.67464 0
M  V30 1863 O 173.61 -0.803236 -2.39383 0
M  V30 1864 C 174.923 -3.0069 -0.0242287 0
M  V30 1865 C 176.471 -3.12868 -0.0909372 0
M  V30 1866 C 176.946 -4.57879 0.105067 0
M  V30 1867 N 178.437 -4.63172 0.0506846 0
M  V30 1868 C 179.172 -5.73126 0.177396 0
M  V30 1869 N 178.668 -6.91866 0.359696 0
M  V30 1870 N 180.461 -5.61977 0.117709 0
M  V30 1871 H 172.612 -1.85169 1.04049 0
M  V30 1872 H 174.875 -0.85529 0.40888 0
M  V30 1873 H 174.581 -3.38299 0.961604 0
M  V30 1874 H 174.455 -3.6945 -0.76068 0
M  V30 1875 H 176.842 -2.75124 -1.06729 0
M  V30 1876 H 176.923 -2.46672 0.677225 0
M  V30 1877 H 176.567 -4.96321 1.07834 0
M  V30 1878 H 176.497 -5.22153 -0.682954 0
M  V30 1879 H 178.988 -3.778 -0.0871266 0
M  V30 1880 H 179.301 -7.71503 0.447529 0
M  V30 1881 H 177.646 -6.93874 0.395536 0
M  V30 1882 H 180.837 -4.68094 -0.0236741 0
M  V30 1883 H 181.01 -6.47627 0.219905 0
M  V30 1884 N 174.416 0.165178 -1.56732 0
M  V30 1885 C 175.827 0.727046 -1.71962 0
M  V30 1886 C 176.178 1.82508 -0.720078 0
M  V30 1887 O 175.303 2.16082 0.117242 0
M  V30 1888 C 175.898 1.32559 -3.11791 0
M  V30 1889 C 174.457 1.83422 -3.28684 0
M  V30 1890 C 173.604 0.715567 -2.67908 0
M  V30 1891 H 176.555 -0.0602896 -1.58585 0
M  V30 1892 H 176.576 2.19533 -3.10782 0
M  V30 1893 H 176.088 0.526195 -3.84516 0
M  V30 1894 H 174.189 2.65986 -2.60926 0
M  V30 1895 H 174.302 1.97543 -4.36478 0
M  V30 1896 H 172.666 1.13758 -2.27884 0
M  V30 1897 H 173.449 -0.0720836 -3.43224 0
M  V30 1898 N 175.894 1.51508 0.433938 0
M  V30 1899 C 177.31 1.39759 0.770682 0
M  V30 1900 C 177.51 0.482594 1.95636 0
M  V30 1901 O 176.566 -0.0609691 2.52426 0
M  V30 1902 C 177.879 2.81851 1.04787 0
M  V30 1903 C 179.427 2.91025 1.1521 0
M  V30 1904 C 179.902 4.34032 1.46219 0
M  V30 1905 N 181.393 4.37154 1.53136 0
M  V30 1906 C 182.128 5.4484 1.78709 0
M  V30 1907 N 181.624 6.62682 2.02051 0
M  V30 1908 N 183.417 5.32324 1.80519 0
M  V30 1909 H 175.568 2.09548 -0.346892 0
M  V30 1910 H 177.831 0.943446 -0.0928074 0
M  V30 1911 H 177.537 3.50815 0.249304 0
M  V30 1912 H 177.411 3.21386 1.97461 0
M  V30 1913 H 179.798 2.22257 1.94128 0
M  V30 1914 H 179.879 2.54983 0.204281 0
M  V30 1915 H 179.523 5.03351 0.678274 0
M  V30 1916 H 179.453 4.6759 2.42212 0
M  V30 1917 H 181.944 3.52197 1.36987 0
M  V30 1918 H 182.257 7.40543 2.20943 0
M  V30 1919 H 180.602 6.65791 1.99366 0
M  V30 1920 H 183.793 4.39246 1.61805 0
M  V30 1921 H 183.966 6.16328 2.00111 0
M  V30 1922 N 177.372 -0.689602 1.41712 0
M  V30 1923 C 178.618 -1.45181 1.41599 0
M  V30 1924 C 178.951 -1.94181 0.0270081 0
M  V30 1925 O 178.226 -1.6993 -0.946265 0
M  V30 1926 C 178.509 -2.65945 2.42787 0
M  V30 1927 C 178.362 -2.22672 3.90816 0
M  V30 1928 C 179.681 -3.68149 2.41151 0
M  V30 1929 H 176.8 -0.526576 0.515642 0
M  V30 1930 H 179.442 -0.784947 1.73028 0
M  V30 1931 H 177.592 -3.2284 2.16116 0
M  V30 1932 H 179.264 -1.71058 4.28412 0
M  V30 1933 H 177.507 -1.54394 4.05395 0
M  V30 1934 H 178.178 -3.0935 4.57172 0
M  V30 1935 H 180.654 -3.2094 2.64834 0
M  V30 1936 H 179.53 -4.50248 3.13955 0
M  V30 1937 H 179.791 -4.18259 1.43221 0
M  V30 1938 N 178.85 -1.27639 -0.924453 0
M  V30 1939 C 179.76 -1.12466 -2.05885 0
M  V30 1940 C 180.776 -0.053869 -1.73917 0
M  V30 1941 O 181.952 -0.261012 -1.99702 0
M  V30 1942 C 179.017 -0.776768 -3.37886 0
M  V30 1943 C 178.078 -1.92878 -3.83532 0
M  V30 1944 C 177.311 -1.59739 -5.09234 0
M  V30 1945 O 177.534 -0.506782 -5.68144 0
M  V30 1946 O 176.468 -2.43761 -5.50331 0
M  V30 1947 H 180.294 -2.07671 -2.21599 0
M  V30 1948 H 177.879 -1.06857 -1.04413 0
M  V30 1949 H 179.761 -0.596229 -4.17161 0
M  V30 1950 H 178.436 0.145732 -3.23372 0
M  V30 1951 H 177.343 -2.1644 -3.0513 0
M  V30 1952 H 178.676 -2.8316 -4.02593 0
M  V30 1953 N 180.328 1.1314 -1.09713 0
M  V30 1954 C 181.26 2.18343 -0.697056 0
M  V30 1955 C 182.273 1.60669 0.262551 0
M  V30 1956 O 183.462 1.78435 0.0481527 0
M  V30 1957 C 180.562 3.38899 -0.00684728 0
M  V30 1958 C 179.735 4.26078 -0.988741 0
M  V30 1959 C 178.794 5.25155 -0.331394 0
M  V30 1960 O 177.82 5.60701 -0.979926 0
M  V30 1961 N 179.022 5.73271 0.913261 0
M  V30 1962 H 181.787 2.5328 -1.60216 0
M  V30 1963 H 179.348 1.28491 -0.984971 0
M  V30 1964 H 181.34 4.02255 0.444191 0
M  V30 1965 H 179.91 3.02175 0.800551 0
M  V30 1966 H 179.13 3.59453 -1.61826 0
M  V30 1967 H 180.418 4.81178 -1.65364 0
M  V30 1968 H 179.816 5.46544 1.45966 0
M  V30 1969 H 178.373 6.3855 1.30757 0
M  V30 1970 N 181.806 0.884767 1.30421 0
M  V30 1971 C 183.055 0.499164 1.95426 0
M  V30 1972 C 183.368 -0.95645 1.70621 0
M  V30 1973 O 184.574 -1.44889 2.29607 0
M  V30 1974 C 183.03 0.84177 3.49917 0
M  V30 1975 C 182.638 2.31514 3.83543 0
M  V30 1976 C 184.382 0.525355 4.21237 0
M  V30 1977 C 182.289 2.59939 5.31212 0
M  V30 1978 H 181.219 0.182944 0.73147 0
M  V30 1979 H 183.87 1.07971 1.48373 0
M  V30 1980 H 182.252 0.190311 3.95542 0
M  V30 1981 H 183.426 3.0109 3.48829 0
M  V30 1982 H 181.741 2.59907 3.25326 0
M  V30 1983 H 184.338 0.714762 5.29901 0
M  V30 1984 H 184.681 -0.535222 4.12845 0
M  V30 1985 H 185.214 1.134 3.81294 0
M  V30 1986 H 181.953 3.64736 5.44654 0
M  V30 1987 H 181.473 1.94972 5.67227 0
M  V30 1988 H 183.152 2.45429 5.98643 0
M  V30 1989 N 183.284 -1.43765 0.645699 0
M  V30 1990 C 184.512 -2.06253 0.163556 0
M  V30 1991 C 184.927 -1.48352 -1.16778 0
M  V30 1992 O 184.284 -0.611932 -1.71935 0
M  V30 1993 C 184.335 -3.61453 0.0583186 0
M  V30 1994 O 184.056 -4.172 1.33702 0
M  V30 1995 C 185.557 -4.41002 -0.450795 0
M  V30 1996 H 182.777 -0.665413 0.0864077 0
M  V30 1997 H 185.321 -1.84396 0.884222 0
M  V30 1998 H 183.476 -3.82522 -0.612865 0
M  V30 1999 H 183.89 -5.10791 1.19131 0
M  V30 2000 H 185.364 -5.49966 -0.473403 0
M  V30 2001 H 185.841 -4.13488 -1.48068 0
M  V30 2002 H 186.447 -4.24886 0.187637 0
M  V30 2003 N 184.763 -0.387143 -1.52771 0
M  V30 2004 C 185.726 0.436939 -2.24997 0
M  V30 2005 C 186.726 0.991991 -1.26555 0
M  V30 2006 O 187.916 0.874335 -1.50669 0
M  V30 2007 C 185.048 1.61281 -3.00335 0
M  V30 2008 H 186.241 -0.195365 -2.99263 0
M  V30 2009 H 183.794 -0.139218 -1.55679 0
M  V30 2010 H 184.529 2.2826 -2.30364 0
M  V30 2011 H 184.314 1.22154 -3.72587 0
M  V30 2012 H 185.804 2.19629 -3.5518 0
M  V30 2013 N 186.241 1.57166 -0.116904 0
M  V30 2014 C 187.151 2.18745 0.847812 0
M  V30 2015 C 188.167 1.163 1.29423 0
M  V30 2016 O 189.343 1.48761 1.35765 0
M  V30 2017 C 186.408 2.77307 2.0809 0
M  V30 2018 C 185.469 3.94781 1.68661 0
M  V30 2019 C 184.702 4.50541 2.86091 0
M  V30 2020 O 184.925 4.05202 4.01456 0
M  V30 2021 O 183.859 5.41256 2.63298 0
M  V30 2022 H 187.685 3.01632 0.353778 0
M  V30 2023 H 185.27 1.49005 0.108599 0
M  V30 2024 H 187.152 3.14647 2.80313 0
M  V30 2025 H 185.827 1.97452 2.56504 0
M  V30 2026 H 184.734 3.62214 0.935518 0
M  V30 2027 H 186.067 4.76065 1.24991 0
M  V30 2028 N 187.719 -0.156864 1.56817 0
M  V30 2029 C 188.649 -1.19589 2.00551 0
M  V30 2030 C 189.63 -1.4536 0.883426 0
M  V30 2031 O 190.815 -1.56449 1.15054 0
M  V30 2032 C 187.945 -2.53143 2.37773 0
M  V30 2033 C 186.899 -2.41913 3.53075 0
M  V30 2034 C 186.225 -3.80088 3.76081 0
M  V30 2035 C 187.525 -1.91157 4.86062 0
M  V30 2036 H 189.219 -0.832293 2.87599 0
M  V30 2037 H 186.765 -0.398918 1.38364 0
M  V30 2038 H 188.718 -3.26047 2.66967 0
M  V30 2039 H 187.442 -2.91319 1.4765 0
M  V30 2040 H 186.101 -1.71462 3.24031 0
M  V30 2041 H 185.749 -4.15683 2.83225 0
M  V30 2042 H 185.449 -3.73439 4.53671 0
M  V30 2043 H 186.973 -4.54556 4.0769 0
M  V30 2044 H 188.387 -2.53846 5.14038 0
M  V30 2045 H 186.784 -1.95422 5.67389 0
M  V30 2046 H 187.854 -0.866673 4.77092 0
M  V30 2047 N 189.197 -1.51736 -0.425897 0
M  V30 2048 C 190.127 -1.76827 -1.52494 0
M  V30 2049 C 191.108 -0.618524 -1.58456 0
M  V30 2050 O 192.293 -0.862416 -1.74 0
M  V30 2051 C 189.423 -1.90374 -2.90474 0
M  V30 2052 C 188.377 -3.0588 -2.99369 0
M  V30 2053 C 187.703 -3.04625 -4.3944 0
M  V30 2054 C 189.003 -4.45644 -2.72394 0
M  V30 2055 H 190.697 -2.68855 -1.31748 0
M  V30 2056 H 188.243 -1.29372 -0.632362 0
M  V30 2057 H 190.196 -2.0651 -3.6733 0
M  V30 2058 H 188.92 -0.95004 -3.12477 0
M  V30 2059 H 187.579 -2.89467 -2.24954 0
M  V30 2060 H 187.227 -2.0701 -4.58428 0
M  V30 2061 H 186.927 -3.82195 -4.46319 0
M  V30 2062 H 188.451 -3.22869 -5.18255 0
M  V30 2063 H 189.865 -4.62348 -3.38979 0
M  V30 2064 H 188.262 -5.25006 -2.9067 0
M  V30 2065 H 189.332 -4.54893 -1.67929 0
M  V30 2066 N 190.675 0.682077 -1.42076 0
M  V30 2067 C 191.952 1.43755 -1.32642 0
M  V30 2068 C 192.332 2.11063 0.0396611 0
M  V30 2069 O 191.68 2.02701 1.05474 0
M  V30 2070 C 191.89 2.44596 -2.48946 0
M  V30 2071 C 193.238 3.09454 -2.9073 0
M  V30 2072 O 194.262 2.54922 -2.48783 0
M  V30 2073 O 193.121 4.08253 -3.63307 0
M  V30 2074 H 190.215 0.640857 -0.522715 0
M  V30 2075 H 192.761 0.711415 -1.54068 0
M  V30 2076 H 191.533 1.93609 -3.40046 0
M  V30 2077 H 191.156 3.24701 -2.29467 0
M  V30 2078 N 192.153 1.28127 0.917671 0
M  V30 2079 C 193.063 1.13556 2.05286 0
M  V30 2080 C 194.079 0.0630914 1.73886 0
M  V30 2081 O 195.255 0.271598 1.9956 0
M  V30 2082 C 192.32 0.794676 3.3747 0
M  V30 2083 C 191.381 1.94909 3.82504 0
M  V30 2084 C 190.614 1.62437 5.0838 0
M  V30 2085 O 190.837 0.536905 5.67867 0
M  V30 2086 O 189.771 2.46677 5.4903 0
M  V30 2087 H 193.597 2.08844 2.20495 0
M  V30 2088 H 191.182 1.07409 1.03845 0
M  V30 2089 H 193.064 0.618344 4.16839 0
M  V30 2090 H 191.739 -0.128581 3.23445 0
M  V30 2091 H 190.646 2.18055 3.03978 0
M  V30 2092 H 191.979 2.85291 4.01086 0
M  V30 2093 N 193.631 -1.12557 1.10312 0
M  V30 2094 C 194.877 -1.84311 0.846011 0
M  V30 2095 C 195.21 -1.83805 -0.626859 0
M  V30 2096 O 194.485 -1.28268 -1.46211 0
M  V30 2097 C 194.768 -3.32048 1.39341 0
M  V30 2098 C 194.621 -3.41016 2.93305 0
M  V30 2099 C 195.94 -4.27764 1.03468 0
M  V30 2100 H 193.059 -0.669192 0.30879 0
M  V30 2101 H 195.701 -1.32057 1.36605 0
M  V30 2102 H 193.851 -3.76678 0.951087 0
M  V30 2103 H 195.523 -3.05031 3.46055 0
M  V30 2104 H 193.766 -2.81603 3.29973 0
M  V30 2105 H 194.437 -4.44948 3.26689 0
M  V30 2106 H 196.913 -3.91253 1.41633 0
M  V30 2107 H 195.789 -5.29549 1.44463 0
M  V30 2108 H 196.05 -4.42064 -0.0560404 0
M  V30 2109 N 195.109 -0.891671 -1.2995 0
M  V30 2110 C 196.357 -0.512486 -1.95494 0
M  V30 2111 C 196.678 0.942776 -1.70695 0
M  V30 2112 O 195.948 1.66374 -1.03424 0
M  V30 2113 H 194.528 -0.186533 -0.723336 0
M  V30 2114 H 197.19 -1.13621 -1.58355 0
M  V30 2115 H 196.286 -0.688342 -3.04415 0
M  V30 2116 N 196.587 1.43421 -0.653314 0
M  V30 2117 C 197.864 1.95361 -0.0966581 0
M  V30 2118 C 198.244 1.59461 1.38331 0
M  V30 2119 O 197.592 0.879777 2.10884 0
M  V30 2120 C 197.802 3.47311 -0.342988 0
M  V30 2121 C 199.15 4.23875 -0.24798 0
M  V30 2122 O 200.174 3.55133 -0.275553 0
M  V30 2123 O 199.033 5.4623 -0.171771 0
M  V30 2124 H 196.127 0.826945 0.00956291 0
M  V30 2125 H 198.673 1.5336 -0.726558 0
M  V30 2126 H 197.445 3.66569 -1.36906 0
M  V30 2127 H 197.068 3.9631 0.319975 0
M  V30 2128 N 198.065 0.39524 1.52563 0
M  V30 2129 C 199.29 -0.187456 2.06551 0
M  V30 2130 C 199.715 -1.39249 1.26457 0
M  V30 2131 O 199.073 -1.78947 0.291151 0
M  V30 2132 C 199.121 -0.529985 3.56684 0
M  V30 2133 O 198.225 -1.62307 3.79118 0
M  V30 2134 H 197.566 -0.0202537 0.663691 0
M  V30 2135 H 200.096 0.564426 1.96661 0
M  V30 2136 H 200.106 -0.792598 4.00227 0
M  V30 2137 H 198.781 0.350987 4.14416 0
M  V30 2138 H 197.358 -1.3537 3.47461 0
M  V30 2139 N 199.544 -1.57102 0.125237 0
M  V30 2140 C 200.792 -1.95021 -0.530198 0
M  V30 2141 C 201.113 -1.00982 -1.66816 0
M  V30 2142 O 200.383 -0.0672693 -1.95784 0
M  V30 2143 H 198.963 -0.720046 -0.198853 0
M  V30 2144 H 201.625 -1.93916 0.19564 0
M  V30 2145 H 200.721 -2.98211 -0.920681 0
M  V30 2146 N 201.022 0.148545 -1.56898 0
M  V30 2147 C 202.268 0.862694 -1.83536 0
M  V30 2148 C 202.601 1.80889 -0.706604 0
M  V30 2149 O 201.876 1.92328 0.289885 0
M  V30 2150 C 202.159 1.63853 -3.20662 0
M  V30 2151 C 202.012 0.713925 -4.44098 0
M  V30 2152 C 203.331 2.60133 -3.54991 0
M  V30 2153 H 200.45 0.312179 -0.667618 0
M  V30 2154 H 203.092 0.127953 -1.89569 0
M  V30 2155 H 201.242 2.26489 -3.1565 0
M  V30 2156 H 202.914 0.098686 -4.61194 0
M  V30 2157 H 201.157 0.0234019 -4.33794 0
M  V30 2158 H 201.828 1.29278 -5.36648 0
M  V30 2159 H 204.304 2.07616 -3.60603 0
M  V30 2160 H 203.18 3.11468 -4.51972 0
M  V30 2161 H 203.441 3.41417 -2.80868 0
M  V30 2162 N 202.5 1.5196 0.417844 0
M  V30 2163 C 203.746 1.65836 1.16732 0
M  V30 2164 C 204.079 0.382881 1.90388 0
M  V30 2165 O 203.354 -0.618368 1.84408 0
M  V30 2166 C 203.637 2.87466 2.16876 0
M  V30 2167 C 203.49 4.25041 1.47174 0
M  V30 2168 C 204.809 3.04613 3.17646 0
M  V30 2169 H 201.928 0.603515 0.423011 0
M  V30 2170 H 204.57 1.84494 0.454105 0
M  V30 2171 H 202.72 2.71689 2.777 0
M  V30 2172 H 204.392 4.52527 0.895376 0
M  V30 2173 H 202.635 4.26843 0.773806 0
M  V30 2174 H 203.306 5.06176 2.20204 0
M  V30 2175 H 205.782 3.1923 2.66892 0
M  V30 2176 H 204.658 3.91247 3.8499 0
M  V30 2177 H 204.919 2.17541 3.84874 0
M  V30 2178 N 203.978 -0.674533 1.42435 0
M  V30 2179 C 205.255 -1.4305 1.33402 0
M  V30 2180 C 205.635 -2.11081 -0.0284674 0
M  V30 2181 O 204.983 -2.03257 -1.04397 0
M  V30 2182 C 205.193 -2.43272 2.50239 0
M  V30 2183 C 206.541 -3.07907 2.92367 0
M  V30 2184 O 207.565 -2.53599 2.50132 0
M  V30 2185 O 206.424 -4.0632 3.65467 0
M  V30 2186 H 203.518 -0.638076 0.526106 0
M  V30 2187 H 206.064 -0.703235 1.54443 0
M  V30 2188 H 204.836 -1.91803 3.41068 0
M  V30 2189 H 204.459 -3.23479 2.31186 0
M  V30 2190 N 205.456 -1.28612 -0.910864 0
M  V30 2191 C 206.705 -1.15311 -1.65488 0
M  V30 2192 C 207.018 0.296999 -1.93332 0
M  V30 2193 O 208.224 0.551168 -2.65847 0
M  V30 2194 C 206.68 -2.01599 -2.98137 0
M  V30 2195 C 206.288 -3.51367 -2.7793 0
M  V30 2196 C 208.032 -1.96993 -3.76024 0
M  V30 2197 C 205.939 -4.29797 -4.06237 0
M  V30 2198 H 204.869 -0.42796 -0.620779 0
M  V30 2199 H 207.52 -1.53166 -1.01057 0
M  V30 2200 H 205.902 -1.56603 -3.63719 0
M  V30 2201 H 207.076 -4.0434 -2.21011 0
M  V30 2202 H 205.391 -3.57529 -2.13452 0
M  V30 2203 H 207.988 -2.52856 -4.71135 0
M  V30 2204 H 208.331 -0.94733 -4.05378 0
M  V30 2205 H 208.864 -2.39973 -3.17266 0
M  V30 2206 H 205.603 -5.32648 -3.82055 0
M  V30 2207 H 205.123 -3.81596 -4.62757 0
M  V30 2208 H 206.802 -4.39869 -4.74473 0
M  V30 2209 N 206.934 1.1197 -1.10907 0
M  V30 2210 C 208.18 1.8386 -0.855773 0
M  V30 2211 C 208.513 1.84134 0.617103 0
M  V30 2212 O 207.788 1.29041 1.45529 0
M  V30 2213 C 208.071 3.31305 -1.411 0
M  V30 2214 C 207.924 3.39456 -2.9511 0
M  V30 2215 C 209.243 4.2721 -1.05736 0
M  V30 2216 H 206.362 0.667545 -0.312334 0
M  V30 2217 H 209.004 1.31331 -1.37303 0
M  V30 2218 H 207.154 3.76169 -0.97105 0
M  V30 2219 H 208.826 3.03191 -3.47668 0
M  V30 2220 H 207.069 2.79849 -3.31462 0
M  V30 2221 H 207.74 4.43209 -3.29044 0
M  V30 2222 H 210.216 3.90497 -1.43706 0
M  V30 2223 H 209.092 5.28775 -1.47269 0
M  V30 2224 H 209.353 4.42088 0.0325958 0
M  V30 2225 N 208.412 0.89855 1.29475 0
M  V30 2226 C 209.689 0.443416 1.90508 0
M  V30 2227 C 210.069 -1.07685 1.81569 0
M  V30 2228 O 209.417 -1.9182 1.24166 0
M  V30 2229 C 209.627 0.956708 3.35631 0
M  V30 2230 C 210.975 0.999728 4.12663 0
M  V30 2231 O 211.999 0.904299 3.4453 0
M  V30 2232 O 210.858 1.14289 5.34416 0
M  V30 2233 H 207.952 0.138025 0.815401 0
M  V30 2234 H 210.498 0.98834 1.37949 0
M  V30 2235 H 209.27 2.00067 3.36287 0
M  V30 2236 H 208.893 0.391728 3.95666 0
M  V30 2237 N 209.89 -1.43072 0.660911 0
M  V30 2238 C 211.306 -1.56169 0.329173 0
M  V30 2239 C 211.506 -1.64317 -1.16629 0
M  V30 2240 O 210.562 -1.60245 -1.95135 0
M  V30 2241 C 211.875 -2.81873 1.04729 0
M  V30 2242 C 213.423 -2.95627 1.02828 0
M  V30 2243 C 213.898 -4.24174 1.72744 0
M  V30 2244 N 215.389 -4.31055 1.69545 0
M  V30 2245 C 216.124 -5.29304 2.20511 0
M  V30 2246 N 215.62 -6.33786 2.79799 0
M  V30 2247 N 217.413 -5.21008 2.10966 0
M  V30 2248 H 209.564 -1.36027 1.63127 0
M  V30 2249 H 211.827 -0.653823 0.686454 0
M  V30 2250 H 211.533 -2.81942 2.10242 0
M  V30 2251 H 211.407 -3.72338 0.603702 0
M  V30 2252 H 213.794 -2.95094 -0.0184742 0
M  V30 2253 H 213.875 -2.06431 1.51063 0
M  V30 2254 H 213.519 -4.25467 2.7738 0
M  V30 2255 H 213.449 -5.1228 1.2197 0
M  V30 2256 H 215.94 -3.56174 1.26288 0
M  V30 2257 H 216.253 -7.05086 3.16344 0
M  V30 2258 H 214.598 -6.34387 2.83863 0
M  V30 2259 H 217.789 -4.38301 1.64347 0
M  V30 2260 H 217.962 -5.97416 2.50993 0
M  V30 2261 N 211.368 -0.403325 -1.52352 0
M  V30 2262 C 212.615 0.174347 -2.01748 0
M  V30 2263 C 212.943 1.45636 -1.2892 0
M  V30 2264 O 212.198 1.9193 -0.382258 0
M  V30 2265 C 212.497 0.474665 -3.54234 0
M  V30 2266 C 212.163 -0.717458 -4.45155 0
M  V30 2267 C 210.825 -1.04447 -4.69728 0
M  V30 2268 C 213.177 -1.51432 -4.98716 0
M  V30 2269 C 210.505 -2.16963 -5.45109 0
M  V30 2270 C 212.857 -2.6302 -5.75329 0
M  V30 2271 C 211.521 -2.96213 -5.98175 0
M  V30 2272 H 210.791 0.0637981 -0.738248 0
M  V30 2273 H 213.438 -0.543553 -1.83624 0
M  V30 2274 H 211.743 1.27406 -3.70506 0
M  V30 2275 H 213.44 0.934496 -3.89959 0
M  V30 2276 H 210.03 -0.452596 -4.26204 0
M  V30 2277 H 214.214 -1.27491 -4.79645 0
M  V30 2278 H 209.47 -2.43034 -5.61021 0
M  V30 2279 H 213.644 -3.25158 -6.15829 0
M  V30 2280 H 211.271 -3.83516 -6.56368 0
M  V30 2281 N 212.846 1.57033 -0.133567 0
M  V30 2282 C 213.809 2.14897 0.796995 0
M  V30 2283 C 214.809 1.0874 1.18458 0
M  V30 2284 O 215.999 1.34446 1.1077 0
M  V30 2285 C 213.131 2.70112 2.07973 0
M  V30 2286 H 214.324 2.98457 0.293873 0
M  V30 2287 H 211.877 1.55871 0.115787 0
M  V30 2288 H 212.612 1.9018 2.62682 0
M  V30 2289 H 212.397 3.47764 1.81115 0
M  V30 2290 H 213.887 3.14738 2.74462 0
M  V30 2291 N 214.325 -0.140222 1.56975 0
M  V30 2292 C 215.275 -1.17827 1.95194 0
M  V30 2293 C 216.259 -1.38195 0.824075 0
M  V30 2294 O 217.451 -1.39643 1.0876 0
M  V30 2295 C 214.58 -2.51024 2.34184 0
M  V30 2296 C 213.666 -2.3422 3.53556 0
M  V30 2297 N 214.057 -1.87185 4.69889 0
M  V30 2298 C 212.355 -2.64949 3.58773 0
M  V30 2299 C 213.056 -1.83586 5.5197 0
M  V30 2300 N 212.032 -2.2715 4.93866 0
M  V30 2301 H 215.834 -0.806817 2.82609 0
M  V30 2302 H 213.348 -0.348208 1.58623 0
M  V30 2303 H 215.345 -3.26074 2.59772 0
M  V30 2304 H 214.005 -2.88945 1.48124 0
M  V30 2305 H 215.016 -1.57048 4.93514 0
M  V30 2306 H 211.693 -3.067 2.8327 0
M  V30 2307 H 213.083 -1.48655 6.55249 0
M  V30 2308 N 215.803 -1.52179 -0.40978 0
M  V30 2309 C 217.214 -1.58377 -0.988615 0
M  V30 2310 C 217.565 -0.423879 -1.91566 0
M  V30 2311 O 216.69 0.455844 -2.11544 0
M  V30 2312 C 217.285 -2.87044 -1.79976 0
M  V30 2313 C 215.844 -2.95722 -2.32863 0
M  V30 2314 C 214.991 -2.53309 -1.12828 0
M  V30 2315 H 217.942 -1.57558 -0.190039 0
M  V30 2316 H 217.963 -2.7236 -2.65707 0
M  V30 2317 H 217.475 -3.71444 -1.12478 0
M  V30 2318 H 215.576 -2.15814 -3.03735 0
M  V30 2319 H 215.689 -3.99951 -2.63773 0
M  V30 2320 H 214.053 -2.07142 -1.48204 0
M  V30 2321 H 214.836 -3.40082 -0.46897 0
M  V30 2322 N 217.281 0.66697 -1.42791 0
M  V30 2323 C 218.211 1.79218 -1.49677 0
M  V30 2324 C 219.192 1.66405 -0.352623 0
M  V30 2325 O 220.377 1.85708 -0.567993 0
M  V30 2326 C 217.507 3.17565 -1.40605 0
M  V30 2327 C 216.461 3.45124 -2.53127 0
M  V30 2328 C 215.787 4.83127 -2.29112 0
M  V30 2329 C 217.087 3.41236 -3.95418 0
M  V30 2330 H 218.781 1.73713 -2.43853 0
M  V30 2331 H 216.327 0.83432 -1.17367 0
M  V30 2332 H 218.28 3.96022 -1.44029 0
M  V30 2333 H 217.004 3.23767 -0.429271 0
M  V30 2334 H 215.663 2.69031 -2.49034 0
M  V30 2335 H 215.311 4.85988 -1.29709 0
M  V30 2336 H 215.011 5.02528 -3.04531 0
M  V30 2337 H 216.535 5.63859 -2.34297 0
M  V30 2338 H 217.949 4.09651 -4.01073 0
M  V30 2339 H 216.346 3.72173 -4.70752 0
M  V30 2340 H 217.416 2.39665 -4.21532 0
M  V30 2341 N 218.759 1.29093 0.90403 0
M  V30 2342 C 220.17 1.15186 1.46932 0
M  V30 2343 C 220.521 -0.254587 1.94541 0
M  V30 2344 O 219.646 -1.14972 1.83332 0
M  V30 2345 C 220.241 2.08492 2.67051 0
M  V30 2346 C 218.8 1.98621 3.19729 0
M  V30 2347 C 217.947 1.9967 1.92425 0
M  V30 2348 H 220.898 1.41641 0.715789 0
M  V30 2349 H 220.919 1.65461 3.42641 0
M  V30 2350 H 220.431 3.10847 2.3237 0
M  V30 2351 H 218.532 0.993389 3.59114 0
M  V30 2352 H 218.645 2.86068 3.8432 0
M  V30 2353 H 217.009 1.44208 2.09943 0
M  V30 2354 H 217.792 3.03721 1.60026 0
M  V30 2355 N 220.237 -1.11381 1.11499 0
M  V30 2356 C 221.486 -1.82494 0.858993 0
M  V30 2357 C 221.799 -1.85605 -0.617278 0
M  V30 2358 O 223.005 -2.52824 -0.989552 0
M  V30 2359 C 221.461 -3.27745 1.48699 0
M  V30 2360 C 221.069 -3.32961 2.99735 0
M  V30 2361 C 222.813 -4.03754 1.31085 0
M  V30 2362 C 220.72 -4.72612 3.55516 0
M  V30 2363 H 219.65 -0.683802 0.317696 0
M  V30 2364 H 222.301 -1.25331 1.34031 0
M  V30 2365 H 220.683 -3.84844 0.933339 0
M  V30 2366 H 221.857 -2.85741 3.61509 0
M  V30 2367 H 220.172 -2.70433 3.16631 0
M  V30 2368 H 222.769 -5.06891 1.70192 0
M  V30 2369 H 223.112 -4.15527 0.253496 0
M  V30 2370 H 223.645 -3.53043 1.83318 0
M  V30 2371 H 220.384 -4.66036 4.60967 0
M  V30 2372 H 219.904 -5.2024 2.98513 0
M  V30 2373 H 221.583 -5.4157 3.53992 0
M  V30 2374 N 221.715 -0.905404 -1.28997 0
M  V30 2375 C 222.662 -0.385892 -2.27551 0
M  V30 2376 C 223.632 0.535113 -1.57244 0
M  V30 2377 O 224.817 0.459119 -1.85194 0
M  V30 2378 C 221.957 0.375461 -3.43051 0
M  V30 2379 C 221.07 -0.577092 -4.28128 0
M  V30 2380 C 220.205 0.201879 -5.30816 0
M  V30 2381 C 219.244 -0.744829 -6.07551 0
M  V30 2382 N 218.381 9.42587e-05 -7.021 0
M  V30 2383 H 223.221 -1.23139 -2.71368 0
M  V30 2384 H 220.758 -0.618542 -1.33463 0
M  V30 2385 H 222.716 0.832992 -4.088 0
M  V30 2386 H 221.346 1.18537 -3.00248 0
M  V30 2387 H 220.398 -1.15315 -3.62501 0
M  V30 2388 H 221.71 -1.30152 -4.8152 0
M  V30 2389 H 220.864 0.720351 -6.02408 0
M  V30 2390 H 219.603 0.959413 -4.7817 0
M  V30 2391 H 218.608 -1.27475 -5.34818 0
M  V30 2392 H 219.833 -1.50178 -6.62286 0
M  V30 2393 H 217.779 0.739791 -6.51815 0
M  V30 2394 H 217.696 -0.664321 -7.53076 0
M  V30 2395 H 218.964 0.498644 -7.77903 0
M  V30 2396 N 223.193 1.4272 -0.668489 0
M  V30 2397 C 224.439 2.01923 -0.188419 0
M  V30 2398 C 224.772 1.52704 1.19979 0
M  V30 2399 O 224.047 0.726566 1.8042 0
M  V30 2400 C 224.33 3.59451 -0.216085 0
M  V30 2401 C 224.183 4.18864 -1.6393 0
M  V30 2402 C 225.502 4.37903 0.439179 0
M  V30 2403 H 222.621 0.733674 -0.0699412 0
M  V30 2404 H 225.263 1.69822 -0.852076 0
M  V30 2405 H 223.413 3.86929 0.349012 0
M  V30 2406 H 225.085 4.02362 -2.25616 0
M  V30 2407 H 223.328 3.74933 -2.18193 0
M  V30 2408 H 223.999 5.27987 -1.61039 0
M  V30 2409 H 226.475 4.16079 -0.0417878 0
M  V30 2410 H 225.351 5.47519 0.389157 0
M  V30 2411 H 225.612 4.15303 1.51577 0
M  V30 2412 N 224.671 0.411399 1.52136 0
M  V30 2413 C 225.92 -0.165009 2.01024 0
M  V30 2414 C 226.233 -1.4603 1.30133 0
M  V30 2415 O 227.439 -2.1181 1.69849 0
M  V30 2416 C 225.895 -0.344618 3.58246 0
M  V30 2417 C 225.503 0.938716 4.38055 0
M  V30 2418 C 227.247 -0.876195 4.15359 0
M  V30 2419 C 225.154 0.726172 5.86925 0
M  V30 2420 H 224.084 -0.0654407 0.751155 0
M  V30 2421 H 226.735 0.537192 1.75461 0
M  V30 2422 H 225.117 -1.10921 3.80148 0
M  V30 2423 H 226.291 1.70963 4.27912 0
M  V30 2424 H 224.606 1.39688 3.92271 0
M  V30 2425 H 227.203 -1.05128 5.24263 0
M  V30 2426 H 227.546 -1.85152 3.7286 0
M  V30 2427 H 228.079 -0.170607 3.97434 0
M  V30 2428 H 224.818 1.67312 6.33788 0
M  V30 2429 H 224.338 -0.00540283 5.998 0
M  V30 2430 H 226.017 0.369231 6.45946 0
M  V30 2431 N 226.149 -1.5696 0.141893 0
M  V30 2432 C 227.389 -1.9785 -0.513304 0
M  V30 2433 C 227.753 -1.02467 -1.62371 0
M  V30 2434 O 228.954 -1.32382 -2.33941 0
M  V30 2435 C 227.225 -3.42797 -1.01118 0
M  V30 2436 S 228.784 -4.05709 -1.67169 0
M  V30 2437 H 225.602 -0.691318 -0.166135 0
M  V30 2438 H 228.204 -1.94114 0.232398 0
M  V30 2439 H 226.908 -4.0995 -0.192179 0
M  V30 2440 H 226.439 -3.50235 -1.79162 0
M  V30 2441 H 228.454 -3.98342 -2.95868 0
M  V30 2442 N 227.627 0.131896 -1.57047 0
M  V30 2443 C 228.537 1.1815 -2.02676 0
M  V30 2444 C 229.553 1.46113 -0.944824 0
M  V30 2445 O 230.729 1.57485 -1.25541 0
M  V30 2446 C 227.794 2.49139 -2.41103 0
M  V30 2447 C 226.855 2.28688 -3.63318 0
M  V30 2448 C 226.088 3.53431 -3.99903 0
M  V30 2449 O 226.311 4.60223 -3.36973 0
M  V30 2450 O 225.245 3.45198 -4.93074 0
M  V30 2451 H 229.071 0.824069 -2.92306 0
M  V30 2452 H 226.656 0.341745 -1.45439 0
M  V30 2453 H 228.538 3.26338 -2.66611 0
M  V30 2454 H 227.213 2.84382 -1.54624 0
M  V30 2455 H 226.12 1.4939 -3.42977 0
M  V30 2456 H 227.453 1.98355 -4.50462 0
M  V30 2457 N 229.106 1.52395 0.401703 0
M  V30 2458 C 230.036 1.79231 1.49661 0
M  V30 2459 C 231.017 0.643654 1.57452 0
M  V30 2460 O 232.202 0.889989 1.72606 0
M  V30 2461 C 229.332 1.94971 2.87409 0
M  V30 2462 C 228.286 3.10604 2.94465 0
M  V30 2463 C 227.612 3.11577 4.34538 0
M  V30 2464 C 228.912 4.49921 2.6527 0
M  V30 2465 H 230.606 2.70917 1.27454 0
M  V30 2466 H 228.152 1.30362 0.6117 0
M  V30 2467 H 230.105 2.12328 3.63999 0
M  V30 2468 H 228.829 0.999632 3.10926 0
M  V30 2469 H 227.488 2.93009 2.20321 0
M  V30 2470 H 227.136 2.14277 4.55076 0
M  V30 2471 H 226.836 3.89247 4.40183 0
M  V30 2472 H 228.36 3.31073 5.13053 0
M  V30 2473 H 229.774 4.67683 3.31581 0
M  V30 2474 H 228.171 5.29564 2.82281 0
M  V30 2475 H 229.241 4.57507 1.60671 0
M  V30 2476 N 230.584 -0.659388 1.43143 0
M  V30 2477 C 231.514 -1.78422 1.50625 0
M  V30 2478 C 232.495 -1.66216 0.361443 0
M  V30 2479 O 233.68 -1.85404 0.577834 0
M  V30 2480 C 230.81 -3.16815 1.42287 0
M  V30 2481 C 229.764 -3.43777 2.54954 0
M  V30 2482 C 229.09 -4.81905 2.31671 0
M  V30 2483 C 230.39 -3.39134 3.97222 0
M  V30 2484 H 232.084 -1.72417 2.44771 0
M  V30 2485 H 229.63 -0.828084 1.17808 0
M  V30 2486 H 231.583 -3.95253 1.46127 0
M  V30 2487 H 230.307 -3.23534 0.446435 0
M  V30 2488 H 228.966 -2.67707 2.50457 0
M  V30 2489 H 228.614 -4.85294 1.32284 0
M  V30 2490 H 228.314 -5.00906 3.07192 0
M  V30 2491 H 229.838 -5.62609 2.37284 0
M  V30 2492 H 231.252 -4.07518 4.03239 0
M  V30 2493 H 229.649 -3.69671 4.72719 0
M  V30 2494 H 230.719 -2.37426 4.22797 0
M  V30 2495 N 232.062 -1.29571 -0.897171 0
M  V30 2496 C 233.31 -1.17456 -1.64464 0
M  V30 2497 C 233.631 0.273698 -1.9307 0
M  V30 2498 O 232.901 1.18684 -1.55855 0
M  V30 2499 H 231.481 -0.431706 -0.609622 0
M  V30 2500 H 234.143 -1.62531 -1.07562 0
M  V30 2501 H 233.239 -1.72648 -2.59998 0
M  V30 2502 N 233.54 1.10788 -1.12088 0
M  V30 2503 C 234.786 1.82942 -0.875226 0
M  V30 2504 C 235.119 1.84779 0.597538 0
M  V30 2505 O 234.394 1.30578 1.44152 0
M  V30 2506 C 234.677 3.29789 -1.44606 0
M  V30 2507 C 234.53 3.36307 -2.98693 0
M  V30 2508 C 235.849 4.26064 -1.10261 0
M  V30 2509 H 232.968 0.664195 -0.319397 0
M  V30 2510 H 235.61 1.29867 -1.38689 0
M  V30 2511 H 233.76 3.75118 -1.01089 0
M  V30 2512 H 235.432 2.99487 -3.50864 0
M  V30 2513 H 233.675 2.76318 -3.34411 0
M  V30 2514 H 234.346 4.39694 -3.33726 0
M  V30 2515 H 236.822 3.88951 -1.4784 0
M  V30 2516 H 235.698 5.27183 -1.52869 0
M  V30 2517 H 235.959 4.42098 -0.0142953 0
M  V30 2518 N 235.018 0.912232 1.28515 0
M  V30 2519 C 236.295 0.463597 1.90027 0
M  V30 2520 C 236.675 -1.05753 1.82701 0
M  V30 2521 O 236.023 -1.90492 1.26194 0
M  V30 2522 C 236.233 0.992253 3.34597 0
M  V30 2523 C 237.581 1.04344 4.11579 0
M  V30 2524 O 238.605 0.94079 3.43551 0
M  V30 2525 O 237.464 1.1995 5.33174 0
M  V30 2526 H 234.558 0.146666 0.813891 0
M  V30 2527 H 237.104 1.00292 1.36893 0
M  V30 2528 H 235.876 2.03623 3.34146 0
M  V30 2529 H 235.499 0.433672 3.95228 0
M  V30 2530 N 236.496 -1.42363 0.676048 0
M  V30 2531 C 237.406 -2.346 -0.00153389 0
M  V30 2532 C 238.422 -1.5516 -0.787485 0
M  V30 2533 O 239.598 -1.87723 -0.729521 0
M  V30 2534 C 236.663 -3.33705 -0.940298 0
M  V30 2535 C 235.724 -4.29042 -0.148739 0
M  V30 2536 C 234.957 -5.23413 -1.04279 0
M  V30 2537 O 235.18 -5.22749 -2.28232 0
M  V30 2538 O 234.114 -5.99795 -0.502925 0
M  V30 2539 H 237.94 -2.94082 0.758268 0
M  V30 2540 H 235.525 -1.42888 0.436289 0
M  V30 2541 H 237.407 -3.94586 -1.47917 0
M  V30 2542 H 236.082 -2.76695 -1.67993 0
M  V30 2543 H 234.989 -3.71571 0.43427 0
M  V30 2544 H 236.322 -4.89097 0.551805 0
M  V30 2545 N 237.974 -0.419461 -1.51915 0
M  V30 2546 C 238.921 0.400927 -2.27291 0
M  V30 2547 C 239.891 1.03224 -1.30131 0
M  V30 2548 O 241.076 1.05455 -1.59009 0
M  V30 2549 C 238.216 1.50603 -3.10504 0
M  V30 2550 C 237.329 0.89462 -4.22635 0
M  V30 2551 C 236.464 1.97328 -4.93189 0
M  V30 2552 C 235.503 1.33935 -5.97267 0
M  V30 2553 N 234.64 2.3586 -6.61298 0
M  V30 2554 H 239.48 -0.248251 -2.96964 0
M  V30 2555 H 237.017 -0.134266 -1.46486 0
M  V30 2556 H 238.975 2.15783 -3.57062 0
M  V30 2557 H 237.605 2.12509 -2.42981 0
M  V30 2558 H 236.657 0.131583 -3.80172 0
M  V30 2559 H 237.969 0.391641 -4.9726 0
M  V30 2560 H 237.123 2.70211 -5.43204 0
M  V30 2561 H 235.862 2.50994 -4.18155 0
M  V30 2562 H 234.867 0.595896 -5.46561 0
M  V30 2563 H 236.092 0.810252 -6.74249 0
M  V30 2564 H 234.038 2.88639 -5.89087 0
M  V30 2565 H 233.955 1.90403 -7.3163 0
M  V30 2566 H 235.223 3.08282 -7.15949 0
M  V30 2567 N 239.452 1.56882 -0.150215 0
M  V30 2568 C 240.682 2.00302 0.506213 0
M  V30 2569 C 241.09 1.02934 1.58749 0
M  V30 2570 O 240.433 0.0188384 1.8369 0
M  V30 2571 C 240.495 3.40156 1.16337 0
M  V30 2572 C 240.159 4.56439 0.226311 0
M  V30 2573 C 241.156 5.17012 -0.547265 0
M  V30 2574 C 238.841 5.02136 0.128279 0
M  V30 2575 C 240.835 6.21693 -1.40629 0
M  V30 2576 C 238.522 6.06672 -0.734345 0
M  V30 2577 C 239.52 6.6632 -1.50023 0
M  V30 2578 O 239.208 7.68831 -2.34848 0
M  V30 2579 H 238.94 0.662182 0.135984 0
M  V30 2580 H 241.494 2.03961 -0.242746 0
M  V30 2581 H 239.724 3.33346 1.96004 0
M  V30 2582 H 241.413 3.67663 1.71985 0
M  V30 2583 H 242.179 4.82603 -0.48158 0
M  V30 2584 H 238.058 4.55435 0.714157 0
M  V30 2585 H 241.602 6.68179 -2.00455 0
M  V30 2586 H 237.499 6.40507 -0.801309 0
M  V30 2587 H 238.267 7.86065 -2.28131 0
M  V30 2588 N 240.93 -0.123565 1.57115 0
M  V30 2589 C 242.346 -0.476961 1.52306 0
M  V30 2590 C 242.546 -1.82109 0.86248 0
M  V30 2591 O 241.602 -2.48586 0.442884 0
M  V30 2592 C 242.915 -0.465661 2.97073 0
M  V30 2593 C 244.463 -0.549534 3.08138 0
M  V30 2594 C 244.938 -0.568669 4.54456 0
M  V30 2595 N 246.429 -0.630237 4.58892 0
M  V30 2596 C 247.164 -0.666415 5.69514 0
M  V30 2597 N 246.66 -0.660514 6.89644 0
M  V30 2598 N 248.453 -0.709077 5.5761 0
M  V30 2599 H 240.604 0.757198 1.98445 0
M  V30 2600 H 242.867 0.278808 0.906074 0
M  V30 2601 H 242.573 0.454232 3.48754 0
M  V30 2602 H 242.447 -1.29513 3.54269 0
M  V30 2603 H 244.834 -1.45985 2.56461 0
M  V30 2604 H 244.915 0.307532 2.53945 0
M  V30 2605 H 244.559 0.337581 5.06777 0
M  V30 2606 H 244.489 -1.44256 5.06456 0
M  V30 2607 H 246.98 -0.641146 3.72421 0
M  V30 2608 H 247.293 -0.690616 7.69708 0
M  V30 2609 H 245.638 -0.628012 6.92157 0
M  V30 2610 H 248.829 -0.711019 4.62668 0
M  V30 2611 H 249.002 -0.733804 6.43832 0
M  V30 2612 N 242.408 -1.52605 -0.393616 0
M  V30 2613 C 243.656 -1.67093 -1.13685 0
M  V30 2614 C 243.977 -0.411011 -1.90619 0
M  V30 2615 O 243.247 0.574491 -1.87287 0
M  V30 2616 H 241.827 -0.615923 -0.422668 0
M  V30 2617 H 244.489 -1.89704 -0.447039 0
M  V30 2618 H 243.585 -2.51922 -1.84232 0
M  V30 2619 N 243.887 0.651787 -1.4349 0
M  V30 2620 C 244.797 1.79368 -1.5121 0
M  V30 2621 C 245.813 1.69361 -0.399093 0
M  V30 2622 O 246.989 1.90505 -0.653431 0
M  V30 2623 C 244.054 3.15653 -1.43401 0
M  V30 2624 C 243.115 3.37446 -2.65384 0
M  V30 2625 C 242.348 4.67229 -2.57939 0
M  V30 2626 O 242.571 5.46676 -1.62792 0
M  V30 2627 O 241.505 4.90773 -3.48462 0
M  V30 2628 H 245.331 1.7581 -2.47638 0
M  V30 2629 H 242.916 0.810447 -1.25507 0
M  V30 2630 H 244.798 3.96935 -1.41494 0
M  V30 2631 H 243.473 3.19798 -0.501085 0
M  V30 2632 H 242.38 2.55923 -2.72863 0
M  V30 2633 H 243.713 3.38148 -3.57654 0
M  V30 2634 N 245.365 1.30045 0.890287 0
M  V30 2635 C 246.612 1.18561 1.64163 0
M  V30 2636 C 246.94 -0.260852 1.92743 0
M  V30 2637 O 246.195 -1.20376 1.54299 0
M  V30 2638 C 246.494 1.95409 2.99249 0
M  V30 2639 C 246.16 3.45066 2.90242 0
M  V30 2640 C 244.822 3.85878 2.87492 0
M  V30 2641 C 247.174 4.4039 2.78758 0
M  V30 2642 C 244.502 5.20314 2.7109 0
M  V30 2643 C 246.854 5.74928 2.63894 0
M  V30 2644 C 245.518 6.14986 2.59516 0
M  V30 2645 H 244.788 0.433846 0.600715 0
M  V30 2646 H 247.435 1.61088 1.03552 0
M  V30 2647 H 245.74 1.45501 3.63781 0
M  V30 2648 H 247.437 1.8392 3.56334 0
M  V30 2649 H 244.027 3.12631 2.93189 0
M  V30 2650 H 248.211 4.09806 2.79952 0
M  V30 2651 H 243.467 5.50449 2.66112 0
M  V30 2652 H 247.641 6.48434 2.53981 0
M  V30 2653 H 245.268 7.19104 2.46565 0
M  V30 2654 N 246.843 -1.10192 1.12674 0
M  V30 2655 C 248.091 -1.81845 0.881861 0
M  V30 2656 C 248.412 -1.85737 -0.593867 0
M  V30 2657 O 247.682 -1.33724 -1.4316 0
M  V30 2658 H 246.262 -0.673432 0.323261 0
M  V30 2659 H 248.924 -1.33316 1.42172 0
M  V30 2660 H 248.02 -2.85288 1.2656 0
M  V30 2661 N 248.321 -0.919034 -1.28029 0
M  V30 2662 C 249.737 -0.617972 -1.4715 0
M  V30 2663 C 249.937 0.835242 -1.83374 0
M  V30 2664 O 248.993 1.61388 -1.94191 0
M  V30 2665 C 250.306 -1.56041 -2.57044 0
M  V30 2666 C 251.854 -1.56769 -2.7091 0
M  V30 2667 C 252.329 -2.49688 -3.83953 0
M  V30 2668 N 253.82 -2.47845 -3.91314 0
M  V30 2669 C 254.555 -3.16437 -4.78179 0
M  V30 2670 N 254.051 -3.94376 -5.69596 0
M  V30 2671 N 255.844 -3.05498 -4.71834 0
M  V30 2672 H 247.995 -1.85866 -1.02798 0
M  V30 2673 H 250.258 -0.797506 -0.512531 0
M  V30 2674 H 249.964 -2.59671 -2.372 0
M  V30 2675 H 249.838 -1.29551 -3.54255 0
M  V30 2676 H 252.225 -0.538745 -2.90141 0
M  V30 2677 H 252.306 -1.87305 -1.74214 0
M  V30 2678 H 251.95 -3.52688 -3.65477 0
M  V30 2679 H 251.88 -2.16453 -4.80058 0
M  V30 2680 H 254.371 -1.91234 -3.25941 0
M  V30 2681 H 254.684 -4.43721 -6.32718 0
M  V30 2682 H 253.029 -3.98481 -5.69419 0
M  V30 2683 H 256.22 -2.44108 -3.99411 0
M  V30 2684 H 256.393 -3.59225 -5.39316 0
M  V30 2685 N 249.799 1.42003 -0.683588 0
M  V30 2686 C 251.045 2.02223 -0.218536 0
M  V30 2687 C 251.4 1.53126 1.16492 0
M  V30 2688 O 250.693 0.727459 1.77253 0
M  V30 2689 C 250.887 3.56827 -0.202357 0
M  V30 2690 C 250.716 4.20928 -1.5827 0
M  V30 2691 C 249.486 4.5573 -2.18262 0
M  V30 2692 C 251.684 4.47933 -2.52706 0
M  V30 2693 N 249.666 5.05056 -3.48986 0
M  V30 2694 C 251.037 4.98906 -3.68094 0
M  V30 2695 C 253.092 4.29931 -2.51125 0
M  V30 2696 C 251.795 5.33768 -4.82166 0
M  V30 2697 C 253.821 4.65875 -3.643 0
M  V30 2698 C 253.183 5.17008 -4.78417 0
M  V30 2699 H 249.282 0.771931 -0.125088 0
M  V30 2700 H 251.866 1.72729 -0.898479 0
M  V30 2701 H 250.037 3.85819 0.447029 0
M  V30 2702 H 251.769 4.03755 0.276399 0
M  V30 2703 H 248.524 4.41781 -1.70665 0
M  V30 2704 H 248.948 5.34139 -4.15962 0
M  V30 2705 H 253.59 3.89647 -1.6412 0
M  V30 2706 H 251.308 5.72981 -5.6984 0
M  V30 2707 H 254.894 4.53615 -3.64314 0
M  V30 2708 H 253.774 5.44301 -5.64541 0
M  V30 2709 N 251.277 0.427512 1.51691 0
M  V30 2710 C 252.502 -0.143601 2.06902 0
M  V30 2711 C 252.927 -1.36536 1.29382 0
M  V30 2712 O 252.285 -1.78289 0.329043 0
M  V30 2713 C 252.333 -0.454207 3.57728 0
M  V30 2714 O 251.437 -1.54228 3.82475 0
M  V30 2715 H 250.778 -0.00617128 0.663971 0
M  V30 2716 H 253.308 0.606014 1.95419 0
M  V30 2717 H 253.318 -0.707525 4.01818 0
M  V30 2718 H 251.993 0.438812 4.13579 0
M  V30 2719 H 250.57 -1.2797 3.50254 0
M  V30 2720 N 252.755 -1.56801 0.158532 0
M  V30 2721 C 253.98 -2.01295 -0.499516 0
M  V30 2722 C 254.405 -1.03799 -1.56867 0
M  V30 2723 O 253.763 -0.0155162 -1.81293 0
M  V30 2724 C 253.811 -3.44469 -1.06647 0
M  V30 2725 O 252.915 -3.50012 -2.18095 0
M  V30 2726 H 252.256 -0.652884 -0.12099 0
M  V30 2727 H 254.786 -2.02958 0.258661 0
M  V30 2728 H 254.796 -3.8351 -1.39227 0
M  V30 2729 H 253.471 -4.14932 -0.283581 0
M  V30 2730 H 252.048 -3.22822 -1.86656 0
M  V30 2731 N 254.233 0.115231 -1.57178 0
M  V30 2732 C 255.143 1.15994 -2.03918 0
M  V30 2733 C 256.159 1.45103 -0.960268 0
M  V30 2734 O 257.335 1.56144 -1.27204 0
M  V30 2735 C 254.4 2.46568 -2.43732 0
M  V30 2736 C 253.461 2.24822 -3.65723 0
M  V30 2737 C 252.694 3.4917 -4.03629 0
M  V30 2738 O 252.917 4.56623 -3.41835 0
M  V30 2739 O 251.851 3.39949 -4.96708 0
M  V30 2740 H 255.677 0.793019 -2.93164 0
M  V30 2741 H 253.262 0.3263 -1.45793 0
M  V30 2742 H 255.144 3.23492 -2.70057 0
M  V30 2743 H 253.819 2.82726 -1.57631 0
M  V30 2744 H 252.726 1.45744 -3.44542 0
M  V30 2745 H 254.059 1.93566 -4.52541 0
M  V30 2746 N 255.711 1.52812 0.385517 0
M  V30 2747 C 256.96 1.67249 1.12741 0
M  V30 2748 C 257.273 0.4205 1.91027 0
M  V30 2749 O 258.479 0.445064 2.67827 0
M  V30 2750 C 256.935 2.95583 2.05326 0
M  V30 2751 C 256.543 4.27974 1.32447 0
M  V30 2752 C 258.287 3.19386 2.7963 0
M  V30 2753 C 256.194 5.47412 2.23818 0
M  V30 2754 H 255.124 0.6231 0.424573 0
M  V30 2755 H 257.775 1.79309 0.389924 0
M  V30 2756 H 256.157 2.77277 2.82725 0
M  V30 2757 H 257.331 4.56844 0.602495 0
M  V30 2758 H 255.646 4.10459 0.700885 0
M  V30 2759 H 258.243 4.05801 3.48181 0
M  V30 2760 H 258.586 2.34604 3.43899 0
M  V30 2761 H 259.119 3.38274 2.09322 0
M  V30 2762 H 255.858 6.34612 1.64157 0
M  V30 2763 H 255.378 5.22849 2.93921 0
M  V30 2764 H 257.057 5.81423 2.83824 0
M  V30 2765 N 257.189 -0.644168 1.43834 0
M  V30 2766 C 258.119 -1.76814 1.52509 0
M  V30 2767 C 259.1 -1.65823 0.379052 0
M  V30 2768 O 260.285 -1.84781 0.597466 0
M  V30 2769 C 257.415 -3.15288 1.4564 0
M  V30 2770 C 256.369 -3.41053 2.58586 0
M  V30 2771 C 255.695 -4.79421 2.36769 0
M  V30 2772 C 256.995 -3.34902 4.00797 0
M  V30 2773 H 258.689 -1.69812 2.46586 0
M  V30 2774 H 256.235 -0.815542 1.1868 0
M  V30 2775 H 258.188 -3.93681 1.50311 0
M  V30 2776 H 256.912 -3.23043 0.480725 0
M  V30 2777 H 255.571 -2.65035 2.53282 0
M  V30 2778 H 255.219 -4.83863 1.37424 0
M  V30 2779 H 254.919 -4.9762 3.12487 0
M  V30 2780 H 256.443 -5.6006 2.43238 0
M  V30 2781 H 257.857 -4.03218 4.07539 0
M  V30 2782 H 256.254 -3.64637 4.76613 0
M  V30 2783 H 257.324 -2.32928 4.25291 0
M  V30 2784 N 258.668 -1.30515 -0.883378 0
M  V30 2785 C 259.914 -1.19607 -1.63774 0
M  V30 2786 C 260.247 0.248314 -1.92606 0
M  V30 2787 O 259.522 1.17742 -1.54813 0
M  V30 2788 C 259.805 -2.02669 -2.97653 0
M  V30 2789 C 259.658 -3.55335 -2.75784 0
M  V30 2790 C 260.977 -1.86573 -3.98596 0
M  V30 2791 H 258.096 -0.435856 -0.594305 0
M  V30 2792 H 260.738 -1.60165 -1.02212 0
M  V30 2793 H 258.888 -1.68208 -3.50197 0
M  V30 2794 H 260.56 -3.99863 -2.30016 0
M  V30 2795 H 258.803 -3.79438 -2.1026 0
M  V30 2796 H 259.474 -4.08745 -3.70988 0
M  V30 2797 H 261.95 -2.16703 -3.55217 0
M  V30 2798 H 260.826 -2.47014 -4.90179 0
M  V30 2799 H 261.087 -0.825321 -4.34328 0
M  V30 2800 N 260.146 1.09593 -1.13257 0
M  V30 2801 C 261.079 2.15451 -0.752061 0
M  V30 2802 C 262.057 1.60493 0.260913 0
M  V30 2803 O 263.241 1.8788 0.152819 0
M  V30 2804 C 260.368 3.38506 -0.114594 0
M  V30 2805 C 259.414 4.12183 -1.09579 0
M  V30 2806 S 260.247 4.6661 -2.62745 0
M  V30 2807 C 261.403 5.92966 -2.00354 0
M  V30 2808 H 261.636 2.47395 -1.64872 0
M  V30 2809 H 259.169 1.21515 -0.952545 0
M  V30 2810 H 261.127 4.09757 0.246808 0
M  V30 2811 H 259.788 3.04784 0.759309 0
M  V30 2812 H 258.981 5.00445 -0.597545 0
M  V30 2813 H 258.583 3.46785 -1.40057 0
M  V30 2814 H 260.875 6.63882 -1.35156 0
M  V30 2815 H 261.818 6.47467 -2.86691 0
M  V30 2816 H 262.226 5.45405 -1.4558 0
M  V30 2817 N 261.624 0.925811 1.2754 0
M  V30 2818 C 262.901 0.483726 1.89524 0
M  V30 2819 C 263.281 -1.03809 1.83812 0
M  V30 2820 O 262.629 -1.89143 1.28207 0
M  V30 2821 C 262.839 1.02769 3.33526 0
M  V30 2822 C 264.187 1.08703 4.10449 0
M  V30 2823 O 265.211 0.977175 3.42534 0
M  V30 2824 O 264.07 1.25599 5.31871 0
M  V30 2825 H 261.164 0.15529 0.812289 0
M  V30 2826 H 263.71 1.01738 1.35822 0
M  V30 2827 H 262.482 2.07155 3.31967 0
M  V30 2828 H 262.105 0.475567 3.94746 0
M  V30 2829 N 263.102 -1.41638 0.69111 0
M  V30 2830 C 264.513 -1.84346 0.295517 0
M  V30 2831 C 264.864 -1.57833 -1.16547 0
M  V30 2832 O 263.989 -1.04648 -1.89414 0
M  V30 2833 C 264.584 -3.34636 0.529575 0
M  V30 2834 C 263.143 -3.7593 0.187944 0
M  V30 2835 C 262.29 -2.65082 0.814052 0
M  V30 2836 H 265.241 -1.31253 0.892092 0
M  V30 2837 H 265.262 -3.79903 -0.213148 0
M  V30 2838 H 264.774 -3.53901 1.59297 0
M  V30 2839 H 262.875 -3.62268 -0.871367 0
M  V30 2840 H 262.988 -4.74808 0.63985 0
M  V30 2841 H 261.352 -2.53528 0.244017 0
M  V30 2842 H 262.135 -2.87167 1.88123 0
M  V30 2843 N 264.58 -0.43555 -1.51462 0
M  V30 2844 C 265.49 0.383001 -2.31453 0
M  V30 2845 C 266.506 1.02931 -1.4029 0
M  V30 2846 O 267.682 1.02507 -1.73362 0
M  V30 2847 C 264.747 1.47043 -3.13973 0
M  V30 2848 C 263.808 0.844433 -4.20913 0
M  V30 2849 C 263.041 1.88004 -4.9949 0
M  V30 2850 O 263.264 3.10199 -4.78678 0
M  V30 2851 O 262.198 1.47157 -5.83634 0
M  V30 2852 H 266.024 -0.269964 -3.02498 0
M  V30 2853 H 263.609 -0.19813 -1.4808 0
M  V30 2854 H 265.491 2.10113 -3.65281 0
M  V30 2855 H 264.166 2.10751 -2.45695 0
M  V30 2856 H 263.073 0.175729 -3.73687 0
M  V30 2857 H 264.406 0.250869 -4.9156 0
M  V30 2858 N 266.058 1.56714 -0.166846 0
M  V30 2859 C 267.474 1.58473 0.189372 0
M  V30 2860 C 267.674 1.18201 1.63189 0
M  V30 2861 O 266.73 0.891528 2.36237 0
M  V30 2862 C 268.043 3.00573 -0.0873872 0
M  V30 2863 C 269.591 3.1299 -0.0252443 0
M  V30 2864 C 270.066 4.57174 -0.274934 0
M  V30 2865 N 271.557 4.62665 -0.222553 0
M  V30 2866 C 272.292 5.72072 -0.389985 0
M  V30 2867 N 271.788 6.90054 -0.616229 0
M  V30 2868 N 273.581 5.61153 -0.326202 0
M  V30 2869 H 265.732 1.8118 -1.10849 0
M  V30 2870 H 267.995 0.839525 -0.440342 0
M  V30 2871 H 267.701 3.34497 -1.0865 0
M  V30 2872 H 267.575 3.72019 0.623037 0
M  V30 2873 H 269.962 2.78895 0.96444 0
M  V30 2874 H 270.043 2.43989 -0.768309 0
M  V30 2875 H 269.687 4.91976 -1.26181 0
M  V30 2876 H 269.617 5.24328 0.48869 0
M  V30 2877 H 272.108 3.77863 -0.0531512 0
M  V30 2878 H 272.421 7.69311 -0.733559 0
M  V30 2879 H 270.766 6.91927 -0.652791 0
M  V30 2880 H 273.957 4.67859 -0.150072 0
M  V30 2881 H 274.13 6.46364 -0.460116 0
M  V30 2882 N 267.536 -0.106894 1.57237 0
M  V30 2883 C 268.499 -1.11466 2.0027 0
M  V30 2884 C 269.499 -1.33623 0.894519 0
M  V30 2885 O 270.689 -1.29935 1.16028 0
M  V30 2886 C 267.821 -2.46646 2.35327 0
M  V30 2887 H 269.014 -0.744516 2.90512 0
M  V30 2888 H 266.567 -0.351576 1.52295 0
M  V30 2889 H 267.302 -2.88558 1.48003 0
M  V30 2890 H 267.087 -2.31915 3.16161 0
M  V30 2891 H 268.577 -3.19151 2.69318 0
M  V30 2892 N 269.014 -1.53014 -0.377408 0
M  V30 2893 C 269.924 -1.81557 -1.48574 0
M  V30 2894 C 270.94 -0.703102 -1.59162 0
M  V30 2895 O 272.116 -0.99192 -1.75279 0
M  V30 2896 C 269.181 -1.9889 -2.83978 0
M  V30 2897 C 268.242 -3.22801 -2.83016 0
M  V30 2898 C 267.475 -3.39298 -4.11962 0
M  V30 2899 O 267.698 -2.60345 -5.0752 0
M  V30 2900 O 266.632 -4.32604 -4.18494 0
M  V30 2901 H 270.458 -2.75695 -1.27382 0
M  V30 2902 H 268.043 -1.38248 -0.566373 0
M  V30 2903 H 269.925 -2.11931 -3.6423 0
M  V30 2904 H 268.6 -1.07942 -3.05172 0
M  V30 2905 H 267.507 -3.15193 -2.01505 0
M  V30 2906 H 268.84 -4.13632 -2.66775 0
M  V30 2907 N 270.492 0.636531 -1.44174 0
M  V30 2908 C 271.424 1.7618 -1.46606 0
M  V30 2909 C 272.437 1.58768 -0.360091 0
M  V30 2910 O 273.626 1.67181 -0.625518 0
M  V30 2911 C 270.726 3.13833 -1.27915 0
M  V30 2912 C 269.899 3.57753 -2.51658 0
M  V30 2913 C 268.958 4.74265 -2.27945 0
M  V30 2914 O 267.984 4.82852 -3.01401 0
M  V30 2915 N 269.186 5.65604 -1.30662 0
M  V30 2916 H 271.951 1.74567 -2.43612 0
M  V30 2917 H 269.512 0.820924 -1.39544 0
M  V30 2918 H 271.504 3.8949 -1.09907 0
M  V30 2919 H 270.074 3.10121 -0.39293 0
M  V30 2920 H 269.294 2.72362 -2.84978 0
M  V30 2921 H 270.582 3.83847 -3.33974 0
M  V30 2922 H 269.98 5.61354 -0.699844 0
M  V30 2923 H 268.537 6.40913 -1.18634 0
M  V30 2924 N 271.97 1.30982 0.876444 0
M  V30 2925 C 273.386 1.09498 1.16113 0
M  V30 2926 C 273.586 -0.13875 2.01022 0
M  V30 2927 O 272.642 -0.829935 2.38471 0
M  V30 2928 C 273.955 2.36308 1.85954 0
M  V30 2929 C 275.503 2.41856 1.98683 0
M  V30 2930 C 275.978 3.6853 2.71937 0
M  V30 2931 N 277.469 3.69387 2.79477 0
M  V30 2932 C 278.204 4.64096 3.36753 0
M  V30 2933 N 277.7 5.69155 3.95012 0
M  V30 2934 N 279.493 4.51626 3.3465 0
M  V30 2935 H 271.644 2.10118 0.310494 0
M  V30 2936 H 273.907 0.926634 0.200131 0
M  V30 2937 H 273.613 3.26388 1.31011 0
M  V30 2938 H 273.487 2.4561 2.86278 0
M  V30 2939 H 275.874 1.52249 2.52793 0
M  V30 2940 H 275.955 2.36523 0.9742 0
M  V30 2941 H 275.599 4.58499 2.18496 0
M  V30 2942 H 275.529 3.71127 3.73593 0
M  V30 2943 H 278.02 2.93438 2.38123 0
M  V30 2944 H 278.333 6.3751 4.36808 0
M  V30 2945 H 276.678 5.72937 3.93406 0
M  V30 2946 H 279.869 3.68728 2.8837 0
M  V30 2947 H 280.042 5.25614 3.7899 0
M  V30 2948 N 273.449 -1.08991 1.13837 0
M  V30 2949 C 274.697 -1.80899 0.901098 0
M  V30 2950 C 275.018 -1.86356 -0.574134 0
M  V30 2951 O 274.288 -1.35235 -1.41733 0
M  V30 2952 H 272.868 -0.669966 0.330386 0
M  V30 2953 H 275.53 -1.318 1.43578 0
M  V30 2954 H 274.626 -2.83929 1.29578 0
M  V30 2955 N 274.927 -0.932562 -1.27047 0
M  V30 2956 C 275.859 -0.392734 -2.2581 0
M  V30 2957 C 276.872 0.479241 -1.55586 0
M  V30 2958 O 278.061 0.291078 -1.76111 0
M  V30 2959 C 275.161 0.455456 -3.35826 0
M  V30 2960 C 274.334 -0.398355 -4.35582 0
M  V30 2961 C 273.393 0.387985 -5.24768 0
M  V30 2962 O 272.419 -0.206003 -5.68827 0
M  V30 2963 N 273.621 1.68664 -5.55457 0
M  V30 2964 H 276.386 -1.24173 -2.72766 0
M  V30 2965 H 273.947 -0.800511 -1.40725 0
M  V30 2966 H 275.939 0.988692 -3.92437 0
M  V30 2967 H 274.509 1.20522 -2.88432 0
M  V30 2968 H 273.729 -1.11286 -3.78165 0
M  V30 2969 H 275.017 -0.981889 -4.99236 0
M  V30 2970 H 274.415 2.19147 -5.21528 0
M  V30 2971 H 272.972 2.1663 -6.14748 0
M  V30 2972 N 276.405 1.4127 -0.698611 0
M  V30 2973 C 277.368 2.29158 -0.044132 0
M  V30 2974 C 278.368 1.44529 0.704841 0
M  V30 2975 O 279.558 1.65643 0.539276 0
M  V30 2976 C 276.69 3.27459 0.947809 0
M  V30 2977 H 277.883 2.88529 -0.817994 0
M  V30 2978 H 275.436 1.49307 -0.46228 0
M  V30 2979 H 276.171 2.73073 1.74933 0
M  V30 2980 H 275.956 3.8991 0.41385 0
M  V30 2981 H 277.446 3.93311 1.40344 0
M  V30 2982 N 277.883 0.443576 1.51229 0
M  V30 2983 C 278.846 -0.353132 2.26463 0
M  V30 2984 C 279.846 -0.944338 1.3015 0
M  V30 2985 O 281.036 -0.817813 1.5381 0
M  V30 2986 C 278.168 -1.50023 3.06114 0
M  V30 2987 H 279.361 0.3063 2.98332 0
M  V30 2988 H 276.914 0.196902 1.55055 0
M  V30 2989 H 277.649 -2.19553 2.38677 0
M  V30 2990 H 277.434 -1.08241 3.76864 0
M  V30 2991 H 278.924 -2.06296 3.63087 0
M  V30 2992 N 279.361 -1.56624 0.175154 0
M  V30 2993 C 280.777 -1.58571 -0.180966 0
M  V30 2994 C 280.977 -1.19065 -1.6256 0
M  V30 2995 O 280.033 -0.904044 -2.35761 0
M  V30 2996 C 281.346 -3.00522 0.103326 0
M  V30 2997 C 282.894 -3.12972 0.0418426 0
M  V30 2998 C 283.369 -4.57022 0.299175 0
M  V30 2999 N 284.86 -4.62541 0.247086 0
M  V30 3000 C 285.595 -5.71857 0.420318 0
M  V30 3001 N 285.091 -6.89717 0.652816 0
M  V30 3002 N 286.884 -5.60972 0.355957 0
M  V30 3003 H 279.035 -1.80589 1.11809 0
M  V30 3004 H 281.298 -0.837178 0.444788 0
M  V30 3005 H 281.004 -3.33916 1.10422 0
M  V30 3006 H 280.878 -3.72344 -0.603299 0
M  V30 3007 H 283.265 -2.79403 -0.949636 0
M  V30 3008 H 283.346 -2.43578 0.781238 0
M  V30 3009 H 282.99 -4.913 1.28788 0
M  V30 3010 H 282.92 -5.24579 -0.460876 0
M  V30 3011 H 285.411 -3.77829 0.0731895 0
M  V30 3012 H 285.724 -7.68911 0.774347 0
M  V30 3013 H 284.069 -6.91572 0.689476 0
M  V30 3014 H 287.26 -4.67773 0.174882 0
M  V30 3015 H 287.433 -6.46111 0.494388 0
M  V30 3016 N 280.839 0.0985539 -1.57292 0
M  V30 3017 C 281.749 1.13824 -2.05137 0
M  V30 3018 C 282.765 1.44076 -0.975604 0
M  V30 3019 O 283.941 1.54786 -1.28853 0
M  V30 3020 C 281.006 2.43969 -2.46333 0
M  V30 3021 C 280.067 2.2093 -3.68087 0
M  V30 3022 C 279.3 3.44869 -4.0731 0
M  V30 3023 O 279.523 4.52972 -3.46659 0
M  V30 3024 O 278.457 3.34661 -5.00285 0
M  V30 3025 H 282.283 0.761881 -2.93988 0
M  V30 3026 H 279.868 0.310818 -1.46131 0
M  V30 3027 H 281.75 3.20609 -2.73473 0
M  V30 3028 H 280.425 2.81038 -1.60621 0
M  V30 3029 H 279.332 1.42081 -3.46069 0
M  V30 3030 H 280.665 1.88755 -4.54568 0
M  V30 3031 N 282.317 1.53212 0.369288 0
M  V30 3032 C 283.563 1.69466 1.11397 0
M  V30 3033 C 283.896 0.443257 1.89074 0
M  V30 3034 O 283.171 -0.559386 1.86282 0
M  V30 3035 C 283.454 2.9422 2.07621 0
M  V30 3036 C 283.307 4.29508 1.33577 0
M  V30 3037 C 284.626 3.14565 3.07794 0
M  V30 3038 H 281.745 0.616667 0.403597 0
M  V30 3039 H 284.387 1.85845 0.395179 0
M  V30 3040 H 282.537 2.80387 2.68916 0
M  V30 3041 H 284.209 4.55147 0.750955 0
M  V30 3042 H 282.452 4.29088 0.637618 0
M  V30 3043 H 283.123 5.12926 2.03989 0
M  V30 3044 H 285.599 3.2756 2.56601 0
M  V30 3045 H 284.475 4.03297 3.72348 0
M  V30 3046 H 284.736 2.29675 3.77759 0
M  V30 3047 N 283.795 -0.628877 1.44509 0
M  V30 3048 C 285.041 -1.39045 1.47629 0
M  V30 3049 C 285.374 -1.93892 0.109343 0
M  V30 3050 O 284.649 -1.7379 -0.87334 0
M  V30 3051 C 284.932 -2.55408 2.53848 0
M  V30 3052 C 284.785 -2.05896 3.99909 0
M  V30 3053 C 286.104 -3.5759 2.56549 0
M  V30 3054 H 283.223 -0.504232 0.537512 0
M  V30 3055 H 285.865 -0.710854 1.76201 0
M  V30 3056 H 284.015 -3.13384 2.29615 0
M  V30 3057 H 285.687 -1.52734 4.35282 0
M  V30 3058 H 283.93 -1.37061 4.11578 0
M  V30 3059 H 284.601 -2.89681 4.69882 0
M  V30 3060 H 287.077 -3.09419 2.78207 0
M  V30 3061 H 285.953 -4.36527 3.32769 0
M  V30 3062 H 286.214 -4.11808 1.60832 0
M  V30 3063 N 285.273 -1.31445 -0.869486 0
M  V30 3064 C 286.221 -1.19067 -1.99814 0
M  V30 3065 C 287.215 -0.0988569 -1.69111 0
M  V30 3066 O 288.421 -0.260781 -1.78101 0
M  V30 3067 H 284.796 -0.368677 -0.655425 0
M  V30 3068 H 286.767 -2.14555 -2.07385 0
M  V30 3069 C 285.516 -0.915323 -3.35436 0
M  V30 3070 H 284.839 -1.74759 -3.59582 0
M  V30 3071 H 286.279 -0.868895 -4.15001 0
M  V30 3072 C 284.738 0.381928 -3.34728 0
M  V30 3073 O 285.268 1.39857 -3.76567 0
M  V30 3074 N 283.474 0.398633 -2.87853 0
M  V30 3075 H 283.021 -0.429186 -2.54 0
M  V30 3076 H 282.979 1.26651 -2.87762 0
M  V30 3077 N 286.751 1.08385 -1.14413 0
M  V30 3078 C 287.998 1.80776 -0.912482 0
M  V30 3079 C 288.326 1.86236 0.560934 0
M  V30 3080 O 287.581 1.33431 1.43159 0
M  V30 3081 C 287.88 3.26273 -1.45879 0
M  V30 3082 C 287.546 3.4093 -2.95089 0
M  V30 3083 C 286.208 3.44638 -3.35824 0
M  V30 3084 C 288.56 3.44591 -3.91033 0
M  V30 3085 C 285.888 3.49597 -4.71167 0
M  V30 3086 C 288.24 3.51086 -5.26233 0
M  V30 3087 C 286.904 3.53067 -5.6648 0
M  V30 3088 H 286.174 0.661507 -0.333901 0
M  V30 3089 H 288.821 1.27613 -1.42784 0
M  V30 3090 H 287.126 3.82146 -0.864376 0
M  V30 3091 H 288.823 3.80839 -1.2555 0
M  V30 3092 H 285.413 3.38736 -2.62594 0
M  V30 3093 H 289.597 3.40957 -3.60641 0
M  V30 3094 H 284.853 3.49424 -5.0171 0
M  V30 3095 H 289.027 3.52864 -6.00383 0
M  V30 3096 H 286.654 3.56662 -6.71339 0
M  V30 3097 N 288.23 0.939286 1.26551 0
M  V30 3098 C 289.479 0.581601 1.93133 0
M  V30 3099 C 289.792 -0.883224 1.74524 0
M  V30 3100 O 290.998 -1.3502 2.35546 0
M  V30 3101 C 289.454 0.989425 3.46032 0
M  V30 3102 C 289.062 2.47573 3.73379 0
M  V30 3103 C 290.806 0.703544 4.18629 0
M  V30 3104 C 288.713 2.82235 5.19709 0
M  V30 3105 H 287.643 0.213803 0.723052 0
M  V30 3106 H 290.294 1.14167 1.4366 0
M  V30 3107 H 288.676 0.357902 3.94379 0
M  V30 3108 H 289.85 3.15614 3.35744 0
M  V30 3109 H 288.165 2.73471 3.1401 0
M  V30 3110 H 290.762 0.938869 5.26393 0
M  V30 3111 H 291.105 -0.359639 4.14744 0
M  V30 3112 H 291.638 1.2947 3.76141 0
M  V30 3113 H 288.377 3.87509 5.28694 0
M  V30 3114 H 287.897 2.18854 5.58447 0
M  V30 3115 H 289.576 2.70599 5.87695 0
M  V30 3116 N 289.708 -1.40897 0.706093 0
M  V30 3117 C 290.638 -2.33418 0.0620085 0
M  V30 3118 C 291.619 -1.52385 -0.755827 0
M  V30 3119 O 292.804 -1.80886 -0.706674 0
M  V30 3120 C 289.934 -3.36293 -0.867445 0
M  V30 3121 C 288.888 -4.27716 -0.155932 0
M  V30 3122 C 288.214 -5.2105 -1.20046 0
M  V30 3123 C 289.514 -5.12944 0.984149 0
M  V30 3124 H 291.208 -2.87527 0.83477 0
M  V30 3125 H 288.754 -1.38249 0.402875 0
M  V30 3126 H 290.707 -3.99949 -1.32735 0
M  V30 3127 H 289.431 -2.80556 -1.67199 0
M  V30 3128 H 288.09 -3.65498 0.284047 0
M  V30 3129 H 287.738 -4.61624 -1.99781 0
M  V30 3130 H 287.438 -5.83056 -0.729328 0
M  V30 3131 H 288.962 -5.87584 -1.66066 0
M  V30 3132 H 290.376 -5.70109 0.604048 0
M  V30 3133 H 288.773 -5.83945 1.38304 0
M  V30 3134 H 289.843 -4.49485 1.81911 0
M  V30 3135 N 291.186 -0.45159 -1.50991 0
M  V30 3136 C 292.463 0.170707 -1.94854 0
M  V30 3137 C 292.843 1.58788 -1.39103 0
M  V30 3138 O 292.191 2.20913 -0.583921 0
M  V30 3139 C 292.401 0.133929 -3.48743 0
M  V30 3140 C 293.749 0.33248 -4.23296 0
M  V30 3141 O 294.773 0.211403 -3.55572 0
M  V30 3142 O 293.632 0.57486 -5.43468 0
M  V30 3143 H 290.726 0.122264 -0.817912 0
M  V30 3144 H 293.272 -0.510594 -1.61836 0
M  V30 3145 H 292.044 -0.856283 -3.81816 0
M  V30 3146 H 291.667 0.857529 -3.88242 0
M  V30 3147 N 292.664 1.56529 -0.183458 0
M  V30 3148 C 293.594 2.21549 0.737456 0
M  V30 3149 C 294.575 1.17489 1.23005 0
M  V30 3150 O 295.76 1.45959 1.281 0
M  V30 3151 C 292.89 2.86575 1.96194 0
M  V30 3152 C 291.844 3.96778 1.60473 0
M  V30 3153 C 291.17 4.48911 2.90487 0
M  V30 3154 C 292.47 5.15767 0.823497 0
M  V30 3155 H 294.164 2.98761 0.195453 0
M  V30 3156 H 291.71 1.43702 0.0925686 0
M  V30 3157 H 293.663 3.30739 2.61131 0
M  V30 3158 H 292.387 2.06749 2.52828 0
M  V30 3159 H 291.046 3.53286 0.978997 0
M  V30 3160 H 290.694 3.65862 3.45186 0
M  V30 3161 H 290.394 5.23265 2.67335 0
M  V30 3162 H 291.918 4.95771 3.56432 0
M  V30 3163 H 293.332 5.56549 1.37571 0
M  V30 3164 H 291.729 5.96114 0.690551 0
M  V30 3165 H 292.799 4.84574 -0.177782 0
M  V30 3166 N 294.142 -0.090211 1.57342 0
M  V30 3167 C 295.388 -0.793982 1.86611 0
M  V30 3168 C 295.721 -1.78142 0.773252 0
M  V30 3169 O 294.996 -1.93271 -0.218304 0
M  V30 3170 C 295.279 -1.51839 3.26523 0
M  V30 3171 C 295.132 -0.548609 4.46442 0
M  V30 3172 C 296.451 -2.46779 3.64401 0
M  V30 3173 H 293.57 -0.287186 0.678744 0
M  V30 3174 H 296.212 -0.0575076 1.89913 0
M  V30 3175 H 294.362 -2.14617 3.23839 0
M  V30 3176 H 296.034 0.0725513 4.61243 0
M  V30 3177 H 294.277 0.137614 4.33582 0
M  V30 3178 H 294.948 -1.09271 5.41076 0
M  V30 3179 H 297.424 -1.94089 3.68061 0
M  V30 3180 H 296.3 -2.94479 4.63221 0
M  V30 3181 H 296.561 -3.30758 2.93346 0
M  V30 3182 N 295.62 -1.53406 -0.361157 0
M  V30 3183 C 296.53 -1.83122 -1.4664 0
M  V30 3184 C 297.546 -0.719943 -1.58407 0
M  V30 3185 O 298.722 -1.01046 -1.74218 0
M  V30 3186 C 295.787 -2.01891 -2.81853 0
M  V30 3187 C 294.848 -3.25784 -2.79577 0
M  V30 3188 C 294.081 -3.43648 -4.0834 0
M  V30 3189 O 294.304 -2.65714 -5.0473 0
M  V30 3190 O 293.238 -4.37018 -4.13883 0
M  V30 3191 H 297.064 -2.7703 -1.24451 0
M  V30 3192 H 294.649 -1.38841 -0.551678 0
M  V30 3193 H 296.531 -2.15782 -3.61962 0
M  V30 3194 H 295.206 -1.11173 -3.0401 0
M  V30 3195 H 294.113 -3.17312 -1.98151 0
M  V30 3196 H 295.446 -4.16439 -2.62373 0
M  V30 3197 N 297.098 0.621204 -1.44841 0
M  V30 3198 C 298.514 0.94048 -1.28946 0
M  V30 3199 C 298.714 2.00154 -0.23249 0
M  V30 3200 O 297.77 2.49651 0.378237 0
M  V30 3201 C 299.083 1.39433 -2.66419 0
M  V30 3202 C 300.631 1.50927 -2.74208 0
M  V30 3203 C 301.106 1.99692 -4.12174 0
M  V30 3204 N 302.597 2.06947 -4.144 0
M  V30 3205 C 303.332 2.45871 -5.1801 0
M  V30 3206 N 302.828 2.83862 -6.31977 0
M  V30 3207 N 304.621 2.46092 -5.05366 0
M  V30 3208 H 296.772 -0.0803548 -2.12248 0
M  V30 3209 H 299.035 0.0266913 -0.947624 0
M  V30 3210 H 298.741 0.688925 -3.44887 0
M  V30 3211 H 298.615 2.36347 -2.93973 0
M  V30 3212 H 301.002 2.20561 -1.96053 0
M  V30 3213 H 301.083 0.523627 -2.50383 0
M  V30 3214 H 300.727 1.30649 -4.90809 0
M  V30 3215 H 300.657 2.99146 -4.33381 0
M  V30 3216 H 303.148 1.80232 -3.32152 0
M  V30 3217 H 303.461 3.12405 -7.0684 0
M  V30 3218 H 301.806 2.8159 -6.35399 0
M  V30 3219 H 304.997 2.1581 -4.15384 0
M  V30 3220 H 305.17 2.76102 -5.86235 0
M  V30 3221 N 298.576 1.31904 0.862503 0
M  V30 3222 C 299.992 1.10724 1.14945 0
M  V30 3223 C 300.192 -0.117421 2.01158 0
M  V30 3224 O 299.248 -0.804595 2.39338 0
M  V30 3225 C 300.561 2.38267 1.83437 0
M  V30 3226 C 302.109 2.43949 1.96106 0
M  V30 3227 C 302.584 3.71394 2.68013 0
M  V30 3228 N 304.075 3.72331 2.75543 0
M  V30 3229 C 304.81 4.67641 3.31812 0
M  V30 3230 N 304.306 5.73313 3.88953 0
M  V30 3231 N 306.099 4.5515 3.29841 0
M  V30 3232 H 298.25 2.10436 0.288191 0
M  V30 3233 H 300.513 0.928705 0.190292 0
M  V30 3234 H 300.219 3.27759 1.27542 0
M  V30 3235 H 300.093 2.48633 2.83657 0
M  V30 3236 H 302.48 1.54922 2.51164 0
M  V30 3237 H 302.561 2.37543 0.949059 0
M  V30 3238 H 302.205 4.60791 2.13621 0
M  V30 3239 H 302.135 3.75069 3.69636 0
M  V30 3240 H 304.626 2.95947 2.34997 0
M  V30 3241 H 304.939 6.42107 4.30022 0
M  V30 3242 H 303.284 5.77077 3.87308 0
M  V30 3243 H 306.475 3.71766 2.84443 0
M  V30 3244 H 306.648 5.29604 3.73394 0
M  V30 3245 N 300.054 -1.07777 1.14986 0
M  V30 3246 C 301.47 -1.32373 0.891596 0
M  V30 3247 C 301.67 -1.9609 -0.463788 0
M  V30 3248 O 300.726 -2.21801 -1.20667 0
M  V30 3249 C 302.039 -2.21905 2.02925 0
M  V30 3250 C 303.587 -2.35367 2.06329 0
M  V30 3251 C 304.062 -3.28245 3.19405 0
M  V30 3252 N 305.553 -3.35824 3.19024 0
M  V30 3253 C 306.288 -4.07739 4.03158 0
M  V30 3254 N 305.784 -4.82306 4.97346 0
M  V30 3255 N 307.577 -4.03635 3.91197 0
M  V30 3256 H 299.728 -0.648039 2.02273 0
M  V30 3257 H 301.991 -0.348149 0.881757 0
M  V30 3258 H 301.697 -1.82342 3.0074 0
M  V30 3259 H 301.571 -3.22407 1.95789 0
M  V30 3260 H 303.958 -2.74186 1.09116 0
M  V30 3261 H 304.039 -1.34585 2.17533 0
M  V30 3262 H 303.683 -2.90146 4.16867 0
M  V30 3263 H 303.613 -4.28971 3.05437 0
M  V30 3264 H 306.104 -2.8267 2.50811 0
M  V30 3265 H 306.417 -5.34661 5.57994 0
M  V30 3266 H 304.762 -4.81337 5.01338 0
M  V30 3267 H 307.953 -3.44491 3.16928 0
M  V30 3268 H 308.126 -4.59417 4.5699 0
M  V30 3269 N 301.532 -0.945985 -1.26051 0
M  V30 3270 C 302.76 -0.613025 -1.9761 0
M  V30 3271 C 303.175 0.813035 -1.70397 0
M  V30 3272 O 302.532 1.54274 -0.974979 0
M  V30 3273 C 302.583 -0.85159 -3.51326 0
M  V30 3274 O 302.304 -2.22157 -3.77595 0
M  V30 3275 C 303.805 -0.529831 -4.40122 0
M  V30 3276 H 301.025 -0.230593 -0.630133 0
M  V30 3277 H 303.569 -1.268 -1.60443 0
M  V30 3278 H 301.724 -0.243151 -3.86636 0
M  V30 3279 H 302.138 -2.2852 -4.721 0
M  V30 3280 H 303.612 -0.747348 -5.46917 0
M  V30 3281 H 304.089 0.535341 -4.35925 0
M  V30 3282 H 304.695 -1.11721 -4.10364 0
M  V30 3283 N 303.011 1.40521 -0.713556 0
M  V30 3284 C 303.921 2.34522 -0.0606667 0
M  V30 3285 C 304.937 1.57193 0.74607 0
M  V30 3286 O 306.113 1.89591 0.679493 0
M  V30 3287 C 303.178 3.36081 0.851491 0
M  V30 3288 C 302.239 4.29286 0.0349339 0
M  V30 3289 C 301.472 5.25994 0.903649 0
M  V30 3290 O 301.695 5.28616 2.14292 0
M  V30 3291 O 300.629 6.00918 0.343723 0
M  V30 3292 H 304.455 2.91968 -0.835972 0
M  V30 3293 H 302.04 1.41681 -0.47402 0
M  V30 3294 H 303.922 3.98369 1.37404 0
M  V30 3295 H 302.597 2.81052 1.60598 0
M  V30 3296 H 301.504 3.70289 -0.532633 0
M  V30 3297 H 302.837 4.87462 -0.681287 0
M  V30 3298 N 304.489 0.459591 1.5075 0
M  V30 3299 C 305.9 0.00171547 1.867 0
M  V30 3300 C 306.251 -1.39934 1.37525 0
M  V30 3301 O 305.376 -2.03523 0.735349 0
M  V30 3302 C 305.971 -0.00366298 3.388 0
M  V30 3303 C 304.53 -0.406026 3.74204 0
M  V30 3304 C 303.677 0.38673 2.7459 0
M  V30 3305 H 306.628 0.674413 1.43657 0
M  V30 3306 H 306.649 -0.808371 3.71814 0
M  V30 3307 H 306.161 1.01617 3.74561 0
M  V30 3308 H 304.262 -1.43063 3.4404 0
M  V30 3309 H 304.375 -0.115362 4.78961 0
M  V30 3310 H 302.739 -0.158019 2.54209 0
M  V30 3311 H 303.522 1.40585 3.13194 0
M  V30 3312 N 305.967 -1.56429 0.191757 0
M  V30 3313 C 307.215 -1.97095 -0.447006 0
M  V30 3314 C 307.536 -1.07967 -1.62383 0
M  V30 3315 O 306.806 -0.150248 -1.95323 0
M  V30 3316 H 305.386 -0.727832 -0.168135 0
M  V30 3317 H 308.048 -1.92911 0.27771 0
M  V30 3318 H 307.144 -3.01848 -0.793371 0
M  V30 3319 N 307.445 0.0818655 -1.57387 0
M  V30 3320 C 308.722 0.815343 -1.77796 0
M  V30 3321 C 309.102 1.96289 -0.77679 0
M  V30 3322 O 308.45 2.27691 0.192106 0
M  V30 3323 C 308.66 1.29765 -3.23978 0
M  V30 3324 C 310.008 1.7351 -3.8753 0
M  V30 3325 O 311.032 1.39356 -3.27808 0
M  V30 3326 O 309.891 2.36708 -4.92576 0
M  V30 3327 H 306.985 0.389914 -0.729312 0
M  V30 3328 H 309.531 0.0627213 -1.69584 0
M  V30 3329 H 308.303 0.47608 -3.88393 0
M  V30 3330 H 307.926 2.11189 -3.36875 0
M  V30 3331 N 308.923 1.53595 0.353017 0
M  V30 3332 C 310.2 1.61002 1.11075 0
M  V30 3333 C 310.58 0.425356 2.0677 0
M  V30 3334 O 309.928 -0.583267 2.2093 0
M  V30 3335 C 310.138 2.96631 1.83877 0
M  V30 3336 C 311.486 3.51653 2.37961 0
M  V30 3337 O 312.51 2.98743 1.93987 0
M  V30 3338 O 311.369 4.44177 3.18386 0
M  V30 3339 H 308.463 0.650825 0.510251 0
M  V30 3340 H 311.009 1.6594 0.35527 0
M  V30 3341 H 309.781 3.74293 1.14108 0
M  V30 3342 H 309.404 2.95242 2.66304 0
M  V30 3343 N 310.401 -0.613514 1.45168 0
M  V30 3344 C 311.331 -1.7354 1.56225 0
M  V30 3345 C 312.312 -1.64981 0.41414 0
M  V30 3346 O 313.497 -1.83472 0.636526 0
M  V30 3347 C 310.627 -3.12128 1.52295 0
M  V30 3348 C 309.581 -3.35491 2.65762 0
M  V30 3349 C 308.907 -4.74291 2.46885 0
M  V30 3350 C 310.207 -3.26325 4.0781 0
M  V30 3351 H 311.901 -1.64543 2.50132 0
M  V30 3352 H 309.447 -0.790185 1.20383 0
M  V30 3353 H 311.4 -3.90404 1.58628 0
M  V30 3354 H 310.124 -3.2195 0.549139 0
M  V30 3355 H 308.783 -2.59603 2.58847 0
M  V30 3356 H 308.431 -4.80839 1.47657 0
M  V30 3357 H 308.131 -4.9088 3.22972 0
M  V30 3358 H 309.655 -5.54775 2.55063 0
M  V30 3359 H 311.069 -3.94483 4.16 0
M  V30 3360 H 309.466 -3.54445 4.8424 0
M  V30 3361 H 310.536 -2.23855 4.30136 0
M  V30 3362 N 311.879 -1.3236 -0.855495 0
M  V30 3363 C 312.809 -1.23833 -1.97958 0
M  V30 3364 C 313.79 -0.122361 -1.69659 0
M  V30 3365 O 314.975 -0.30939 -1.9172 0
M  V30 3366 C 312.105 -0.959772 -3.33775 0
M  V30 3367 C 311.059 -2.03689 -3.76424 0
M  V30 3368 C 310.385 -1.61075 -5.09862 0
M  V30 3369 C 311.685 -3.4518 -3.9198 0
M  V30 3370 H 313.379 -2.1788 -2.0535 0
M  V30 3371 H 310.925 -1.04891 -0.986605 0
M  V30 3372 H 312.878 -0.886678 -4.11966 0
M  V30 3373 H 311.602 0.0163404 -3.26596 0
M  V30 3374 H 310.261 -2.10012 -3.00484 0
M  V30 3375 H 309.909 -0.622107 -4.99138 0
M  V30 3376 H 309.609 -2.33143 -5.39368 0
M  V30 3377 H 311.133 -1.55201 -5.90546 0
M  V30 3378 H 312.547 -3.4145 -4.60526 0
M  V30 3379 H 310.944 -4.1559 -4.32903 0
M  V30 3380 H 312.014 -3.84903 -2.94919 0
M  V30 3381 N 313.357 1.07166 -1.15556 0
M  V30 3382 C 314.582 1.84053 -0.955988 0
M  V30 3383 C 315.007 1.81586 0.490739 0
M  V30 3384 O 314.365 1.21018 1.34997 0
M  V30 3385 C 314.413 3.28957 -1.47714 0
M  V30 3386 O 313.517 4.06795 -0.677593 0
M  V30 3387 H 312.858 0.569842 -0.340847 0
M  V30 3388 H 315.388 1.35178 -1.53584 0
M  V30 3389 H 315.398 3.79788 -1.4908 0
M  V30 3390 H 314.073 3.30068 -2.53037 0
M  V30 3391 H 312.65 3.6561 -0.733721 0
M  V30 3392 N 314.835 0.952656 1.25548 0
M  V30 3393 C 315.798 0.475794 2.24207 0
M  V30 3394 C 316.798 -0.419428 1.55234 0
M  V30 3395 O 317.988 -0.216994 1.72843 0
M  V30 3396 C 315.12 -0.312814 3.39462 0
M  V30 3397 H 316.313 1.34779 2.67908 0
M  V30 3398 H 313.866 0.735739 1.37901 0
M  V30 3399 H 314.601 -1.20257 3.01179 0
M  V30 3400 H 314.386 0.329404 3.90714 0
M  V30 3401 H 315.876 -0.635986 4.12729 0
M  V30 3402 N 316.313 -1.40141 0.720998 0
M  V30 3403 C 317.243 -2.33339 0.0867621 0
M  V30 3404 C 318.224 -1.53178 -0.739622 0
M  V30 3405 O 319.409 -1.81625 -0.687449 0
M  V30 3406 C 316.539 -3.37194 -0.831728 0
M  V30 3407 C 315.493 -4.27857 -0.110558 0
M  V30 3408 C 314.819 -5.22294 -1.14513 0
M  V30 3409 C 316.119 -5.11872 1.0385 0
M  V30 3410 H 317.813 -2.86626 0.865219 0
M  V30 3411 H 315.359 -1.37814 0.417516 0
M  V30 3412 H 317.312 -4.01335 -1.28485 0
M  V30 3413 H 316.036 -2.82314 -1.64214 0
M  V30 3414 H 314.695 -3.65176 0.322797 0
M  V30 3415 H 314.343 -4.63717 -1.94874 0
M  V30 3416 H 314.043 -5.83797 -0.667446 0
M  V30 3417 H 315.567 -5.89312 -1.59824 0
M  V30 3418 H 316.981 -5.69436 0.664482 0
M  V30 3419 H 315.378 -5.82445 1.4449 0
M  V30 3420 H 316.448 -4.4753 1.86668 0
M  V30 3421 N 317.792 -0.46758 -1.50504 0
M  V30 3422 C 319.041 0.0902868 -2.01498 0
M  V30 3423 C 319.354 1.411 -1.35463 0
M  V30 3424 O 320.56 2.0536 -1.77594 0
M  V30 3425 C 319.016 0.21142 -3.59278 0
M  V30 3426 C 318.624 -1.10065 -4.34269 0
M  V30 3427 C 320.368 0.721433 -4.18325 0
M  V30 3428 C 318.275 -0.943505 -5.83825 0
M  V30 3429 H 317.205 0.037517 -0.753066 0
M  V30 3430 H 319.856 -0.601943 -1.73346 0
M  V30 3431 H 318.238 0.967352 -3.84003 0
M  V30 3432 H 319.412 -1.86726 -4.21272 0
M  V30 3433 H 317.727 -1.5415 -3.86816 0
M  V30 3434 H 320.324 0.85598 -5.27804 0
M  V30 3435 H 320.667 1.71186 -3.79475 0
M  V30 3436 H 321.2 0.0229843 -3.97793 0
M  V30 3437 H 317.939 -1.90719 -6.27141 0
M  V30 3438 H 317.459 -0.217213 -5.99407 0
M  V30 3439 H 319.138 -0.608715 -6.4413 0
M  V30 3440 N 319.27 1.56325 -0.20005 0
M  V30 3441 C 320.686 1.58839 0.155716 0
M  V30 3442 C 320.886 1.21636 1.60645 0
M  V30 3443 O 319.942 0.941437 2.34293 0
M  V30 3444 C 321.255 3.0032 -0.151124 0
M  V30 3445 C 322.803 3.12866 -0.0916284 0
M  V30 3446 C 323.278 4.56488 -0.371845 0
M  V30 3447 N 324.769 4.62089 -0.320641 0
M  V30 3448 C 325.504 5.71116 -0.511243 0
M  V30 3449 N 325 6.88592 -0.762461 0
M  V30 3450 N 326.793 5.60335 -0.445157 0
M  V30 3451 H 318.944 1.78788 -1.14668 0
M  V30 3452 H 321.207 0.829996 -0.458051 0
M  V30 3453 H 320.913 3.32117 -1.15721 0
M  V30 3454 H 320.787 3.73257 0.543986 0
M  V30 3455 H 323.174 2.80878 0.905065 0
M  V30 3456 H 323.255 2.42304 -0.81989 0
M  V30 3457 H 322.899 4.89189 -1.36588 0
M  V30 3458 H 322.829 5.25246 0.377362 0
M  V30 3459 H 325.32 3.77665 -0.13329 0
M  V30 3460 H 325.633 7.67581 -0.896576 0
M  V30 3461 H 323.978 6.90387 -0.799412 0
M  V30 3462 H 327.169 4.67436 -0.249278 0
M  V30 3463 H 327.342 6.45243 -0.597116 0
M  V30 3464 N 320.748 -0.0735177 1.57428 0
M  V30 3465 C 321.994 -0.774145 1.87443 0
M  V30 3466 C 322.327 -1.77311 0.792103 0
M  V30 3467 O 321.602 -1.93492 -0.197793 0
M  V30 3468 C 321.885 -1.48367 3.28115 0
M  V30 3469 C 321.738 -0.501227 4.46999 0
M  V30 3470 C 323.057 -2.429 3.66998 0
M  V30 3471 H 320.176 -0.279971 0.681752 0
M  V30 3472 H 322.818 -0.0373616 1.89963 0
M  V30 3473 H 320.968 -2.11171 3.26097 0
M  V30 3474 H 322.64 0.121468 4.6114 0
M  V30 3475 H 320.883 0.183593 4.33411 0
M  V30 3476 H 321.554 -1.03526 5.42205 0
M  V30 3477 H 324.03 -1.90175 3.70098 0
M  V30 3478 H 322.906 -2.89549 4.66318 0
M  V30 3479 H 323.167 -3.27628 2.96837 0
M  V30 3480 N 322.226 -1.5378 -0.344866 0
M  V30 3481 C 323.158 -1.77988 -1.44406 0
M  V30 3482 C 324.171 -0.661138 -1.48771 0
M  V30 3483 O 325.36 -0.937842 -1.51877 0
M  V30 3484 C 322.46 -1.86345 -2.8307 0
M  V30 3485 C 321.633 -3.16256 -3.0216 0
M  V30 3486 C 320.692 -3.15588 -4.21059 0
M  V30 3487 O 319.718 -3.89314 -4.15239 0
M  V30 3488 N 320.92 -2.37864 -5.29529 0
M  V30 3489 H 323.685 -2.72839 -1.24012 0
M  V30 3490 H 321.246 -1.52814 -0.534737 0
M  V30 3491 H 323.238 -1.83351 -3.60783 0
M  V30 3492 H 321.808 -0.986858 -2.96614 0
M  V30 3493 H 321.028 -3.32385 -2.11929 0
M  V30 3494 H 322.316 -4.0207 -3.11797 0
M  V30 3495 H 321.714 -1.77514 -5.37127 0
M  V30 3496 H 320.271 -2.40668 -6.05741 0
M  V30 3497 N 323.704 0.605807 -1.45491 0
M  V30 3498 C 324.981 1.36522 -1.40075 0
M  V30 3499 C 325.361 2.10976 -0.0722744 0
M  V30 3500 O 324.709 2.08007 0.945808 0
M  V30 3501 C 324.919 2.31056 -2.61561 0
M  V30 3502 C 326.267 2.93608 -3.06724 0
M  V30 3503 O 327.291 2.41376 -2.61946 0
M  V30 3504 O 326.15 3.88421 -3.84437 0
M  V30 3505 H 323.244 0.612248 -0.555951 0
M  V30 3506 H 325.79 0.628747 -1.57623 0
M  V30 3507 H 324.562 1.75311 -3.49831 0
M  V30 3508 H 324.185 3.12081 -2.46356 0
M  V30 3509 N 325.182 1.32811 0.848464 0
M  V30 3510 C 326.459 1.14334 1.58704 0
M  V30 3511 C 326.839 -0.293948 2.09043 0
M  V30 3512 O 326.187 -1.29153 1.88499 0
M  V30 3513 C 326.397 2.17626 2.72837 0
M  V30 3514 C 327.745 2.51282 3.42261 0
M  V30 3515 O 328.769 2.16219 2.83068 0
M  V30 3516 O 327.628 3.11413 4.49093 0
M  V30 3517 H 324.722 0.441601 0.699226 0
M  V30 3518 H 327.268 1.44362 0.892053 0
M  V30 3519 H 326.04 3.14211 2.3321 0
M  V30 3520 H 325.663 1.88628 3.50008 0
M  V30 3521 N 326.66 -1.06551 1.16123 0
M  V30 3522 C 327.937 -1.76097 0.85142 0
M  V30 3523 C 328.317 -2.00802 -0.6513 0
M  V30 3524 O 327.665 -1.63302 -1.59827 0
M  V30 3525 C 327.875 -3.06384 1.67122 0
M  V30 3526 C 329.223 -3.80585 1.88255 0
M  V30 3527 O 330.247 -3.16218 1.63966 0
M  V30 3528 O 329.106 -4.96212 2.2899 0
M  V30 3529 H 326.2 -0.765102 0.313923 0
M  V30 3530 H 328.746 -1.12844 1.26745 0
M  V30 3531 H 327.518 -2.84071 2.69108 0
M  V30 3532 H 327.141 -3.77371 1.25206 0
M  V30 3533 N 328.138 -0.959301 -1.25041 0
M  V30 3534 C 329.415 -0.533805 -1.88175 0
M  V30 3535 C 329.795 0.988994 -1.865 0
M  V30 3536 O 329.143 1.85677 -1.33177 0
M  V30 3537 C 329.353 -1.11575 -3.30684 0
M  V30 3538 C 330.701 -1.19548 -4.07423 0
M  V30 3539 O 331.725 -1.06765 -3.39823 0
M  V30 3540 O 330.584 -1.39656 -5.28354 0
M  V30 3541 H 327.678 -0.176772 -0.807887 0
M  V30 3542 H 330.224 -1.05303 -1.33076 0
M  V30 3543 H 328.996 -2.15884 -3.26358 0
M  V30 3544 H 328.619 -0.580059 -3.93346 0
M  V30 3545 N 329.616 1.39756 -0.72842 0
M  V30 3546 C 330.864 2.00248 -0.272946 0
M  V30 3547 C 331.185 1.58077 1.14178 0
M  V30 3548 O 330.455 0.826014 1.77634 0
M  V30 3549 H 329.035 0.740554 -0.0979247 0
M  V30 3550 H 331.697 1.70903 -0.936912 0
M  V30 3551 H 330.793 3.10495 -0.316142 0
M  V30 3552 N 331.094 0.475555 1.50254 0
M  V30 3553 C 332.51 0.12997 1.5907 0
M  V30 3554 C 332.71 -1.36385 1.48328 0
M  V30 3555 O 331.766 -2.13754 1.34407 0
M  V30 3556 C 333.079 0.684139 2.92814 0
M  V30 3557 C 334.627 0.647965 3.0622 0
M  V30 3558 C 335.102 1.17975 4.42545 0
M  V30 3559 N 336.593 1.13936 4.48969 0
M  V30 3560 C 337.328 1.52129 5.52851 0
M  V30 3561 N 336.824 1.97793 6.63965 0
M  V30 3562 N 338.617 1.43704 5.4342 0
M  V30 3563 H 330.768 1.44706 1.55479 0
M  V30 3564 H 333.031 0.598691 0.735033 0
M  V30 3565 H 332.737 1.73079 3.06164 0
M  V30 3566 H 332.611 0.130204 3.76975 0
M  V30 3567 H 334.998 -0.38979 2.92514 0
M  V30 3568 H 335.079 1.23876 2.23805 0
M  V30 3569 H 334.723 2.21616 4.57 0
M  V30 3570 H 334.653 0.565138 5.23559 0
M  V30 3571 H 337.144 0.804488 3.69238 0
M  V30 3572 H 337.457 2.25072 7.39299 0
M  V30 3573 H 335.802 2.01749 6.65073 0
M  V30 3574 H 338.993 1.07867 4.55502 0
M  V30 3575 H 339.166 1.73794 6.24259 0
M  V30 3576 N 332.573 -1.56217 0.208337 0
M  V30 3577 C 333.503 -2.22694 -0.702116 0
M  V30 3578 C 334.484 -1.19432 -1.2112 0
M  V30 3579 O 335.669 -1.47978 -1.25762 0
M  V30 3580 C 332.799 -2.8966 -1.9161 0
M  V30 3581 C 331.753 -3.9928 -1.5414 0
M  V30 3582 C 331.079 -4.53476 -2.83308 0
M  V30 3583 C 332.379 -5.17012 -0.741339 0
M  V30 3584 H 334.073 -2.99034 -0.147898 0
M  V30 3585 H 331.619 -1.43831 -0.0696951 0
M  V30 3586 H 333.572 -3.34852 -2.55836 0
M  V30 3587 H 332.296 -2.10746 -2.49507 0
M  V30 3588 H 330.955 -3.54799 -0.922668 0
M  V30 3589 H 330.603 -3.71308 -3.39322 0
M  V30 3590 H 330.303 -5.27451 -2.58976 0
M  V30 3591 H 331.827 -5.01378 -3.485 0
M  V30 3592 H 333.241 -5.58667 -1.28699 0
M  V30 3593 H 331.638 -5.97137 -0.595627 0
M  V30 3594 H 332.708 -4.8423 0.254851 0
M  V30 3595 N 334.051 0.0651679 -1.57465 0
M  V30 3596 C 335.276 0.779605 -1.9219 0
M  V30 3597 C 335.701 1.69988 -0.805333 0
M  V30 3598 O 335.059 1.79685 0.241435 0
M  V30 3599 C 335.107 1.54364 -3.2589 0
M  V30 3600 O 334.211 2.65474 -3.1559 0
M  V30 3601 H 333.552 0.212249 -0.629163 0
M  V30 3602 H 336.082 0.0314294 -2.04576 0
M  V30 3603 H 336.092 1.92146 -3.59922 0
M  V30 3604 H 334.767 0.868457 -4.06732 0
M  V30 3605 H 333.344 2.30501 -2.93128 0
M  V30 3606 N 335.529 1.53961 0.336706 0
M  V30 3607 C 336.492 1.81724 1.39675 0
M  V30 3608 C 337.492 0.688532 1.45313 0
M  V30 3609 O 338.682 0.956829 1.45569 0
M  V30 3610 C 335.814 1.96543 2.78538 0
M  V30 3611 H 337.007 2.76424 1.16318 0
M  V30 3612 H 334.56 1.45478 0.571474 0
M  V30 3613 H 335.295 1.0401 3.07168 0
M  V30 3614 H 335.08 2.78665 2.75841 0
M  V30 3615 H 336.57 2.19516 3.5525 0
M  V30 3616 N 337.007 -0.598083 1.45811 0
M  V30 3617 C 338.284 -1.35777 1.40797 0
M  V30 3618 C 338.664 -2.10935 0.083462 0
M  V30 3619 O 338.012 -2.08505 -0.934763 0
M  V30 3620 C 338.222 -2.29666 2.62783 0
M  V30 3621 C 339.57 -2.91977 3.08277 0
M  V30 3622 O 340.594 -2.39984 2.63223 0
M  V30 3623 O 339.453 -3.86376 3.86491 0
M  V30 3624 H 336.547 -0.609291 0.55919 0
M  V30 3625 H 339.093 -0.620379 1.57954 0
M  V30 3626 H 337.865 -1.73454 3.50756 0
M  V30 3627 H 337.488 -3.1077 2.48008 0
M  V30 3628 N 338.485 -1.33259 -0.841409 0
M  V30 3629 C 339.395 -1.25332 -1.98316 0
M  V30 3630 C 340.411 -0.164364 -1.73222 0
M  V30 3631 O 341.587 -0.387486 -1.97637 0
M  V30 3632 C 338.652 -0.990078 -3.32262 0
M  V30 3633 C 337.713 -2.16879 -3.70489 0
M  V30 3634 C 336.946 -1.91801 -4.98044 0
M  V30 3635 O 337.169 -0.867075 -5.63771 0
M  V30 3636 O 336.103 -2.78267 -5.33714 0
M  V30 3637 H 339.929 -2.21344 -2.07944 0
M  V30 3638 H 337.514 -1.1328 -0.974058 0
M  V30 3639 H 339.396 -0.860321 -4.12524 0
M  V30 3640 H 338.071 -0.0602155 -3.23644 0
M  V30 3641 H 336.978 -2.35407 -2.90748 0
M  V30 3642 H 338.311 -3.0819 -3.8377 0
M  V30 3643 N 339.963 1.05934 -1.16686 0
M  V30 3644 C 340.893 2.1546 -0.899949 0
M  V30 3645 C 341.874 1.69391 0.155154 0
M  V30 3646 O 343.059 1.94199 0.00648693 0
M  V30 3647 C 340.189 3.44939 -0.404241 0
M  V30 3648 C 339.143 4.04536 -1.39767 0
M  V30 3649 C 338.469 5.29268 -0.760216 0
M  V30 3650 C 339.769 4.42893 -2.76845 0
M  V30 3651 H 341.463 2.38046 -1.81588 0
M  V30 3652 H 339.009 1.14404 -0.874514 0
M  V30 3653 H 340.962 4.20901 -0.204971 0
M  V30 3654 H 339.686 3.21983 0.547206 0
M  V30 3655 H 338.345 3.30635 -1.58355 0
M  V30 3656 H 337.993 5.02611 0.197831 0
M  V30 3657 H 337.693 5.70101 -1.42332 0
M  V30 3658 H 339.217 6.07924 -0.57105 0
M  V30 3659 H 340.631 5.09921 -2.62019 0
M  V30 3660 H 339.028 4.94721 -3.39663 0
M  V30 3661 H 340.098 3.53584 -3.31823 0
M  V30 3662 N 341.441 0.965919 1.2453 0
M  V30 3663 C 342.669 0.644385 1.96609 0
M  V30 3664 C 343.084 -0.785823 1.71669 0
M  V30 3665 O 342.441 -1.52703 0.999399 0
M  V30 3666 C 342.492 0.907375 3.49927 0
M  V30 3667 O 342.213 2.28136 3.74013 0
M  V30 3668 C 343.714 0.599784 4.39224 0
M  V30 3669 H 340.934 0.240588 0.626385 0
M  V30 3670 H 343.478 1.29337 1.58405 0
M  V30 3671 H 341.633 0.304631 3.862 0
M  V30 3672 H 342.047 2.36002 4.68405 0
M  V30 3673 H 343.521 0.834263 5.45659 0
M  V30 3674 H 343.998 -0.465921 4.36722 0
M  V30 3675 H 344.604 1.18235 4.08535 0
M  V30 3676 N 342.919 -1.39368 0.735821 0
M  V30 3677 C 344.144 -2.05319 0.293052 0
M  V30 3678 C 344.569 -1.55115 -1.064 0
M  V30 3679 O 343.927 -0.695261 -1.67439 0
M  V30 3680 C 343.975 -3.59305 0.305323 0
M  V30 3681 O 343.079 -4.06299 -0.706761 0
M  V30 3682 H 342.42 -0.650529 0.13307 0
M  V30 3683 H 344.95 -1.78386 1.00197 0
M  V30 3684 H 344.96 -4.07724 0.149997 0
M  V30 3685 H 343.635 -3.95207 1.29553 0
M  V30 3686 H 342.212 -3.69292 -0.517504 0
M  V30 3687 N 344.397 -0.483516 -1.5 0
M  V30 3688 C 345.646 0.0689102 -2.01582 0
M  V30 3689 C 345.959 1.39655 -1.36952 0
M  V30 3690 O 347.165 2.03465 -1.79762 0
M  V30 3691 C 345.621 0.173302 -3.59483 0
M  V30 3692 C 345.229 -1.14665 -4.33077 0
M  V30 3693 C 346.973 0.677024 -4.19066 0
M  V30 3694 C 344.88 -1.00537 -5.82792 0
M  V30 3695 H 343.81 0.0295277 -0.753422 0
M  V30 3696 H 346.461 -0.620295 -1.72698 0
M  V30 3697 H 344.843 0.926569 -3.85007 0
M  V30 3698 H 346.017 -1.91184 -4.19268 0
M  V30 3699 H 344.332 -1.58244 -3.85159 0
M  V30 3700 H 346.929 0.799952 -5.28682 0
M  V30 3701 H 347.272 1.67151 -3.81269 0
M  V30 3702 H 347.805 -0.0192083 -3.97795 0
M  V30 3703 H 344.544 -1.9736 -6.25083 0
M  V30 3704 H 344.064 -0.280776 -5.99142 0
M  V30 3705 H 345.743 -0.677 -6.43448 0
M  V30 3706 N 345.875 1.56104 -0.216619 0
M  V30 3707 C 346.838 2.18819 0.681962 0
M  V30 3708 C 347.838 1.14866 1.12528 0
M  V30 3709 O 349.028 1.40128 1.03488 0
M  V30 3710 C 346.16 2.80756 1.93362 0
M  V30 3711 H 347.353 2.99595 0.135254 0
M  V30 3712 H 344.906 1.56265 0.0330003 0
M  V30 3713 H 345.641 2.03837 2.52232 0
M  V30 3714 H 345.426 3.56876 1.62426 0
M  V30 3715 H 346.916 3.28844 2.57393 0
M  V30 3716 N 347.353 -0.0568162 1.57498 0
M  V30 3717 C 348.283 -1.06593 2.0775 0
M  V30 3718 C 349.264 -1.39448 0.974082 0
M  V30 3719 O 350.449 -1.48815 1.24771 0
M  V30 3720 C 347.579 -2.37509 2.5339 0
M  V30 3721 C 346.533 -2.1897 3.67745 0
M  V30 3722 C 345.859 -3.55402 3.99492 0
M  V30 3723 C 347.159 -1.59859 4.97235 0
M  V30 3724 H 348.853 -0.647706 2.9231 0
M  V30 3725 H 346.399 -0.310116 1.40621 0
M  V30 3726 H 348.352 -3.08409 2.87162 0
M  V30 3727 H 347.076 -2.8134 1.65878 0
M  V30 3728 H 345.735 -1.50508 3.3428 0
M  V30 3729 H 345.383 -3.9683 3.09088 0
M  V30 3730 H 345.083 -3.43831 4.76502 0
M  V30 3731 H 346.607 -4.27708 4.35773 0
M  V30 3732 H 348.021 -2.20642 5.29141 0
M  V30 3733 H 346.418 -1.58942 5.78669 0
M  V30 3734 H 347.488 -0.561506 4.81638 0
M  V30 3735 N 348.832 -1.54138 -0.328536 0
M  V30 3736 C 350.078 -1.7236 -1.06865 0
M  V30 3737 C 350.411 -0.493231 -1.87832 0
M  V30 3738 O 349.686 0.5098 -1.877 0
M  V30 3739 C 349.969 -2.99621 -1.99747 0
M  V30 3740 C 349.822 -4.32899 -1.22143 0
M  V30 3741 C 351.141 -3.22615 -2.99345 0
M  V30 3742 H 348.26 -0.627151 -0.387105 0
M  V30 3743 H 350.902 -1.86827 -0.345767 0
M  V30 3744 H 349.052 -2.87418 -2.61387 0
M  V30 3745 H 350.724 -4.56978 -0.630017 0
M  V30 3746 H 348.967 -4.30628 -0.523628 0
M  V30 3747 H 349.638 -5.18154 -1.90318 0
M  V30 3748 H 352.114 -3.34248 -2.47826 0
M  V30 3749 H 350.99 -4.13027 -3.61524 0
M  V30 3750 H 351.251 -2.3961 -3.71536 0
M  V30 3751 N 350.31 0.590341 -1.46126 0
M  V30 3752 C 351.24 1.71032 -1.58966 0
M  V30 3753 C 352.221 1.64302 -0.440335 0
M  V30 3754 O 353.406 1.82436 -0.665634 0
M  V30 3755 C 350.536 3.09665 -1.57241 0
M  V30 3756 C 349.49 3.31221 -2.71066 0
M  V30 3757 C 348.816 4.70303 -2.54399 0
M  V30 3758 C 350.116 3.19796 -4.1295 0
M  V30 3759 H 351.81 1.60543 -2.52718 0
M  V30 3760 H 349.356 0.770933 -1.21625 0
M  V30 3761 H 351.309 3.87831 -1.64819 0
M  V30 3762 H 350.033 3.21036 -0.600289 0
M  V30 3763 H 348.692 2.55452 -2.62944 0
M  V30 3764 H 348.34 4.78429 -1.55288 0
M  V30 3765 H 348.04 4.85679 -3.30741 0
M  V30 3766 H 349.564 5.50647 -2.63857 0
M  V30 3767 H 350.978 3.87815 -4.22223 0
M  V30 3768 H 349.375 3.46696 -4.89818 0
M  V30 3769 H 350.445 2.16983 -4.33643 0
M  V30 3770 N 351.788 1.33704 0.83433 0
M  V30 3771 C 352.718 1.26967 1.95963 0
M  V30 3772 C 353.699 0.149337 1.69443 0
M  V30 3773 O 354.884 0.339852 1.91203 0
M  V30 3774 C 352.014 1.01275 3.32206 0
M  V30 3775 C 350.968 2.09652 3.73136 0
M  V30 3776 C 350.294 1.69166 5.07235 0
M  V30 3777 C 351.594 3.51372 3.86439 0
M  V30 3778 H 353.288 2.2112 2.01857 0
M  V30 3779 H 350.834 1.06447 0.969793 0
M  V30 3780 H 352.787 0.952106 4.10503 0
M  V30 3781 H 351.511 0.0356203 3.26581 0
M  V30 3782 H 350.17 2.14766 2.97104 0
M  V30 3783 H 349.818 0.701437 4.98085 0
M  V30 3784 H 349.518 2.41694 5.35591 0
M  V30 3785 H 351.042 1.64576 5.88003 0
M  V30 3786 H 352.456 3.48734 4.55036 0
M  V30 3787 H 350.853 4.22425 4.26236 0
M  V30 3788 H 351.923 3.89546 2.88759 0
M  V30 3789 N 353.266 -1.05314 1.17247 0
M  V30 3790 C 354.196 -2.1498 0.911362 0
M  V30 3791 C 355.177 -1.69471 -0.146169 0
M  V30 3792 O 356.362 -1.942 0.003812 0
M  V30 3793 C 353.492 -3.4472 0.422528 0
M  V30 3794 C 352.446 -4.03789 1.4191 0
M  V30 3795 C 351.772 -5.28858 0.788274 0
M  V30 3796 C 353.072 -4.41418 2.7919 0
M  V30 3797 H 354.766 -2.3708 1.82848 0
M  V30 3798 H 352.312 -1.13938 0.880569 0
M  V30 3799 H 354.265 -4.20787 0.227289 0
M  V30 3800 H 352.989 -3.22269 -0.530123 0
M  V30 3801 H 351.648 -3.2979 1.60106 0
M  V30 3802 H 351.296 -5.02709 -0.171173 0
M  V30 3803 H 350.996 -5.69338 1.45353 0
M  V30 3804 H 352.52 -6.07612 0.603282 0
M  V30 3805 H 353.934 -5.08524 2.64719 0
M  V30 3806 H 352.331 -4.92913 3.42282 0
M  V30 3807 H 353.401 -3.51819 3.33693 0
M  V30 3808 N 354.744 -0.972509 -1.24016 0
M  V30 3809 C 355.707 -0.511403 -2.23422 0
M  V30 3810 C 356.707 0.394679 -1.55881 0
M  V30 3811 O 357.897 0.189469 -1.73167 0
M  V30 3812 C 355.029 0.258769 -3.39916 0
M  V30 3813 H 356.222 -1.39024 -2.6573 0
M  V30 3814 H 353.775 -0.757585 -1.36713 0
M  V30 3815 H 354.51 1.1545 -3.03054 0
M  V30 3816 H 354.295 -0.391522 -3.9014 0
M  V30 3817 H 355.785 0.570244 -4.13688 0
M  V30 3818 N 356.222 1.38976 -0.743202 0
M  V30 3819 C 357.47 1.99948 -0.29417 0
M  V30 3820 C 357.791 1.59279 1.12495 0
M  V30 3821 O 357.061 0.844808 1.76748 0
M  V30 3822 H 355.641 0.739473 -0.105774 0
M  V30 3823 H 358.303 1.699 -0.954986 0
M  V30 3824 H 357.399 3.10142 -0.349056 0
M  V30 3825 N 357.7 0.491464 1.49741 0
M  V30 3826 C 358.947 -0.0564256 2.02421 0
M  V30 3827 C 359.275 -1.37872 1.37192 0
M  V30 3828 O 358.53 -1.89375 0.493508 0
M  V30 3829 C 358.829 -0.267329 3.56399 0
M  V30 3830 C 358.495 0.975775 4.40215 0
M  V30 3831 C 357.157 1.31655 4.62839 0
M  V30 3832 C 359.509 1.80251 4.89039 0
M  V30 3833 C 356.837 2.48375 5.31532 0
M  V30 3834 C 359.189 2.96116 5.59015 0
M  V30 3835 C 357.853 3.30585 5.79888 0
M  V30 3836 H 357.123 -0.0206476 0.740712 0
M  V30 3837 H 359.77 0.649686 1.80143 0
M  V30 3838 H 358.075 -1.05588 3.77304 0
M  V30 3839 H 359.772 -0.705549 3.94744 0
M  V30 3840 H 356.362 0.700315 4.2284 0
M  V30 3841 H 360.546 1.55239 4.71396 0
M  V30 3842 H 355.802 2.7533 5.45897 0
M  V30 3843 H 359.976 3.60509 5.95824 0
M  V30 3844 H 357.603 4.21132 6.32892 0
M  V30 3845 N 359.178 -1.55987 0.224894 0
M  V30 3846 C 360.088 -2.24066 -0.69511 0
M  V30 3847 C 361.104 -1.24939 -1.21104 0
M  V30 3848 O 362.28 -1.5776 -1.25195 0
M  V30 3849 C 359.345 -2.90983 -1.88493 0
M  V30 3850 C 358.406 -4.05462 -1.41064 0
M  V30 3851 C 357.639 -4.69179 -2.54375 0
M  V30 3852 O 357.862 -4.31895 -3.72589 0
M  V30 3853 O 356.796 -5.58108 -2.25386 0
M  V30 3854 H 360.622 -3.03353 -0.145149 0
M  V30 3855 H 358.207 -1.49399 -0.00569476 0
M  V30 3856 H 360.089 -3.33209 -2.57972 0
M  V30 3857 H 358.764 -2.14653 -2.42293 0
M  V30 3858 H 357.671 -3.67798 -0.683774 0
M  V30 3859 H 359.004 -4.83545 -0.918985 0
M  V30 3860 N 360.656 0.0484629 -1.57525 0
M  V30 3861 C 361.619 1.03956 -2.04269 0
M  V30 3862 C 362.619 1.30211 -0.943496 0
M  V30 3863 O 363.809 1.25539 -1.20771 0
M  V30 3864 C 360.941 2.37742 -2.44319 0
M  V30 3865 H 362.134 0.636182 -2.93075 0
M  V30 3866 H 359.687 0.294811 -1.53494 0
M  V30 3867 H 360.422 2.82866 -1.5861 0
M  V30 3868 H 360.207 2.20021 -3.24551 0
M  V30 3869 H 361.697 3.08936 -2.80978 0
M  V30 3870 N 362.134 1.5431 0.320358 0
M  V30 3871 C 363.359 1.76954 1.08175 0
M  V30 3872 C 363.784 0.518193 1.80821 0
M  V30 3873 O 363.142 -0.530411 1.73368 0
M  V30 3874 C 363.19 2.96451 2.05303 0
M  V30 3875 O 362.294 2.68221 3.13259 0
M  V30 3876 H 361.635 0.586275 0.311733 0
M  V30 3877 H 364.165 2.01342 0.363676 0
M  V30 3878 H 364.175 3.23887 2.48116 0
M  V30 3879 H 362.85 3.87196 1.51829 0
M  V30 3880 H 361.427 2.51744 2.75099 0
M  V30 3881 N 363.613 -0.582584 1.46437 0
M  V30 3882 C 364.859 -1.34278 1.51978 0
M  V30 3883 C 365.192 -1.93446 0.170973 0
M  V30 3884 O 364.467 -1.76481 -0.817608 0
M  V30 3885 C 364.75 -2.47203 2.61845 0
M  V30 3886 C 364.603 -1.93069 4.06257 0
M  V30 3887 C 365.922 -3.49247 2.67795 0
M  V30 3888 H 363.041 -0.486876 0.553282 0
M  V30 3889 H 365.683 -0.654437 1.78374 0
M  V30 3890 H 363.833 -3.0592 2.39469 0
M  V30 3891 H 365.505 -1.38808 4.3992 0
M  V30 3892 H 363.748 -1.23898 4.1573 0
M  V30 3893 H 364.419 -2.74586 4.7886 0
M  V30 3894 H 366.895 -3.00411 2.8791 0
M  V30 3895 H 365.771 -4.25719 3.46489 0
M  V30 3896 H 366.032 -4.06482 1.73852 0
M  V30 3897 N 365.091 -1.34144 -0.827227 0
M  V30 3898 C 366.316 -1.29476 -1.62021 0
M  V30 3899 C 366.741 0.129292 -1.87655 0
M  V30 3900 O 366.099 1.08967 -1.449 0
M  V30 3901 C 366.147 -2.08702 -2.94068 0
M  V30 3902 O 365.251 -1.45359 -3.85933 0
M  V30 3903 H 364.592 -0.444881 -0.492927 0
M  V30 3904 H 367.122 -1.76882 -1.02829 0
M  V30 3905 H 367.132 -2.19898 -3.43669 0
M  V30 3906 H 365.807 -3.12241 -2.74734 0
M  V30 3907 H 364.384 -1.42879 -3.44442 0
M  V30 3908 N 366.569 1.04691 -1.17803 0
M  V30 3909 C 367.499 2.14494 -0.92275 0
M  V30 3910 C 368.48 1.69546 0.137179 0
M  V30 3911 O 369.665 1.94195 -0.0141108 0
M  V30 3912 C 366.795 3.44491 -0.440803 0
M  V30 3913 C 365.749 4.03031 -1.4405 0
M  V30 3914 C 365.075 5.28432 -0.81631 0
M  V30 3915 C 366.375 4.39932 -2.81527 0
M  V30 3916 H 368.069 2.36107 -1.84103 0
M  V30 3917 H 365.615 1.1347 -0.886599 0
M  V30 3918 H 367.568 4.2066 -0.249602 0
M  V30 3919 H 366.292 3.22546 0.513025 0
M  V30 3920 H 364.951 3.28937 -1.61853 0
M  V30 3921 H 364.599 5.02792 0.144511 0
M  V30 3922 H 364.299 5.68559 -1.48371 0
M  V30 3923 H 365.823 6.07284 -0.635496 0
M  V30 3924 H 367.237 5.07113 -2.67412 0
M  V30 3925 H 365.634 4.9109 -3.44892 0
M  V30 3926 H 366.704 3.50045 -3.35554 0
M  V30 3927 N 368.047 0.979072 1.23499 0
M  V30 3928 C 369.296 0.642751 1.91185 0
M  V30 3929 C 369.609 -0.827253 1.77245 0
M  V30 3930 O 370.815 -1.27458 2.39722 0
M  V30 3931 C 369.271 1.09901 3.42709 0
M  V30 3932 C 368.879 2.59327 3.65313 0
M  V30 3933 C 370.623 0.836371 4.16179 0
M  V30 3934 C 368.53 2.98627 5.10467 0
M  V30 3935 H 367.46 0.236698 0.715884 0
M  V30 3936 H 370.111 1.1868 1.39955 0
M  V30 3937 H 368.493 0.48319 3.93041 0
M  V30 3938 H 369.667 3.26136 3.25533 0
M  V30 3939 H 367.982 2.83323 3.05151 0
M  V30 3940 H 370.579 1.10586 5.23139 0
M  V30 3941 H 370.922 -0.227509 4.15678 0
M  V30 3942 H 371.455 1.41371 3.71832 0
M  V30 3943 H 368.194 4.04133 5.16098 0
M  V30 3944 H 367.714 2.3651 5.51201 0
M  V30 3945 H 369.393 2.89159 5.78788 0
M  V30 3946 N 369.525 -1.3858 0.750561 0
M  V30 3947 C 370.773 -1.99789 0.30477 0
M  V30 3948 C 371.094 -1.59874 -1.11649 0
M  V30 3949 O 370.364 -0.85417 -1.76297 0
M  V30 3950 H 368.944 -0.738902 0.109694 0
M  V30 3951 H 371.606 -1.69391 0.963983 0
M  V30 3952 H 370.702 -3.09952 0.365499 0
M  V30 3953 N 371.003 -0.499398 -1.49478 0
M  V30 3954 C 372.252 0.0475259 -2.01644 0
M  V30 3955 C 372.565 1.38195 -1.38425 0
M  V30 3956 O 373.771 2.01547 -1.8191 0
M  V30 3957 C 372.227 0.135164 -3.59646 0
M  V30 3958 C 371.835 -1.19252 -4.31837 0
M  V30 3959 C 373.579 0.632538 -4.19761 0
M  V30 3960 C 371.486 -1.06713 -5.81693 0
M  V30 3961 H 370.416 0.0215349 -0.753692 0
M  V30 3962 H 373.067 -0.638577 -1.7203 0
M  V30 3963 H 371.449 0.885681 -3.85969 0
M  V30 3964 H 372.623 -1.9562 -4.17216 0
M  V30 3965 H 370.938 -1.62321 -3.83459 0
M  V30 3966 H 373.535 0.743833 -5.29501 0
M  V30 3967 H 373.878 1.63098 -3.83021 0
M  V30 3968 H 374.411 -0.0613987 -3.97753 0
M  V30 3969 H 371.15 -2.03979 -6.22955 0
M  V30 3970 H 370.67 -0.344307 -5.98811 0
M  V30 3971 H 372.349 -0.745208 -6.42694 0
M  V30 3972 N 372.481 1.55866 -0.233164 0
M  V30 3973 C 373.729 1.9821 0.394593 0
M  V30 3974 C 374.05 1.12234 1.59463 0
M  V30 3975 O 373.32 0.201981 1.94856 0
M  V30 3976 H 371.9 0.732034 0.148778 0
M  V30 3977 H 374.562 1.92107 -0.32876 0
M  V30 3978 H 373.658 3.03845 0.713063 0
M  V30 3979 N 373.959 -0.0401083 1.57549 0
M  V30 3980 C 375.187 -0.745196 1.93014 0
M  V30 3981 C 375.602 -1.6948 0.831984 0
M  V30 3982 O 374.959 -1.81482 -0.192463 0
M  V30 3983 C 375.01 -1.51176 3.28372 0
M  V30 3984 O 374.731 -0.600284 4.33968 0
M  V30 3985 C 376.232 -2.315 3.78051 0
M  V30 3986 H 373.452 -0.210088 0.637263 0
M  V30 3987 H 375.996 -0.000924689 2.045 0
M  V30 3988 H 374.151 -2.20801 3.18317 0
M  V30 3989 H 374.565 -1.13669 5.12035 0
M  V30 3990 H 376.039 -2.80697 4.75303 0
M  V30 3991 H 376.516 -3.12436 3.08675 0
M  V30 3992 H 377.122 -1.66971 3.91153 0
M  V30 3993 N 375.437 -1.54477 -0.31217 0
M  V30 3994 C 376.667 -1.76948 -1.06645 0
M  V30 3995 C 377.075 -0.523593 -1.81811 0
M  V30 3996 O 376.418 0.51578 -1.76311 0
M  V30 3997 C 376.48 -2.91668 -2.10166 0
M  V30 3998 C 376.144 -4.30165 -1.54296 0
M  V30 3999 C 377.141 -5.10603 -0.978793 0
M  V30 4000 C 374.826 -4.76738 -1.58196 0
M  V30 4001 C 376.82 -6.3573 -0.461048 0
M  V30 4002 C 374.507 -6.01831 -1.06034 0
M  V30 4003 C 375.505 -6.81161 -0.500844 0
M  V30 4004 O 375.193 -8.03899 0.0128958 0
M  V30 4005 H 374.925 -0.594088 -0.322546 0
M  V30 4006 H 377.479 -2.02213 -0.360441 0
M  V30 4007 H 375.709 -2.62001 -2.84416 0
M  V30 4008 H 377.398 -3.01817 -2.71406 0
M  V30 4009 H 378.164 -4.75771 -0.941651 0
M  V30 4010 H 374.043 -4.15027 -2.00683 0
M  V30 4011 H 377.587 -6.97596 -0.0236894 0
M  V30 4012 H 373.484 -6.36152 -1.09459 0
M  V30 4013 H 374.252 -8.18437 -0.101457 0
M  V30 4014 N 376.915 0.57481 -1.46744 0
M  V30 4015 C 377.845 1.69337 -1.60771 0
M  V30 4016 C 378.826 1.63825 -0.457736 0
M  V30 4017 O 380.011 1.8172 -0.684947 0
M  V30 4018 C 377.141 3.0798 -1.60517 0
M  V30 4019 C 376.095 3.28327 -2.74564 0
M  V30 4020 C 375.421 4.67578 -2.59373 0
M  V30 4021 C 376.721 3.15398 -4.16319 0
M  V30 4022 H 378.415 1.57853 -2.54407 0
M  V30 4023 H 375.961 0.75799 -1.22436 0
M  V30 4024 H 377.914 3.86061 -1.68923 0
M  V30 4025 H 376.638 3.20381 -0.634305 0
M  V30 4026 H 375.297 2.52649 -2.65639 0
M  V30 4027 H 374.945 4.76755 -1.60353 0
M  V30 4028 H 374.645 4.82144 -3.35873 0
M  V30 4029 H 376.169 5.47817 -2.69682 0
M  V30 4030 H 377.583 3.83315 -4.26313 0
M  V30 4031 H 375.98 3.41482 -4.93468 0
M  V30 4032 H 377.05 2.12372 -4.3592 0
M  V30 4033 N 378.394 1.34581 0.820102 0
M  V30 4034 C 379.324 1.29038 1.94606 0
M  V30 4035 C 380.305 0.1673 1.69275 0
M  V30 4036 O 381.49 0.360112 1.90832 0
M  V30 4037 C 378.62 1.04793 3.31113 0
M  V30 4038 C 377.574 2.13597 3.70891 0
M  V30 4039 C 376.9 1.74537 5.05412 0
M  V30 4040 C 378.2 3.55451 3.8269 0
M  V30 4041 H 379.894 2.23248 1.99501 0
M  V30 4042 H 377.44 1.0747 0.958449 0
M  V30 4043 H 379.393 0.995592 4.0947 0
M  V30 4044 H 378.117 0.0702565 3.26524 0
M  V30 4045 H 376.776 2.17905 2.9481 0
M  V30 4046 H 376.424 0.754226 4.97313 0
M  V30 4047 H 376.124 2.47361 5.32997 0
M  V30 4048 H 377.648 1.70803 5.86224 0
M  V30 4049 H 379.062 3.5354 4.51312 0
M  V30 4050 H 377.459 4.26922 4.21732 0
M  V30 4051 H 378.529 3.92587 2.84611 0
M  V30 4052 N 379.872 -1.04064 1.18357 0
M  V30 4053 C 380.802 -2.14001 0.934113 0
M  V30 4054 C 381.783 -1.69616 -0.128186 0
M  V30 4055 O 382.968 -1.94185 0.0244093 0
M  V30 4056 C 380.098 -3.44253 0.459066 0
M  V30 4057 C 379.052 -4.02261 1.46185 0
M  V30 4058 C 378.378 -5.27992 0.844322 0
M  V30 4059 C 379.678 -4.38432 2.83856 0
M  V30 4060 H 381.372 -2.35127 1.85352 0
M  V30 4061 H 378.918 -1.12998 0.892604 0
M  V30 4062 H 380.871 -4.20522 0.271907 0
M  V30 4063 H 379.595 -3.22813 -0.495912 0
M  V30 4064 H 378.254 -3.28074 1.63595 0
M  V30 4065 H 377.902 -5.02862 -0.117845 0
M  V30 4066 H 377.602 -5.67765 1.51384 0
M  V30 4067 H 379.126 -6.06938 0.667693 0
M  V30 4068 H 380.54 -5.05688 2.70098 0
M  V30 4069 H 378.937 -4.89254 3.47491 0
M  V30 4070 H 380.007 -3.4826 3.37406 0
M  V30 4071 N 381.35 -0.985608 -1.22978 0
M  V30 4072 C 382.578 -0.675582 -1.95559 0
M  V30 4073 C 382.993 0.758413 -1.72897 0
M  V30 4074 O 382.35 1.51094 -1.02357 0
M  V30 4075 C 382.401 -0.96293 -3.48439 0
M  V30 4076 O 382.122 -2.34057 -3.70336 0
M  V30 4077 C 383.623 -0.669585 -4.38214 0
M  V30 4078 H 380.843 -0.250523 -0.622478 0
M  V30 4079 H 383.387 -1.3184 -1.56328 0
M  V30 4080 H 381.542 -0.366033 -3.85667 0
M  V30 4081 H 381.956 -2.43424 -4.64591 0
M  V30 4082 H 383.43 -0.920967 -5.44263 0
M  V30 4083 H 383.907 0.396383 -4.37408 0
M  V30 4084 H 384.513 -1.2472 -4.06602 0
M  V30 4085 N 382.828 1.3818 -0.7579 0
M  V30 4086 C 383.778 2.27741 -0.108674 0
M  V30 4087 C 384.762 1.45415 0.688709 0
M  V30 4088 O 385.954 1.68108 0.553956 0
M  V30 4089 C 383.083 3.34313 0.780367 0
M  V30 4090 C 382.169 4.24093 -0.0240977 0
M  V30 4091 N 382.56 4.9451 -1.06271 0
M  V30 4092 C 380.858 4.45542 0.202049 0
M  V30 4093 C 381.559 5.60675 -1.54979 0
M  V30 4094 N 380.535 5.36684 -0.864348 0
M  V30 4095 H 384.337 2.79649 -0.904071 0
M  V30 4096 H 381.851 1.51133 -0.594346 0
M  V30 4097 H 383.848 3.97368 1.26114 0
M  V30 4098 H 382.508 2.83962 1.57467 0
M  V30 4099 H 383.519 4.97345 -1.44459 0
M  V30 4100 H 380.196 4.06091 0.96935 0
M  V30 4101 H 381.586 6.26992 -2.41517 0
M  V30 4102 N 384.306 0.507319 1.49211 0
M  V30 4103 C 385.717 0.0611118 1.866 0
M  V30 4104 C 386.068 -1.35488 1.41907 0
M  V30 4105 O 385.193 -2.0108 0.799726 0
M  V30 4106 C 385.788 0.104125 3.3864 0
M  V30 4107 C 384.347 -0.28677 3.75306 0
M  V30 4108 C 383.494 0.473893 2.73221 0
M  V30 4109 H 386.445 0.719775 1.41439 0
M  V30 4110 H 386.466 -0.689672 3.74198 0
M  V30 4111 H 385.978 1.13482 3.71138 0
M  V30 4112 H 384.079 -1.32046 3.48417 0
M  V30 4113 H 384.192 0.0370745 4.79086 0
M  V30 4114 H 382.556 -0.0770644 2.54583 0
M  V30 4115 H 383.339 1.50478 3.08563 0
M  V30 4116 N 385.784 -1.5574 0.241426 0
M  V30 4117 C 387.061 -1.90704 -0.434881 0
M  V30 4118 C 387.441 -1.16145 -1.76277 0
M  V30 4119 O 386.789 -0.277152 -2.26813 0
M  V30 4120 C 386.999 -3.43657 -0.608343 0
M  V30 4121 C 388.347 -4.14806 -0.906725 0
M  V30 4122 O 389.371 -3.49366 -0.694408 0
M  V30 4123 O 388.23 -5.30548 -1.31075 0
M  V30 4124 H 385.324 -0.793592 -0.23268 0
M  V30 4125 H 387.87 -1.67288 0.285086 0
M  V30 4126 H 386.642 -3.89927 0.327505 0
M  V30 4127 H 386.265 -3.72918 -1.37906 0
M  V30 4128 N 387.262 0.0317525 -1.57568 0
M  V30 4129 C 388.194 1.06073 -2.03178 0
M  V30 4130 C 389.207 1.32627 -0.944132 0
M  V30 4131 O 390.396 1.30162 -1.22148 0
M  V30 4132 C 387.496 2.40297 -2.38978 0
M  V30 4133 C 386.669 2.33137 -3.70089 0
M  V30 4134 C 385.728 3.49787 -3.9311 0
M  V30 4135 O 384.754 3.29403 -4.64201 0
M  V30 4136 N 385.956 4.71562 -3.38541 0
M  V30 4137 H 388.721 0.672006 -2.92069 0
M  V30 4138 H 386.282 0.219745 -1.60402 0
M  V30 4139 H 388.274 3.1705 -2.51518 0
M  V30 4140 H 386.844 2.71024 -1.55771 0
M  V30 4141 H 386.064 1.415 -3.67928 0
M  V30 4142 H 387.352 2.25493 -4.56104 0
M  V30 4143 H 386.75 4.91024 -2.80912 0
M  V30 4144 H 385.307 5.45689 -3.56464 0
M  V30 4145 N 388.74 1.54641 0.303973 0
M  V30 4146 C 389.67 1.88386 1.3796 0
M  V30 4147 C 390.651 0.742485 1.5304 0
M  V30 4148 O 391.836 0.997959 1.66597 0
M  V30 4149 C 388.966 2.12854 2.74427 0
M  V30 4150 C 387.92 3.28702 2.74115 0
M  V30 4151 C 387.246 3.38582 4.13844 0
M  V30 4152 C 388.546 4.65881 2.3612 0
M  V30 4153 H 390.24 2.78474 1.09966 0
M  V30 4154 H 387.786 1.33988 0.527556 0
M  V30 4155 H 389.739 2.35047 3.49758 0
M  V30 4156 H 388.463 1.19535 3.03939 0
M  V30 4157 H 387.122 3.06428 2.0124 0
M  V30 4158 H 386.77 2.42784 4.40528 0
M  V30 4159 H 386.47 4.16453 4.14537 0
M  V30 4160 H 387.994 3.63031 4.90959 0
M  V30 4161 H 389.408 4.87823 3.01167 0
M  V30 4162 H 387.805 5.46444 2.48031 0
M  V30 4163 H 388.875 4.66799 1.3125 0
M  V30 4164 N 390.218 -0.567019 1.47046 0
M  V30 4165 C 391.181 -1.65696 1.58359 0
M  V30 4166 C 392.181 -1.54097 0.459441 0
M  V30 4167 O 393.371 -1.58432 0.724225 0
M  V30 4168 C 390.503 -3.05197 1.51879 0
M  V30 4169 H 391.696 -1.57019 2.5551 0
M  V30 4170 H 389.249 -0.786148 1.3509 0
M  V30 4171 H 389.984 -3.19417 0.560673 0
M  V30 4172 H 389.769 -3.15025 2.33455 0
M  V30 4173 H 391.259 -3.84511 1.62913 0
M  V30 4174 N 391.696 -1.35014 -0.812953 0
M  V30 4175 C 392.626 -1.30069 -1.93919 0
M  V30 4176 C 393.607 -0.176275 -1.69184 0
M  V30 4177 O 394.792 -0.370227 -1.90638 0
M  V30 4178 C 391.922 -1.06547 -3.30552 0
M  V30 4179 C 390.876 -2.15561 -3.69753 0
M  V30 4180 C 390.202 -1.77214 -5.04479 0
M  V30 4181 C 391.502 -3.57476 -3.808 0
M  V30 4182 H 393.196 -2.24303 -1.98314 0
M  V30 4183 H 390.742 -1.07977 -0.952736 0
M  V30 4184 H 392.695 -1.01729 -4.08937 0
M  V30 4185 H 391.419 -0.0875719 -3.26483 0
M  V30 4186 H 390.078 -2.19466 -2.9365 0
M  V30 4187 H 389.726 -0.780589 -4.96906 0
M  V30 4188 H 389.426 -2.50184 -5.31678 0
M  V30 4189 H 390.95 -1.7391 -5.8531 0
M  V30 4190 H 392.364 -3.55929 -4.4943 0
M  V30 4191 H 390.761 -4.29152 -4.19462 0
M  V30 4192 H 391.831 -3.94091 -2.82525 0
M  V30 4193 N 393.175 1.03435 -1.18907 0
M  V30 4194 C 394.421 1.77005 -0.989798 0
M  V30 4195 C 394.754 1.88205 0.478816 0
M  V30 4196 O 394.029 1.39481 1.35556 0
M  V30 4197 C 394.312 3.19925 -1.65287 0
M  V30 4198 C 394.165 3.1663 -3.19477 0
M  V30 4199 C 395.484 4.18189 -1.37134 0
M  V30 4200 H 392.603 0.642538 -0.360991 0
M  V30 4201 H 395.245 1.20784 -1.46667 0
M  V30 4202 H 393.395 3.67929 -1.24741 0
M  V30 4203 H 395.067 2.76567 -3.692 0
M  V30 4204 H 393.31 2.54491 -3.51307 0
M  V30 4205 H 393.981 4.1758 -3.61013 0
M  V30 4206 H 396.457 3.78761 -1.72276 0
M  V30 4207 H 395.333 5.16394 -1.86087 0
M  V30 4208 H 395.594 4.41112 -0.295424 0
M  V30 4209 N 394.653 0.992116 1.22453 0
M  V30 4210 C 396.069 0.702713 1.43297 0
M  V30 4211 C 396.269 -0.726909 1.87932 0
M  V30 4212 O 395.325 -1.49792 2.0327 0
M  V30 4213 C 396.638 1.70762 2.47509 0
M  V30 4214 C 398.186 1.72298 2.61309 0
M  V30 4215 C 398.661 2.71649 3.68742 0
M  V30 4216 N 400.152 2.70239 3.76199 0
M  V30 4217 C 400.887 3.43778 4.58917 0
M  V30 4218 N 400.383 4.26914 5.45633 0
M  V30 4219 N 402.176 3.32487 4.5322 0
M  V30 4220 H 394.327 1.91543 0.917871 0
M  V30 4221 H 396.59 0.826031 0.465162 0
M  V30 4222 H 396.296 2.73059 2.21657 0
M  V30 4223 H 396.17 1.49985 3.46099 0
M  V30 4224 H 398.557 0.706989 2.86506 0
M  V30 4225 H 398.638 1.97143 1.62997 0
M  V30 4226 H 398.282 3.73397 3.44292 0
M  V30 4227 H 398.212 2.44074 4.66622 0
M  V30 4228 H 400.703 2.09912 3.14237 0
M  V30 4229 H 401.016 4.79855 6.05771 0
M  V30 4230 H 399.361 4.31002 5.45218 0
M  V30 4231 H 402.552 2.6698 3.84499 0
M  V30 4232 H 402.725 3.90058 5.17454 0
M  V30 4233 N 396.131 -1.37776 0.765217 0
M  V30 4234 C 397.547 -1.53297 0.444108 0
M  V30 4235 C 397.747 -1.72515 -1.04119 0
M  V30 4236 O 396.803 -1.74278 -1.82711 0
M  V30 4237 C 398.116 -2.73328 1.25349 0
M  V30 4238 C 399.664 -2.87185 1.24473 0
M  V30 4239 C 400.139 -4.10191 2.03733 0
M  V30 4240 N 401.63 -4.17291 2.01053 0
M  V30 4241 C 402.365 -5.11488 2.59166 0
M  V30 4242 N 401.861 -6.11285 3.26041 0
M  V30 4243 N 403.654 -5.03924 2.49032 0
M  V30 4244 H 395.805 -1.23552 1.72768 0
M  V30 4245 H 398.068 -0.601103 0.733062 0
M  V30 4246 H 397.774 -2.6557 2.30577 0
M  V30 4247 H 397.648 -3.66834 0.87823 0
M  V30 4248 H 400.035 -2.94418 0.20047 0
M  V30 4249 H 400.116 -1.94657 1.65959 0
M  V30 4250 H 399.76 -4.0372 3.08176 0
M  V30 4251 H 399.69 -5.01821 1.59633 0
M  V30 4252 H 402.181 -3.45825 1.5236 0
M  V30 4253 H 402.494 -6.79678 3.67774 0
M  V30 4254 H 400.839 -6.11583 3.30138 0
M  V30 4255 H 404.03 -4.24902 1.96407 0
M  V30 4256 H 404.203 -5.77152 2.94617 0
M  V30 4257 N 397.609 -0.515225 -1.4894 0
M  V30 4258 C 398.886 0.0879088 -1.95402 0
M  V30 4259 C 399.266 1.52745 -1.45712 0
M  V30 4260 O 398.614 2.18238 -0.677093 0
M  V30 4261 C 398.824 -0.0141055 -3.48997 0
M  V30 4262 C 400.172 0.152646 -4.24326 0
M  V30 4263 O 401.196 0.0604025 -3.56149 0
M  V30 4264 O 400.055 0.34384 -5.45417 0
M  V30 4265 H 397.149 0.0874636 -0.822362 0
M  V30 4266 H 399.695 -0.578775 -1.59525 0
M  V30 4267 H 398.467 -1.01745 -3.77841 0
M  V30 4268 H 398.09 0.692091 -3.9153 0
M  V30 4269 N 399.087 1.5561 -0.249682 0
M  V30 4270 C 400.498 1.84979 0.252949 0
M  V30 4271 C 400.849 1.17153 1.57384 0
M  V30 4272 O 399.974 0.450884 2.11651 0
M  V30 4273 C 400.569 3.35584 0.465732 0
M  V30 4274 C 399.128 3.65169 0.912624 0
M  V30 4275 C 398.275 2.77299 -0.00859085 0
M  V30 4276 H 401.226 1.51513 -0.47217 0
M  V30 4277 H 401.247 3.57313 1.30795 0
M  V30 4278 H 400.759 3.8492 -0.49579 0
M  V30 4279 H 398.86 3.21312 1.88652 0
M  V30 4280 H 398.973 4.72912 0.767559 0
M  V30 4281 H 397.337 2.49678 0.50327 0
M  V30 4282 H 398.12 3.29442 -0.965537 0
M  V30 4283 N 400.565 -0.0233959 1.57583 0
M  V30 4284 C 401.79 -0.728376 1.94189 0
M  V30 4285 C 402.215 -1.67793 0.850119 0
M  V30 4286 O 401.573 -1.80262 -0.19371 0
M  V30 4287 C 401.621 -1.45669 3.29868 0
M  V30 4288 O 400.725 -2.57013 3.22518 0
M  V30 4289 H 400.066 -0.195493 0.63457 0
M  V30 4290 H 402.596 0.0228214 2.04587 0
M  V30 4291 H 402.606 -1.82535 3.6489 0
M  V30 4292 H 401.281 -0.760314 4.08891 0
M  V30 4293 H 399.858 -2.22648 2.99136 0
M  V30 4294 N 402.043 -1.548 -0.295768 0
M  V30 4295 C 403.006 -1.85363 -1.34808 0
M  V30 4296 C 404.006 -0.726817 -1.43436 0
M  V30 4297 O 405.196 -0.995088 -1.42981 0
M  V30 4298 C 402.328 -2.03859 -2.73229 0
M  V30 4299 H 403.521 -2.7941 -1.08949 0
M  V30 4300 H 401.074 -1.46942 -0.532702 0
M  V30 4301 H 401.809 -1.12117 -3.04303 0
M  V30 4302 H 401.594 -2.8588 -2.68356 0
M  V30 4303 H 403.084 -2.28857 -3.49305 0
M  V30 4304 N 403.521 0.559213 -1.47345 0
M  V30 4305 C 404.451 1.67622 -1.62558 0
M  V30 4306 C 405.432 1.63331 -0.475087 0
M  V30 4307 O 406.617 1.80983 -0.704182 0
M  V30 4308 C 403.747 3.0626 -1.63774 0
M  V30 4309 C 402.701 3.25397 -2.7803 0
M  V30 4310 C 402.027 4.64801 -2.64318 0
M  V30 4311 C 403.327 3.10965 -4.19641 0
M  V30 4312 H 405.021 1.55146 -2.56067 0
M  V30 4313 H 402.567 0.744961 -1.23233 0
M  V30 4314 H 404.52 3.84247 -1.73008 0
M  V30 4315 H 403.244 3.1969 -0.66825 0
M  V30 4316 H 401.903 2.49817 -2.68304 0
M  V30 4317 H 401.551 4.75028 -1.65401 0
M  V30 4318 H 401.251 4.78555 -3.40968 0
M  V30 4319 H 402.775 5.44926 -2.75478 0
M  V30 4320 H 404.189 3.78772 -4.30354 0
M  V30 4321 H 402.586 3.36229 -4.97062 0
M  V30 4322 H 403.656 2.07736 -4.38148 0
M  V30 4323 N 404.999 1.35443 0.805782 0
M  V30 4324 C 406.41 1.25768 1.37983 0
M  V30 4325 C 406.761 -0.10958 1.95894 0
M  V30 4326 O 405.886 -1.01056 1.91355 0
M  V30 4327 C 406.481 2.27727 2.5085 0
M  V30 4328 C 405.04 2.2179 3.04115 0
M  V30 4329 C 404.187 2.13393 1.77084 0
M  V30 4330 H 407.138 1.4656 0.608752 0
M  V30 4331 H 407.159 1.90422 3.29424 0
M  V30 4332 H 406.671 3.27227 2.08671 0
M  V30 4333 H 404.772 1.25703 3.50756 0
M  V30 4334 H 404.885 3.13788 3.62042 0
M  V30 4335 H 403.249 1.59384 1.98668 0
M  V30 4336 H 404.032 3.14755 1.37056 0
M  V30 4337 N 406.477 -1.02803 1.19454 0
M  V30 4338 C 407.425 -2.13213 0.929673 0
M  V30 4339 C 408.419 -1.69011 -0.114806 0
M  V30 4340 O 409.625 -1.79967 0.0345147 0
M  V30 4341 H 406 -0.69662 0.28324 0
M  V30 4342 H 407.971 -2.32744 1.86743 0
M  V30 4343 C 406.72 -3.4429 0.485797 0
M  V30 4344 H 406.043 -3.7872 1.28105 0
M  V30 4345 H 407.483 -4.22638 0.339582 0
M  V30 4346 C 405.942 -3.27258 -0.800244 0
M  V30 4347 O 406.472 -3.55967 -1.86146 0
M  V30 4348 N 404.678 -2.80545 -0.75781 0
M  V30 4349 H 404.225 -2.57382 0.106039 0
M  V30 4350 H 404.183 -2.6953 -1.61867 0
M  V30 4351 N 407.956 -0.998596 -1.21925 0
M  V30 4352 C 408.919 -0.558679 -2.22287 0
M  V30 4353 C 409.919 0.361525 -1.56683 0
M  V30 4354 O 411.109 0.152695 -1.73529 0
M  V30 4355 C 408.241 0.18661 -3.40389 0
M  V30 4356 H 409.434 -1.4463 -2.62721 0
M  V30 4357 H 406.987 -0.786413 -1.35075 0
M  V30 4358 H 407.722 1.08996 -3.05435 0
M  V30 4359 H 407.507 -0.474188 -3.89222 0
M  V30 4360 H 408.997 0.482367 -4.14805 0
M  V30 4361 N 409.434 1.37368 -0.772513 0
M  V30 4362 C 410.68 1.99969 -0.337681 0
M  V30 4363 C 411.013 1.61184 1.08321 0
M  V30 4364 O 410.288 0.858395 1.74533 0
M  V30 4365 C 410.571 3.56858 -0.482121 0
M  V30 4366 C 410.424 4.0555 -1.94549 0
M  V30 4367 C 411.743 4.39955 0.113143 0
M  V30 4368 H 408.862 0.726464 -0.124171 0
M  V30 4369 H 411.504 1.63034 -0.975699 0
M  V30 4370 H 409.654 3.88452 0.0610361 0
M  V30 4371 H 411.326 3.84518 -2.54841 0
M  V30 4372 H 409.569 3.57715 -2.45403 0
M  V30 4373 H 410.24 5.14587 -1.9976 0
M  V30 4374 H 412.716 4.14623 -0.35031 0
M  V30 4375 H 411.592 5.48897 -0.0180514 0
M  V30 4376 H 411.853 4.25403 1.20354 0
M  V30 4377 N 410.912 0.523116 1.48665 0
M  V30 4378 C 411.822 -0.247406 2.33292 0
M  V30 4379 C 412.838 -0.945769 1.46052 0
M  V30 4380 O 414.014 -0.922253 1.79043 0
M  V30 4381 C 411.079 -1.28487 3.22012 0
M  V30 4382 C 410.14 -0.597592 4.2512 0
M  V30 4383 C 409.373 -1.58563 5.09601 0
M  V30 4384 O 409.596 -2.81763 4.95949 0
M  V30 4385 O 408.53 -1.12879 5.91221 0
M  V30 4386 H 412.356 0.445869 3.00409 0
M  V30 4387 H 409.941 0.284128 1.46673 0
M  V30 4388 H 411.823 -1.88459 3.7691 0
M  V30 4389 H 410.498 -1.96068 2.57564 0
M  V30 4390 H 409.405 0.0424407 3.74076 0
M  V30 4391 H 410.738 0.0361517 4.92187 0
M  V30 4392 N 412.39 -1.55475 0.257931 0
M  V30 4393 C 413.3 -2.2549 -0.647425 0
M  V30 4394 C 414.316 -1.2748 -1.18427 0
M  V30 4395 O 415.492 -1.6038 -1.2182 0
M  V30 4396 C 412.557 -2.94916 -1.82278 0
M  V30 4397 C 411.618 -4.08363 -1.32432 0
M  V30 4398 C 410.851 -4.74469 -2.44366 0
M  V30 4399 O 411.074 -4.39701 -3.63344 0
M  V30 4400 O 410.008 -5.62763 -2.13497 0
M  V30 4401 H 413.834 -3.03593 -0.0807707 0
M  V30 4402 H 411.419 -1.49377 0.0259962 0
M  V30 4403 H 413.301 -3.38606 -2.50846 0
M  V30 4404 H 411.976 -2.19744 -2.37685 0
M  V30 4405 H 410.883 -3.69166 -0.605605 0
M  V30 4406 H 412.216 -4.85385 -0.816211 0
M  V30 4407 N 413.868 0.0150385 -1.57593 0
M  V30 4408 C 415.117 0.702115 -1.89085 0
M  V30 4409 C 415.43 1.75764 -0.858277 0
M  V30 4410 O 416.636 2.49829 -1.0629 0
M  V30 4411 C 415.092 1.29992 -3.35604 0
M  V30 4412 C 414.7 0.280007 -4.47124 0
M  V30 4413 C 416.444 1.96606 -3.76227 0
M  V30 4414 C 414.351 0.886949 -5.84711 0
M  V30 4415 H 413.281 0.265997 -0.705522 0
M  V30 4416 H 415.932 -0.0430408 -1.8345 0
M  V30 4417 H 414.314 2.09525 -3.36029 0
M  V30 4418 H 415.488 -0.489631 -4.58191 0
M  V30 4419 H 413.803 -0.284835 -4.15425 0
M  V30 4420 H 416.4 2.42893 -4.76347 0
M  V30 4421 H 416.743 2.79024 -3.08952 0
M  V30 4422 H 417.276 1.23828 -3.78036 0
M  V30 4423 H 414.015 0.101876 -6.55421 0
M  V30 4424 H 413.535 1.6261 -5.77337 0
M  V30 4425 H 415.214 1.39011 -6.3189 0
M  V30 4426 N 415.346 1.54954 0.287554 0
M  V30 4427 C 416.276 1.89839 1.35954 0
M  V30 4428 C 417.257 0.758675 1.52244 0
M  V30 4429 O 418.442 1.01557 1.65529 0
M  V30 4430 C 415.572 2.15753 2.72154 0
M  V30 4431 C 414.526 3.3159 2.70614 0
M  V30 4432 C 413.852 3.42952 4.10229 0
M  V30 4433 C 415.152 4.68359 2.31165 0
M  V30 4434 H 416.846 2.79625 1.07007 0
M  V30 4435 H 414.392 1.3454 0.513316 0
M  V30 4436 H 416.345 2.38743 3.47246 0
M  V30 4437 H 415.069 1.22752 3.02654 0
M  V30 4438 H 413.728 3.08545 1.97979 0
M  V30 4439 H 413.376 2.47443 4.37928 0
M  V30 4440 H 413.076 4.20826 4.10097 0
M  V30 4441 H 414.6 3.68218 4.87081 0
M  V30 4442 H 416.014 4.9099 2.95976 0
M  V30 4443 H 414.411 5.49044 2.42221 0
M  V30 4444 H 415.481 4.68165 1.26291 0
M  V30 4445 N 416.824 -0.551391 1.4764 0
M  V30 4446 C 418.24 -0.877887 1.33287 0
M  V30 4447 C 418.44 -1.98817 0.327721 0
M  V30 4448 O 417.496 -2.51171 -0.258695 0
M  V30 4449 C 418.809 -1.26563 2.72768 0
M  V30 4450 C 420.357 -1.37673 2.81097 0
M  V30 4451 C 420.832 -1.79799 4.21232 0
M  V30 4452 N 422.323 -1.8694 4.23802 0
M  V30 4453 C 423.058 -2.20876 5.29151 0
M  V30 4454 N 422.554 -2.53386 6.448 0
M  V30 4455 N 424.347 -2.217 5.16532 0
M  V30 4456 H 416.498 0.18153 2.11623 0
M  V30 4457 H 418.761 0.0185514 0.947818 0
M  V30 4458 H 418.467 -0.523591 3.47781 0
M  V30 4459 H 418.341 -2.22052 3.04915 0
M  V30 4460 H 420.728 -2.10956 2.06353 0
M  V30 4461 H 420.809 -0.40357 2.52596 0
M  V30 4462 H 420.453 -1.07083 4.96483 0
M  V30 4463 H 420.383 -2.78128 4.4716 0
M  V30 4464 H 422.874 -1.64179 3.40373 0
M  V30 4465 H 423.187 -2.78325 7.20941 0
M  V30 4466 H 421.532 -2.50953 6.48111 0
M  V30 4467 H 424.723 -1.95745 4.25207 0
M  V30 4468 H 424.896 -2.47818 5.98741 0
M  V30 4469 N 418.302 -1.35869 -0.798587 0
M  V30 4470 C 419.532 -1.32529 -1.58491 0
M  V30 4471 C 419.94 0.0975405 -1.88948 0
M  V30 4472 O 419.283 1.06224 -1.49874 0
M  V30 4473 C 419.345 -2.07247 -2.9375 0
M  V30 4474 C 419.009 -3.56391 -2.86068 0
M  V30 4475 C 420.006 -4.50824 -2.58947 0
M  V30 4476 C 417.691 -3.9915 -3.04933 0
M  V30 4477 C 419.685 -5.85993 -2.5078 0
M  V30 4478 C 417.372 -5.34413 -2.96389 0
M  V30 4479 C 418.37 -6.27646 -2.69349 0
M  V30 4480 O 418.058 -7.60426 -2.60782 0
M  V30 4481 H 417.79 -0.456529 -0.498556 0
M  V30 4482 H 420.344 -1.79425 -0.999799 0
M  V30 4483 H 418.574 -1.55001 -3.54276 0
M  V30 4484 H 420.263 -1.96883 -3.54954 0
M  V30 4485 H 421.029 -4.19104 -2.44084 0
M  V30 4486 H 416.908 -3.26961 -3.24989 0
M  V30 4487 H 420.452 -6.58735 -2.29595 0
M  V30 4488 H 416.349 -5.65743 -3.10813 0
M  V30 4489 H 417.117 -7.70444 -2.76331 0
M  V30 4490 N 419.78 1.02168 -1.19998 0
M  V30 4491 C 421.029 1.75091 -1.0013 0
M  V30 4492 C 421.342 1.89923 0.467835 0
M  V30 4493 O 422.548 2.59888 0.785515 0
M  V30 4494 C 421.004 3.14892 -1.74273 0
M  V30 4495 C 420.612 3.0809 -3.25245 0
M  V30 4496 C 422.356 3.9206 -1.62755 0
M  V30 4497 C 420.263 4.42867 -3.91948 0
M  V30 4498 H 419.193 0.656394 -0.37103 0
M  V30 4499 H 421.844 1.14284 -1.43567 0
M  V30 4500 H 420.226 3.7621 -1.2362 0
M  V30 4501 H 421.4 2.5611 -3.83072 0
M  V30 4502 H 419.715 2.44416 -3.3712 0
M  V30 4503 H 422.312 4.91764 -2.09934 0
M  V30 4504 H 422.655 4.12199 -0.582894 0
M  V30 4505 H 423.188 3.37359 -2.10793 0
M  V30 4506 H 419.927 4.27931 -4.96543 0
M  V30 4507 H 419.447 4.94874 -3.3891 0
M  V30 4508 H 421.126 5.11728 -3.95909 0
M  V30 4509 N 421.258 1.00505 1.21394 0
M  V30 4510 C 422.221 0.570459 2.21987 0
M  V30 4511 C 423.221 -0.353211 1.56873 0
M  V30 4512 O 424.411 -0.14349 1.73608 0
M  V30 4513 C 421.543 -0.168555 3.40483 0
M  V30 4514 H 422.736 1.46021 2.6195 0
M  V30 4515 H 420.289 0.793565 1.34656 0
M  V30 4516 H 421.024 -1.07374 3.06009 0
M  V30 4517 H 420.809 0.494823 3.88965 0
M  V30 4518 H 422.299 -0.460362 4.15055 0
M  V30 4519 N 422.737 -1.36956 0.779787 0
M  V30 4520 C 424.148 -1.82094 0.412156 0
M  V30 4521 C 424.499 -1.64926 -1.06273 0
M  V30 4522 O 423.624 -1.16483 -1.82375 0
M  V30 4523 C 424.219 -3.3059 0.741319 0
M  V30 4524 C 422.778 -3.73974 0.426641 0
M  V30 4525 C 421.925 -2.59368 0.980987 0
M  V30 4526 H 424.876 -1.25314 0.973758 0
M  V30 4527 H 424.897 -3.80489 0.028887 0
M  V30 4528 H 424.409 -3.43054 1.81482 0
M  V30 4529 H 422.51 -3.67076 -0.639215 0
M  V30 4530 H 422.623 -4.69778 0.940515 0
M  V30 4531 H 420.987 -2.51463 0.404757 0
M  V30 4532 H 421.77 -2.74621 2.06005 0
M  V30 4533 N 424.215 -0.530993 -1.48385 0
M  V30 4534 C 425.626 -0.0907905 -1.86479 0
M  V30 4535 C 425.977 1.33213 -1.44044 0
M  V30 4536 O 425.102 1.99783 -0.831615 0
M  V30 4537 C 425.697 -0.157987 -3.38431 0
M  V30 4538 C 424.256 0.227026 -3.75715 0
M  V30 4539 C 423.403 -0.5173 -2.72432 0
M  V30 4540 H 426.354 -0.742186 -1.40276 0
M  V30 4541 H 426.375 0.630053 -3.75247 0
M  V30 4542 H 425.887 -1.19372 -3.69286 0
M  V30 4543 H 423.988 1.26486 -3.50474 0
M  V30 4544 H 424.101 -0.113288 -4.78966 0
M  V30 4545 H 422.465 0.0365527 -2.54674 0
M  V30 4546 H 423.248 -1.55368 -3.0613 0
M  V30 4547 N 425.693 1.55336 -0.266172 0
M  V30 4548 C 426.603 2.2583 0.635458 0
M  V30 4549 C 427.619 1.28106 1.17749 0
M  V30 4550 O 428.795 1.61024 1.20968 0
M  V30 4551 C 425.86 2.95879 1.80712 0
M  V30 4552 C 424.921 4.09059 1.30265 0
M  V30 4553 C 424.154 4.75759 2.41846 0
M  V30 4554 O 424.377 4.41622 3.61007 0
M  V30 4555 O 423.311 5.63888 2.1051 0
M  V30 4556 H 427.137 3.03631 0.0646693 0
M  V30 4557 H 424.722 1.49361 -0.0339177 0
M  V30 4558 H 426.604 3.39932 2.49047 0
M  V30 4559 H 425.279 2.21002 2.36516 0
M  V30 4560 H 424.186 3.69482 0.586019 0
M  V30 4561 H 425.519 4.85811 0.790458 0
M  V30 4562 N 427.171 -0.0066808 1.57599 0
M  V30 4563 C 428.399 -0.704087 1.94551 0
M  V30 4564 C 428.814 -1.67677 0.867746 0
M  V30 4565 O 428.171 -1.8185 -0.153925 0
M  V30 4566 C 428.222 -1.44177 3.31505 0
M  V30 4567 O 427.943 -0.508097 4.35144 0
M  V30 4568 C 429.444 -2.23429 3.82876 0
M  V30 4569 H 426.664 -0.196523 0.641576 0
M  V30 4570 H 429.208 0.042453 2.04456 0
M  V30 4571 H 427.363 -2.13999 3.22929 0
M  V30 4572 H 427.777 -1.02782 5.14331 0
M  V30 4573 H 429.251 -2.70552 4.8115 0
M  V30 4574 H 429.728 -3.05818 3.15233 0
M  V30 4575 H 430.334 -1.58636 3.94607 0
M  V30 4576 N 428.649 -1.55105 -0.279332 0
M  V30 4577 C 429.877 -1.7943 -1.03017 0
M  V30 4578 C 430.292 -0.564456 -1.80165 0
M  V30 4579 O 429.649 0.466326 -1.76442 0
M  V30 4580 C 429.7 -3.0155 -1.99374 0
M  V30 4581 O 429.421 -4.19784 -1.25352 0
M  V30 4582 C 430.922 -3.3843 -2.86321 0
M  V30 4583 H 428.142 -0.597882 -0.304594 0
M  V30 4584 H 430.686 -2.02105 -0.312035 0
M  V30 4585 H 428.841 -2.81019 -2.66659 0
M  V30 4586 H 429.255 -4.88781 -1.90246 0
M  V30 4587 H 430.729 -4.27066 -3.49741 0
M  V30 4588 H 431.206 -2.57549 -3.5576 0
M  V30 4589 H 431.812 -3.61197 -2.24536 0
M  V30 4590 N 430.127 0.543554 -1.4793 0
M  V30 4591 C 431.355 1.32516 -1.58894 0
M  V30 4592 C 431.77 1.87215 -0.244131 0
M  V30 4593 O 431.127 1.65709 0.764652 0
M  V30 4594 C 431.178 2.48554 -2.62494 0
M  V30 4595 O 430.899 1.96112 -3.91755 0
M  V30 4596 C 432.4 3.40572 -2.8377 0
M  V30 4597 H 429.62 0.403472 -0.536145 0
M  V30 4598 H 432.164 0.657106 -1.93655 0
M  V30 4599 H 430.319 3.1127 -2.30629 0
M  V30 4600 H 430.733 2.71967 -4.4848 0
M  V30 4601 H 432.207 4.18375 -3.60093 0
M  V30 4602 H 432.684 3.94965 -1.92092 0
M  V30 4603 H 433.29 2.8366 -3.16887 0
M  V30 4604 N 431.605 1.3629 0.791371 0
M  V30 4605 C 433.021 1.16661 1.08914 0
M  V30 4606 C 433.221 -0.0106266 2.01497 0
M  V30 4607 O 432.277 -0.676596 2.43266 0
M  V30 4608 C 433.59 2.47656 1.70549 0
M  V30 4609 C 435.138 2.54002 1.82899 0
M  V30 4610 C 435.613 3.85078 2.47949 0
M  V30 4611 N 437.104 3.86413 2.5542 0
M  V30 4612 C 437.839 4.84572 3.06557 0
M  V30 4613 N 437.335 5.93124 3.58016 0
M  V30 4614 N 439.128 4.71994 3.05251 0
M  V30 4615 H 431.279 2.11668 0.176238 0
M  V30 4616 H 433.542 0.937486 0.140796 0
M  V30 4617 H 433.248 3.34059 1.09989 0
M  V30 4618 H 433.122 2.63319 2.70079 0
M  V30 4619 H 435.509 1.68018 2.42598 0
M  V30 4620 H 435.59 2.42239 0.821808 0
M  V30 4621 H 435.234 4.71467 1.88895 0
M  V30 4622 H 435.164 3.94135 3.49235 0
M  V30 4623 H 437.655 3.07988 2.18979 0
M  V30 4624 H 437.968 6.63999 3.95381 0
M  V30 4625 H 436.313 5.96796 3.56173 0
M  V30 4626 H 439.504 3.86321 2.64336 0
M  V30 4627 H 439.677 5.48653 3.44796 0
M  V30 4628 N 433.083 -1.0153 1.20538 0
M  V30 4629 C 434.33 -1.75149 1.01633 0
M  V30 4630 C 434.658 -1.89189 -0.451399 0
M  V30 4631 O 433.913 -1.41551 -1.35136 0
M  V30 4632 C 434.212 -3.17213 1.64654 0
M  V30 4633 C 433.878 -3.23146 3.14464 0
M  V30 4634 C 432.54 -3.24472 3.55347 0
M  V30 4635 C 434.892 -3.21207 4.10458 0
M  V30 4636 C 432.22 -3.21532 4.90748 0
M  V30 4637 C 434.572 -3.19808 5.45807 0
M  V30 4638 C 433.236 -3.19439 5.86102 0
M  V30 4639 H 432.506 -0.640914 0.3719 0
M  V30 4640 H 435.153 -1.19071 1.49981 0
M  V30 4641 H 433.458 -3.76457 1.08571 0
M  V30 4642 H 435.155 -3.72871 1.4754 0
M  V30 4643 H 431.745 -3.2285 2.81897 0
M  V30 4644 H 435.929 -3.19351 3.79906 0
M  V30 4645 H 431.185 -3.19578 5.21229 0
M  V30 4646 H 435.359 -3.1726 6.19935 0
M  V30 4647 H 432.986 -3.16915 6.90991 0
M  V30 4648 N 434.561 -1.01147 -1.20859 0
M  V30 4649 C 435.524 -0.582224 -2.21682 0
M  V30 4650 C 436.524 0.344887 -1.57058 0
M  V30 4651 O 437.714 0.134281 -1.73682 0
M  V30 4652 C 434.846 0.150496 -3.40568 0
M  V30 4653 H 436.039 -1.47408 -2.61172 0
M  V30 4654 H 433.592 -0.800695 -1.34233 0
M  V30 4655 H 434.327 1.0575 -3.06574 0
M  V30 4656 H 434.112 -0.515444 -3.88697 0
M  V30 4657 H 435.602 0.438344 -4.15293 0
M  V30 4658 N 436.039 1.36541 -0.78704 0
M  V30 4659 C 437.002 2.28413 -0.189778 0
M  V30 4660 C 438.002 1.48719 0.611499 0
M  V30 4661 O 439.192 1.68737 0.432842 0
M  V30 4662 C 436.324 3.32824 0.737638 0
M  V30 4663 H 437.517 2.82743 -0.999831 0
M  V30 4664 H 435.07 1.46065 -0.556298 0
M  V30 4665 H 435.805 2.83646 1.57212 0
M  V30 4666 H 435.59 3.91752 0.165044 0
M  V30 4667 H 437.08 4.0144 1.15047 0
M  V30 4668 N 437.518 0.538854 1.48102 0
M  V30 4669 C 438.428 -0.222648 2.33541 0
M  V30 4670 C 439.444 -0.930225 1.47047 0
M  V30 4671 O 440.62 -0.903211 1.80011 0
M  V30 4672 C 437.685 -1.25064 3.23357 0
M  V30 4673 C 436.746 -0.552469 4.2573 0
M  V30 4674 C 435.979 -1.53149 5.11254 0
M  V30 4675 O 436.202 -2.76487 4.9891 0
M  V30 4676 O 435.136 -1.06602 5.92385 0
M  V30 4677 H 438.962 0.477707 2.99919 0
M  V30 4678 H 436.547 0.299669 1.46364 0
M  V30 4679 H 438.429 -1.8445 3.78888 0
M  V30 4680 H 437.104 -1.93325 2.59629 0
M  V30 4681 H 436.011 0.082114 3.7401 0
M  V30 4682 H 437.344 0.0883526 4.92121 0
M  V30 4683 N 438.996 -1.55193 0.274407 0
M  V30 4684 C 439.906 -2.26164 -0.623473 0
M  V30 4685 C 440.922 -1.28729 -1.17068 0
M  V30 4686 O 442.098 -1.61663 -1.20112 0
M  V30 4687 C 439.163 -2.96833 -1.7914 0
M  V30 4688 C 438.224 -4.09745 -1.28093 0
M  V30 4689 C 437.457 -4.77034 -2.3932 0
M  V30 4690 O 437.68 -4.4353 -3.5866 0
M  V30 4691 O 436.614 -5.64996 -2.07516 0
M  V30 4692 H 440.44 -3.03661 -0.0485661 0
M  V30 4693 H 438.025 -1.49341 0.0418382 0
M  V30 4694 H 439.907 -3.41248 -2.4724 0
M  V30 4695 H 438.582 -2.22253 -2.35341 0
M  V30 4696 H 437.489 -3.69787 -0.566416 0
M  V30 4697 H 438.822 -4.86224 -0.764683 0
M  V30 4698 N 440.474 -0.00167713 -1.576 0
M  V30 4699 C 441.72 0.683832 -1.90923 0
M  V30 4700 C 442.053 1.7333 -0.875799 0
M  V30 4701 O 441.328 1.94215 0.10525 0
M  V30 4702 C 441.611 1.32543 -3.3482 0
M  V30 4703 C 441.464 0.287387 -4.48881 0
M  V30 4704 C 442.783 2.25114 -3.78169 0
M  V30 4705 H 439.902 0.247125 -0.694333 0
M  V30 4706 H 442.544 -0.0533149 -1.89925 0
M  V30 4707 H 440.694 1.95372 -3.35801 0
M  V30 4708 H 442.366 -0.341346 -4.60035 0
M  V30 4709 H 440.609 -0.39017 -4.32042 0
M  V30 4710 H 441.28 0.775393 -5.46527 0
M  V30 4711 H 443.756 1.723 -3.7875 0
M  V30 4712 H 442.632 2.66971 -4.79602 0
M  V30 4713 H 442.893 3.13092 -3.12131 0
M  V30 4714 N 441.952 1.55251 0.271103 0
M  V30 4715 C 442.862 1.9136 1.35714 0
M  V30 4716 C 443.878 0.811075 1.5394 0
M  V30 4717 O 445.054 1.11031 1.6803 0
M  V30 4718 C 442.119 2.1798 2.69603 0
M  V30 4719 C 441.18 3.4153 2.60107 0
M  V30 4720 C 440.413 3.66871 3.8761 0
M  V30 4721 O 440.636 2.94689 4.8838 0
M  V30 4722 O 439.57 4.60405 3.87699 0
M  V30 4723 H 443.396 2.83815 1.08088 0
M  V30 4724 H 440.981 1.41821 0.469792 0
M  V30 4725 H 442.863 2.36518 3.48765 0
M  V30 4726 H 441.538 1.28708 2.97012 0
M  V30 4727 H 440.445 3.28325 1.79314 0
M  V30 4728 H 441.778 4.31027 2.37647 0
M  V30 4729 N 443.43 -0.535701 1.48216 0
M  V30 4730 C 444.679 -1.28828 1.55197 0
M  V30 4731 C 444.992 -1.94263 0.228278 0
M  V30 4732 O 446.198 -2.70927 0.176278 0
M  V30 4733 C 444.654 -2.33727 2.73678 0
M  V30 4734 C 444.262 -1.74386 4.12666 0
M  V30 4735 C 446.006 -3.1003 2.89968 0
M  V30 4736 C 443.913 -2.77192 5.22416 0
M  V30 4737 H 442.843 -0.484484 0.577747 0
M  V30 4738 H 445.494 -0.56646 1.74538 0
M  V30 4739 H 443.876 -3.08919 2.4776 0
M  V30 4740 H 445.05 -1.05421 4.48579 0
M  V30 4741 H 443.365 -1.10595 4.01445 0
M  V30 4742 H 445.962 -3.86842 3.6913 0
M  V30 4743 H 446.305 -3.65542 1.9921 0
M  V30 4744 H 446.838 -2.41952 3.15759 0
M  V30 4745 H 443.577 -2.26507 6.15122 0
M  V30 4746 H 443.097 -3.44502 4.90998 0
M  V30 4747 H 444.776 -3.40285 5.50286 0
M  V30 4748 N 444.908 -1.36708 -0.784132 0
M  V30 4749 C 446.156 -1.30972 -1.53918 0
M  V30 4750 C 446.477 0.109086 -1.94695 0
M  V30 4751 O 445.747 1.05048 -1.65353 0
M  V30 4752 H 444.327 -0.481819 -0.570841 0
M  V30 4753 H 446.989 -1.71063 -0.934002 0
M  V30 4754 H 446.085 -1.94061 -2.44431 0
M  V30 4755 N 446.386 1.0089 -1.21074 0
M  V30 4756 C 447.634 1.74262 -1.02358 0
M  V30 4757 C 447.955 1.89869 0.444393 0
M  V30 4758 O 447.225 1.44677 1.32081 0
M  V30 4759 H 445.805 0.645615 -0.375754 0
M  V30 4760 H 448.467 1.21596 -1.52317 0
M  V30 4761 H 447.563 2.74328 -1.4883 0
M  V30 4762 N 447.864 1.01787 1.20321 0
M  V30 4763 C 449.11 0.708985 1.90003 0
M  V30 4764 C 449.443 -0.759572 1.78729 0
M  V30 4765 O 448.718 -1.55198 1.17234 0
M  V30 4766 C 449.001 1.1469 3.41348 0
M  V30 4767 C 448.854 2.67586 3.61549 0
M  V30 4768 C 450.173 0.71915 4.34185 0
M  V30 4769 H 447.292 0.259034 0.689978 0
M  V30 4770 H 449.934 1.26584 1.41692 0
M  V30 4771 H 448.084 0.673128 3.82624 0
M  V30 4772 H 449.756 3.22826 3.29517 0
M  V30 4773 H 447.999 3.085 3.04976 0
M  V30 4774 H 448.67 2.93281 4.67643 0
M  V30 4775 H 451.146 1.12647 4.00562 0
M  V30 4776 H 450.022 1.05358 5.38694 0
M  V30 4777 H 450.283 -0.379111 4.40472 0
M  V30 4778 N 449.342 -1.36122 0.79427 0
M  V30 4779 C 450.305 -2.28309 0.201889 0
M  V30 4780 C 451.305 -1.49041 -0.603603 0
M  V30 4781 O 452.495 -1.68964 -0.423888 0
M  V30 4782 C 449.627 -3.3321 -0.719978 0
M  V30 4783 H 450.82 -2.82208 1.01481 0
M  V30 4784 H 448.373 -1.45768 0.564037 0
M  V30 4785 H 449.108 -2.84475 -1.55706 0
M  V30 4786 H 448.893 -3.91835 -0.144266 0
M  V30 4787 H 450.383 -4.02044 -1.12916 0
M  V30 4788 N 450.82 -0.546701 -1.47814 0
M  V30 4789 C 452.069 -0.0166497 -2.01693 0
M  V30 4790 C 452.382 1.33721 -1.42752 0
M  V30 4791 O 453.588 1.95658 -1.8823 0
M  V30 4792 C 452.044 0.0206769 -3.59894 0
M  V30 4793 C 451.652 -1.3293 -4.27824 0
M  V30 4794 C 453.396 0.498674 -4.21561 0
M  V30 4795 C 451.303 -1.25165 -5.78003 0
M  V30 4796 H 450.233 -0.0024541 -0.753996 0
M  V30 4797 H 452.884 -0.692984 -1.69912 0
M  V30 4798 H 451.266 0.76244 -3.88591 0
M  V30 4799 H 452.44 -2.08795 -4.10781 0
M  V30 4800 H 450.755 -1.74438 -3.78101 0
M  V30 4801 H 453.352 0.575 -5.31599 0
M  V30 4802 H 453.695 1.5083 -3.88016 0
M  V30 4803 H 454.228 -0.18791 -3.97356 0
M  V30 4804 H 450.967 -2.23695 -6.1615 0
M  V30 4805 H 450.487 -0.53464 -5.97412 0
M  V30 4806 H 452.166 -0.949299 -6.39998 0
M  V30 4807 N 452.299 1.55045 -0.282633 0
M  V30 4808 C 453.71 1.85473 0.213655 0
M  V30 4809 C 454.061 1.20465 1.54863 0
M  V30 4810 O 453.186 0.495676 2.10647 0
M  V30 4811 C 453.781 3.36496 0.394445 0
M  V30 4812 C 452.34 3.67022 0.834961 0
M  V30 4813 C 451.487 2.77218 -0.0674081 0
M  V30 4814 H 454.438 1.50478 -0.504202 0
M  V30 4815 H 454.459 3.60007 1.23186 0
M  V30 4816 H 453.971 3.83782 -0.577326 0
M  V30 4817 H 452.072 3.25241 1.81794 0
M  V30 4818 H 452.185 4.74433 0.667075 0
M  V30 4819 H 450.549 2.5069 0.450196 0
M  V30 4820 H 451.332 3.2732 -1.0352 0
M  V30 4821 N 453.777 0.010035 1.57597 0
M  V30 4822 C 454.709 -1.00649 2.05918 0
M  V30 4823 C 455.722 -1.30077 0.978964 0
M  V30 4824 O 456.911 -1.26878 1.25556 0
M  V30 4825 C 454.011 -2.33876 2.45265 0
M  V30 4826 C 453.184 -2.23242 3.7614 0
M  V30 4827 C 452.243 -3.39242 4.02245 0
M  V30 4828 O 451.269 -3.1698 4.72771 0
M  V30 4829 N 452.471 -4.6242 3.50924 0
M  V30 4830 H 455.236 -0.594333 2.93748 0
M  V30 4831 H 452.797 -0.17714 1.60928 0
M  V30 4832 H 454.789 -3.1027 2.59836 0
M  V30 4833 H 453.359 -2.66799 1.62902 0
M  V30 4834 H 452.579 -1.31696 3.71551 0
M  V30 4835 H 453.867 -2.13321 4.61922 0
M  V30 4836 H 453.265 -4.83404 2.93832 0
M  V30 4837 H 451.822 -5.36046 3.70807 0
M  V30 4838 N 455.255 -1.55392 -0.262866 0
M  V30 4839 C 456.485 -1.80251 -1.00961 0
M  V30 4840 C 456.893 -0.58117 -1.80053 0
M  V30 4841 O 456.236 0.459427 -1.77862 0
M  V30 4842 C 456.298 -2.98207 -2.00781 0
M  V30 4843 C 455.962 -4.34856 -1.40533 0
M  V30 4844 C 456.959 -5.13459 -0.815853 0
M  V30 4845 C 454.644 -4.8153 -1.42948 0
M  V30 4846 C 456.638 -6.36875 -0.258562 0
M  V30 4847 C 454.325 -6.04899 -0.868334 0
M  V30 4848 C 455.323 -6.8241 -0.283884 0
M  V30 4849 O 455.011 -8.03451 0.268644 0
M  V30 4850 H 454.743 -0.604049 -0.303482 0
M  V30 4851 H 457.297 -2.03257 -0.295926 0
M  V30 4852 H 455.527 -2.70917 -2.75936 0
M  V30 4853 H 457.216 -3.10299 -2.61667 0
M  V30 4854 H 457.982 -4.78526 -0.789812 0
M  V30 4855 H 453.861 -4.21201 -1.87378 0
M  V30 4856 H 457.405 -6.97318 0.198257 0
M  V30 4857 H 453.302 -6.39312 -0.891649 0
M  V30 4858 H 454.07 -8.18346 0.158974 0
M  V30 4859 N 456.733 0.527833 -1.48498 0
M  V30 4860 C 457.958 1.313 -1.60546 0
M  V30 4861 C 458.383 1.86199 -0.26672 0
M  V30 4862 O 457.741 1.64513 0.761918 0
M  V30 4863 C 457.789 2.43818 -2.65678 0
M  V30 4864 O 456.893 3.46916 -2.22987 0
M  V30 4865 H 456.234 0.388784 -0.538277 0
M  V30 4866 H 458.764 0.634896 -1.945 0
M  V30 4867 H 458.774 2.89973 -2.87018 0
M  V30 4868 H 457.449 2.03222 -3.62869 0
M  V30 4869 H 456.026 3.06864 -2.11869 0
M  V30 4870 N 458.211 1.37122 0.776871 0
M  V30 4871 C 459.439 1.3523 1.5659 0
M  V30 4872 C 459.854 -0.0635518 1.88693 0
M  V30 4873 O 459.211 -1.02394 1.51069 0
M  V30 4874 C 459.262 2.18583 2.8793 0
M  V30 4875 O 458.983 3.5465 2.57206 0
M  V30 4876 C 460.484 2.24612 3.82183 0
M  V30 4877 H 457.704 0.4634 0.485285 0
M  V30 4878 H 460.248 1.80392 0.963266 0
M  V30 4879 H 458.403 1.76943 3.4463 0
M  V30 4880 H 458.817 3.98286 3.41275 0
M  V30 4881 H 460.291 2.87267 4.71361 0
M  V30 4882 H 460.768 1.25309 4.20944 0
M  V30 4883 H 461.374 2.66543 3.31414 0
M  V30 4884 N 459.689 -1.00246 1.21608 0
M  V30 4885 C 460.935 -1.74319 1.03638 0
M  V30 4886 C 461.268 -1.89408 -0.428749 0
M  V30 4887 O 460.543 -1.43026 -1.3181 0
M  V30 4888 C 460.826 -3.15431 1.73711 0
M  V30 4889 C 460.679 -3.08049 3.27759 0
M  V30 4890 C 461.998 -4.14407 1.48173 0
M  V30 4891 H 459.117 -0.632741 0.377899 0
M  V30 4892 H 461.759 -1.16853 1.49818 0
M  V30 4893 H 459.909 -3.64493 1.34452 0
M  V30 4894 H 461.581 -2.66681 3.76403 0
M  V30 4895 H 459.824 -2.45088 3.57931 0
M  V30 4896 H 460.495 -4.07862 3.71958 0
M  V30 4897 H 462.971 -3.74061 1.82258 0
M  V30 4898 H 461.847 -5.11279 1.99713 0
M  V30 4899 H 462.108 -4.40174 0.412273 0
M  V30 4900 N 461.167 -1.02423 -1.1978 0
M  V30 4901 C 462.097 -0.62157 -2.25075 0
M  V30 4902 C 463.078 0.367148 -1.6609 0
M  V30 4903 O 464.263 0.250892 -1.92573 0
M  V30 4904 C 461.393 0.0331826 -3.47284 0
M  V30 4905 C 460.347 -0.877323 -4.18912 0
M  V30 4906 C 459.673 -0.0879296 -5.34628 0
M  V30 4907 C 460.973 -2.18892 -4.74219 0
M  V30 4908 H 462.667 -1.50179 -2.59011 0
M  V30 4909 H 460.213 -0.723547 -1.24502 0
M  V30 4910 H 462.166 0.326488 -4.20133 0
M  V30 4911 H 460.89 0.948164 -3.12534 0
M  V30 4912 H 459.549 -1.15475 -3.47938 0
M  V30 4913 H 459.197 0.828941 -4.96123 0
M  V30 4914 H 458.897 -0.694359 -5.83483 0
M  V30 4915 H 460.421 0.198743 -6.10276 0
M  V30 4916 H 461.835 -1.95746 -5.38847 0
M  V30 4917 H 460.232 -2.74686 -5.33542 0
M  V30 4918 H 461.302 -2.84674 -3.92541 0
M  V30 4919 N 462.645 1.35699 -0.801477 0
M  V30 4920 C 463.891 1.99208 -0.380022 0
M  V30 4921 C 464.224 1.63445 1.04878 0
M  V30 4922 O 463.499 0.895223 1.72673 0
M  V30 4923 C 463.782 3.55755 -0.557708 0
M  V30 4924 C 463.635 4.01332 -2.03107 0
M  V30 4925 C 464.954 4.40096 0.0197968 0
M  V30 4926 H 462.073 0.723667 -0.139552 0
M  V30 4927 H 464.715 1.60928 -1.01006 0
M  V30 4928 H 462.865 3.88494 -0.0213741 0
M  V30 4929 H 464.537 3.79026 -2.62939 0
M  V30 4930 H 462.78 3.52429 -2.52936 0
M  V30 4931 H 463.451 5.10234 -2.1063 0
M  V30 4932 H 465.927 4.13786 -0.438179 0
M  V30 4933 H 464.803 5.48735 -0.134477 0
M  V30 4934 H 465.064 4.2786 1.11303 0
M  V30 4935 N 464.123 0.554532 1.47522 0
M  V30 4936 C 465.086 -0.184174 2.28459 0
M  V30 4937 C 466.086 -0.845195 1.36796 0
M  V30 4938 O 467.276 -0.701467 1.59452 0
M  V30 4939 C 464.408 -1.26903 3.16399 0
M  V30 4940 H 465.601 0.526751 2.95238 0
M  V30 4941 H 463.154 0.311375 1.53167 0
M  V30 4942 H 463.889 -2.01244 2.54306 0
M  V30 4943 H 463.674 -0.799883 3.83854 0
M  V30 4944 H 465.164 -1.78794 3.77389 0
M  V30 4945 N 465.601 -1.54893 0.290851 0
M  V30 4946 C 466.549 -2.24579 -0.605576 0
M  V30 4947 C 467.543 -1.24824 -1.14522 0
M  V30 4948 O 468.749 -1.42706 -1.09704 0
M  V30 4949 H 465.124 -0.720946 -0.213872 0
M  V30 4950 H 467.095 -2.984 0.0048173 0
M  V30 4951 C 465.844 -2.99224 -1.77088 0
M  V30 4952 H 465.167 -3.75782 -1.36484 0
M  V30 4953 H 466.607 -3.51281 -2.3744 0
M  V30 4954 C 465.066 -2.05602 -2.66888 0
M  V30 4955 O 465.596 -1.61745 -3.67698 0
M  V30 4956 N 463.802 -1.71771 -2.34399 0
M  V30 4957 H 463.349 -2.07633 -1.52468 0
M  V30 4958 H 463.307 -1.09403 -2.94751 0
M  V30 4959 N 467.08 -0.0183926 -1.57589 0
M  V30 4960 C 468.328 0.661253 -1.90976 0
M  V30 4961 C 468.649 1.73281 -0.894353 0
M  V30 4962 O 467.919 1.9579 0.0656788 0
M  V30 4963 H 466.499 0.247233 -0.704901 0
M  V30 4964 H 469.161 -0.0636639 -1.94796 0
M  V30 4965 H 468.257 1.12083 -2.9128 0
M  V30 4966 N 468.558 1.5553 0.254621 0
M  V30 4967 C 469.521 1.88872 1.29846 0
M  V30 4968 C 470.521 0.764591 1.41459 0
M  V30 4969 O 471.711 1.03265 1.40293 0
M  V30 4970 C 468.843 2.11032 2.67728 0
M  V30 4971 H 470.036 2.82201 1.01502 0
M  V30 4972 H 467.589 1.48303 0.493556 0
M  V30 4973 H 468.324 1.20146 3.01223 0
M  V30 4974 H 468.109 2.92895 2.60682 0
M  V30 4975 H 469.599 2.38038 3.43115 0
M  V30 4976 N 470.036 -0.519951 1.48776 0
M  V30 4977 C 470.999 -1.60574 1.6355 0
M  V30 4978 C 471.999 -1.52557 0.508234 0
M  V30 4979 O 473.189 -1.56047 0.774262 0
M  V30 4980 C 470.321 -3.00211 1.61512 0
M  V30 4981 H 471.514 -1.4881 2.60376 0
M  V30 4982 H 469.067 -0.742772 1.37523 0
M  V30 4983 H 469.802 -3.17471 0.662009 0
M  V30 4984 H 469.587 -3.07439 2.43359 0
M  V30 4985 H 471.077 -3.79134 1.75064 0
M  V30 4986 N 471.514 -1.37532 -0.769588 0
M  V30 4987 C 472.462 -1.33561 -1.90432 0
M  V30 4988 C 473.456 -0.224027 -1.67912 0
M  V30 4989 O 474.662 -0.392174 -1.75676 0
M  V30 4990 H 471.037 -0.416279 -0.626271 0
M  V30 4991 H 473.008 -2.29348 -1.90899 0
M  V30 4992 C 471.757 -1.16162 -3.27722 0
M  V30 4993 H 471.08 -2.00951 -3.45628 0
M  V30 4994 H 472.52 -1.17434 -4.07413 0
M  V30 4995 C 470.979 0.132583 -3.36639 0
M  V30 4996 O 471.509 1.11539 -3.85904 0
M  V30 4997 N 469.715 0.184013 -2.90017 0
M  V30 4998 H 469.262 -0.616415 -2.50116 0
M  V30 4999 H 469.22 1.04956 -2.96364 0
M  V30 5000 N 472.992 0.995999 -1.22138 0
M  V30 5001 C 474.408 1.25917 -0.980667 0
M  V30 5002 C 474.608 1.98819 0.327604 0
M  V30 5003 O 473.664 2.29587 1.05101 0
M  V30 5004 C 474.977 2.07399 -2.17729 0
M  V30 5005 C 476.525 2.20594 -2.22052 0
M  V30 5006 C 477 3.05462 -3.41258 0
M  V30 5007 N 478.491 3.13049 -3.41401 0
M  V30 5008 C 479.226 3.78997 -4.30289 0
M  V30 5009 N 478.722 4.46899 -5.2939 0
M  V30 5010 N 480.515 3.75728 -4.18073 0
M  V30 5011 H 472.666 0.507158 -2.06256 0
M  V30 5012 H 474.929 0.28658 -0.903646 0
M  V30 5013 H 474.635 1.61191 -3.12586 0
M  V30 5014 H 474.509 3.08154 -2.17534 0
M  V30 5015 H 476.896 2.66017 -1.27745 0
M  V30 5016 H 476.977 1.1928 -2.26287 0
M  V30 5017 H 476.621 2.60739 -4.35864 0
M  V30 5018 H 476.551 4.06911 -3.34262 0
M  V30 5019 H 479.042 2.64721 -2.69688 0
M  V30 5020 H 479.355 4.94952 -5.935 0
M  V30 5021 H 477.7 4.45657 -5.33306 0
M  V30 5022 H 480.891 3.2184 -3.39907 0
M  V30 5023 H 481.064 4.26845 -4.87553 0
M  V30 5024 N 474.47 1.03057 1.19235 0
M  V30 5025 C 475.747 0.642608 1.84743 0
M  V30 5026 C 476.127 -0.878577 1.91948 0
M  V30 5027 O 475.475 -1.77597 1.43776 0
M  V30 5028 C 475.685 1.30665 3.23616 0
M  V30 5029 C 477.033 1.43098 3.9976 0
M  V30 5030 O 478.057 1.26396 3.3302 0
M  V30 5031 O 476.916 1.70223 5.19313 0
M  V30 5032 H 474.01 0.223573 0.796206 0
M  V30 5033 H 476.556 1.12883 1.26711 0
M  V30 5034 H 475.328 2.34544 3.13217 0
M  V30 5035 H 474.951 0.808405 3.89295 0
M  V30 5036 N 475.948 -1.35272 0.808662 0
M  V30 5037 C 477.359 -1.81179 0.450688 0
M  V30 5038 C 477.71 -1.67143 -1.02751 0
M  V30 5039 O 476.835 -1.20325 -1.79864 0
M  V30 5040 C 477.43 -3.28943 0.811275 0
M  V30 5041 C 475.989 -3.72985 0.505871 0
M  V30 5042 C 475.136 -2.57229 1.03578 0
M  V30 5043 H 478.087 -1.2322 1.00012 0
M  V30 5044 H 478.108 -3.80342 0.109588 0
M  V30 5045 H 477.62 -3.39127 1.88718 0
M  V30 5046 H 475.721 -3.68349 -0.561209 0
M  V30 5047 H 475.834 -4.67677 1.03995 0
M  V30 5048 H 474.198 -2.50548 0.458005 0
M  V30 5049 H 474.981 -2.7019 2.11784 0
M  V30 5050 N 477.426 -0.562348 -1.47226 0
M  V30 5051 C 478.373 0.182461 -2.30078 0
M  V30 5052 C 479.343 0.903503 -1.39377 0
M  V30 5053 O 480.528 0.898188 -1.68337 0
M  V30 5054 C 477.668 1.20322 -3.23445 0
M  V30 5055 C 476.781 0.487717 -4.29238 0
M  V30 5056 C 475.916 1.49422 -5.09752 0
M  V30 5057 C 474.955 0.763976 -6.07314 0
M  V30 5058 N 474.092 1.71755 -6.80768 0
M  V30 5059 H 478.932 -0.530169 -2.93246 0
M  V30 5060 H 476.469 -0.273276 -1.44539 0
M  V30 5061 H 478.427 1.80768 -3.76004 0
M  V30 5062 H 477.057 1.88382 -2.6213 0
M  V30 5063 H 476.109 -0.231374 -3.79696 0
M  V30 5064 H 477.421 -0.0841003 -4.98729 0
M  V30 5065 H 476.575 2.17206 -5.66486 0
M  V30 5066 H 475.314 2.09995 -4.40174 0
M  V30 5067 H 474.319 0.0722344 -5.49753 0
M  V30 5068 H 475.544 0.16391 -6.78902 0
M  V30 5069 H 473.49 2.31177 -6.13916 0
M  V30 5070 H 473.407 1.19802 -7.46447 0
M  V30 5071 H 474.675 2.38638 -7.42073 0
M  V30 5072 N 478.904 1.54736 -0.299062 0
M  V30 5073 C 479.836 2.20891 0.61153 0
M  V30 5074 C 480.849 1.20104 1.09904 0
M  V30 5075 O 482.038 1.46707 1.01683 0
M  V30 5076 C 479.138 2.84018 1.84897 0
M  V30 5077 C 478.311 4.10719 1.50428 0
M  V30 5078 C 477.37 4.57667 2.59667 0
M  V30 5079 O 476.396 5.2291 2.24842 0
M  V30 5080 N 477.598 4.29821 3.90172 0
M  V30 5081 H 480.363 2.99666 0.0452001 0
M  V30 5082 H 477.924 1.61446 -0.121178 0
M  V30 5083 H 479.916 3.1236 2.5732 0
M  V30 5084 H 478.486 2.09095 2.32375 0
M  V30 5085 H 477.706 3.89408 0.612781 0
M  V30 5086 H 478.994 4.93223 1.24934 0
M  V30 5087 H 478.392 3.77549 4.21276 0
M  V30 5088 H 476.949 4.62877 4.58899 0
M  V30 5089 N 480.382 0.0267497 1.57577 0
M  V30 5090 C 481.629 -0.652404 1.91703 0
M  V30 5091 C 481.957 -1.72271 0.902936 0
M  V30 5092 O 481.212 -1.955 -0.0884843 0
M  V30 5093 C 481.511 -1.30914 3.3256 0
M  V30 5094 C 481.177 -0.369441 4.49384 0
M  V30 5095 C 479.839 -0.110791 4.81072 0
M  V30 5096 C 482.191 0.275971 5.20469 0
M  V30 5097 C 479.519 0.801116 5.81205 0
M  V30 5098 C 481.871 1.17592 6.21575 0
M  V30 5099 C 480.535 1.44348 6.51705 0
M  V30 5100 H 479.805 -0.238732 0.70149 0
M  V30 5101 H 482.452 0.0880091 1.91298 0
M  V30 5102 H 480.757 -2.12425 3.29216 0
M  V30 5103 H 482.454 -1.84115 3.56234 0
M  V30 5104 H 479.044 -0.581211 4.24641 0
M  V30 5105 H 483.228 0.0892 4.9622 0
M  V30 5106 H 478.484 1.01614 6.02897 0
M  V30 5107 H 482.658 1.68223 6.75777 0
M  V30 5108 H 480.285 2.15176 7.29111 0
M  V30 5109 N 481.861 -1.55662 -0.24637 0
M  V30 5110 C 483.272 -1.67953 -0.81539 0
M  V30 5111 C 483.623 -0.624302 -1.86002 0
M  V30 5112 O 482.748 0.229328 -2.15181 0
M  V30 5113 C 483.343 -3.04484 -1.48576 0
M  V30 5114 C 481.902 -3.18713 -2.00248 0
M  V30 5115 C 481.049 -2.6383 -0.853766 0
M  V30 5116 H 484 -1.58685 -0.0221692 0
M  V30 5117 H 484.021 -2.98959 -2.3538 0
M  V30 5118 H 483.533 -3.81264 -0.725222 0
M  V30 5119 H 481.634 -2.46757 -2.79181 0
M  V30 5120 H 481.747 -4.25628 -2.1995 0
M  V30 5121 H 480.111 -2.21667 -1.25442 0
M  V30 5122 H 480.894 -3.43135 -0.106302 0
M  V30 5123 N 483.339 0.512053 -1.4905 0
M  V30 5124 C 484.616 1.27337 -1.48474 0
M  V30 5125 C 484.996 2.1009 -0.206301 0
M  V30 5126 O 484.344 2.136 0.811609 0
M  V30 5127 C 484.554 2.13954 -2.75726 0
M  V30 5128 C 485.902 2.73507 -3.24776 0
M  V30 5129 O 486.926 2.24229 -2.76767 0
M  V30 5130 O 485.785 3.63186 -4.08361 0
M  V30 5131 H 482.879 0.575652 -0.593762 0
M  V30 5132 H 485.425 0.527232 -1.61302 0
M  V30 5133 H 484.197 1.52709 -3.60272 0
M  V30 5134 H 483.82 2.95782 -2.65705 0
M  V30 5135 N 484.817 1.37938 0.762283 0
M  V30 5136 C 486.228 1.30094 1.33912 0
M  V30 5137 C 486.579 -0.0472026 1.96143 0
M  V30 5138 O 485.704 -0.94917 1.94473 0
M  V30 5139 C 486.299 2.35592 2.43478 0
M  V30 5140 C 484.858 2.31353 2.96905 0
M  V30 5141 C 484.005 2.18919 1.70205 0
M  V30 5142 H 486.956 1.48423 0.561816 0
M  V30 5143 H 486.977 2.00806 3.23199 0
M  V30 5144 H 486.489 3.33701 1.98155 0
M  V30 5145 H 484.59 1.36799 3.46579 0
M  V30 5146 H 484.703 3.25147 3.51875 0
M  V30 5147 H 483.067 1.65624 1.93496 0
M  V30 5148 H 483.85 3.18956 1.26973 0
M  V30 5149 N 486.295 -0.989507 1.22664 0
M  V30 5150 C 487.245 -2.06478 0.967005 0
M  V30 5151 C 488.229 -1.60682 -0.0836374 0
M  V30 5152 O 489.421 -1.76541 0.127322 0
M  V30 5153 C 486.55 -3.38861 0.550313 0
M  V30 5154 C 485.636 -3.9128 1.63587 0
M  V30 5155 N 486.027 -4.16884 2.86429 0
M  V30 5156 C 484.325 -4.1972 1.50834 0
M  V30 5157 C 485.026 -4.5954 3.56648 0
M  V30 5158 N 484.002 -4.63434 2.84131 0
M  V30 5159 H 487.804 -2.24219 1.90008 0
M  V30 5160 H 485.318 -1.17153 1.12467 0
M  V30 5161 H 487.315 -4.15465 0.345612 0
M  V30 5162 H 485.975 -3.22518 -0.375822 0
M  V30 5163 H 486.986 -4.04976 3.22823 0
M  V30 5164 H 483.663 -4.1243 0.648643 0
M  V30 5165 H 485.053 -4.87944 4.61909 0
M  V30 5166 N 487.773 -1.03688 -1.18687 0
M  V30 5167 C 489.189 -0.755413 -1.4059 0
M  V30 5168 C 489.389 0.656659 -1.905 0
M  V30 5169 O 488.445 1.42144 -2.08689 0
M  V30 5170 C 489.758 -1.7983 -2.41001 0
M  V30 5171 C 491.306 -1.81877 -2.54735 0
M  V30 5172 C 491.781 -2.85148 -3.58406 0
M  V30 5173 N 493.272 -2.84015 -3.6591 0
M  V30 5174 C 494.007 -3.60573 -4.45841 0
M  V30 5175 N 493.503 -4.46871 -5.29413 0
M  V30 5176 N 495.296 -3.49079 -4.40568 0
M  V30 5177 H 487.447 -1.94818 -0.846148 0
M  V30 5178 H 489.71 -0.842727 -0.434184 0
M  V30 5179 H 489.416 -2.81097 -2.1137 0
M  V30 5180 H 489.29 -1.62727 -3.40294 0
M  V30 5181 H 491.677 -0.812836 -2.83685 0
M  V30 5182 H 491.758 -2.03057 -1.55568 0
M  V30 5183 H 491.402 -3.85918 -3.30197 0
M  V30 5184 H 491.332 -2.61224 -4.57241 0
M  V30 5185 H 493.823 -2.21431 -3.0623 0
M  V30 5186 H 494.136 -5.02007 -5.87545 0
M  V30 5187 H 492.481 -4.5094 -5.28846 0
M  V30 5188 H 495.672 -2.81066 -3.74325 0
M  V30 5189 H 495.845 -4.08994 -5.02621 0
M  V30 5190 N 489.251 1.34841 -0.815825 0
M  V30 5191 C 490.498 1.98499 -0.400535 0
M  V30 5192 C 490.826 1.64699 1.03463 0
M  V30 5193 O 490.081 0.907006 1.73412 0
M  V30 5194 C 490.38 3.53273 -0.541541 0
M  V30 5195 C 490.046 4.06966 -1.94138 0
M  V30 5196 C 488.708 4.21341 -2.32433 0
M  V30 5197 C 491.06 4.35933 -2.85677 0
M  V30 5198 C 488.388 4.62007 -3.61617 0
M  V30 5199 C 490.74 4.78042 -4.14317 0
M  V30 5200 C 489.404 4.90622 -4.52599 0
M  V30 5201 H 488.674 0.72636 -0.146566 0
M  V30 5202 H 491.321 1.60902 -1.0384 0
M  V30 5203 H 489.626 3.91387 0.179741 0
M  V30 5204 H 491.323 4.00497 -0.20085 0
M  V30 5205 H 487.913 3.96235 -1.63388 0
M  V30 5206 H 492.097 4.24372 -2.57337 0
M  V30 5207 H 487.353 4.69937 -3.91113 0
M  V30 5208 H 491.527 4.99415 -4.85342 0
M  V30 5209 H 489.154 5.2189 -5.52752 0
M  V30 5210 N 490.729 0.570148 1.46925 0
M  V30 5211 C 492.006 -0.0153259 1.95594 0
M  V30 5212 C 492.386 -1.47232 1.51281 0
M  V30 5213 O 491.734 -2.15574 0.757624 0
M  V30 5214 C 491.944 0.143624 3.48704 0
M  V30 5215 C 493.292 0.00494484 4.246 0
M  V30 5216 O 494.316 0.0718214 3.56128 0
M  V30 5217 O 493.175 -0.141175 5.46318 0
M  V30 5218 H 490.269 -0.0568819 0.825041 0
M  V30 5219 H 492.815 0.637583 1.57267 0
M  V30 5220 H 491.587 1.15699 3.73804 0
M  V30 5221 H 491.21 -0.5463 3.93829 0
M  V30 5222 N 492.207 -1.54576 0.307264 0
M  V30 5223 C 493.453 -2.0056 -0.300612 0
M  V30 5224 C 493.786 -1.1953 -1.53057 0
M  V30 5225 O 493.061 -0.27337 -1.92569 0
M  V30 5226 C 493.344 -3.54167 -0.650987 0
M  V30 5227 C 493.197 -4.45933 0.588539 0
M  V30 5228 C 494.516 -4.14645 -1.47506 0
M  V30 5229 H 491.635 -0.729075 -0.107788 0
M  V30 5230 H 494.277 -1.85286 0.420606 0
M  V30 5231 H 492.427 -3.67313 -1.26544 0
M  V30 5232 H 494.099 -4.44683 1.22697 0
M  V30 5233 H 492.342 -4.16274 1.22058 0
M  V30 5234 H 493.013 -5.51189 0.299153 0
M  V30 5235 H 495.489 -4.04973 -0.955821 0
M  V30 5236 H 494.365 -5.22269 -1.68899 0
M  V30 5237 H 494.626 -3.66921 -2.4662 0
M  V30 5238 N 493.685 -0.035106 -1.57561 0
M  V30 5239 C 494.913 0.652258 -1.9635 0
M  V30 5240 C 495.328 1.65317 -0.911897 0
M  V30 5241 O 494.685 1.82194 0.105657 0
M  V30 5242 C 494.736 1.35337 -3.35211 0
M  V30 5243 O 494.457 0.392548 -4.36338 0
M  V30 5244 C 495.958 2.13199 -3.88666 0
M  V30 5245 H 493.178 0.179444 -0.646561 0
M  V30 5246 H 495.722 -0.0966459 -2.04271 0
M  V30 5247 H 493.877 2.05362 -3.28489 0
M  V30 5248 H 494.291 0.891097 -5.16875 0
M  V30 5249 H 495.765 2.577 -4.88154 0
M  V30 5250 H 496.242 2.97353 -3.23231 0
M  V30 5251 H 496.848 1.48118 -3.98674 0
M  V30 5252 N 495.163 1.55791 0.238111 0
M  V30 5253 C 496.579 1.48411 0.587045 0
M  V30 5254 C 496.779 0.72702 1.87927 0
M  V30 5255 O 495.835 0.259942 2.51158 0
M  V30 5256 C 497.148 2.92873 0.681623 0
M  V30 5257 C 498.696 3.03295 0.773363 0
M  V30 5258 C 499.171 4.49082 0.899428 0
M  V30 5259 N 500.662 4.53056 0.964075 0
M  V30 5260 C 501.397 5.63117 1.08104 0
M  V30 5261 N 500.893 6.82969 1.16299 0
M  V30 5262 N 502.686 5.50933 1.11488 0
M  V30 5263 H 494.837 2.0345 -0.610076 0
M  V30 5264 H 497.1 0.924034 -0.211813 0
M  V30 5265 H 496.806 3.51142 -0.19802 0
M  V30 5266 H 496.68 3.43851 1.55069 0
M  V30 5267 H 499.067 2.45101 1.64346 0
M  V30 5268 H 499.148 2.55513 -0.121034 0
M  V30 5269 H 498.792 5.07889 0.0338586 0
M  V30 5270 H 498.722 4.94553 1.809 0
M  V30 5271 H 501.213 3.66737 0.91173 0
M  V30 5272 H 501.526 7.62598 1.25155 0
M  V30 5273 H 499.871 6.85712 1.13241 0
M  V30 5274 H 503.062 4.56231 1.0474 0
M  V30 5275 H 503.235 6.36743 1.20259 0
M  V30 5276 N 496.642 -0.504142 1.49319 0
M  V30 5277 C 497.919 -1.26548 1.49147 0
M  V30 5278 C 498.299 -2.09977 0.21744 0
M  V30 5279 O 497.647 -2.14028 -0.800269 0
M  V30 5280 C 497.857 -2.12489 2.76857 0
M  V30 5281 C 499.205 -2.7178 3.26222 0
M  V30 5282 O 500.229 -2.22758 2.77952 0
M  V30 5283 O 499.088 -3.61015 4.10281 0
M  V30 5284 H 496.182 -0.572495 0.596806 0
M  V30 5285 H 498.728 -0.51867 1.61579 0
M  V30 5286 H 497.5 -1.50796 3.61077 0
M  V30 5287 H 497.123 -2.94368 2.6727 0
M  V30 5288 N 498.12 -1.38341 -0.754957 0
M  V30 5289 C 499.348 -1.37704 -1.54419 0
M  V30 5290 C 499.763 0.0335243 -1.8877 0
M  V30 5291 O 499.12 0.999773 -1.52679 0
M  V30 5292 C 499.171 -2.23136 -2.84416 0
M  V30 5293 O 498.892 -3.58697 -2.51531 0
M  V30 5294 C 500.393 -2.30664 -3.78562 0
M  V30 5295 H 497.613 -0.471061 -0.477852 0
M  V30 5296 H 500.157 -1.81902 -0.934446 0
M  V30 5297 H 498.312 -1.82403 -3.41772 0
M  V30 5298 H 498.726 -4.03665 -3.34896 0
M  V30 5299 H 500.2 -2.9473 -4.66732 0
M  V30 5300 H 500.677 -1.3199 -4.18898 0
M  V30 5301 H 501.283 -2.71781 -3.27131 0
M  V30 5302 N 499.598 0.982988 -1.23187 0
M  V30 5303 C 501.014 1.2487 -0.993967 0
M  V30 5304 C 501.214 1.99155 0.306498 0
M  V30 5305 O 500.27 2.30688 1.0266 0
M  V30 5306 C 501.583 2.05078 -2.19917 0
M  V30 5307 C 503.131 2.18227 -2.2438 0
M  V30 5308 C 503.606 3.01825 -3.44479 0
M  V30 5309 N 505.097 3.09411 -3.44702 0
M  V30 5310 C 505.832 3.74412 -4.34285 0
M  V30 5311 N 505.328 4.41259 -5.341 0
M  V30 5312 N 507.121 3.71273 -4.22035 0
M  V30 5313 H 499.272 0.485253 -2.06783 0
M  V30 5314 H 501.535 0.276979 -0.906635 0
M  V30 5315 H 501.241 1.57867 -3.14279 0
M  V30 5316 H 501.115 3.05829 -2.2079 0
M  V30 5317 H 503.502 2.64648 -1.30559 0
M  V30 5318 H 503.583 1.16873 -2.2754 0
M  V30 5319 H 503.227 2.56102 -4.38605 0
M  V30 5320 H 503.157 4.03342 -3.38559 0
M  V30 5321 H 505.648 2.61845 -2.7248 0
M  V30 5322 H 505.961 4.88629 -5.98717 0
M  V30 5323 H 504.306 4.39975 -5.38002 0
M  V30 5324 H 507.497 3.18217 -3.43301 0
M  V30 5325 H 507.67 4.21649 -4.92053 0
M  V30 5326 N 501.076 1.04316 1.18135 0
M  V30 5327 C 502.324 0.746542 1.87806 0
M  V30 5328 C 502.645 -0.728082 1.80898 0
M  V30 5329 O 501.915 -1.52554 1.22899 0
M  V30 5330 H 500.495 0.273157 0.695265 0
M  V30 5331 H 503.157 1.32044 1.43354 0
M  V30 5332 H 502.253 1.05362 2.93778 0
M  V30 5333 N 502.554 -1.34406 0.822964 0
M  V30 5334 C 503.504 -2.26963 0.217208 0
M  V30 5335 C 504.488 -1.48536 -0.618545 0
M  V30 5336 O 505.68 -1.7056 -0.473118 0
M  V30 5337 C 502.809 -3.37655 -0.619973 0
M  V30 5338 C 501.895 -4.23495 0.226411 0
M  V30 5339 N 502.286 -4.88876 1.29744 0
M  V30 5340 C 500.584 -4.45999 0.0107554 0
M  V30 5341 C 501.285 -5.52642 1.81553 0
M  V30 5342 N 500.261 -5.31949 1.11942 0
M  V30 5343 H 504.063 -2.75017 1.03647 0
M  V30 5344 H 501.577 -1.48126 0.665777 0
M  V30 5345 H 503.574 -4.02932 -1.07011 0
M  V30 5346 H 502.234 -2.91151 -1.43739 0
M  V30 5347 H 503.245 -4.89886 1.68024 0
M  V30 5348 H 499.922 -4.10253 -0.774495 0
M  V30 5349 H 501.312 -6.14755 2.71156 0
M  V30 5350 N 504.032 -0.577932 -1.46621 0
M  V30 5351 C 504.962 0.145917 -2.33044 0
M  V30 5352 C 505.943 0.888412 -1.45056 0
M  V30 5353 O 507.128 0.864812 -1.73881 0
M  V30 5354 C 504.258 1.16322 -3.27241 0
M  V30 5355 C 503.212 0.535868 -4.24632 0
M  V30 5356 C 502.538 1.65929 -5.08303 0
M  V30 5357 C 503.838 -0.523861 -5.19666 0
M  V30 5358 H 505.532 -0.575636 -2.93814 0
M  V30 5359 H 503.078 -0.278272 -1.41286 0
M  V30 5360 H 505.031 1.67793 -3.86553 0
M  V30 5361 H 503.755 1.91498 -2.64567 0
M  V30 5362 H 502.414 0.0422759 -3.66576 0
M  V30 5363 H 502.062 2.40061 -4.42018 0
M  V30 5364 H 501.762 1.2452 -5.74255 0
M  V30 5365 H 503.286 2.17686 -5.70478 0
M  V30 5366 H 504.7 -0.0944059 -5.73222 0
M  V30 5367 H 503.097 -0.858 -5.93935 0
M  V30 5368 H 504.167 -1.41197 -4.63887 0
M  V30 5369 N 505.51 1.54411 -0.315457 0
M  V30 5370 C 506.735 2.05299 0.294496 0
M  V30 5371 C 507.16 1.19052 1.4563 0
M  V30 5372 O 506.518 0.197804 1.80218 0
M  V30 5373 C 506.566 3.5345 0.714549 0
M  V30 5374 O 505.67 3.70175 1.81781 0
M  V30 5375 H 505.011 0.661743 0.0547019 0
M  V30 5376 H 507.541 1.99327 -0.461508 0
M  V30 5377 H 507.551 3.9557 0.999426 0
M  V30 5378 H 506.226 4.1568 -0.135244 0
M  V30 5379 H 504.803 3.3996 1.53236 0
M  V30 5380 N 506.988 0.0434614 1.5754 0
M  V30 5381 C 508.235 -0.632035 1.92384 0
M  V30 5382 C 508.563 -1.71304 0.921157 0
M  V30 5383 O 507.818 -1.95583 -0.067744 0
M  V30 5384 C 508.117 -1.2738 3.3393 0
M  V30 5385 C 507.783 -0.321757 4.49751 0
M  V30 5386 C 506.445 -0.0597611 4.81163 0
M  V30 5387 C 508.797 0.331158 5.20147 0
M  V30 5388 C 506.125 0.862715 5.80322 0
M  V30 5389 C 508.477 1.24178 6.20292 0
M  V30 5390 C 507.141 1.51252 6.50138 0
M  V30 5391 H 506.411 -0.231278 0.703983 0
M  V30 5392 H 509.058 0.108294 1.91194 0
M  V30 5393 H 507.363 -2.08921 3.3145 0
M  V30 5394 H 509.06 -1.80326 3.58167 0
M  V30 5395 H 505.65 -0.53614 4.25233 0
M  V30 5396 H 509.834 0.141826 4.96097 0
M  V30 5397 H 505.09 1.08003 6.01785 0
M  V30 5398 H 509.264 1.75381 6.73954 0
M  V30 5399 H 506.891 2.22897 7.26788 0
M  V30 5400 N 508.466 -1.55915 -0.229846 0
M  V30 5401 C 509.714 -1.7819 -0.953565 0
M  V30 5402 C 510.035 -0.610504 -1.85197 0
M  V30 5403 O 509.305 0.372988 -1.92316 0
M  V30 5404 H 507.885 -0.657208 -0.355087 0
M  V30 5405 H 510.547 -1.9337 -0.243693 0
M  V30 5406 H 509.643 -2.70011 -1.56527 0
M  V30 5407 N 509.944 0.496216 -1.49584 0
M  V30 5408 C 510.876 1.61404 -1.62731 0
M  V30 5409 C 511.889 1.54613 -0.50978 0
M  V30 5410 O 513.078 1.60458 -0.782017 0
M  V30 5411 C 510.178 3.00212 -1.57245 0
M  V30 5412 C 509.351 3.32138 -2.84611 0
M  V30 5413 C 508.41 4.5038 -2.72112 0
M  V30 5414 O 507.436 4.51926 -3.46051 0
M  V30 5415 N 508.638 5.50575 -1.83977 0
M  V30 5416 H 511.403 1.50552 -2.59141 0
M  V30 5417 H 508.964 0.684182 -1.46733 0
M  V30 5418 H 510.956 3.77241 -1.4653 0
M  V30 5419 H 509.526 3.04964 -0.686729 0
M  V30 5420 H 508.746 2.4396 -3.09641 0
M  V30 5421 H 510.034 3.50268 -3.69039 0
M  V30 5422 H 509.432 5.52128 -1.23171 0
M  V30 5423 H 507.989 6.26687 -1.79182 0
M  V30 5424 N 511.423 1.38739 0.74761 0
M  V30 5425 C 512.671 1.35007 1.50391 0
M  V30 5426 C 512.992 -0.0574274 1.94915 0
M  V30 5427 O 512.262 -1.00628 1.6808 0
M  V30 5428 H 510.842 0.496784 0.557866 0
M  V30 5429 H 513.504 1.73479 0.888319 0
M  V30 5430 H 512.6 2.00474 2.392 0
M  V30 5431 N 512.901 -0.976442 1.23707 0
M  V30 5432 C 514.15 -1.71254 1.06559 0
M  V30 5433 C 514.463 -1.91528 -0.397024 0
M  V30 5434 O 515.669 -2.62625 -0.688518 0
M  V30 5435 C 514.125 -3.08207 1.8584 0
M  V30 5436 C 513.733 -2.95806 3.36456 0
M  V30 5437 C 515.477 -3.85749 1.77194 0
M  V30 5438 C 513.384 -4.28015 4.08114 0
M  V30 5439 H 512.314 -0.642171 0.395136 0
M  V30 5440 H 514.965 -1.08877 1.4771 0
M  V30 5441 H 513.347 -3.71363 1.37498 0
M  V30 5442 H 514.521 -2.41716 3.92314 0
M  V30 5443 H 512.836 -2.31736 3.45959 0
M  V30 5444 H 515.433 -4.83633 2.28041 0
M  V30 5445 H 515.776 -4.09752 0.735477 0
M  V30 5446 H 516.309 -3.29303 2.23169 0
M  V30 5447 H 513.048 -4.09208 5.12083 0
M  V30 5448 H 512.568 -4.81955 3.57043 0
M  V30 5449 H 514.247 -4.96681 4.14629 0
M  V30 5450 N 514.379 -1.04941 -1.1758 0
M  V30 5451 C 515.329 -0.618378 -2.19454 0
M  V30 5452 C 516.313 0.343813 -1.57184 0
M  V30 5453 O 517.505 0.16145 -1.76262 0
M  V30 5454 C 514.634 0.00803847 -3.43299 0
M  V30 5455 C 513.72 -0.977827 -4.12673 0
M  V30 5456 N 514.111 -2.14826 -4.57912 0
M  V30 5457 C 512.409 -0.805748 -4.38661 0
M  V30 5458 C 513.11 -2.77174 -5.11419 0
M  V30 5459 N 512.086 -2.04989 -5.03468 0
M  V30 5460 H 515.888 -1.51018 -2.52132 0
M  V30 5461 H 513.402 -0.919201 -1.33882 0
M  V30 5462 H 515.399 0.334584 -4.15555 0
M  V30 5463 H 514.059 0.895272 -3.12114 0
M  V30 5464 H 515.07 -2.52673 -4.52081 0
M  V30 5465 H 511.747 0.0306506 -4.17489 0
M  V30 5466 H 513.137 -3.76416 -5.56562 0
M  V30 5467 N 515.857 1.33968 -0.830081 0
M  V30 5468 C 517.104 1.98063 -0.421566 0
M  V30 5469 C 517.432 1.65787 1.0171 0
M  V30 5470 O 516.687 0.925348 1.72441 0
M  V30 5471 C 516.986 3.52679 -0.57898 0
M  V30 5472 C 516.652 4.04884 -1.98443 0
M  V30 5473 C 515.314 4.18852 -2.36888 0
M  V30 5474 C 517.666 4.32879 -2.90285 0
M  V30 5475 C 514.994 4.58145 -3.66497 0
M  V30 5476 C 517.346 4.7362 -4.19364 0
M  V30 5477 C 516.01 4.85794 -4.57778 0
M  V30 5478 H 515.28 0.724765 -0.154262 0
M  V30 5479 H 517.927 1.59792 -1.05541 0
M  V30 5480 H 516.232 3.91556 0.138219 0
M  V30 5481 H 517.929 4.00261 -0.243317 0
M  V30 5482 H 514.519 3.9448 -1.67581 0
M  V30 5483 H 518.703 4.21619 -2.61823 0
M  V30 5484 H 513.959 4.65762 -3.96075 0
M  V30 5485 H 518.133 4.9424 -4.90612 0
M  V30 5486 H 515.76 5.15998 -5.58256 0
M  V30 5487 N 517.335 0.585699 1.46312 0
M  V30 5488 C 518.575 0.0751432 2.04262 0
M  V30 5489 C 518.939 -1.26201 1.44697 0
M  V30 5490 O 520.14 -1.86198 1.93865 0
M  V30 5491 C 518.411 0.013478 3.57397 0
M  V30 5492 S 519.97 -0.439068 4.36598 0
M  V30 5493 H 516.788 0.0389228 0.709934 0
M  V30 5494 H 519.39 0.778871 1.79315 0
M  V30 5495 H 518.094 0.990558 3.98266 0
M  V30 5496 H 517.625 -0.712927 3.86886 0
M  V30 5497 H 519.64 -1.6932 4.66417 0
M  V30 5498 N 518.813 -1.54241 0.323641 0
M  V30 5499 C 519.746 -2.20579 -0.584833 0
M  V30 5500 C 520.724 -1.18286 -1.11567 0
M  V30 5501 O 521.908 -1.47025 -1.17966 0
M  V30 5502 C 519.035 -2.86754 -1.80249 0
M  V30 5503 C 518.081 -4.02767 -1.4029 0
M  V30 5504 S 518.914 -5.33693 -0.439539 0
M  V30 5505 C 520.07 -6.03362 -1.66448 0
M  V30 5506 H 520.303 -2.97292 -0.0213238 0
M  V30 5507 H 517.836 -1.54024 0.107726 0
M  V30 5508 H 519.794 -3.25503 -2.50116 0
M  V30 5509 H 518.455 -2.09844 -2.33719 0
M  V30 5510 H 517.648 -4.47933 -2.31024 0
M  V30 5511 H 517.25 -3.65692 -0.783928 0
M  V30 5512 H 519.542 -6.25546 -2.6019 0
M  V30 5513 H 520.485 -6.9689 -1.25498 0
M  V30 5514 H 520.893 -5.33273 -1.85149 0
M  V30 5515 N 520.291 -0.0518155 -1.57515 0
M  V30 5516 C 521.539 0.620595 -1.92336 0
M  V30 5517 C 521.86 1.71345 -0.930907 0
M  V30 5518 O 521.13 1.95885 0.0241341 0
M  V30 5519 H 519.71 0.232226 -0.709986 0
M  V30 5520 H 522.372 -0.104969 -1.94617 0
M  V30 5521 H 521.468 1.05879 -2.93592 0
M  V30 5522 N 521.769 1.56035 0.221574 0
M  V30 5523 C 523.185 1.49026 0.571271 0
M  V30 5524 C 523.385 0.746912 1.87146 0
M  V30 5525 O 522.441 0.286566 2.50869 0
M  V30 5526 C 523.754 2.93579 0.650522 0
M  V30 5527 C 525.302 3.04099 0.741151 0
M  V30 5528 C 525.777 4.5001 0.851747 0
M  V30 5529 N 527.268 4.54053 0.915968 0
M  V30 5530 C 528.003 5.64232 1.02125 0
M  V30 5531 N 527.499 6.84164 1.09049 0
M  V30 5532 N 529.292 5.52084 1.05639 0
M  V30 5533 H 521.443 2.02791 -0.63162 0
M  V30 5534 H 523.706 0.921736 -0.221602 0
M  V30 5535 H 523.412 3.50912 -0.235253 0
M  V30 5536 H 523.286 3.45476 1.51413 0
M  V30 5537 H 525.673 2.4683 1.61737 0
M  V30 5538 H 525.754 2.55371 -0.148128 0
M  V30 5539 H 525.398 5.07896 -0.0200117 0
M  V30 5540 H 525.328 4.96444 1.75644 0
M  V30 5541 H 527.819 3.67683 0.872782 0
M  V30 5542 H 528.132 7.63883 1.1706 0
M  V30 5543 H 526.477 6.86875 1.05962 0
M  V30 5544 H 529.668 4.57317 0.998953 0
M  V30 5545 H 529.841 6.37983 1.13498 0
M  V30 5546 N 523.247 -0.488276 1.49845 0
M  V30 5547 C 524.658 -1.06955 1.53028 0
M  V30 5548 C 525.009 -1.9351 0.323797 0
M  V30 5549 O 524.134 -2.08891 -0.565116 0
M  V30 5550 C 524.729 -1.94643 2.77307 0
M  V30 5551 C 523.288 -2.4791 2.83227 0
M  V30 5552 C 522.435 -1.25833 2.47106 0
M  V30 5553 H 525.386 -0.271626 1.56358 0
M  V30 5554 H 525.407 -2.79496 2.5819 0
M  V30 5555 H 524.919 -1.31621 3.65099 0
M  V30 5556 H 523.02 -3.14535 1.99745 0
M  V30 5557 H 523.133 -2.84193 3.85709 0
M  V30 5558 H 521.497 -1.58764 1.99163 0
M  V30 5559 H 522.28 -0.644993 3.37186 0
M  V30 5560 N 524.725 -1.39134 -0.740242 0
M  V30 5561 C 525.655 -1.40165 -1.86751 0
M  V30 5562 C 526.636 -0.265708 -1.68012 0
M  V30 5563 O 527.821 -0.47076 -1.88408 0
M  V30 5564 C 524.951 -1.2392 -3.2444 0
M  V30 5565 C 523.905 -2.34858 -3.57807 0
M  V30 5566 C 523.231 -2.03707 -4.94376 0
M  V30 5567 C 524.531 -3.77159 -3.61315 0
M  V30 5568 H 526.225 -2.345 -1.86145 0
M  V30 5569 H 523.771 -1.12875 -0.89416 0
M  V30 5570 H 525.724 -1.23263 -4.02969 0
M  V30 5571 H 524.448 -0.26051 -3.25559 0
M  V30 5572 H 523.107 -2.34723 -2.81604 0
M  V30 5573 H 522.755 -1.04289 -4.9207 0
M  V30 5574 H 522.455 -2.78016 -5.17669 0
M  V30 5575 H 523.979 -2.04691 -5.75268 0
M  V30 5576 H 525.393 -3.79252 -4.29931 0
M  V30 5577 H 523.79 -4.50784 -3.96124 0
M  V30 5578 H 524.86 -4.08513 -2.61238 0
M  V30 5579 N 526.204 0.969867 -1.24223 0
M  V30 5580 C 527.167 2.04564 -1.03373 0
M  V30 5581 C 528.167 1.60798 0.00819206 0
M  V30 5582 O 529.357 1.72641 -0.232567 0
M  V30 5583 C 526.489 3.36163 -0.566343 0
M  V30 5584 H 527.682 2.24494 -1.98853 0
M  V30 5585 H 525.235 1.1448 -1.06415 0
M  V30 5586 H 525.97 3.21925 0.391751 0
M  V30 5587 H 525.755 3.69273 -1.31834 0
M  V30 5588 H 527.245 4.1526 -0.441435 0
M  V30 5589 N 527.682 1.05563 1.17022 0
M  V30 5590 C 528.629 0.659893 2.21165 0
M  V30 5591 C 529.599 -0.339813 1.62587 0
M  V30 5592 O 530.784 -0.230378 1.89404 0
M  V30 5593 C 527.924 0.0447297 3.45071 0
M  V30 5594 C 527.037 1.09372 4.17926 0
M  V30 5595 C 526.172 0.445481 5.29329 0
M  V30 5596 C 525.211 1.47852 5.93975 0
M  V30 5597 N 524.348 0.854172 6.96885 0
M  V30 5598 H 529.188 1.55243 2.54369 0
M  V30 5599 H 526.725 0.776336 1.24946 0
M  V30 5600 H 528.683 -0.329404 4.15898 0
M  V30 5601 H 527.313 -0.811244 3.1244 0
M  V30 5602 H 526.365 1.58564 3.45777 0
M  V30 5603 H 527.677 1.87773 4.62107 0
M  V30 5604 H 526.831 0.0179688 6.06697 0
M  V30 5605 H 525.57 -0.370481 4.86291 0
M  V30 5606 H 524.575 1.91601 5.15334 0
M  V30 5607 H 525.8 2.29645 6.39093 0
M  V30 5608 H 523.746 0.0587882 6.55974 0
M  V30 5609 H 523.663 1.57567 7.39397 0
M  V30 5610 H 524.931 0.451559 7.78191 0
M  V30 5611 N 529.16 -1.33526 0.837174 0
M  V30 5612 C 530.09 -2.31764 0.284206 0
M  V30 5613 C 531.071 -1.58896 -0.607142 0
M  V30 5614 O 532.256 -1.86798 -0.531047 0
M  V30 5615 C 529.386 -3.43029 -0.542962 0
M  V30 5616 C 528.34 -4.27255 0.252451 0
M  V30 5617 C 527.666 -5.3012 -0.69836 0
M  V30 5618 C 528.966 -5.01229 1.46858 0
M  V30 5619 H 530.66 -2.78262 1.10502 0
M  V30 5620 H 528.206 -1.3378 0.532812 0
M  V30 5621 H 530.159 -4.1078 -0.940096 0
M  V30 5622 H 528.883 -2.95216 -1.39697 0
M  V30 5623 H 527.542 -3.61127 0.631124 0
M  V30 5624 H 527.19 -4.78564 -1.54872 0
M  V30 5625 H 526.89 -5.87353 -0.170274 0
M  V30 5626 H 528.414 -6.00737 -1.09305 0
M  V30 5627 H 529.828 -5.61756 1.14469 0
M  V30 5628 H 528.225 -5.68104 1.93333 0
M  V30 5629 H 529.295 -4.301 2.23924 0
M  V30 5630 N 530.638 -0.59345 -1.46 0
M  V30 5631 C 531.548 0.135817 -2.34207 0
M  V30 5632 C 532.564 0.875008 -1.50398 0
M  V30 5633 O 533.74 0.835778 -1.83239 0
M  V30 5634 C 530.805 1.12977 -3.27776 0
M  V30 5635 C 529.866 0.394081 -4.27487 0
M  V30 5636 C 529.099 1.34068 -5.16586 0
M  V30 5637 O 529.322 2.5778 -5.08828 0
M  V30 5638 O 528.256 0.845426 -5.95933 0
M  V30 5639 H 532.082 -0.588691 -2.9794 0
M  V30 5640 H 529.667 -0.353784 -1.45151 0
M  V30 5641 H 531.549 1.70261 -3.85473 0
M  V30 5642 H 530.224 1.83556 -2.66625 0
M  V30 5643 H 529.131 -0.220869 -3.73447 0
M  V30 5644 H 530.464 -0.270939 -4.91454 0
M  V30 5645 N 532.116 1.54067 -0.331816 0
M  V30 5646 C 533.364 2.00319 0.267739 0
M  V30 5647 C 533.685 1.22148 1.52003 0
M  V30 5648 O 532.955 0.325494 1.93177 0
M  V30 5649 H 531.535 0.740014 0.101922 0
M  V30 5650 H 534.197 1.89628 -0.450267 0
M  V30 5651 H 533.293 3.07765 0.518385 0
M  V30 5652 N 533.594 0.0601682 1.57485 0
M  V30 5653 C 534.504 -0.926121 2.15546 0
M  V30 5654 C 535.52 -1.33532 1.11558 0
M  V30 5655 O 536.696 -1.4104 1.4377 0
M  V30 5656 C 533.761 -2.17952 2.69625 0
M  V30 5657 C 532.822 -1.82783 3.88444 0
M  V30 5658 C 532.055 -3.02148 4.39935 0
M  V30 5659 O 532.278 -4.15803 3.90466 0
M  V30 5660 O 531.212 -2.82639 5.31412 0
M  V30 5661 H 535.038 -0.462289 3.00161 0
M  V30 5662 H 532.623 -0.162246 1.48516 0
M  V30 5663 H 534.505 -2.91474 3.04337 0
M  V30 5664 H 533.18 -2.63456 1.88077 0
M  V30 5665 H 532.087 -1.06549 3.58606 0
M  V30 5666 H 533.42 -1.42072 4.7125 0
M  V30 5667 N 535.072 -1.5615 -0.213296 0
M  V30 5668 C 536.318 -1.79812 -0.937849 0
M  V30 5669 C 536.651 -0.631201 -1.83656 0
M  V30 5670 O 535.926 0.369165 -1.90964 0
M  V30 5671 C 536.209 -3.13613 -1.76972 0
M  V30 5672 C 536.062 -4.40766 -0.89695 0
M  V30 5673 C 537.381 -3.43931 -2.7459 0
M  V30 5674 H 534.5 -0.654138 -0.339518 0
M  V30 5675 H 537.142 -1.88877 -0.20623 0
M  V30 5676 H 535.292 -3.06015 -2.39347 0
M  V30 5677 H 536.964 -4.60392 -0.289306 0
M  V30 5678 H 535.207 -4.33326 -0.202756 0
M  V30 5679 H 535.878 -5.30843 -1.51358 0
M  V30 5680 H 538.354 -3.5171 -2.22349 0
M  V30 5681 H 537.23 -4.38706 -3.29891 0
M  V30 5682 H 537.491 -2.6651 -3.52739 0
M  V30 5683 N 536.55 0.480323 -1.50102 0
M  V30 5684 C 537.513 1.56181 -1.6775 0
M  V30 5685 C 538.513 1.51156 -0.548503 0
M  V30 5686 O 539.703 1.5394 -0.815363 0
M  V30 5687 C 536.835 2.95823 -1.69415 0
M  V30 5688 H 538.028 1.41855 -2.6423 0
M  V30 5689 H 535.581 0.70605 -1.39444 0
M  V30 5690 H 536.316 3.15604 -0.745948 0
M  V30 5691 H 536.101 3.00878 -2.51425 0
M  V30 5692 H 537.591 3.74359 -1.85054 0
M  V30 5693 N 538.028 1.39524 0.732853 0
M  V30 5694 C 538.958 1.41153 1.86005 0
M  V30 5695 C 539.939 0.274614 1.67869 0
M  V30 5696 O 541.124 0.480745 1.88155 0
M  V30 5697 C 538.254 1.25638 3.23778 0
M  V30 5698 C 537.208 2.36752 3.56556 0
M  V30 5699 C 536.534 2.06326 4.93289 0
M  V30 5700 C 537.834 3.79069 3.5931 0
M  V30 5701 H 539.528 2.35484 1.84899 0
M  V30 5702 H 537.074 1.13348 0.888162 0
M  V30 5703 H 539.027 1.25398 4.0231 0
M  V30 5704 H 537.751 0.277772 3.25417 0
M  V30 5705 H 536.41 2.36213 2.80355 0
M  V30 5706 H 536.058 1.06897 4.9151 0
M  V30 5707 H 535.758 2.80757 5.16187 0
M  V30 5708 H 537.282 2.07739 5.74175 0
M  V30 5709 H 538.696 3.81526 4.27914 0
M  V30 5710 H 537.093 4.52878 3.93728 0
M  V30 5711 H 538.163 4.09893 2.59068 0
M  V30 5712 N 539.506 -0.963266 1.24736 0
M  V30 5713 C 540.922 -1.23273 1.01371 0
M  V30 5714 C 541.122 -1.99618 -0.274776 0
M  V30 5715 O 540.178 -2.32293 -0.989769 0
M  V30 5716 C 541.491 -2.01554 2.23152 0
M  V30 5717 C 543.039 -2.14629 2.27823 0
M  V30 5718 C 543.514 -2.96307 3.49237 0
M  V30 5719 N 545.005 -3.03887 3.49581 0
M  V30 5720 C 545.74 -3.67456 4.40186 0
M  V30 5721 N 545.236 -4.32706 5.41052 0
M  V30 5722 N 547.029 -3.64511 4.27888 0
M  V30 5723 H 539.18 -0.452294 2.07528 0
M  V30 5724 H 541.443 -0.262521 0.910926 0
M  V30 5725 H 541.149 -1.52847 3.1675 0
M  V30 5726 H 541.023 -3.02278 2.25628 0
M  V30 5727 H 543.41 -2.62537 1.34753 0
M  V30 5728 H 543.491 -1.13238 2.2937 0
M  V30 5729 H 543.135 -2.49091 4.42624 0
M  V30 5730 H 543.065 -3.97905 3.44933 0
M  V30 5731 H 545.556 -2.57477 2.76611 0
M  V30 5732 H 545.869 -4.79042 6.06415 0
M  V30 5733 H 544.214 -4.31361 5.44934 0
M  V30 5734 H 547.405 -3.12715 3.4832 0
M  V30 5735 H 547.578 -4.13768 4.98698 0
M  V30 5736 N 540.985 -1.06182 -1.16461 0
M  V30 5737 C 541.948 -0.675723 -2.19013 0
M  V30 5738 C 542.948 0.277963 -1.58379 0
M  V30 5739 O 544.138 0.0604962 -1.74095 0
M  V30 5740 C 541.27 0.00591459 -3.40899 0
M  V30 5741 H 542.463 -1.58353 -2.54685 0
M  V30 5742 H 540.016 -0.856908 -1.30716 0
M  V30 5743 H 540.751 0.92652 -3.10783 0
M  V30 5744 H 540.536 -0.67984 -3.86161 0
M  V30 5745 H 542.026 0.26181 -4.16778 0
M  V30 5746 N 542.463 1.3308 -0.844243 0
M  V30 5747 C 543.393 2.3161 -0.296493 0
M  V30 5748 C 544.374 1.59215 0.598707 0
M  V30 5749 O 545.559 1.87077 0.521134 0
M  V30 5750 C 542.689 3.43313 0.524762 0
M  V30 5751 C 541.643 4.27115 -0.275106 0
M  V30 5752 C 540.969 5.30483 0.670236 0
M  V30 5753 C 542.269 5.00443 -1.49514 0
M  V30 5754 H 543.963 2.77672 -1.11976 0
M  V30 5755 H 541.509 1.33496 -0.539899 0
M  V30 5756 H 543.462 4.11273 0.918298 0
M  V30 5757 H 542.186 2.95952 1.3813 0
M  V30 5758 H 540.845 3.60787 -0.650267 0
M  V30 5759 H 540.493 4.79379 1.52332 0
M  V30 5760 H 540.193 5.87435 0.139123 0
M  V30 5761 H 541.717 6.01308 1.06117 0
M  V30 5762 H 543.131 5.61141 -1.17447 0
M  V30 5763 H 541.528 5.67071 -1.96343 0
M  V30 5764 H 542.598 4.28906 -2.26202 0
M  V30 5765 N 543.941 0.601185 1.45683 0
M  V30 5766 C 545.188 0.0938811 2.02282 0
M  V30 5767 C 545.516 -1.27315 1.47041 0
M  V30 5768 O 544.771 -1.85193 0.632623 0
M  V30 5769 C 545.07 -0.00222425 3.574 0
M  V30 5770 C 544.736 1.29963 4.31764 0
M  V30 5771 C 543.398 1.65625 4.51798 0
M  V30 5772 C 545.75 2.1603 4.74321 0
M  V30 5773 C 543.078 2.87119 5.11644 0
M  V30 5774 C 545.43 3.36766 5.3551 0
M  V30 5775 C 544.094 3.72689 5.53768 0
M  V30 5776 H 543.364 0.0343535 0.740203 0
M  V30 5777 H 546.011 0.781522 1.74827 0
M  V30 5778 H 544.316 -0.773096 3.84097 0
M  V30 5779 H 546.013 -0.410794 3.9889 0
M  V30 5780 H 542.603 1.01204 4.1648 0
M  V30 5781 H 546.787 1.89778 4.58582 0
M  V30 5782 H 542.043 3.15065 5.2397 0
M  V30 5783 H 546.217 4.03713 5.67441 0
M  V30 5784 H 543.844 4.66918 5.99909 0
M  V30 5785 N 545.419 -1.53889 0.339982 0
M  V30 5786 C 546.667 -2.00458 -0.257112 0
M  V30 5787 C 546.988 -1.22953 -1.51353 0
M  V30 5788 O 546.258 -0.335734 -1.93002 0
M  V30 5789 H 544.838 -0.740544 -0.0979965 0
M  V30 5790 H 547.5 -1.89386 0.460317 0
M  V30 5791 H 546.596 -3.08035 -0.502057 0
M  V30 5792 N 546.897 -0.0685191 -1.57451 0
M  V30 5793 C 548.313 0.288101 -1.56978 0
M  V30 5794 C 548.513 1.70262 -1.07765 0
M  V30 5795 O 547.569 2.4135 -0.742054 0
M  V30 5796 C 548.882 0.100745 -3.00531 0
M  V30 5797 C 550.43 0.170531 -3.12535 0
M  V30 5798 C 550.905 0.0114944 -4.57999 0
M  V30 5799 N 552.396 0.0672065 -4.63151 0
M  V30 5800 C 553.131 -0.0314813 -5.73391 0
M  V30 5801 N 552.627 -0.183503 -6.92557 0
M  V30 5802 N 554.42 0.0253489 -5.62094 0
M  V30 5803 H 546.571 -0.993026 -1.87757 0
M  V30 5804 H 548.834 -0.386981 -0.865419 0
M  V30 5805 H 548.54 -0.875197 -3.40636 0
M  V30 5806 H 548.414 0.854457 -3.67395 0
M  V30 5807 H 550.801 1.13696 -2.72318 0
M  V30 5808 H 550.882 -0.614229 -2.48316 0
M  V30 5809 H 550.526 -0.951684 -4.98904 0
M  V30 5810 H 550.456 0.815617 -5.20245 0
M  V30 5811 H 552.947 0.183246 -3.77455 0
M  V30 5812 H 553.26 -0.251041 -7.72392 0
M  V30 5813 H 551.605 -0.218822 -6.94655 0
M  V30 5814 H 554.796 0.142794 -4.67882 0
M  V30 5815 H 554.969 -0.0550166 -6.47977 0
M  V30 5816 N 548.375 1.56261 0.205012 0
M  V30 5817 C 549.622 1.8004 0.926927 0
M  V30 5818 C 549.95 0.640086 1.83666 0
M  V30 5819 O 549.205 -0.374702 1.92079 0
M  V30 5820 C 549.504 3.09722 1.78345 0
M  V30 5821 C 549.17 4.39082 1.02555 0
M  V30 5822 C 547.832 4.74226 0.816256 0
M  V30 5823 C 550.184 5.18877 0.491559 0
M  V30 5824 C 547.512 5.86668 0.0613287 0
M  V30 5825 C 549.864 6.32105 -0.250107 0
M  V30 5826 C 548.528 6.6584 -0.470508 0
M  V30 5827 H 547.798 0.658812 0.339187 0
M  V30 5828 H 550.445 1.90515 0.19395 0
M  V30 5829 H 548.75 2.9444 2.5848 0
M  V30 5830 H 550.447 3.25324 2.34446 0
M  V30 5831 H 547.037 4.11497 1.19868 0
M  V30 5832 H 551.221 4.92147 0.640684 0
M  V30 5833 H 546.477 6.11283 -0.119501 0
M  V30 5834 H 550.651 6.93157 -0.671307 0
M  V30 5835 H 548.278 7.5281 -1.05739 0
M  V30 5836 N 549.853 -0.472356 1.50355 0
M  V30 5837 C 551.264 -1.05326 1.54154 0
M  V30 5838 C 551.615 -1.93155 0.344303 0
M  V30 5839 O 550.74 -2.09479 -0.542928 0
M  V30 5840 C 551.335 -1.91691 2.79356 0
M  V30 5841 C 549.894 -2.44892 2.8584 0
M  V30 5842 C 549.041 -1.23205 2.48426 0
M  V30 5843 H 551.992 -0.255027 1.56637 0
M  V30 5844 H 552.013 -2.76742 2.6114 0
M  V30 5845 H 551.525 -1.27741 3.66475 0
M  V30 5846 H 549.626 -3.12399 2.0307 0
M  V30 5847 H 549.739 -2.80086 3.88701 0
M  V30 5848 H 548.103 -1.56643 2.00836 0
M  V30 5849 H 548.886 -0.609194 3.37852 0
M  V30 5850 N 551.331 -1.39911 -0.725443 0
M  V30 5851 C 552.294 -1.39156 -1.82121 0
M  V30 5852 C 553.294 -0.287018 -1.58218 0
M  V30 5853 O 554.484 -0.545421 -1.65441 0
M  V30 5854 C 551.616 -1.1736 -3.20062 0
M  V30 5855 H 552.809 -2.36672 -1.84191 0
M  V30 5856 H 550.362 -1.25615 -0.930079 0
M  V30 5857 H 551.097 -0.205648 -3.23647 0
M  V30 5858 H 550.882 -1.97358 -3.3881 0
M  V30 5859 H 552.372 -1.19596 -4.00108 0
M  V30 5860 N 552.809 0.956637 -1.25245 0
M  V30 5861 C 553.739 2.07058 -1.07931 0
M  V30 5862 C 554.72 1.70096 0.0110361 0
M  V30 5863 O 555.905 1.93555 -0.158121 0
M  V30 5864 C 553.035 3.40272 -0.695124 0
M  V30 5865 C 551.989 3.91235 -1.73549 0
M  V30 5866 C 551.315 5.20921 -1.20604 0
M  V30 5867 C 552.615 4.17837 -3.13385 0
M  V30 5868 H 554.309 2.218 -2.01109 0
M  V30 5869 H 551.855 1.06581 -0.968326 0
M  V30 5870 H 553.808 4.1765 -0.560949 0
M  V30 5871 H 552.532 3.25462 0.272355 0
M  V30 5872 H 551.191 3.16025 -1.85807 0
M  V30 5873 H 550.839 5.02479 -0.228846 0
M  V30 5874 H 550.539 5.55987 -1.90136 0
M  V30 5875 H 552.063 6.00897 -1.08421 0
M  V30 5876 H 553.477 4.8588 -3.04292 0
M  V30 5877 H 551.874 4.64154 -3.80369 0
M  V30 5878 H 552.944 3.2419 -3.60595 0
M  V30 5879 N 554.287 1.06798 1.15896 0
M  V30 5880 C 555.512 0.808739 1.90982 0
M  V30 5881 C 555.937 -0.6316 1.77179 0
M  V30 5882 O 555.295 -1.4407 1.10061 0
M  V30 5883 C 555.343 1.21468 3.39526 0
M  V30 5884 O 554.447 0.356562 4.10856 0
M  V30 5885 H 553.788 0.29512 0.594811 0
M  V30 5886 H 556.318 1.42513 1.46804 0
M  V30 5887 H 556.328 1.18844 3.90308 0
M  V30 5888 H 555.003 2.26379 3.48891 0
M  V30 5889 H 553.58 0.444808 3.70238 0
M  V30 5890 N 555.766 -1.3263 0.851289 0
M  V30 5891 C 556.696 -2.31449 0.308771 0
M  V30 5892 C 557.677 -1.59531 -0.590255 0
M  V30 5893 O 558.862 -1.87351 -0.511205 0
M  V30 5894 C 555.992 -3.43586 -0.506548 0
M  V30 5895 C 554.946 -4.26963 0.297753 0
M  V30 5896 C 554.272 -5.30831 -0.642094 0
M  V30 5897 C 555.572 -4.99643 1.52166 0
M  V30 5898 H 557.266 -2.77074 1.13447 0
M  V30 5899 H 554.812 -1.33207 0.546971 0
M  V30 5900 H 556.765 -4.11754 -0.896474 0
M  V30 5901 H 555.489 -2.96681 -1.36558 0
M  V30 5902 H 554.148 -3.60437 0.669391 0
M  V30 5903 H 553.796 -4.8018 -1.49788 0
M  V30 5904 H 553.496 -5.87501 -0.107968 0
M  V30 5905 H 555.02 -6.01862 -1.02927 0
M  V30 5906 H 556.434 -5.6051 1.20421 0
M  V30 5907 H 554.831 -5.66022 1.99347 0
M  V30 5908 H 555.901 -4.27701 2.28474 0
M  V30 5909 N 557.244 -0.608902 -1.45362 0
M  V30 5910 C 558.492 -0.104401 -2.0183 0
M  V30 5911 C 558.813 1.27007 -1.47967 0
M  V30 5912 O 558.083 1.83924 -0.674455 0
M  V30 5913 H 556.663 -0.0356042 -0.746151 0
M  V30 5914 H 559.325 -0.790596 -1.78145 0
M  V30 5915 H 558.421 -0.0551793 -3.12051 0
M  V30 5916 N 558.722 1.53707 -0.348139 0
M  V30 5917 C 559.971 2.0017 0.247992 0
M  V30 5918 C 560.284 1.23983 1.51286 0
M  V30 5919 O 561.49 1.60946 2.18652 0
M  V30 5920 C 559.946 3.56515 0.492459 0
M  V30 5921 C 559.554 4.41562 -0.756777 0
M  V30 5922 C 561.298 4.11381 1.0472 0
M  V30 5923 C 559.205 5.89426 -0.482856 0
M  V30 5924 H 558.135 0.747806 0.0964452 0
M  V30 5925 H 560.786 1.77532 -0.464179 0
M  V30 5926 H 559.168 3.75236 1.26545 0
M  V30 5927 H 560.342 4.34615 -1.53122 0
M  V30 5928 H 558.657 3.97711 -1.23348 0
M  V30 5929 H 561.254 5.19468 1.26717 0
M  V30 5930 H 561.597 3.64885 2.00411 0
M  V30 5931 H 562.13 3.96389 0.334801 0
M  V30 5932 H 558.869 6.40164 -1.40962 0
M  V30 5933 H 558.389 5.99264 0.253416 0
M  V30 5934 H 560.068 6.4692 -0.101816 0
M  V30 5935 N 560.2 0.0768682 1.57412 0
M  V30 5936 C 561.477 -0.632359 1.85096 0
M  V30 5937 C 561.857 -1.87479 0.9703 0
M  V30 5938 O 561.205 -2.28469 0.0379062 0
M  V30 5939 C 561.415 -0.965174 3.35388 0
M  V30 5940 C 562.763 -1.33648 4.03018 0
M  V30 5941 O 563.787 -1.05675 3.40164 0
M  V30 5942 O 562.646 -1.85959 5.13889 0
M  V30 5943 H 559.74 -0.314574 0.764835 0
M  V30 5944 H 562.286 0.108184 1.69355 0
M  V30 5945 H 561.058 -0.0829745 3.91212 0
M  V30 5946 H 560.681 -1.76231 3.5641 0
M  V30 5947 N 561.678 -1.56367 -0.196722 0
M  V30 5948 C 562.641 -1.93561 -1.22746 0
M  V30 5949 C 563.641 -0.816566 -1.38524 0
M  V30 5950 O 564.831 -1.084 -1.36363 0
M  V30 5951 C 561.963 -2.20823 -2.59712 0
M  V30 5952 H 563.156 -2.85774 -0.909586 0
M  V30 5953 H 560.709 -1.50032 -0.438174 0
M  V30 5954 H 561.444 -1.31243 -2.96557 0
M  V30 5955 H 561.229 -3.02368 -2.49632 0
M  V30 5956 H 562.719 -2.50608 -3.34044 0
M  V30 5957 N 563.156 0.464375 -1.50603 0
M  V30 5958 C 564.433 1.22549 -1.5245 0
M  V30 5959 C 564.813 2.09327 -0.273035 0
M  V30 5960 O 564.161 2.16074 0.743242 0
M  V30 5961 C 564.371 2.05074 -2.82393 0
M  V30 5962 C 565.719 2.63036 -3.33313 0
M  V30 5963 O 566.743 2.1531 -2.8376 0
M  V30 5964 O 565.602 3.5001 -4.19709 0
M  V30 5965 H 562.696 0.556471 -0.611775 0
M  V30 5966 H 565.242 0.475648 -1.62898 0
M  V30 5967 H 564.014 1.41169 -3.64948 0
M  V30 5968 H 563.637 2.87179 -2.7498 0
M  V30 5969 N 564.634 1.40294 0.718013 0
M  V30 5970 C 565.911 1.2894 1.47084 0
M  V30 5971 C 566.291 -0.0933625 2.10893 0
M  V30 5972 O 565.639 -1.10598 1.99951 0
M  V30 5973 C 565.849 2.4264 2.50852 0
M  V30 5974 C 567.197 2.8276 3.16752 0
M  V30 5975 O 568.221 2.42215 2.61171 0
M  V30 5976 O 567.08 3.528 4.17366 0
M  V30 5977 H 564.174 0.506236 0.653952 0
M  V30 5978 H 566.72 1.52208 0.750394 0
M  V30 5979 H 565.492 3.35009 2.022 0
M  V30 5980 H 565.115 2.21129 3.30435 0
M  V30 5981 N 566.112 -0.949982 1.2575 0
M  V30 5982 C 567.358 -1.69766 1.10938 0
M  V30 5983 C 567.691 -1.91056 -0.348028 0
M  V30 5984 O 566.966 -1.48488 -1.25625 0
M  V30 5985 C 567.249 -3.07779 1.86933 0
M  V30 5986 C 567.102 -2.9387 3.4053 0
M  V30 5987 C 568.421 -4.07749 1.65616 0
M  V30 5988 H 565.54 -0.616144 0.404396 0
M  V30 5989 H 568.182 -1.10394 1.54639 0
M  V30 5990 H 566.332 -3.58462 1.4979 0
M  V30 5991 H 568.004 -2.50476 3.87375 0
M  V30 5992 H 566.247 -2.29686 3.68004 0
M  V30 5993 H 566.918 -3.91719 3.88922 0
M  V30 5994 H 569.394 -3.65994 1.97959 0
M  V30 5995 H 568.27 -5.02348 2.21218 0
M  V30 5996 H 568.531 -4.38029 0.598595 0
M  V30 5997 N 567.59 -1.07411 -1.15328 0
M  V30 5998 C 568.836 -0.798831 -1.86404 0
M  V30 5999 C 569.169 0.673433 -1.8215 0
M  V30 6000 O 568.444 1.49428 -1.24505 0
M  V30 6001 C 568.727 -1.30846 -3.35487 0
M  V30 6002 C 568.58 -2.84532 -3.4837 0
M  V30 6003 C 569.899 -0.925486 -4.30259 0
M  V30 6004 H 567.018 -0.291659 -0.676834 0
M  V30 6005 H 569.66 -1.332 -1.35491 0
M  V30 6006 H 567.81 -0.854916 -3.78977 0
M  V30 6007 H 569.482 -3.3818 -3.13739 0
M  V30 6008 H 567.725 -3.22699 -2.8991 0
M  V30 6009 H 568.396 -3.15259 -4.53118 0
M  V30 6010 H 570.872 -1.3163 -3.94731 0
M  V30 6011 H 569.748 -1.3094 -5.33053 0
M  V30 6012 H 570.009 0.168525 -4.41779 0
M  V30 6013 N 569.068 1.32177 -0.85831 0
M  V30 6014 C 570.314 1.97813 -0.47346 0
M  V30 6015 C 570.669 1.66674 0.961122 0
M  V30 6016 O 569.962 0.94657 1.66585 0
M  V30 6017 C 570.156 3.51372 -0.653658 0
M  V30 6018 C 569.985 3.97433 -2.1042 0
M  V30 6019 C 568.755 4.24338 -2.74345 0
M  V30 6020 C 570.953 4.12233 -3.0752 0
M  V30 6021 N 568.935 4.56672 -4.10272 0
M  V30 6022 C 570.306 4.48146 -4.28445 0
M  V30 6023 C 572.361 3.94577 -3.03667 0
M  V30 6024 C 571.064 4.68246 -5.4602 0
M  V30 6025 C 573.09 4.15864 -4.20489 0
M  V30 6026 C 572.452 4.52098 -5.40173 0
M  V30 6027 H 568.551 0.749808 -0.222061 0
M  V30 6028 H 571.135 1.59927 -1.11047 0
M  V30 6029 H 569.306 3.88372 -0.0463267 0
M  V30 6030 H 571.038 4.03998 -0.238343 0
M  V30 6031 H 567.793 4.16544 -2.25362 0
M  V30 6032 H 568.217 4.77019 -4.80398 0
M  V30 6033 H 572.859 3.65662 -2.12252 0
M  V30 6034 H 570.577 4.96014 -6.37962 0
M  V30 6035 H 574.163 4.03702 -4.18947 0
M  V30 6036 H 573.043 4.68238 -6.29065 0
M  V30 6037 N 570.547 0.616602 1.45037 0
M  V30 6038 C 571.963 0.280994 1.57107 0
M  V30 6039 C 572.163 -1.21627 1.60653 0
M  V30 6040 O 571.219 -1.9997 1.54169 0
M  V30 6041 C 572.532 0.960116 2.8496 0
M  V30 6042 C 574.08 0.936884 2.98649 0
M  V30 6043 C 574.555 1.59619 4.29285 0
M  V30 6044 N 576.046 1.5621 4.36065 0
M  V30 6045 C 576.781 2.04131 5.35834 0
M  V30 6046 N 576.277 2.60177 6.4209 0
M  V30 6047 N 578.07 1.94845 5.27249 0
M  V30 6048 H 570.221 1.58867 1.40979 0
M  V30 6049 H 572.484 0.666024 0.674623 0
M  V30 6050 H 572.19 2.01473 2.88273 0
M  V30 6051 H 572.064 0.488921 3.74018 0
M  V30 6052 H 574.451 -0.109209 2.94898 0
M  V30 6053 H 574.532 1.44643 2.10979 0
M  V30 6054 H 574.176 2.64166 4.33796 0
M  V30 6055 H 574.106 1.06159 5.15789 0
M  V30 6056 H 576.597 1.15276 3.59889 0
M  V30 6057 H 576.91 2.94513 7.1448 0
M  V30 6058 H 575.255 2.64221 6.42816 0
M  V30 6059 H 578.446 1.50792 4.43147 0
M  V30 6060 H 578.619 2.32504 6.04852 0
M  V30 6061 N 572.025 -1.5352 0.356285 0
M  V30 6062 C 573.441 -1.59599 0.00485267 0
M  V30 6063 C 573.641 -1.37179 -1.47595 0
M  V30 6064 O 572.697 -1.17234 -2.23635 0
M  V30 6065 C 574.01 -2.97277 0.452454 0
M  V30 6066 C 575.558 -3.10357 0.405881 0
M  V30 6067 C 576.033 -4.50432 0.829148 0
M  V30 6068 N 577.524 -4.5652 0.783838 0
M  V30 6069 C 578.259 -5.63077 1.08315 0
M  V30 6070 N 577.755 -6.77429 1.45126 0
M  V30 6071 N 579.548 -5.53014 1.00655 0
M  V30 6072 H 571.699 -1.66346 1.32071 0
M  V30 6073 H 573.962 -0.77971 0.539218 0
M  V30 6074 H 573.668 -3.18792 1.48542 0
M  V30 6075 H 573.542 -3.76836 -0.165762 0
M  V30 6076 H 575.929 -2.88558 -0.617934 0
M  V30 6077 H 576.01 -2.32828 1.05947 0
M  V30 6078 H 575.654 -4.72968 1.85103 0
M  V30 6079 H 575.584 -5.26378 0.152906 0
M  V30 6080 H 578.075 -3.74408 0.512513 0
M  V30 6081 H 578.388 -7.54669 1.66415 0
M  V30 6082 H 576.733 -6.78844 1.48983 0
M  V30 6083 H 579.924 -4.62557 0.718215 0
M  V30 6084 H 580.097 -6.35964 1.24315 0
M  V30 6085 N 573.503 -0.0852151 -1.57369 0
M  V30 6086 C 574.728 0.592872 -1.98746 0
M  V30 6087 C 575.153 1.61538 -0.963689 0
M  V30 6088 O 574.511 1.81168 0.069071 0
M  V30 6089 C 574.559 1.22599 -3.39119 0
M  V30 6090 O 573.663 2.34185 -3.39457 0
M  V30 6091 H 573.004 0.151314 -0.646529 0
M  V30 6092 H 575.534 -0.163703 -2.03944 0
M  V30 6093 H 575.544 1.56965 -3.76598 0
M  V30 6094 H 574.219 0.476831 -4.13158 0
M  V30 6095 H 572.796 2.01512 -3.13763 0
M  V30 6096 N 574.981 1.5647 0.188427 0
M  V30 6097 C 575.911 1.98101 1.23606 0
M  V30 6098 C 576.892 0.853961 1.47111 0
M  V30 6099 O 578.077 1.11879 1.58735 0
M  V30 6100 C 575.207 2.32624 2.57882 0
M  V30 6101 C 574.161 3.48129 2.48978 0
M  V30 6102 C 573.487 3.68347 3.87588 0
M  V30 6103 C 574.787 4.82112 2.00911 0
M  V30 6104 H 576.481 2.85864 0.890068 0
M  V30 6105 H 574.027 1.37532 0.426714 0
M  V30 6106 H 575.98 2.60343 3.3136 0
M  V30 6107 H 574.704 1.41751 2.94235 0
M  V30 6108 H 573.363 3.20511 1.77956 0
M  V30 6109 H 573.011 2.74793 4.21305 0
M  V30 6110 H 572.711 4.46055 3.82503 0
M  V30 6111 H 574.235 3.98449 4.62678 0
M  V30 6112 H 575.649 5.08819 2.64151 0
M  V30 6113 H 574.046 5.63337 2.06814 0
M  V30 6114 H 575.116 4.75249 0.96262 0
M  V30 6115 N 576.459 -0.456382 1.50847 0
M  V30 6116 C 577.389 -1.56025 1.73719 0
M  V30 6117 C 578.37 -1.5967 0.586473 0
M  V30 6118 O 579.555 -1.75702 0.827185 0
M  V30 6119 C 576.685 -2.94251 1.84483 0
M  V30 6120 C 575.639 -3.05471 2.99786 0
M  V30 6121 C 574.965 -4.45489 2.95709 0
M  V30 6122 C 576.265 -2.81318 4.40065 0
M  V30 6123 H 577.959 -1.37138 2.66146 0
M  V30 6124 H 575.505 -0.658299 1.28072 0
M  V30 6125 H 577.458 -3.71417 1.99067 0
M  V30 6126 H 576.182 -3.14328 0.886891 0
M  V30 6127 H 574.841 -2.30741 2.84876 0
M  V30 6128 H 574.489 -4.62505 1.97732 0
M  V30 6129 H 574.189 -4.53929 3.73125 0
M  V30 6130 H 575.713 -5.24655 3.12362 0
M  V30 6131 H 577.127 -3.48226 4.55425 0
M  V30 6132 H 575.524 -3.01188 5.19043 0
M  V30 6133 H 576.594 -1.7706 4.51418 0
M  V30 6134 N 577.937 -1.40673 -0.710563 0
M  V30 6135 C 578.867 -1.44095 -1.83736 0
M  V30 6136 C 579.848 -0.301286 -1.67411 0
M  V30 6137 O 581.033 -0.510618 -1.87367 0
M  V30 6138 C 578.163 -1.30773 -3.21738 0
M  V30 6139 C 577.117 -2.42395 -3.52745 0
M  V30 6140 C 576.443 -2.14147 -4.89944 0
M  V30 6141 C 577.743 -3.84738 -3.53234 0
M  V30 6142 H 579.437 -2.38396 -1.81129 0
M  V30 6143 H 576.983 -1.14746 -0.870017 0
M  V30 6144 H 578.936 -1.31783 -4.00264 0
M  V30 6145 H 577.66 -0.329507 -3.24934 0
M  V30 6146 H 576.319 -2.40643 -2.76562 0
M  V30 6147 H 575.967 -1.14703 -4.89747 0
M  V30 6148 H 575.667 -2.88934 -5.11655 0
M  V30 6149 H 577.191 -2.16848 -5.70797 0
M  V30 6150 H 578.605 -3.88286 -4.2179 0
M  V30 6151 H 577.002 -4.59085 -3.86473 0
M  V30 6152 H 578.072 -4.13962 -2.52514 0
M  V30 6153 N 579.415 0.9433 -1.26252 0
M  V30 6154 C 580.831 1.21644 -1.03319 0
M  V30 6155 C 581.031 2.0003 0.242983 0
M  V30 6156 O 580.087 2.33838 0.952688 0
M  V30 6157 C 581.4 1.97978 -2.2633 0
M  V30 6158 C 582.948 2.10978 -2.31209 0
M  V30 6159 C 583.423 2.90713 -3.53907 0
M  V30 6160 N 584.914 2.98287 -3.54371 0
M  V30 6161 C 585.649 3.60406 -4.45976 0
M  V30 6162 N 585.145 4.24043 -5.47868 0
M  V30 6163 N 586.938 3.57658 -4.33633 0
M  V30 6164 H 579.089 0.419221 -2.08222 0
M  V30 6165 H 581.352 0.247995 -0.914988 0
M  V30 6166 H 581.058 1.47788 -3.19142 0
M  V30 6167 H 580.932 2.9865 -2.30408 0
M  V30 6168 H 583.319 2.6036 -1.38913 0
M  V30 6169 H 583.4 1.09575 -2.31143 0
M  V30 6170 H 583.044 2.42018 -4.46531 0
M  V30 6171 H 582.974 3.92367 -3.5122 0
M  V30 6172 H 585.465 2.53044 -2.80673 0
M  V30 6173 H 585.778 4.69334 -6.13959 0
M  V30 6174 H 584.123 4.22637 -5.51728 0
M  V30 6175 H 587.314 3.07134 -3.53251 0
M  V30 6176 H 587.487 4.05782 -5.05218 0
M  V30 6177 N 580.893 1.08022 1.14757 0
M  V30 6178 C 582.141 0.805913 1.85336 0
M  V30 6179 C 582.462 -0.670162 1.83122 0
M  V30 6180 O 581.732 -1.48567 1.2769 0
M  V30 6181 H 580.312 0.295138 0.686223 0
M  V30 6182 H 582.974 1.36538 1.3908 0
M  V30 6183 H 582.07 1.14655 2.90277 0
M  V30 6184 N 582.371 -1.3172 0.865308 0
M  V30 6185 C 583.62 -1.96145 0.470098 0
M  V30 6186 C 583.933 -1.69182 -0.981674 0
M  V30 6187 O 585.139 -2.27431 -1.48281 0
M  V30 6188 C 583.595 -3.51129 0.789732 0
M  V30 6189 C 583.203 -3.86938 2.25795 0
M  V30 6190 C 584.947 -4.2197 0.462765 0
M  V30 6191 C 582.854 -5.35012 2.52024 0
M  V30 6192 H 581.784 -0.734105 0.172065 0
M  V30 6193 H 584.435 -1.49959 1.05757 0
M  V30 6194 H 582.817 -3.95781 0.131571 0
M  V30 6195 H 583.991 -3.5326 2.95879 0
M  V30 6196 H 582.306 -3.29149 2.55049 0
M  V30 6197 H 584.903 -5.30904 0.636019 0
M  V30 6198 H 585.246 -4.12005 -0.59645 0
M  V30 6199 H 585.779 -3.82936 1.07727 0
M  V30 6200 H 582.518 -5.50008 3.56611 0
M  V30 6201 H 582.038 -5.70058 1.8653 0
M  V30 6202 H 583.717 -6.0222 2.36515 0
M  V30 6203 N 583.85 -0.624285 -1.44708 0
M  V30 6204 C 585.127 -0.0572781 -1.95516 0
M  V30 6205 C 585.507 1.41516 -1.56641 0
M  V30 6206 O 584.855 2.12614 -0.837111 0
M  V30 6207 C 585.065 -0.272944 -3.47931 0
M  V30 6208 C 586.413 -0.162529 -4.24289 0
M  V30 6209 O 587.437 -0.203946 -3.55616 0
M  V30 6210 O 586.296 -0.0616847 -5.46465 0
M  V30 6211 H 583.389 0.0262219 -0.826584 0
M  V30 6212 H 585.936 -0.695512 -1.54793 0
M  V30 6213 H 584.707 -1.29492 -3.69253 0
M  V30 6214 H 584.331 0.399756 -3.95585 0
M  V30 6215 N 585.328 1.53329 -0.364422 0
M  V30 6216 C 586.278 2.22472 0.499024 0
M  V30 6217 C 587.262 1.21952 1.0496 0
M  V30 6218 O 588.454 1.47405 0.979836 0
M  V30 6219 C 585.583 3.01659 1.6388 0
M  V30 6220 C 584.669 4.09555 1.10116 0
M  V30 6221 N 585.06 5.04988 0.286414 0
M  V30 6222 C 583.358 4.2424 1.37608 0
M  V30 6223 C 584.059 5.81699 -0.00781682 0
M  V30 6224 N 583.035 5.40394 0.589494 0
M  V30 6225 H 586.837 2.93611 -0.130284 0
M  V30 6226 H 584.351 1.61483 -0.172377 0
M  V30 6227 H 586.348 3.4971 2.26954 0
M  V30 6228 H 585.008 2.32051 2.27118 0
M  V30 6229 H 586.019 5.17847 -0.0742839 0
M  V30 6230 H 582.696 3.65858 2.01133 0
M  V30 6231 H 584.086 6.68587 -0.666394 0
M  V30 6232 N 586.806 0.0935595 1.57322 0
M  V30 6233 C 587.736 -0.863062 2.16964 0
M  V30 6234 C 588.717 -1.29528 1.10256 0
M  V30 6235 O 589.902 -1.36245 1.38387 0
M  V30 6236 C 587.032 -2.12276 2.74875 0
M  V30 6237 C 585.986 -1.82921 3.86942 0
M  V30 6238 C 585.312 -3.15707 4.31548 0
M  V30 6239 C 586.612 -1.11737 5.10208 0
M  V30 6240 H 588.306 -0.366145 2.97153 0
M  V30 6241 H 585.852 -0.174673 1.42937 0
M  V30 6242 H 587.805 -2.79634 3.1525 0
M  V30 6243 H 586.529 -2.64248 1.91938 0
M  V30 6244 H 585.188 -1.17961 3.47103 0
M  V30 6245 H 584.836 -3.65563 3.45504 0
M  V30 6246 H 584.536 -2.96849 5.07104 0
M  V30 6247 H 586.06 -3.84226 4.74555 0
M  V30 6248 H 587.474 -1.69203 5.47762 0
M  V30 6249 H 585.871 -1.03064 5.91183 0
M  V30 6250 H 586.941 -0.0998818 4.84797 0
M  V30 6251 N 588.284 -1.56567 -0.180126 0
M  V30 6252 C 589.695 -1.7126 -0.743422 0
M  V30 6253 C 590.046 -0.70263 -1.83187 0
M  V30 6254 O 589.171 0.137856 -2.1596 0
M  V30 6255 C 589.766 -3.10512 -1.35528 0
M  V30 6256 C 588.325 -3.26919 -1.8655 0
M  V30 6257 C 587.472 -2.67213 -0.741099 0
M  V30 6258 H 590.423 -1.58636 0.0451543 0
M  V30 6259 H 590.444 -3.08673 -2.22489 0
M  V30 6260 H 589.956 -3.83997 -0.562862 0
M  V30 6261 H 588.057 -2.58376 -2.68464 0
M  V30 6262 H 588.17 -4.34574 -2.01699 0
M  V30 6263 H 586.534 -2.26788 -1.15927 0
M  V30 6264 H 587.317 -3.43277 0.0393291 0
M  V30 6265 N 589.762 0.448376 -1.51087 0
M  V30 6266 C 591.008 1.20049 -1.6345 0
M  V30 6267 C 591.341 1.91121 -0.344444 0
M  V30 6268 O 590.616 1.83125 0.655396 0
M  V30 6269 C 590.899 2.22624 -2.83038 0
M  V30 6270 C 590.752 1.55708 -4.21989 0
M  V30 6271 C 592.071 3.23718 -2.98152 0
M  V30 6272 H 589.19 0.435085 -0.59487 0
M  V30 6273 H 591.832 0.491183 -1.83541 0
M  V30 6274 H 589.982 2.83117 -2.66039 0
M  V30 6275 H 591.654 0.986367 -4.50631 0
M  V30 6276 H 589.897 0.859647 -4.25197 0
M  V30 6277 H 590.568 2.30357 -5.01637 0
M  V30 6278 H 593.044 2.73269 -3.13788 0
M  V30 6279 H 591.92 3.92795 -3.83411 0
M  V30 6280 H 592.181 3.89179 -2.09743 0
M  V30 6281 N 591.24 1.41047 0.703093 0
M  V30 6282 C 592.656 1.23351 1.01275 0
M  V30 6283 C 592.856 0.11754 2.01157 0
M  V30 6284 O 591.912 -0.520518 2.47077 0
M  V30 6285 C 593.225 2.58001 1.54454 0
M  V30 6286 C 594.773 2.65119 1.66376 0
M  V30 6287 C 595.248 4.00067 2.22958 0
M  V30 6288 N 596.739 4.01875 2.30328 0
M  V30 6289 C 597.474 5.03087 2.75119 0
M  V30 6290 N 596.97 6.14692 3.19571 0
M  V30 6291 N 598.763 4.90451 2.74616 0
M  V30 6292 H 590.914 2.1236 0.0412686 0
M  V30 6293 H 593.177 0.944543 0.08089 0
M  V30 6294 H 592.883 3.40378 0.88521 0
M  V30 6295 H 592.757 2.79962 2.52786 0
M  V30 6296 H 595.144 1.83106 2.31422 0
M  V30 6297 H 595.225 2.46975 0.666089 0
M  V30 6298 H 594.869 4.82526 1.58529 0
M  V30 6299 H 594.799 4.15547 3.23462 0
M  V30 6300 H 597.29 3.21291 1.98949 0
M  V30 6301 H 597.603 6.87799 3.52352 0
M  V30 6302 H 595.948 6.18239 3.17498 0
M  V30 6303 H 599.139 4.0235 2.39233 0
M  V30 6304 H 599.312 5.6947 3.09206 0
M  V30 6305 N 592.718 -0.936591 1.26751 0
M  V30 6306 C 593.648 -2.05315 1.11212 0
M  V30 6307 C 594.629 -1.70092 0.0160262 0
M  V30 6308 O 595.814 -1.93279 0.188894 0
M  V30 6309 C 592.944 -3.39123 0.749171 0
M  V30 6310 C 591.898 -3.88425 1.79751 0
M  V30 6311 C 591.224 -5.18936 1.28876 0
M  V30 6312 C 592.524 -4.12798 3.19992 0
M  V30 6313 H 594.218 -2.18573 2.04613 0
M  V30 6314 H 591.764 -1.05027 0.985159 0
M  V30 6315 H 593.717 -4.16704 0.627323 0
M  V30 6316 H 592.441 -3.25855 -0.220543 0
M  V30 6317 H 591.1 -3.13028 1.90811 0
M  V30 6318 H 590.748 -5.02051 0.308757 0
M  V30 6319 H 590.448 -5.52892 1.98958 0
M  V30 6320 H 591.972 -5.99096 1.17967 0
M  V30 6321 H 593.386 -4.80977 3.11983 0
M  V30 6322 H 591.783 -4.58044 3.87705 0
M  V30 6323 H 592.853 -3.18412 3.65707 0
M  V30 6324 N 594.196 -1.08629 -1.14182 0
M  V30 6325 C 595.473 -0.73002 -1.81466 0
M  V30 6326 C 595.853 0.785996 -1.95922 0
M  V30 6327 O 595.201 1.70535 -1.52086 0
M  V30 6328 C 595.411 -1.45957 -3.17014 0
M  V30 6329 C 596.759 -1.62008 -3.92477 0
M  V30 6330 O 597.783 -1.42141 -3.26611 0
M  V30 6331 O 596.642 -1.94806 -5.106 0
M  V30 6332 H 593.736 -0.261307 -0.784632 0
M  V30 6333 H 596.282 -1.188 -1.2118 0
M  V30 6334 H 595.054 -2.49221 -3.01669 0
M  V30 6335 H 594.677 -0.993222 -3.84995 0
M  V30 6336 N 595.674 1.31259 -0.872281 0
M  V30 6337 C 596.922 1.96233 -0.483409 0
M  V30 6338 C 597.243 1.69276 0.968012 0
M  V30 6339 O 596.513 1.00943 1.67891 0
M  V30 6340 H 595.093 0.726025 -0.175774 0
M  V30 6341 H 597.755 1.60024 -1.11258 0
M  V30 6342 H 596.851 3.05403 -0.643075 0
M  V30 6343 O 597.191 0.771905 1.41859 0
M  V30 6344 H 597.882 0.335971 1.90764 0
M  V30 END ATOM
M  V30 BEGIN BOND
M  V30 END BOND
M  V30 END CTAB
M  END
$$$$
