drugbank_target|Q13470 Non-receptor tyrosine-protein kinase TNK1 (DB12010)
 OpenBabel12092121143D

  0  0  0     0  0            999 V3000
M  V30 BEGIN CTAB
M  V30 COUNTS 10250 10396 0 0 0
M  V30 BEGIN ATOM
M  V30 1 H -0.908 1.98254 -0.117106 0
M  V30 2 N 0 1.576 0 0
M  V30 3 C 0.933 2.03868 1.02534 0
M  V30 4 C 1.911 0.928543 1.3348 0
M  V30 5 O 3.095 1.19667 1.45644 0
M  V30 6 C 0.222 2.43627 2.35294 0
M  V30 7 C -0.732 3.65373 2.2001 0
M  V30 8 S 0.101 5.13292 1.52614 0
M  V30 9 C 1.257 5.56322 2.86805 0
M  V30 10 H 1.49 2.90518 0.631377 0
M  V30 11 H -0.977 1.52953 0.210867 0
M  V30 12 H 0.981 2.67203 3.11629 0
M  V30 13 H -0.358 1.57376 2.7183 0
M  V30 14 H -1.165 3.90944 3.18086 0
M  V30 15 H -1.563 3.418 1.51819 0
M  V30 16 H 0.729 5.58782 3.83104 0
M  V30 17 H 1.672 6.56266 2.65933 0
M  V30 18 H 2.08 4.83886 2.90714 0
M  V30 19 N 1.4781 -0.272755 1.55222 0
M  V30 20 C 2.4081 -1.34136 1.91127 0
M  V30 21 C 3.3891 -1.51513 0.773168 0
M  V30 22 O 4.5741 -1.64552 1.03132 0
M  V30 23 C 1.7041 -2.70083 2.1834 0
M  V30 24 C 0.6581 -2.67437 3.34158 0
M  V30 25 C -0.0159 -4.06938 3.46851 0
M  V30 26 C 1.2841 -2.26686 4.70543 0
M  V30 27 H 2.9781 -1.04333 2.80633 0
M  V30 28 H 0.5241 -0.500454 1.35024 0
M  V30 29 H 2.4771 -3.44952 2.42046 0
M  V30 30 H 1.2011 -3.01469 1.25634 0
M  V30 31 H -0.1399 -1.95026 3.1042 0
M  V30 32 H -0.4919 -4.35547 2.51611 0
M  V30 33 H -0.7919 -4.06062 4.2472 0
M  V30 34 H 0.7321 -4.83545 3.72849 0
M  V30 35 H 2.1461 -2.91277 4.93792 0
M  V30 36 H 0.5431 -2.36971 5.5133 0
M  V30 37 H 1.6131 -1.21818 4.69349 0
M  V30 38 N 2.9562 -1.48159 -0.537278 0
M  V30 39 C 4.3672 -1.49429 -1.11928 0
M  V30 40 C 4.7182 -0.26 -1.9447 0
M  V30 41 O 3.8432 0.633489 -2.0692 0
M  V30 42 C 4.4382 -2.70758 -2.03656 0
M  V30 43 C 2.9972 -2.74923 -2.57088 0
M  V30 44 C 2.1442 -2.42835 -1.3389 0
M  V30 45 H 5.0952 -1.55381 -0.322886 0
M  V30 46 H 5.1162 -2.48861 -2.87834 0
M  V30 47 H 4.6282 -3.60575 -1.43553 0
M  V30 48 H 2.7292 -1.89296 -3.20933 0
M  V30 49 H 2.8422 -3.76157 -2.9672 0
M  V30 50 H 1.2062 -1.93836 -1.65226 0
M  V30 51 H 1.9892 -3.34884 -0.755504 0
M  V30 52 N 4.4343 0.785586 -1.36625 0
M  V30 53 C 5.3443 1.92964 -1.33425 0
M  V30 54 C 6.3603 1.72394 -0.235851 0
M  V30 55 O 7.5363 1.95866 -0.468878 0
M  V30 56 C 4.6013 3.27884 -1.12662 0
M  V30 57 C 3.6623 3.61204 -2.32013 0
M  V30 58 C 2.8953 4.89687 -2.12231 0
M  V30 59 O 3.1183 5.59704 -1.09945 0
M  V30 60 O 2.0523 5.21752 -3.00098 0
M  V30 61 H 5.8783 1.98613 -2.29753 0
M  V30 62 H 3.4633 0.926384 -1.17211 0
M  V30 63 H 5.3453 4.08614 -1.03016 0
M  V30 64 H 4.0203 3.23118 -0.193991 0
M  V30 65 H 2.9273 2.80765 -2.47228 0
M  V30 66 H 4.2603 3.70698 -3.23796 0
M  V30 67 N 5.9124 1.20967 1.01018 0
M  V30 68 C 6.8754 0.965918 2.07853 0
M  V30 69 C 7.8754 -0.0610545 1.60684 0
M  V30 70 O 9.0654 0.175681 1.73312 0
M  V30 71 C 6.1974 0.455513 3.37843 0
M  V30 72 H 7.3904 1.91365 2.3091 0
M  V30 73 H 4.9434 1.02594 1.17916 0
M  V30 74 H 5.6784 -0.497381 3.20463 0
M  V30 75 H 5.4634 1.19622 3.73407 0
M  V30 76 H 6.9534 0.304667 4.16487 0
M  V30 77 N 7.3905 -1.2043 1.01659 0
M  V30 78 C 8.6385 -1.89423 0.704522 0
M  V30 79 C 8.9595 -1.79231 -0.768197 0
M  V30 80 O 8.2295 -1.1947 -1.55254 0
M  V30 81 H 6.8095 -0.701178 0.257602 0
M  V30 82 H 9.4715 -1.4626 1.28818 0
M  V30 83 H 8.5675 -2.96052 0.987916 0
M  V30 84 N 8.8686 -0.792821 -1.36206 0
M  V30 85 C 10.0936 -0.377701 -2.03932 0
M  V30 86 C 10.5186 0.998947 -1.59382 0
M  V30 87 O 9.8766 1.64421 -0.763903 0
M  V30 88 C 9.9246 -0.453635 -3.57735 0
M  V30 89 O 9.0286 0.538151 -4.08874 0
M  V30 90 H 8.3696 -0.159855 -0.644471 0
M  V30 91 H 10.8996 -1.07488 -1.7409 0
M  V30 92 H 10.9096 -0.318464 -4.06755 0
M  V30 93 H 9.5846 -1.45784 -3.89512 0
M  V30 94 H 8.1616 0.364359 -3.71116 0
M  V30 95 N 10.3467 1.47872 -0.545128 0
M  V30 96 C 11.2767 2.32661 0.197793 0
M  V30 97 C 12.2577 1.43041 0.920504 0
M  V30 98 O 13.4427 1.71912 0.90333 0
M  V30 99 C 10.5727 3.24569 1.23582 0
M  V30 100 C 9.5267 4.23333 0.630323 0
M  V30 101 C 8.8527 5.0448 1.77211 0
M  V30 102 C 10.1527 5.20704 -0.407974 0
M  V30 103 H 11.8467 2.95024 -0.510045 0
M  V30 104 H 9.3927 1.4187 -0.246731 0
M  V30 105 H 11.3457 3.8272 1.76362 0
M  V30 106 H 10.0697 2.60236 1.97344 0
M  V30 107 H 8.7287 3.6639 0.123922 0
M  V30 108 H 8.3767 4.36561 2.49847 0
M  V30 109 H 8.0767 5.71339 1.37281 0
M  V30 110 H 9.6007 5.65487 2.3034 0
M  V30 111 H 11.0147 5.7329 0.033305 0
M  V30 112 H 9.4117 5.95699 -0.725486 0
M  V30 113 H 10.4817 4.66917 -1.30828 0
M  V30 114 N 11.8248 0.280983 1.55075 0
M  V30 115 C 13.0708 -0.327573 2.00745 0
M  V30 116 C 13.4258 -1.53045 1.16598 0
M  V30 117 O 12.7188 -1.90221 0.229451 0
M  V30 118 C 12.9128 -0.754656 3.49342 0
M  V30 119 C 12.7418 0.40529 4.4787 0
M  V30 120 C 11.5118 0.890947 4.97383 0
M  V30 121 C 13.7098 1.24371 4.99035 0
M  V30 122 N 11.6918 2.01975 5.79724 0
M  V30 123 C 13.0628 2.22031 5.7888 0
M  V30 124 C 15.1178 1.27638 4.81262 0
M  V30 125 C 13.8208 3.22709 6.42846 0
M  V30 126 C 15.8468 2.27164 5.46031 0
M  V30 127 C 15.2088 3.23556 6.25692 0
M  V30 128 H 11.3078 -0.0848774 0.77738 0
M  V30 129 H 13.8918 0.406342 1.90413 0
M  V30 130 H 12.0628 -1.45778 3.60005 0
M  V30 131 H 13.7948 -1.34105 3.81835 0
M  V30 132 H 10.5498 0.469262 4.71269 0
M  V30 133 H 10.9738 2.58794 6.25584 0
M  V30 134 H 15.6158 0.544936 4.19274 0
M  V30 135 H 13.3338 3.96784 7.0398 0
M  V30 136 H 16.9198 2.30441 5.34217 0
M  V30 137 H 15.7998 3.99309 6.74924 0
M  V30 138 N 13.3029 -1.57598 0.00835791 0
M  V30 139 C 14.2329 -2.1198 -0.979113 0
M  V30 140 C 15.2139 -1.03091 -1.35301 0
M  V30 141 O 16.3989 -1.30818 -1.43528 0
M  V30 142 C 13.5289 -2.62995 -2.26828 0
M  V30 143 C 12.4829 -3.76485 -2.03576 0
M  V30 144 C 11.8089 -4.13846 -3.38579 0
M  V30 145 C 13.1089 -5.0342 -1.39161 0
M  V30 146 H 14.8029 -2.94738 -0.526281 0
M  V30 147 H 12.3489 -1.41783 -0.251704 0
M  V30 148 H 14.3019 -2.99669 -2.96271 0
M  V30 149 H 13.0259 -1.7737 -2.7424 0
M  V30 150 H 11.6849 -3.40217 -1.36557 0
M  V30 151 H 11.3329 -3.25232 -3.83709 0
M  V30 152 H 11.0329 -4.90312 -3.23834 0
M  V30 153 H 12.5569 -4.53086 -4.09323 0
M  V30 154 H 13.9709 -5.37812 -1.98573 0
M  V30 155 H 12.3679 -5.84746 -1.34878 0
M  V30 156 H 13.4379 -4.83548 -0.361868 0
M  V30 157 N 14.781 0.264519 -1.55364 0
M  V30 158 C 15.711 1.33121 -1.91836 0
M  V30 159 C 16.692 1.51101 -0.781192 0
M  V30 160 O 17.877 1.64003 -1.04003 0
M  V30 161 C 15.007 2.68921 -2.19769 0
M  V30 162 C 13.961 2.65661 -3.35571 0
M  V30 163 C 13.287 4.05093 -3.49004 0
M  V30 164 C 14.587 2.24187 -4.71739 0
M  V30 165 H 16.281 1.02844 -2.81182 0
M  V30 166 H 13.827 0.493286 -1.35287 0
M  V30 167 H 15.78 3.43663 -2.43872 0
M  V30 168 H 14.504 3.00799 -1.27231 0
M  V30 169 H 13.163 1.93377 -3.1145 0
M  V30 170 H 12.811 4.34206 -2.53917 0
M  V30 171 H 12.511 4.03804 -4.26868 0
M  V30 172 H 14.035 4.81561 -3.75408 0
M  V30 173 H 15.449 2.88654 -4.9533 0
M  V30 174 H 13.846 2.34044 -5.52579 0
M  V30 175 H 14.916 1.19327 -4.69988 0
M  V30 176 N 16.2591 1.48442 0.529413 0
M  V30 177 C 17.2061 1.63007 1.63394 0
M  V30 178 C 18.1761 0.47212 1.59249 0
M  V30 179 O 19.3611 0.695673 1.77666 0
M  V30 180 C 16.5011 1.6763 3.01653 0
M  V30 181 C 15.6141 2.94535 3.16027 0
M  V30 182 C 14.7491 2.90316 4.44849 0
M  V30 183 C 13.7881 4.11923 4.52754 0
M  V30 184 N 12.9251 4.05777 5.72965 0
M  V30 185 H 17.7651 2.5733 1.50285 0
M  V30 186 H 15.3021 1.27613 0.731656 0
M  V30 187 H 17.2601 1.68292 3.81751 0
M  V30 188 H 15.8901 0.76797 3.13532 0
M  V30 189 H 14.9421 3.03615 2.29177 0
M  V30 190 H 16.2541 3.84512 3.17729 0
M  V30 191 H 15.4081 2.89382 5.33238 0
M  V30 192 H 14.1471 1.98068 4.45668 0
M  V30 193 H 13.1521 4.13131 3.62771 0
M  V30 194 H 14.3771 5.0533 4.53672 0
M  V30 195 H 12.3231 3.16351 5.74681 0
M  V30 196 H 12.2401 4.8946 5.76164 0
M  V30 197 H 13.5081 4.08904 6.6364 0
M  V30 198 N 17.7372 -0.778329 1.37039 0
M  V30 199 C 18.6672 -1.90546 1.34962 0
M  V30 200 C 19.6482 -1.68681 0.219274 0
M  V30 201 O 20.8332 -1.89634 0.418624 0
M  V30 202 C 17.9632 -3.27734 1.14925 0
M  V30 203 C 16.9172 -3.64147 2.24902 0
M  V30 204 C 16.2432 -4.99806 1.89996 0
M  V30 205 C 17.5432 -3.71579 3.67051 0
M  V30 206 H 19.2372 -1.92541 2.29277 0
M  V30 207 H 16.7832 -0.924948 1.10366 0
M  V30 208 H 18.7362 -4.06215 1.12104 0
M  V30 209 H 17.4602 -3.26154 0.170631 0
M  V30 210 H 16.1192 -2.8797 2.26868 0
M  V30 211 H 15.7672 -4.94759 0.906796 0
M  V30 212 H 15.4672 -5.25139 2.63634 0
M  V30 213 H 16.9912 -5.80694 1.88749 0
M  V30 214 H 18.4052 -4.40227 3.67251 0
M  V30 215 H 16.8022 -4.08405 4.39688 0
M  V30 216 H 17.8722 -2.72404 4.01154 0
M  V30 217 N 19.2153 -1.21501 -1.00376 0
M  V30 218 C 20.1453 -0.999478 -2.11028 0
M  V30 219 C 21.1263 0.0759671 -1.6993 0
M  V30 220 O 22.3113 -0.0841106 -1.94018 0
M  V30 221 C 19.4413 -0.564709 -3.42678 0
M  V30 222 C 18.3953 -1.58486 -3.97576 0
M  V30 223 C 17.7213 -1.00628 -5.25146 0
M  V30 224 C 19.0213 -2.97204 -4.29496 0
M  V30 225 H 20.7153 -1.92495 -2.29317 0
M  V30 226 H 18.2613 -0.92693 -1.102 0
M  V30 227 H 20.2143 -0.401091 -4.19487 0
M  V30 228 H 18.9383 0.396411 -3.24185 0
M  V30 229 H 17.5973 -1.73606 -3.22888 0
M  V30 230 H 17.2453 -0.0368439 -5.02987 0
M  V30 231 H 16.9453 -1.68771 -5.62841 0
M  V30 232 H 18.4693 -0.854015 -6.04598 0
M  V30 233 H 19.8833 -2.8552 -4.97143 0
M  V30 234 H 18.2803 -3.62372 -4.78338 0
M  V30 235 H 19.3503 -3.47956 -3.3772 0
M  V30 236 N 20.6934 1.19889 -1.02296 0
M  V30 237 C 22.1094 1.41462 -0.738954 0
M  V30 238 C 22.3094 1.89721 0.678846 0
M  V30 239 O 21.3654 2.07016 1.4457 0
M  V30 240 C 22.6784 2.43083 -1.77005 0
M  V30 241 C 24.2264 2.5684 -1.78892 0
M  V30 242 C 24.7014 3.61709 -2.80945 0
M  V30 243 N 26.1924 3.69199 -2.79725 0
M  V30 244 C 26.9274 4.50019 -3.55345 0
M  V30 245 N 26.4234 5.34592 -4.40662 0
M  V30 246 N 28.2164 4.44612 -3.43914 0
M  V30 247 H 20.3674 0.868827 -1.93817 0
M  V30 248 H 22.6304 0.44399 -0.837602 0
M  V30 249 H 22.3364 2.14636 -2.78612 0
M  V30 250 H 22.2104 3.4217 -1.58744 0
M  V30 251 H 24.5974 2.84614 -0.779674 0
M  V30 252 H 24.6784 1.57927 -2.01228 0
M  V30 253 H 24.3224 3.34678 -3.82038 0
M  V30 254 H 24.2524 4.60259 -2.5587 0
M  V30 255 H 26.7434 3.08794 -2.17842 0
M  V30 256 H 27.0564 5.93363 -4.95116 0
M  V30 257 H 25.4014 5.34073 -4.44737 0
M  V30 258 H 28.5924 3.7758 -2.76679 0
M  V30 259 H 28.7654 5.0736 -4.031 0
M  V30 260 N 22.1715 0.800033 1.35784 0
M  V30 261 C 23.4485 0.30088 1.93272 0
M  V30 262 C 23.8285 -1.20857 1.73081 0
M  V30 263 O 23.1765 -2.00502 1.09596 0
M  V30 264 C 23.3865 0.70511 3.41803 0
M  V30 265 C 24.7345 0.690871 4.18942 0
M  V30 266 O 25.7585 0.646244 3.50289 0
M  V30 267 O 24.6175 0.74332 5.41421 0
M  V30 268 H 21.7115 0.0771605 0.823393 0
M  V30 269 H 24.2575 0.88329 1.449 0
M  V30 270 H 23.0295 1.74571 3.50201 0
M  V30 271 H 22.6525 0.0971541 3.97481 0
M  V30 272 N 23.6496 -1.47581 0.552962 0
M  V30 273 C 24.8986 -2.01684 0.0251995 0
M  V30 274 C 25.2116 -1.43317 -1.33115 0
M  V30 275 O 26.4176 -1.89057 -1.94858 0
M  V30 276 C 24.8736 -3.599 -0.00542052 0
M  V30 277 C 24.4816 -4.27257 1.34742 0
M  V30 278 C 26.2256 -4.21768 -0.4808 0
M  V30 279 C 24.1326 -5.77467 1.27614 0
M  V30 280 H 23.0626 -0.753979 0.00565033 0
M  V30 281 H 25.7136 -1.69616 0.70018 0
M  V30 282 H 24.0956 -3.88911 -0.745961 0
M  V30 283 H 25.2696 -4.09893 2.10534 0
M  V30 284 H 23.5846 -3.77358 1.76039 0
M  V30 285 H 26.1816 -5.31838 -0.55246 0
M  V30 286 H 26.5246 -3.88651 -1.49184 0
M  V30 287 H 27.0576 -3.97273 0.204752 0
M  V30 288 H 23.7966 -6.15196 2.26304 0
M  V30 289 H 23.3166 -5.9718 0.55996 0
M  V30 290 H 24.9956 -6.3959 0.976421 0
M  V30 291 N 25.1277 -0.289203 -1.54924 0
M  V30 292 C 26.0597 0.625583 -2.20497 0
M  V30 293 C 27.0727 1.10667 -1.19402 0
M  V30 294 O 28.2617 1.02615 -1.46056 0
M  V30 295 C 25.3617 1.86702 -2.82835 0
M  V30 296 C 24.5347 1.5304 -4.09753 0
M  V30 297 C 23.5937 2.62576 -4.56005 0
M  V30 298 O 22.6197 2.28167 -5.21468 0
M  V30 299 N 23.8217 3.92901 -4.27328 0
M  V30 300 H 26.5867 0.0642801 -2.99631 0
M  V30 301 H 24.1477 -0.110896 -1.6152 0
M  V30 302 H 26.1397 2.59304 -3.10715 0
M  V30 303 H 24.7097 2.33702 -2.07611 0
M  V30 304 H 23.9297 0.637564 -3.8901 0
M  V30 305 H 25.2177 1.28072 -4.92418 0
M  V30 306 H 24.6157 4.23671 -3.74859 0
M  V30 307 H 23.1727 4.61837 -4.59946 0
M  V30 308 N 26.6058 1.57591 -0.0167156 0
M  V30 309 C 27.5358 2.12496 0.967858 0
M  V30 310 C 28.5168 1.03807 1.34752 0
M  V30 311 O 29.7018 1.31577 1.42833 0
M  V30 312 C 26.8318 2.64194 2.25431 0
M  V30 313 C 25.7858 3.77559 2.01576 0
M  V30 314 C 25.1118 4.15636 3.36379 0
M  V30 315 C 26.4118 5.04151 1.36489 0
M  V30 316 H 28.1058 2.95013 0.510643 0
M  V30 317 H 25.6518 1.41915 0.244181 0
M  V30 318 H 27.6048 3.01236 2.94678 0
M  V30 319 H 26.3288 1.78821 2.73296 0
M  V30 320 H 24.9878 3.40937 1.34751 0
M  V30 321 H 24.6358 3.27263 3.81979 0
M  V30 322 H 24.3358 4.92022 3.21229 0
M  V30 323 H 25.8598 4.5525 4.06915 0
M  V30 324 H 27.2738 5.38857 1.95718 0
M  V30 325 H 25.6708 5.85453 1.31776 0
M  V30 326 H 26.7408 4.83733 0.336219 0
M  V30 327 N 28.0839 -0.256276 1.55502 0
M  V30 328 C 29.0469 -1.30047 1.88734 0
M  V30 329 C 30.0469 -1.4154 0.763086 0
M  V30 330 O 31.2369 -1.40403 1.03115 0
M  V30 331 C 28.3689 -2.67953 2.10747 0
M  V30 332 H 29.5619 -1.01802 2.82093 0
M  V30 333 H 27.1149 -0.495134 1.4825 0
M  V30 334 H 27.8499 -3.01351 1.19825 0
M  V30 335 H 27.6349 -2.60993 2.92617 0
M  V30 336 H 29.1249 -3.43368 2.37673 0
M  V30 337 N 29.562 -1.4872 -0.521534 0
M  V30 338 C 30.494 -1.59968 -1.64143 0
M  V30 339 C 31.507 -0.483463 -1.55456 0
M  V30 340 O 32.696 -0.75467 -1.61762 0
M  V30 341 C 29.796 -1.52127 -3.02838 0
M  V30 342 C 28.969 -2.78932 -3.36921 0
M  V30 343 C 28.028 -2.64428 -4.54933 0
M  V30 344 O 27.054 -3.38331 -4.57735 0
M  V30 345 N 28.256 -1.74606 -5.53618 0
M  V30 346 H 31.021 -2.56548 -1.54929 0
M  V30 347 H 28.582 -1.45551 -0.708988 0
M  V30 348 H 30.574 -1.40106 -3.79674 0
M  V30 349 H 29.144 -0.634868 -3.06085 0
M  V30 350 H 28.364 -3.05455 -2.4918 0
M  V30 351 H 29.652 -3.63041 -3.56481 0
M  V30 352 H 29.05 -1.13782 -5.54139 0
M  V30 353 H 27.607 -1.6852 -6.29638 0
M  V30 354 N 31.0401 0.771051 -1.3745 0
M  V30 355 C 32.2871 1.52963 -1.32697 0
M  V30 356 C 32.6151 1.94299 0.0883274 0
M  V30 357 O 31.8701 1.64397 1.0617 0
M  V30 358 C 32.1691 2.80676 -2.2126 0
M  V30 359 C 31.8351 2.58389 -3.69521 0
M  V30 360 C 30.4971 2.52019 -4.09927 0
M  V30 361 C 32.8491 2.38469 -4.63446 0
M  V30 362 C 30.1771 2.23721 -5.42371 0
M  V30 363 C 32.5291 2.11694 -5.96128 0
M  V30 364 C 31.1931 2.03769 -6.35637 0
M  V30 365 H 30.4631 0.559732 -0.485573 0
M  V30 366 H 33.1101 0.888083 -1.69662 0
M  V30 367 H 31.4151 3.49392 -1.77291 0
M  V30 368 H 33.1121 3.38557 -2.14895 0
M  V30 369 H 29.7021 2.6421 -3.37478 0
M  V30 370 H 33.8861 2.4238 -4.33089 0
M  V30 371 H 29.1421 2.16081 -5.71943 0
M  V30 372 H 33.3161 1.9528 -6.6846 0
M  V30 373 H 30.9431 1.81606 -7.38189 0
M  V30 374 N 32.5182 1.22032 0.997298 0
M  V30 375 C 33.7482 1.06686 1.76923 0
M  V30 376 C 34.1562 -0.385838 1.85224 0
M  V30 377 O 33.4992 -1.27929 1.31833 0
M  V30 378 C 33.5612 1.59802 3.22031 0
M  V30 379 C 33.2252 3.08362 3.37286 0
M  V30 380 C 34.2222 4.05835 3.24952 0
M  V30 381 C 31.9072 3.47727 3.6248 0
M  V30 382 C 33.9012 5.4066 3.37588 0
M  V30 383 C 31.5882 4.82701 3.74757 0
M  V30 384 C 32.5862 5.78977 3.62319 0
M  V30 385 O 32.2742 7.11502 3.74193 0
M  V30 386 H 32.0062 0.374767 0.562606 0
M  V30 387 H 34.5602 1.61991 1.26286 0
M  V30 388 H 32.7902 0.989003 3.73839 0
M  V30 389 H 34.4792 1.40184 3.80924 0
M  V30 390 H 35.2452 3.76766 3.05405 0
M  V30 391 H 31.1242 2.73317 3.7124 0
M  V30 392 H 34.6682 6.15788 3.27796 0
M  V30 393 H 30.5652 5.11453 3.9381 0
M  V30 394 H 31.3332 7.19019 3.91093 0
M  V30 395 N 33.9963 -1.19345 1.0293 0
M  V30 396 C 35.2423 -1.89585 0.736824 0
M  V30 397 C 35.5973 -1.78148 -0.726703 0
M  V30 398 O 34.8903 -1.16332 -1.52242 0
M  V30 399 C 35.0843 -3.39292 1.12319 0
M  V30 400 C 34.9133 -3.65298 2.62273 0
M  V30 401 C 33.6833 -3.83304 3.29251 0
M  V30 402 C 35.8813 -3.6682 3.60482 0
M  V30 403 N 33.8633 -3.96944 4.68304 0
M  V30 404 C 35.2343 -3.86037 4.85155 0
M  V30 405 C 37.2893 -3.49848 3.54275 0
M  V30 406 C 35.9923 -3.9004 6.04369 0
M  V30 407 C 38.0183 -3.55129 4.72903 0
M  V30 408 C 37.3803 -3.74831 5.9639 0
M  V30 409 H 33.4793 -0.712856 0.321497 0
M  V30 410 H 36.0633 -1.43427 1.31669 0
M  V30 411 H 34.2343 -3.84172 0.571524 0
M  V30 412 H 35.9663 -3.97055 0.78292 0
M  V30 413 H 32.7213 -3.82211 2.79663 0
M  V30 414 H 33.1453 -4.07613 5.40538 0
M  V30 415 H 37.7873 -3.33572 2.59788 0
M  V30 416 H 35.5053 -4.05108 6.99223 0
M  V30 417 H 39.0913 -3.43287 4.69729 0
M  V30 418 H 37.9713 -3.78792 6.86649 0
M  V30 419 N 35.4744 -0.807222 -1.35358 0
M  V30 420 C 36.8854 -0.44876 -1.81226 0
M  V30 421 C 37.2364 1.02929 -1.67033 0
M  V30 422 O 36.3614 1.79991 -1.20133 0
M  V30 423 C 36.9564 -0.807774 -3.2903 0
M  V30 424 C 35.5154 -0.501901 -3.73039 0
M  V30 425 C 34.6624 -1.03304 -2.57339 0
M  V30 426 H 37.6134 -0.998808 -1.23327 0
M  V30 427 H 37.6344 -0.10554 -3.80354 0
M  V30 428 H 37.1464 -1.88357 -3.39328 0
M  V30 429 H 35.2474 0.565128 -3.68289 0
M  V30 430 H 35.3604 -1.03497 -4.67787 0
M  V30 431 H 33.7244 -0.455339 -2.50597 0
M  V30 432 H 34.5074 -2.11496 -2.70415 0
M  V30 433 N 36.9525 1.47285 -0.560781 0
M  V30 434 C 38.2015 2.01668 -0.035895 0
M  V30 435 C 38.5145 1.44021 1.32353 0
M  V30 436 O 39.7205 1.90088 1.93853 0
M  V30 437 C 38.1765 3.59897 -0.0136659 0
M  V30 438 C 37.7845 4.26536 -1.37006 0
M  V30 439 C 39.5285 4.22017 0.458425 0
M  V30 440 C 37.4355 5.76782 -1.30675 0
M  V30 441 H 36.3655 0.753938 -0.00964879 0
M  V30 442 H 39.0165 1.69243 -0.709166 0
M  V30 443 H 37.3985 3.89301 0.725325 0
M  V30 444 H 38.5725 4.0877 -2.12705 0
M  V30 445 H 36.8875 3.76419 -1.78038 0
M  V30 446 H 39.4845 5.32124 0.524247 0
M  V30 447 H 39.8275 3.89437 1.4712 0
M  V30 448 H 40.3605 3.97159 -0.225818 0
M  V30 449 H 37.0995 6.13988 -2.29564 0
M  V30 450 H 36.6195 5.96875 -0.591622 0
M  V30 451 H 38.2985 6.39063 -1.01033 0
M  V30 452 N 38.4306 0.297415 1.54768 0
M  V30 453 C 39.3606 -0.573494 2.26348 0
M  V30 454 C 40.3416 -1.14085 1.26169 0
M  V30 455 O 41.5266 -1.17086 1.54934 0
M  V30 456 C 38.6566 -1.74716 3.00153 0
M  V30 457 C 37.6106 -1.31032 4.07449 0
M  V30 458 C 36.9366 -2.56887 4.68949 0
M  V30 459 C 38.2366 -0.444183 5.20408 0
M  V30 460 H 39.9306 0.0235131 2.99391 0
M  V30 461 H 37.4766 0.0127488 1.43994 0
M  V30 462 H 39.4296 -2.3625 3.48947 0
M  V30 463 H 38.1536 -2.37035 2.24682 0
M  V30 464 H 36.8126 -0.718066 3.59499 0
M  V30 465 H 36.4606 -3.17512 3.90122 0
M  V30 466 H 36.1606 -2.2836 5.41411 0
M  V30 467 H 37.6846 -3.19229 5.20505 0
M  V30 468 H 39.0986 -0.9651 5.65118 0
M  V30 469 H 37.4956 -0.252846 5.99567 0
M  V30 470 H 38.5656 0.531609 4.81977 0
M  V30 471 N 39.9087 -1.5758 0.0250728 0
M  V30 472 C 40.8187 -2.1343 -0.973905 0
M  V30 473 C 41.8347 -1.08556 -1.35984 0
M  V30 474 O 43.0107 -1.40592 -1.44207 0
M  V30 475 C 40.0757 -2.64703 -2.23904 0
M  V30 476 C 39.1367 -3.84276 -1.91391 0
M  V30 477 C 38.3697 -4.33095 -3.11873 0
M  V30 478 O 38.5927 -3.81107 -4.24398 0
M  V30 479 O 37.5267 -5.24984 -2.94406 0
M  V30 480 H 41.3527 -2.99057 -0.529036 0
M  V30 481 H 38.9377 -1.48118 -0.195288 0
M  V30 482 H 40.8197 -2.97769 -2.98181 0
M  V30 483 H 39.4947 -1.82161 -2.6758 0
M  V30 484 H 38.4017 -3.56143 -1.14511 0
M  V30 485 H 39.7347 -4.67968 -1.52534 0
M  V30 486 N 41.3868 0.248026 -1.55636 0
M  V30 487 C 42.2968 1.32859 -1.93354 0
M  V30 488 C 43.3128 1.52719 -0.833838 0
M  V30 489 O 44.4888 1.66363 -1.13513 0
M  V30 490 C 41.5538 2.66337 -2.21958 0
M  V30 491 C 40.6148 2.55008 -3.45354 0
M  V30 492 C 39.8478 3.82121 -3.72584 0
M  V30 493 O 40.0708 4.83951 -3.01907 0
M  V30 494 O 39.0048 3.80822 -4.6611 0
M  V30 495 H 42.8308 1.03862 -2.85388 0
M  V30 496 H 40.4158 0.448686 -1.42503 0
M  V30 497 H 42.2978 3.45216 -2.4167 0
M  V30 498 H 40.9728 2.95068 -1.33103 0
M  V30 499 H 39.8798 1.7442 -3.30951 0
M  V30 500 H 41.2128 2.31222 -4.34508 0
M  V30 501 N 42.8649 1.48995 0.513639 0
M  V30 502 C 43.7949 1.67636 1.62544 0
M  V30 503 C 44.7759 0.525087 1.61793 0
M  V30 504 O 45.9609 0.759502 1.78732 0
M  V30 505 C 43.0909 1.73114 3.01079 0
M  V30 506 C 42.0449 2.87905 3.16693 0
M  V30 507 C 41.3709 2.78486 4.56453 0
M  V30 508 C 42.6709 4.29005 2.97913 0
M  V30 509 H 44.3649 2.60716 1.47198 0
M  V30 510 H 41.9109 1.25465 0.706714 0
M  V30 511 H 43.8639 1.84742 3.78746 0
M  V30 512 H 42.5879 0.766241 3.17484 0
M  V30 513 H 41.2469 2.75859 2.41448 0
M  V30 514 H 40.8949 1.7993 4.69717 0
M  V30 515 H 40.5949 3.55523 4.67843 0
M  V30 516 H 42.1189 2.92104 5.36197 0
M  V30 517 H 43.5329 4.41798 3.65359 0
M  V30 518 H 41.9299 5.07166 3.20785 0
M  V30 519 H 42.9999 4.44329 1.94165 0
M  V30 520 N 44.343 -0.763751 1.37857 0
M  V30 521 C 45.291 -1.89864 1.34367 0
M  V30 522 C 46.285 -1.67816 0.231143 0
M  V30 523 O 47.491 -1.75508 0.399617 0
M  V30 524 H 43.866 -0.624501 0.41893 0
M  V30 525 H 45.837 -1.89925 2.30155 0
M  V30 526 C 44.586 -3.27227 1.1755 0
M  V30 527 H 43.909 -3.44773 2.02414 0
M  V30 528 H 45.349 -4.06911 1.1916 0
M  V30 529 C 43.808 -3.36692 -0.118311 0
M  V30 530 O 44.338 -3.86374 -1.09902 0
M  V30 531 N 42.544 -2.90092 -0.171717 0
M  V30 532 H 42.091 -2.49853 0.627012 0
M  V30 533 H 42.049 -2.96806 -1.03699 0
M  V30 534 N 45.8211 -1.22559 -0.990812 0
M  V30 535 C 47.0671 -1.05297 -1.73322 0
M  V30 536 C 47.4001 0.410655 -1.89808 0
M  V30 537 O 46.6751 1.30439 -1.44277 0
M  V30 538 C 46.9581 -1.76713 -3.13759 0
M  V30 539 C 46.8111 -3.30684 -3.04907 0
M  V30 540 C 48.1301 -1.52121 -4.12974 0
M  V30 541 H 45.2491 -0.38392 -0.629106 0
M  V30 542 H 47.8911 -1.50926 -1.15418 0
M  V30 543 H 46.0411 -1.37924 -3.63193 0
M  V30 544 H 47.7131 -3.7893 -2.63077 0
M  V30 545 H 45.9561 -3.60253 -2.41661 0
M  V30 546 H 46.6271 -3.75833 -4.04294 0
M  V30 547 H 49.1031 -1.85819 -3.72304 0
M  V30 548 H 47.9791 -2.04582 -5.0935 0
M  V30 549 H 48.2401 -0.454257 -4.3976 0
M  V30 550 N 47.2992 1.18797 -1.03562 0
M  V30 551 C 48.5272 1.92599 -0.755869 0
M  V30 552 C 48.9422 1.75886 0.686271 0
M  V30 553 O 48.2992 1.08517 1.46732 0
M  V30 554 C 48.3502 3.44159 -1.10619 0
M  V30 555 O 48.0712 3.60341 -2.4917 0
M  V30 556 C 49.5722 4.3507 -0.850214 0
M  V30 557 H 46.7922 0.611587 -0.276048 0
M  V30 558 H 49.3362 1.50742 -1.38192 0
M  V30 559 H 47.4912 3.83823 -0.525194 0
M  V30 560 H 47.9052 4.54128 -2.62427 0
M  V30 561 H 49.3792 5.39989 -1.14523 0
M  V30 562 H 49.8562 4.38673 0.215176 0
M  V30 563 H 50.4622 4.01097 -1.41426 0
M  V30 564 N 48.7773 0.814389 1.34928 0
M  V30 565 C 50.1933 0.499084 1.51596 0
M  V30 566 C 50.3933 -0.978319 1.76157 0
M  V30 567 O 49.4493 -1.76309 1.80752 0
M  V30 568 C 50.7623 1.35121 2.68631 0
M  V30 569 C 52.3103 1.34746 2.82511 0
M  V30 570 C 52.7853 2.18388 4.0258 0
M  V30 571 N 54.2763 2.15966 4.09772 0
M  V30 572 C 55.0113 2.77437 5.01813 0
M  V30 573 N 54.5073 3.47866 5.99134 0
M  V30 574 N 56.3003 2.67037 4.94619 0
M  V30 575 H 48.4513 1.7711 1.17243 0
M  V30 576 H 50.7143 0.754256 0.574284 0
M  V30 577 H 50.4203 2.40001 2.57085 0
M  V30 578 H 50.2943 1.00991 3.63429 0
M  V30 579 H 52.6813 0.30648 2.93504 0
M  V30 580 H 52.7623 1.72869 1.88547 0
M  V30 581 H 52.4063 3.2253 3.92347 0
M  V30 582 H 52.3363 1.77621 4.9574 0
M  V30 583 H 54.8273 1.64729 3.40107 0
M  V30 584 H 55.1403 3.92038 6.65977 0
M  V30 585 H 53.4853 3.51972 5.99284 0
M  V30 586 H 56.6763 2.11597 4.17546 0
M  V30 587 H 56.8493 3.15232 5.66156 0
M  V30 588 N 50.2554 -1.46986 0.568584 0
M  V30 589 C 51.6664 -1.86188 0.138219 0
M  V30 590 C 52.0174 -1.47388 -1.29504 0
M  V30 591 O 51.1424 -0.88219 -1.97602 0
M  V30 592 C 51.7374 -3.3792 0.244065 0
M  V30 593 C 50.2964 -3.76171 -0.131335 0
M  V30 594 C 49.4434 -2.71027 0.586465 0
M  V30 595 H 52.3944 -1.38342 0.777645 0
M  V30 596 H 52.4154 -3.76729 -0.534351 0
M  V30 597 H 51.9274 -3.66128 1.28731 0
M  V30 598 H 50.0284 -3.5358 -1.17526 0
M  V30 599 H 50.1414 -4.78523 0.235146 0
M  V30 600 H 48.5054 -2.54684 0.0282722 0
M  V30 601 H 49.2884 -3.02077 1.63109 0
M  V30 602 N 51.7335 -0.305618 -1.54608 0
M  V30 603 C 52.6435 0.57778 -2.27374 0
M  V30 604 C 53.6595 1.14451 -1.31061 0
M  V30 605 O 54.8355 1.16831 -1.6405 0
M  V30 606 C 51.9005 1.73123 -3.00382 0
M  V30 607 C 50.9615 1.19812 -4.12242 0
M  V30 608 C 50.1945 2.2966 -4.81759 0
M  V30 609 O 50.4175 3.49651 -4.50666 0
M  V30 610 O 49.3515 1.96091 -5.69062 0
M  V30 611 H 53.1775 -0.012624 -3.03697 0
M  V30 612 H 50.7625 -0.0719184 -1.49227 0
M  V30 613 H 52.6445 2.40315 -3.4616 0
M  V30 614 H 51.3195 2.30815 -2.26949 0
M  V30 615 H 50.2265 0.491798 -3.70853 0
M  V30 616 H 51.5595 0.666566 -4.87666 0
M  V30 617 N 53.2116 1.57565 -0.0334293 0
M  V30 618 C 54.1616 2.06978 0.956237 0
M  V30 619 C 55.1456 0.971193 1.28283 0
M  V30 620 O 56.3376 1.23471 1.26822 0
M  V30 621 C 53.4666 2.60393 2.23719 0
M  V30 622 C 52.5526 3.7719 1.93877 0
M  V30 623 N 52.9436 4.87639 1.34321 0
M  V30 624 C 51.2416 3.85758 2.23845 0
M  V30 625 C 51.9426 5.68825 1.21709 0
M  V30 626 N 50.9186 5.1587 1.71404 0
M  V30 627 H 54.7206 2.89773 0.490815 0
M  V30 628 H 52.2346 1.61492 0.171478 0
M  V30 629 H 54.2316 2.94088 2.95496 0
M  V30 630 H 52.8916 1.79031 2.70884 0
M  V30 631 H 53.9026 5.07803 1.01767 0
M  V30 632 H 50.5796 3.1531 2.73653 0
M  V30 633 H 51.9696 6.67631 0.75621 0
M  V30 634 N 54.6897 -0.239769 1.55765 0
M  V30 635 C 55.9367 -0.966801 1.7793 0
M  V30 636 C 56.2647 -1.85046 0.599015 0
M  V30 637 O 55.5197 -1.91197 -0.417395 0
M  V30 638 C 55.8187 -1.852 3.05672 0
M  V30 639 C 55.4847 -1.1231 4.36689 0
M  V30 640 C 54.1467 -0.921689 4.72291 0
M  V30 641 C 56.4987 -0.607019 5.17653 0
M  V30 642 C 53.8267 -0.191996 5.86386 0
M  V30 643 C 56.1787 0.109241 6.32506 0
M  V30 644 C 54.8427 0.322073 6.66723 0
M  V30 645 H 54.1127 -0.353778 0.651093 0
M  V30 646 H 56.7597 -0.23634 1.90036 0
M  V30 647 H 55.0647 -2.64975 2.8861 0
M  V30 648 H 56.7617 -2.41635 3.20021 0
M  V30 649 H 53.3517 -1.29004 4.08725 0
M  V30 650 H 57.5357 -0.750153 4.90598 0
M  V30 651 H 52.7917 -0.0166949 6.11398 0
M  V30 652 H 56.9657 0.516737 6.9448 0
M  V30 653 H 54.5927 0.88944 7.54979 0
M  V30 654 N 56.1678 -1.49265 -0.50573 0
M  V30 655 C 57.4448 -1.49012 -1.26707 0
M  V30 656 C 57.8248 -0.215205 -2.1 0
M  V30 657 O 57.1728 0.802547 -2.13943 0
M  V30 658 C 57.3828 -2.7663 -2.12783 0
M  V30 659 C 58.7308 -3.25932 -2.72127 0
M  V30 660 O 59.7548 -2.77715 -2.23054 0
M  V30 661 O 58.6138 -4.09897 -3.61451 0
M  V30 662 H 55.7078 -0.596197 -0.57313 0
M  V30 663 H 58.2538 -1.61524 -0.52039 0
M  V30 664 H 57.0258 -3.60916 -1.5118 0
M  V30 665 H 56.6488 -2.66956 -2.94653 0
M  V30 666 N 57.6459 0.756429 -1.3826 0
M  V30 667 C 58.8929 1.51547 -1.34312 0
M  V30 668 C 59.2209 1.94382 0.0677144 0
M  V30 669 O 58.4759 1.65514 1.04421 0
M  V30 670 C 58.7749 2.78313 -2.24224 0
M  V30 671 C 58.4409 2.54455 -3.72241 0
M  V30 672 C 57.1029 2.47657 -4.12576 0
M  V30 673 C 59.4549 2.3354 -4.65949 0
M  V30 674 C 56.7829 2.17956 -5.44713 0
M  V30 675 C 59.1349 2.05359 -5.9834 0
M  V30 676 C 57.7989 1.97016 -6.37762 0
M  V30 677 H 57.0689 0.55455 -0.491482 0
M  V30 678 H 59.7159 0.870039 -1.70595 0
M  V30 679 H 58.0209 3.47492 -1.80987 0
M  V30 680 H 59.7179 3.36259 -2.18474 0
M  V30 681 H 56.3079 2.60616 -3.40261 0
M  V30 682 H 60.4919 2.37772 -4.35635 0
M  V30 683 H 55.7479 2.10003 -5.74203 0
M  V30 684 H 59.9219 1.88179 -6.70494 0
M  V30 685 H 57.5489 1.73766 -7.40074 0
M  V30 686 N 59.124 1.23083 0.984299 0
M  V30 687 C 60.37 1.06214 1.72761 0
M  V30 688 C 60.703 -0.400584 1.90024 0
M  V30 689 O 59.978 -1.29672 1.44967 0
M  V30 690 C 60.261 1.78375 3.12817 0
M  V30 691 C 60.114 3.32296 3.03149 0
M  V30 692 C 61.433 1.54309 4.12161 0
M  V30 693 H 58.552 0.387251 0.627061 0
M  V30 694 H 61.194 1.51536 1.14616 0
M  V30 695 H 59.344 1.39848 3.62457 0
M  V30 696 H 61.016 3.8032 2.61064 0
M  V30 697 H 59.259 3.6153 2.39747 0
M  V30 698 H 59.93 3.77972 4.02295 0
M  V30 699 H 62.406 1.87791 3.71314 0
M  V30 700 H 61.282 2.07281 5.08258 0
M  V30 701 H 61.543 0.477572 4.39513 0
M  V30 702 N 60.6021 -1.18246 1.0419 0
M  V30 703 C 61.5491 -2.2192 0.634037 0
M  V30 704 C 62.5191 -1.62179 -0.358765 0
M  V30 705 O 63.7041 -1.89122 -0.252466 0
M  V30 706 C 60.8441 -3.451 0.00445535 0
M  V30 707 C 59.9571 -4.19174 1.04487 0
M  V30 708 C 59.0921 -5.29813 0.383676 0
M  V30 709 C 58.1311 -5.9566 1.4091 0
M  V30 710 N 57.2681 -6.97834 0.772784 0
M  V30 711 H 62.1081 -2.56164 1.52263 0
M  V30 712 H 59.6451 -1.25843 0.761701 0
M  V30 713 H 61.6031 -4.15485 -0.377919 0
M  V30 714 H 60.2331 -3.11472 -0.847652 0
M  V30 715 H 59.2851 -3.47604 1.54518 0
M  V30 716 H 60.5971 -4.64267 1.82368 0
M  V30 717 H 59.7511 -6.06677 -0.0528366 0
M  V30 718 H 58.4901 -4.85825 -0.427208 0
M  V30 719 H 57.4951 -5.17535 1.85574 0
M  V30 720 H 58.7201 -6.4173 2.22171 0
M  V30 721 H 56.6661 -6.55998 -0.0177708 0
M  V30 722 H 56.5831 -7.41186 1.48928 0
M  V30 723 H 57.8511 -7.78665 0.36071 0
M  V30 724 N 62.0802 -0.821533 -1.34494 0
M  V30 725 C 63.4912 -0.467956 -1.8074 0
M  V30 726 C 63.8422 1.01151 -1.68116 0
M  V30 727 O 62.9672 1.78707 -1.22036 0
M  V30 728 C 63.5622 -0.842627 -3.28154 0
M  V30 729 C 62.1212 -0.541439 -3.72485 0
M  V30 730 C 61.2682 -1.06028 -2.56229 0
M  V30 731 H 64.2192 -1.01183 -1.22261 0
M  V30 732 H 64.2402 -0.145876 -3.8022 0
M  V30 733 H 63.7522 -1.91945 -3.37311 0
M  V30 734 H 61.8532 0.526034 -3.68868 0
M  V30 735 H 61.9662 -1.08453 -4.66663 0
M  V30 736 H 60.3302 -0.481892 -2.501 0
M  V30 737 H 61.1132 -2.14352 -2.68157 0
M  V30 738 N 63.5583 1.46682 -0.576371 0
M  V30 739 C 64.4683 2.34032 0.163141 0
M  V30 740 C 65.4843 1.49367 0.892501 0
M  V30 741 O 66.6603 1.82252 0.857106 0
M  V30 742 C 63.7253 3.26435 1.16795 0
M  V30 743 C 62.7863 4.26998 0.443944 0
M  V30 744 C 62.0193 5.14986 1.40088 0
M  V30 745 O 62.2423 5.05785 2.637 0
M  V30 746 O 61.1763 5.94906 0.914917 0
M  V30 747 H 65.0023 2.98607 -0.55388 0
M  V30 748 H 62.5873 1.45554 -0.336821 0
M  V30 749 H 64.4693 3.83459 1.74748 0
M  V30 750 H 63.1443 2.64465 1.86655 0
M  V30 751 H 62.0513 3.7368 -0.177271 0
M  V30 752 H 63.3843 4.91736 -0.213566 0
M  V30 753 N 65.0364 0.313813 1.54444 0
M  V30 754 C 66.3134 -0.345447 1.92525 0
M  V30 755 C 66.6934 -1.70667 1.24242 0
M  V30 756 O 66.0414 -2.25273 0.382654 0
M  V30 757 C 66.2514 -0.44737 3.46121 0
M  V30 758 C 67.5994 -0.712238 4.18584 0
M  V30 759 O 68.6234 -0.530678 3.52225 0
M  V30 760 O 67.4824 -1.06183 5.36085 0
M  V30 761 H 64.5764 -0.195407 0.803583 0
M  V30 762 H 67.1224 0.362813 1.65776 0
M  V30 763 H 65.8944 0.509043 3.87975 0
M  V30 764 H 65.5174 -1.20359 3.78945 0
M  V30 765 N 66.5145 -1.57545 0.0417849 0
M  V30 766 C 67.4445 -2.14009 -0.933929 0
M  V30 767 C 68.4255 -1.05938 -1.33083 0
M  V30 768 O 69.6105 -1.33833 -1.40721 0
M  V30 769 C 66.7405 -2.67747 -2.21199 0
M  V30 770 C 65.6945 -3.80718 -1.95544 0
M  V30 771 C 65.0205 -4.20935 -3.29724 0
M  V30 772 C 66.3205 -5.06258 -1.28452 0
M  V30 773 H 68.0145 -2.95788 -0.463645 0
M  V30 774 H 65.5605 -1.42285 -0.221573 0
M  V30 775 H 67.5135 -3.05886 -2.89848 0
M  V30 776 H 66.2375 -1.83147 -2.70416 0
M  V30 777 H 64.8965 -3.43037 -1.2931 0
M  V30 778 H 64.5445 -3.33298 -3.76724 0
M  V30 779 H 64.2445 -4.9707 -3.13361 0
M  V30 780 H 65.7685 -4.61666 -3.9962 0
M  V30 781 H 67.1825 -5.41903 -1.8712 0
M  V30 782 H 65.5795 -5.87475 -1.22445 0
M  V30 783 H 66.6495 -4.84207 -0.259219 0
M  V30 784 N 67.9926 0.231505 -1.5589 0
M  V30 785 C 69.2696 0.981096 -1.69215 0
M  V30 786 C 69.6496 2.02799 -0.586164 0
M  V30 787 O 68.9976 2.24823 0.408253 0
M  V30 788 C 69.2076 1.60054 -3.10135 0
M  V30 789 C 70.5556 2.09658 -3.69227 0
M  V30 790 O 71.5796 1.69967 -3.13033 0
M  V30 791 O 70.4386 2.8258 -4.67772 0
M  V30 792 H 67.5326 0.457653 -0.688827 0
M  V30 793 H 70.0786 0.224073 -1.68214 0
M  V30 794 H 68.8506 0.844105 -3.82087 0
M  V30 795 H 68.4736 2.42336 -3.15212 0
M  V30 796 N 69.4707 1.49531 0.497807 0
M  V30 797 C 70.7187 1.58865 1.24926 0
M  V30 798 C 71.0397 0.278721 1.92998 0
M  V30 799 O 70.3097 -0.702144 1.82885 0
M  V30 800 H 68.8897 0.585343 0.464094 0
M  V30 801 H 71.5517 1.86174 0.57666 0
M  V30 802 H 70.6477 2.38633 2.01149 0
M  V30 803 N 70.9488 -0.749086 1.3866 0
M  V30 804 C 72.1978 -1.50371 1.3443 0
M  V30 805 C 72.5108 -1.95503 -0.0616397 0
M  V30 806 O 73.7168 -2.70554 -0.226489 0
M  V30 807 C 72.1728 -2.71644 2.36088 0
M  V30 808 C 71.7808 -2.3352 3.82325 0
M  V30 809 C 73.5248 -3.49518 2.40909 0
M  V30 810 C 71.4318 -3.51431 4.75658 0
M  V30 811 H 70.3618 -0.564628 0.499712 0
M  V30 812 H 73.0128 -0.818449 1.64237 0
M  V30 813 H 71.3948 -3.42175 1.9933 0
M  V30 814 H 72.5688 -1.70627 4.28046 0
M  V30 815 H 70.8838 -1.6877 3.80665 0
M  V30 816 H 73.4808 -4.37197 3.07836 0
M  V30 817 H 73.8238 -3.90992 1.42937 0
M  V30 818 H 74.3568 -2.86005 2.76489 0
M  V30 819 H 71.0958 -3.15019 5.74842 0
M  V30 820 H 70.6158 -4.13352 4.34627 0
M  V30 821 H 72.2948 -4.17953 4.93887 0
M  V30 822 N 72.4269 -1.23603 -0.977757 0
M  V30 823 C 73.6749 -1.06759 -1.71601 0
M  V30 824 C 73.9959 0.395929 -1.90938 0
M  V30 825 O 73.2659 1.28356 -1.47992 0
M  V30 826 H 71.8459 -0.392062 -0.635843 0
M  V30 827 H 74.5079 -1.55362 -1.1768 0
M  V30 828 H 73.6039 -1.55763 -2.70452 0
M  V30 829 N 73.905 1.17692 -1.04816 0
M  V30 830 C 74.838 2.20436 -0.590173 0
M  V30 831 C 75.816 1.58115 0.379244 0
M  V30 832 O 77 1.86228 0.291762 0
M  V30 833 C 74.127 3.38424 0.136817 0
M  V30 834 C 73.173 4.19176 -0.787023 0
M  V30 835 S 74.006 4.84815 -2.27409 0
M  V30 836 C 75.162 6.06195 -1.55817 0
M  V30 837 H 75.395 2.58944 -1.46067 0
M  V30 838 H 72.928 1.28246 -0.859784 0
M  V30 839 H 74.886 4.06798 0.550076 0
M  V30 840 H 73.547 2.98312 0.983299 0
M  V30 841 H 72.74 5.03499 -0.224681 0
M  V30 842 H 72.342 3.56219 -1.13947 0
M  V30 843 H 74.634 6.72078 -0.855387 0
M  V30 844 H 75.577 6.6695 -2.37873 0
M  V30 845 H 75.985 5.54701 -1.04722 0
M  V30 846 N 75.3831 0.828654 1.34056 0
M  V30 847 C 76.6311 0.41863 1.97717 0
M  V30 848 C 76.9521 -1.02314 1.66002 0
M  V30 849 O 76.2221 -1.71119 0.953683 0
M  V30 850 H 74.8021 0.151809 0.731412 0
M  V30 851 H 77.4641 1.05936 1.63596 0
M  V30 852 H 76.5601 0.542318 3.07352 0
M  V30 853 N 76.8612 -1.46375 0.584142 0
M  V30 854 C 78.2772 -1.57694 0.245929 0
M  V30 855 C 78.4772 -1.57903 -1.25175 0
M  V30 856 O 77.5332 -1.49676 -2.03355 0
M  V30 857 C 78.8462 -2.87028 0.896402 0
M  V30 858 C 80.3942 -3.00662 0.870127 0
M  V30 859 C 80.8692 -4.32734 1.50017 0
M  V30 860 N 82.3602 -4.39436 1.46458 0
M  V30 861 C 83.0952 -5.40248 1.92144 0
M  V30 862 N 82.5912 -6.47726 2.4581 0
M  V30 863 N 84.3842 -5.31459 1.83052 0
M  V30 864 H 76.5352 -1.44483 1.55687 0
M  V30 865 H 78.7982 -0.689291 0.650831 0
M  V30 866 H 78.5042 -2.9269 1.95002 0
M  V30 867 H 78.3782 -3.75014 0.405486 0
M  V30 868 H 80.7652 -2.94581 -0.174871 0
M  V30 869 H 80.8462 -2.14148 1.39908 0
M  V30 870 H 80.4902 -4.39573 2.54437 0
M  V30 871 H 80.4202 -5.18025 0.946432 0
M  V30 872 H 82.9112 -3.62367 1.07231 0
M  V30 873 H 83.2242 -7.20863 2.78525 0
M  V30 874 H 81.5692 -6.48542 2.49836 0
M  V30 875 H 84.7602 -4.46396 1.40883 0
M  V30 876 H 84.9332 -6.09881 2.18973 0
M  V30 877 N 78.3393 -0.321999 -1.54275 0
M  V30 878 C 79.7503 0.166384 -1.85957 0
M  V30 879 C 80.1013 1.51747 -1.24367 0
M  V30 880 O 79.2263 2.09317 -0.549124 0
M  V30 881 C 79.8213 0.308681 -3.37391 0
M  V30 882 C 78.3803 0.741286 -3.69028 0
M  V30 883 C 77.5273 -0.137937 -2.76957 0
M  V30 884 H 80.4783 -0.542335 -1.49146 0
M  V30 885 H 80.4993 1.13984 -3.63026 0
M  V30 886 H 80.0113 -0.674809 -3.82188 0
M  V30 887 H 78.1123 1.73458 -3.29762 0
M  V30 888 H 78.2253 0.546118 -4.75977 0
M  V30 889 H 76.5893 0.386251 -2.51754 0
M  V30 890 H 77.3723 -1.11816 -3.2458 0
M  V30 891 N 79.8174 1.5752 -0.0501392 0
M  V30 892 C 80.7804 2.1037 0.909786 0
M  V30 893 C 81.7804 1.02308 1.24056 0
M  V30 894 O 82.9704 1.28385 1.17741 0
M  V30 895 C 80.1024 2.58708 2.21998 0
M  V30 896 H 81.2954 2.96479 0.451665 0
M  V30 897 H 78.8484 1.55038 0.198248 0
M  V30 898 H 79.5834 1.75989 2.72394 0
M  V30 899 H 79.3684 3.37675 1.99295 0
M  V30 900 H 80.8584 2.99747 2.9076 0
M  V30 901 N 81.2955 -0.223234 1.56011 0
M  V30 902 C 82.2275 -1.30006 1.88762 0
M  V30 903 C 83.2405 -1.43129 0.775746 0
M  V30 904 O 84.4295 -1.44057 1.05403 0
M  V30 905 C 81.5295 -2.67589 2.07965 0
M  V30 906 C 80.7025 -2.76434 3.38973 0
M  V30 907 C 79.7615 -3.95019 3.47629 0
M  V30 908 O 78.7875 -3.83436 4.20672 0
M  V30 909 N 79.9895 -5.09249 2.78649 0
M  V30 910 H 82.7545 -1.02238 2.81722 0
M  V30 911 H 80.3155 -0.413278 1.56536 0
M  V30 912 H 82.3075 -3.45297 2.11073 0
M  V30 913 H 80.8775 -2.87964 1.21638 0
M  V30 914 H 80.0975 -1.85216 3.47978 0
M  V30 915 H 81.3855 -2.79313 4.25278 0
M  V30 916 H 80.7835 -5.21556 2.19081 0
M  V30 917 H 79.3405 -5.85007 2.8742 0
M  V30 918 N 82.7736 -1.49793 -0.48987 0
M  V30 919 C 84.1896 -1.36803 -0.822022 0
M  V30 920 C 84.3896 -0.409652 -1.97292 0
M  V30 921 O 83.4456 0.154614 -2.52026 0
M  V30 922 C 84.7586 -2.77768 -1.15175 0
M  V30 923 C 86.3066 -2.86549 -1.25931 0
M  V30 924 C 86.7816 -4.28306 -1.62228 0
M  V30 925 N 88.2726 -4.31169 -1.69256 0
M  V30 926 C 89.0076 -5.37832 -1.98807 0
M  V30 927 N 88.5036 -6.54726 -2.26507 0
M  V30 928 N 90.2966 -5.25258 -2.00152 0
M  V30 929 H 82.4476 -2.10691 0.268881 0
M  V30 930 H 84.7106 -0.946241 0.057728 0
M  V30 931 H 84.4166 -3.49648 -0.379335 0
M  V30 932 H 84.2906 -3.13836 -2.09253 0
M  V30 933 H 86.6776 -2.14899 -2.02243 0
M  V30 934 H 86.7586 -2.54049 -0.298776 0
M  V30 935 H 86.4026 -5.00486 -0.864622 0
M  V30 936 H 86.3326 -4.58279 -2.594 0
M  V30 937 H 88.8236 -3.4687 -1.49965 0
M  V30 938 H 89.1366 -7.31833 -2.48276 0
M  V30 939 H 87.4816 -6.57933 -2.23939 0
M  V30 940 H 90.6726 -4.32938 -1.77996 0
M  V30 941 H 90.8456 -6.08476 -2.22848 0
M  V30 942 N 84.2517 0.741722 -1.39055 0
M  V30 943 C 85.6677 1.04638 -1.20512 0
M  V30 944 C 85.8677 2.01405 -0.0620218 0
M  V30 945 O 84.9237 2.45547 0.588457 0
M  V30 946 C 86.2367 1.6151 -2.53643 0
M  V30 947 C 87.7847 1.73623 -2.6043 0
M  V30 948 C 88.2597 2.33906 -3.93767 0
M  V30 949 N 89.7507 2.41323 -3.9537 0
M  V30 950 C 90.4857 2.88888 -4.95309 0
M  V30 951 N 89.9817 3.36401 -6.05645 0
M  V30 952 N 91.7747 2.88037 -4.82692 0
M  V30 953 H 83.9257 0.0998155 -2.12165 0
M  V30 954 H 86.1887 0.106907 -0.941953 0
M  V30 955 H 85.8947 0.978739 -3.37807 0
M  V30 956 H 85.7687 2.60411 -2.72885 0
M  V30 957 H 88.1557 2.36384 -1.76655 0
M  V30 958 H 88.2367 0.733945 -2.45045 0
M  V30 959 H 87.8807 1.71776 -4.7797 0
M  V30 960 H 87.8107 3.34799 -4.06469 0
M  V30 961 H 90.3017 2.07734 -3.15682 0
M  V30 962 H 90.6147 3.71186 -6.77821 0
M  V30 963 H 88.9597 3.34427 -6.09248 0
M  V30 964 H 92.1507 2.50237 -3.95599 0
M  V30 965 H 92.3237 3.24792 -5.60726 0
M  V30 966 N 85.7298 1.2412 0.971189 0
M  V30 967 C 86.6598 1.05508 2.08304 0
M  V30 968 C 87.6408 -0.0308864 1.70072 0
M  V30 969 O 88.8258 0.135521 1.93727 0
M  V30 970 C 85.9558 0.655365 3.4106 0
M  V30 971 C 84.9098 1.68971 3.93234 0
M  V30 972 C 84.2358 1.14516 5.22293 0
M  V30 973 C 85.5358 3.08487 4.21465 0
M  V30 974 H 87.2298 1.98507 2.24132 0
M  V30 975 H 84.7758 0.955821 1.07704 0
M  V30 976 H 86.7288 0.51217 4.18276 0
M  V30 977 H 85.4528 -0.31032 3.25122 0
M  V30 978 H 84.1118 1.82106 3.18171 0
M  V30 979 H 83.7598 0.170189 5.02712 0
M  V30 980 H 83.4598 1.83635 5.58168 0
M  V30 981 H 84.9838 1.01401 6.02121 0
M  V30 982 H 86.3978 2.98601 4.89398 0
M  V30 983 H 84.7948 3.74926 4.68562 0
M  V30 984 H 85.8648 3.56787 3.28376 0
M  V30 985 N 87.2079 -1.17134 1.05439 0
M  V30 986 C 88.4329 -1.91913 0.786396 0
M  V30 987 C 88.8579 -1.7643 -0.652234 0
M  V30 988 O 88.2159 -1.08372 -1.45345 0
M  V30 989 C 88.2639 -3.40921 1.17497 0
M  V30 990 O 87.3679 -4.11244 0.308589 0
M  V30 991 H 86.7089 -0.598215 0.288158 0
M  V30 992 H 89.2389 -1.48457 1.4079 0
M  V30 993 H 89.2489 -3.91668 1.14281 0
M  V30 994 H 87.9239 -3.5151 2.22292 0
M  V30 995 H 86.5009 -3.70731 0.40157 0
M  V30 996 N 88.686 -0.835752 -1.33615 0
M  V30 997 C 89.596 -0.269088 -2.33052 0
M  V30 998 C 90.612 0.603251 -1.63208 0
M  V30 999 O 91.788 0.508112 -1.94885 0
M  V30 1000 C 88.853 0.549091 -3.42324 0
M  V30 1001 C 87.914 -0.347156 -4.27894 0
M  V30 1002 C 87.147 0.43207 -5.31948 0
M  V30 1003 O 87.37 1.66409 -5.45586 0
M  V30 1004 O 86.304 -0.192298 -6.01593 0
M  V30 1005 H 90.13 -1.09243 -2.83372 0
M  V30 1006 H 87.715 -0.598198 -1.36901 0
M  V30 1007 H 89.597 1.01414 -4.09015 0
M  V30 1008 H 88.272 1.34955 -2.94226 0
M  V30 1009 H 87.179 -0.859979 -3.64081 0
M  V30 1010 H 88.512 -1.1123 -4.79467 0
M  V30 1011 N 90.1641 1.46063 -0.591896 0
M  V30 1012 C 91.1271 2.28854 0.125973 0
M  V30 1013 C 92.1271 1.38903 0.810107 0
M  V30 1014 O 93.3171 1.61186 0.66066 0
M  V30 1015 C 90.4491 3.19526 1.1881 0
M  V30 1016 H 91.6421 2.93802 -0.601717 0
M  V30 1017 H 89.1951 1.52325 -0.350254 0
M  V30 1018 H 89.9301 2.59345 1.94707 0
M  V30 1019 H 89.7151 3.85766 0.701936 0
M  V30 1020 H 91.2051 3.81817 1.69132 0
M  V30 1021 N 91.6422 0.330177 1.54103 0
M  V30 1022 C 92.5722 -0.525353 2.27513 0
M  V30 1023 C 93.5532 -1.11383 1.2856 0
M  V30 1024 O 94.7382 -1.13773 1.57383 0
M  V30 1025 C 91.8682 -1.6831 3.03791 0
M  V30 1026 C 90.8222 -1.2236 4.10137 0
M  V30 1027 C 90.1482 -2.46882 4.74293 0
M  V30 1028 C 91.4482 -0.333697 5.21233 0
M  V30 1029 H 93.1422 0.087013 2.99274 0
M  V30 1030 H 90.6882 0.0432893 1.43935 0
M  V30 1031 H 92.6412 -2.28795 3.5388 0
M  V30 1032 H 91.3652 -2.32216 2.29659 0
M  V30 1033 H 90.0242 -0.64165 3.60941 0
M  V30 1034 H 89.6722 -3.09165 3.96769 0
M  V30 1035 H 89.3722 -2.16825 5.46133 0
M  V30 1036 H 90.8962 -3.08117 5.27159 0
M  V30 1037 H 92.3102 -0.845013 5.67038 0
M  V30 1038 H 90.7072 -0.125612 5.99969 0
M  V30 1039 H 91.7772 0.633724 4.80741 0
M  V30 1040 N 93.1203 -1.57491 0.0584922 0
M  V30 1041 C 94.0673 -2.11958 -0.913376 0
M  V30 1042 C 95.0373 -1.02875 -1.30407 0
M  V30 1043 O 96.2223 -1.30464 -1.39226 0
M  V30 1044 C 93.3623 -2.67497 -2.18035 0
M  V30 1045 C 92.4753 -3.90691 -1.84349 0
M  V30 1046 C 91.6103 -4.3452 -3.05559 0
M  V30 1047 C 90.6493 -5.50395 -2.67827 0
M  V30 1048 N 89.7863 -5.89244 -3.81754 0
M  V30 1049 H 94.6263 -2.94704 -0.442017 0
M  V30 1050 H 92.1633 -1.45643 -0.206545 0
M  V30 1051 H 94.1213 -2.978 -2.92183 0
M  V30 1052 H 92.7513 -1.87537 -2.62735 0
M  V30 1053 H 91.8033 -3.66934 -1.00319 0
M  V30 1054 H 93.1153 -4.7489 -1.5258 0
M  V30 1055 H 92.2693 -4.66414 -3.87998 0
M  V30 1056 H 91.0083 -3.49147 -3.40511 0
M  V30 1057 H 90.0133 -5.18165 -1.83806 0
M  V30 1058 H 91.2383 -6.3749 -2.34059 0
M  V30 1059 H 89.1843 -5.06823 -4.16493 0
M  V30 1060 H 89.1013 -6.68151 -3.53708 0
M  V30 1061 H 90.3693 -6.25756 -4.64811 0
M  V30 1062 N 94.5984 0.214957 -1.56127 0
M  V30 1063 C 96.0144 0.564948 -1.49267 0
M  V30 1064 C 96.2144 1.86827 -0.754838 0
M  V30 1065 O 95.2704 2.50745 -0.297198 0
M  V30 1066 C 96.5834 0.638071 -2.93852 0
M  V30 1067 C 98.1314 0.728253 -3.0441 0
M  V30 1068 C 98.6064 0.832663 -4.50367 0
M  V30 1069 N 100.097 0.896712 -4.54437 0
M  V30 1070 C 100.832 0.997324 -5.6466 0
M  V30 1071 N 100.328 1.06147 -6.8462 0
M  V30 1072 N 102.121 1.03297 -5.52527 0
M  V30 1073 H 94.2724 -0.640211 -2.02522 0
M  V30 1074 H 96.5354 -0.225507 -0.920788 0
M  V30 1075 H 96.2414 -0.250126 -3.50809 0
M  V30 1076 H 96.1154 1.49947 -3.46115 0
M  V30 1077 H 98.5024 1.60689 -2.47514 0
M  V30 1078 H 98.5834 -0.158952 -2.55306 0
M  V30 1079 H 98.2274 -0.0415417 -5.07883 0
M  V30 1080 H 98.1574 1.73538 -4.97184 0
M  V30 1081 H 100.648 0.857188 -3.6805 0
M  V30 1082 H 100.961 1.1382 -7.64372 0
M  V30 1083 H 99.3064 1.03049 -6.87318 0
M  V30 1084 H 102.497 0.979558 -4.57736 0
M  V30 1085 H 102.67 1.10793 -6.38458 0
M  V30 1086 N 96.0765 1.50051 0.48192 0
M  V30 1087 C 97.0065 1.71046 1.58951 0
M  V30 1088 C 97.9875 0.559288 1.60642 0
M  V30 1089 O 99.1725 0.797243 1.77081 0
M  V30 1090 C 96.3025 1.79462 2.97339 0
M  V30 1091 C 95.2565 2.94558 3.10515 0
M  V30 1092 C 94.5825 2.88105 4.50444 0
M  V30 1093 C 95.8825 4.35227 2.88747 0
M  V30 1094 H 97.5765 2.6378 1.41635 0
M  V30 1095 H 95.1225 1.26936 0.679942 0
M  V30 1096 H 97.0755 1.92734 3.74742 0
M  V30 1097 H 95.7995 0.833412 3.15788 0
M  V30 1098 H 94.4585 2.80918 2.35543 0
M  V30 1099 H 94.1065 1.89853 4.65795 0
M  V30 1100 H 93.8065 3.65366 4.60197 0
M  V30 1101 H 95.3305 3.03412 5.29881 0
M  V30 1102 H 96.7445 4.49449 3.55905 0
M  V30 1103 H 95.1415 5.13856 3.09955 0
M  V30 1104 H 96.2115 4.48347 1.84696 0
M  V30 1105 N 97.5546 -0.734337 1.39446 0
M  V30 1106 C 98.9706 -1.03997 1.21065 0
M  V30 1107 C 99.1706 -2.01369 0.0727019 0
M  V30 1108 O 98.2266 -2.45856 -0.575426 0
M  V30 1109 C 99.5396 -1.60163 2.54496 0
M  V30 1110 C 101.088 -1.7224 2.61347 0
M  V30 1111 C 101.563 -2.31814 3.95002 0
M  V30 1112 N 103.054 -2.39223 3.96644 0
M  V30 1113 C 103.789 -2.86258 4.96834 0
M  V30 1114 N 103.285 -3.33184 6.07421 0
M  V30 1115 N 105.078 -2.85473 4.84213 0
M  V30 1116 H 97.2286 -0.0885624 2.12215 0
M  V30 1117 H 99.4916 -0.10191 0.942506 0
M  V30 1118 H 99.1976 -0.960811 3.38321 0
M  V30 1119 H 99.0716 -2.5896 2.74262 0
M  V30 1120 H 101.459 -2.35443 1.77906 0
M  V30 1121 H 101.54 -0.720939 2.4543 0
M  V30 1122 H 101.184 -1.69238 4.78875 0
M  V30 1123 H 101.114 -3.32638 4.08239 0
M  V30 1124 H 103.605 -2.06057 3.16779 0
M  V30 1125 H 103.918 -3.67586 6.7978 0
M  V30 1126 H 102.263 -3.31191 6.11013 0
M  V30 1127 H 105.454 -2.48136 3.96921 0
M  V30 1128 H 105.627 -3.21814 5.62441 0
M  V30 1129 N 99.0327 -1.24633 -0.964593 0
M  V30 1130 C 100.258 -1.11596 -1.74818 0
M  V30 1131 C 100.683 0.32723 -1.85232 0
M  V30 1132 O 100.041 1.23695 -1.32549 0
M  V30 1133 C 100.089 -1.76397 -3.1451 0
M  V30 1134 O 99.1927 -1.03685 -3.99153 0
M  V30 1135 H 98.5337 -0.390196 -0.537255 0
M  V30 1136 H 101.064 -1.65002 -1.20977 0
M  V30 1137 H 101.074 -1.8228 -3.65018 0
M  V30 1138 H 99.7487 -2.81401 -3.06246 0
M  V30 1139 H 98.3257 -1.05611 -3.57632 0
M  V30 1140 N 100.511 1.16574 -1.06058 0
M  V30 1141 C 101.759 1.86677 -0.77434 0
M  V30 1142 C 102.08 1.81959 0.701147 0
M  V30 1143 O 101.35 1.2515 1.50713 0
M  V30 1144 H 99.9298 0.691134 -0.283449 0
M  V30 1145 H 102.592 1.41378 -1.34158 0
M  V30 1146 H 101.688 2.92181 -1.09711 0
M  V30 1147 N 101.989 0.842826 1.3317 0
M  V30 1148 C 103.4 0.496651 1.79973 0
M  V30 1149 C 103.751 -0.984641 1.69703 0
M  V30 1150 O 102.876 -1.76743 1.24863 0
M  V30 1151 C 103.471 0.894727 3.26772 0
M  V30 1152 C 102.03 0.600629 3.71577 0
M  V30 1153 C 101.177 1.10091 2.5451 0
M  V30 1154 H 104.128 1.03116 1.20635 0
M  V30 1155 H 104.149 0.206347 3.7994 0
M  V30 1156 H 103.661 1.97287 3.34215 0
M  V30 1157 H 101.762 -0.467284 3.69658 0
M  V30 1158 H 101.875 1.15863 4.64879 0
M  V30 1159 H 100.239 0.52162 2.49301 0
M  V30 1160 H 101.022 2.18591 2.64713 0
M  V30 1161 N 103.467 -1.45747 0.599634 0
M  V30 1162 C 104.414 -2.30467 -0.123849 0
M  V30 1163 C 105.384 -1.41632 -0.86774 0
M  V30 1164 O 106.569 -1.70568 -0.855056 0
M  V30 1165 C 103.709 -3.26402 -1.12051 0
M  V30 1166 C 102.822 -4.3034 -0.37832 0
M  V30 1167 C 101.957 -5.13389 -1.364 0
M  V30 1168 C 100.996 -6.09061 -0.609171 0
M  V30 1169 N 100.133 -6.84918 -1.54374 0
M  V30 1170 H 104.973 -2.91802 0.604627 0
M  V30 1171 H 102.51 -1.43797 0.309972 0
M  V30 1172 H 104.468 -3.80482 -1.7114 0
M  V30 1173 H 103.098 -2.66839 -1.8165 0
M  V30 1174 H 102.15 -3.78984 0.327929 0
M  V30 1175 H 103.462 -4.98354 0.210997 0
M  V30 1176 H 102.616 -5.7183 -2.02719 0
M  V30 1177 H 101.355 -4.45376 -1.98725 0
M  V30 1178 H 100.36 -5.49758 0.0676979 0
M  V30 1179 H 101.585 -6.79099 0.00891991 0
M  V30 1180 H 99.531 -6.19601 -2.15478 0
M  V30 1181 H 99.448 -7.49254 -1.00766 0
M  V30 1182 H 100.716 -7.47906 -2.19676 0
M  V30 1183 N 104.945 -0.338344 -1.53925 0
M  V30 1184 C 106.17 0.263987 -2.05713 0
M  V30 1185 C 106.595 1.43847 -1.21201 0
M  V30 1186 O 105.953 1.79904 -0.224535 0
M  V30 1187 C 106.001 0.662 -3.54471 0
M  V30 1188 O 105.105 1.76265 -3.72833 0
M  V30 1189 H 104.446 0.0448722 -0.662482 0
M  V30 1190 H 106.976 -0.491048 -1.9862 0
M  V30 1191 H 106.986 0.940594 -3.9701 0
M  V30 1192 H 105.661 -0.196937 -4.15433 0
M  V30 1193 H 104.238 1.48173 -3.42198 0
M  V30 1194 N 106.423 1.57458 -0.0668435 0
M  V30 1195 C 107.37 2.12439 0.902122 0
M  V30 1196 C 108.34 1.03565 1.2986 0
M  V30 1197 O 109.525 1.312 1.38532 0
M  V30 1198 C 106.665 2.6865 2.16614 0
M  V30 1199 C 105.778 3.91663 1.82274 0
M  V30 1200 C 104.913 4.36134 3.0325 0
M  V30 1201 C 103.952 5.51808 2.64904 0
M  V30 1202 N 103.089 5.9126 3.78624 0
M  V30 1203 H 107.929 2.94934 0.426382 0
M  V30 1204 H 105.466 1.4575 0.198819 0
M  V30 1205 H 107.424 2.99346 2.90599 0
M  V30 1206 H 106.054 1.88928 2.61737 0
M  V30 1207 H 105.106 3.6746 0.983719 0
M  V30 1208 H 106.418 4.75693 1.50059 0
M  V30 1209 H 105.572 4.68465 3.85519 0
M  V30 1210 H 104.311 3.50948 3.38655 0
M  V30 1211 H 103.316 5.19133 1.81055 0
M  V30 1212 H 104.541 6.38722 2.30675 0
M  V30 1213 H 102.487 5.09024 4.138 0
M  V30 1214 H 102.404 6.70018 3.5016 0
M  V30 1215 H 103.672 6.28212 4.61486 0
M  V30 1216 N 107.901 -0.206675 1.56239 0
M  V30 1217 C 108.849 -1.27571 1.94495 0
M  V30 1218 C 109.843 -1.47737 0.828862 0
M  V30 1219 O 111.049 -1.48735 1.0138 0
M  V30 1220 H 107.424 -0.428029 0.6183 0
M  V30 1221 H 109.395 -0.925961 2.8367 0
M  V30 1222 C 108.144 -2.61568 2.29079 0
M  V30 1223 H 107.467 -2.46863 3.14482 0
M  V30 1224 H 108.907 -3.35144 2.5972 0
M  V30 1225 C 107.366 -3.17695 1.12123 0
M  V30 1226 O 107.896 -3.99801 0.390153 0
M  V30 1227 N 106.102 -2.76276 0.901097 0
M  V30 1228 H 105.649 -2.09613 1.49733 0
M  V30 1229 H 105.607 -3.1417 0.120319 0
M  V30 1230 N 109.379 -1.50304 -0.473955 0
M  V30 1231 C 110.625 -1.62358 -1.22521 0
M  V30 1232 C 110.98 -0.318555 -1.89745 0
M  V30 1233 O 110.273 0.683315 -1.79001 0
M  V30 1234 C 110.467 -2.73938 -2.29549 0
M  V30 1235 C 110.296 -4.15165 -1.72825 0
M  V30 1236 C 109.066 -4.81604 -1.52924 0
M  V30 1237 C 111.264 -4.99503 -1.22481 0
M  V30 1238 N 109.246 -6.07056 -0.91413 0
M  V30 1239 C 110.617 -6.15655 -0.732743 0
M  V30 1240 C 112.672 -4.85299 -1.11308 0
M  V30 1241 C 111.375 -7.19164 -0.139976 0
M  V30 1242 C 113.401 -5.88982 -0.534258 0
M  V30 1243 C 112.763 -7.0438 -0.0525562 0
M  V30 1244 H 108.862 -0.648286 -0.437321 0
M  V30 1245 H 111.446 -1.87413 -0.527692 0
M  V30 1246 H 109.617 -2.50611 -2.9673 0
M  V30 1247 H 111.349 -2.75366 -2.96573 0
M  V30 1248 H 108.104 -4.3885 -1.78067 0
M  V30 1249 H 108.528 -6.74108 -0.625071 0
M  V30 1250 H 113.17 -3.96369 -1.47144 0
M  V30 1251 H 110.888 -8.07771 0.230591 0
M  V30 1252 H 114.474 -5.80055 -0.450219 0
M  V30 1253 H 113.354 -7.83238 0.388324 0
M  V30 1254 N 110.857 0.726932 -1.39834 0
M  V30 1255 C 112.103 1.48884 -1.377 0
M  V30 1256 C 112.436 1.94185 0.0244852 0
M  V30 1257 O 111.711 1.67361 0.990986 0
M  V30 1258 C 111.994 2.72288 -2.3565 0
M  V30 1259 C 111.847 2.32956 -3.84775 0
M  V30 1260 C 113.166 3.74414 -2.31306 0
M  V30 1261 H 110.285 0.540062 -0.5015 0
M  V30 1262 H 112.927 0.830547 -1.70886 0
M  V30 1263 H 111.077 3.28457 -2.07481 0
M  V30 1264 H 112.749 1.82356 -4.23726 0
M  V30 1265 H 110.992 1.65088 -4.01159 0
M  V30 1266 H 111.663 3.21362 -4.4881 0
M  V30 1267 H 114.139 3.27849 -2.56231 0
M  V30 1268 H 113.015 4.58414 -3.01907 0
M  V30 1269 H 113.276 4.21909 -1.32081 0
M  V30 1270 N 112.336 1.25143 0.95797 0
M  V30 1271 C 113.566 1.12261 1.73439 0
M  V30 1272 C 113.974 -0.326715 1.86358 0
M  V30 1273 O 113.317 -1.2367 1.35836 0
M  V30 1274 C 113.379 1.69966 3.16784 0
M  V30 1275 C 113.043 3.18936 3.27305 0
M  V30 1276 C 114.04 4.15968 3.11877 0
M  V30 1277 C 111.725 3.59083 3.51234 0
M  V30 1278 C 113.719 5.51126 3.20217 0
M  V30 1279 C 111.406 4.9438 3.5921 0
M  V30 1280 C 112.404 5.90211 3.43716 0
M  V30 1281 O 112.092 7.23046 3.51368 0
M  V30 1282 H 111.824 0.392476 0.550399 0
M  V30 1283 H 114.378 1.65927 1.21068 0
M  V30 1284 H 112.608 1.10744 3.70503 0
M  V30 1285 H 114.297 1.52232 3.76272 0
M  V30 1286 H 115.063 3.86292 2.93264 0
M  V30 1287 H 110.942 2.84989 3.62356 0
M  V30 1288 H 114.486 6.25905 3.0804 0
M  V30 1289 H 110.383 5.23723 3.77339 0
M  V30 1290 H 111.151 7.31097 3.6802 0
M  V30 1291 N 113.814 -1.1601 1.06675 0
M  V30 1292 C 114.761 -2.20525 0.680967 0
M  V30 1293 C 115.731 -1.62904 -0.324283 0
M  V30 1294 O 116.916 -1.89615 -0.212294 0
M  V30 1295 C 114.056 -3.45013 0.0776551 0
M  V30 1296 C 113.169 -4.16863 1.13355 0
M  V30 1297 C 112.304 -5.2888 0.49597 0
M  V30 1298 C 111.343 -5.92537 1.53513 0
M  V30 1299 N 110.48 -6.96038 0.920631 0
M  V30 1300 H 115.32 -2.52876 1.57663 0
M  V30 1301 H 112.857 -1.24199 0.788223 0
M  V30 1302 H 114.815 -4.16193 -0.289704 0
M  V30 1303 H 113.445 -3.132 -0.781393 0
M  V30 1304 H 112.497 -3.44248 1.61857 0
M  V30 1305 H 113.809 -4.60294 1.92174 0
M  V30 1306 H 112.963 -6.06653 0.0758604 0
M  V30 1307 H 111.702 -4.86622 -0.324062 0
M  V30 1308 H 110.707 -5.13482 1.9651 0
M  V30 1309 H 111.932 -6.36873 2.35733 0
M  V30 1310 H 109.878 -6.55888 0.12138 0
M  V30 1311 H 109.795 -7.3786 1.64616 0
M  V30 1312 H 111.063 -7.77725 0.525795 0
M  V30 1313 N 115.292 -0.849877 -1.32721 0
M  V30 1314 C 116.541 -0.447175 -1.96681 0
M  V30 1315 C 116.854 1.00135 -1.68025 0
M  V30 1316 O 118.06 1.50926 -2.25685 0
M  V30 1317 C 116.516 -0.7487 -3.52026 0
M  V30 1318 C 116.124 -2.21264 -3.89546 0
M  V30 1319 C 117.868 -0.413487 -4.22481 0
M  V30 1320 C 115.775 -2.45763 -5.37917 0
M  V30 1321 H 114.705 -0.163486 -0.736063 0
M  V30 1322 H 117.356 -1.03999 -1.51183 0
M  V30 1323 H 115.738 -0.0853727 -3.95908 0
M  V30 1324 H 116.912 -2.91736 -3.56689 0
M  V30 1325 H 115.227 -2.5119 -3.32103 0
M  V30 1326 H 117.824 -0.574017 -5.3161 0
M  V30 1327 H 118.167 0.644492 -4.11281 0
M  V30 1328 H 118.7 -1.03251 -3.84167 0
M  V30 1329 H 115.439 -3.50168 -5.54132 0
M  V30 1330 H 114.959 -1.79864 -5.72197 0
M  V30 1331 H 116.638 -2.29471 -6.0494 0
M  V30 1332 N 116.77 1.45427 -0.607355 0
M  V30 1333 C 117.7 2.3329 0.0989352 0
M  V30 1334 C 118.681 1.46816 0.859007 0
M  V30 1335 O 119.866 1.75588 0.829604 0
M  V30 1336 C 116.996 3.29518 1.09705 0
M  V30 1337 C 115.95 4.25626 0.450206 0
M  V30 1338 C 115.276 5.11542 1.55655 0
M  V30 1339 C 116.576 5.18505 -0.628455 0
M  V30 1340 H 118.27 2.92595 -0.634716 0
M  V30 1341 H 115.816 1.40696 -0.306681 0
M  V30 1342 H 117.769 3.89855 1.59971 0
M  V30 1343 H 116.493 2.68372 1.86129 0
M  V30 1344 H 115.152 3.66586 -0.0315886 0
M  V30 1345 H 114.8 4.46765 2.31107 0
M  V30 1346 H 114.5 5.76647 1.12925 0
M  V30 1347 H 116.024 5.74748 2.06148 0
M  V30 1348 H 117.438 5.72916 -0.209877 0
M  V30 1349 H 115.835 5.92085 -0.977489 0
M  V30 1350 H 116.905 4.60948 -1.50514 0
M  V30 1351 N 118.248 0.346503 1.53744 0
M  V30 1352 C 119.496 -0.248612 2.00565 0
M  V30 1353 C 119.817 -1.5083 1.23593 0
M  V30 1354 O 119.087 -1.92858 0.343912 0
M  V30 1355 H 117.667 -0.0948564 0.740953 0
M  V30 1356 H 120.329 0.468341 1.89189 0
M  V30 1357 H 119.425 -0.488994 3.08245 0
M  V30 1358 N 119.726 -1.57421 0.075193 0
M  V30 1359 C 120.974 -1.93236 -0.591974 0
M  V30 1360 C 121.295 -0.956241 -1.69944 0
M  V30 1361 O 120.565 -0.00494792 -1.95899 0
M  V30 1362 H 119.145 -0.713355 -0.22166 0
M  V30 1363 H 121.807 -1.9444 0.133848 0
M  V30 1364 H 120.903 -2.95131 -1.01509 0
M  V30 1365 N 121.204 0.198386 -1.56346 0
M  V30 1366 C 122.451 0.919286 -1.80431 0
M  V30 1367 C 122.779 1.83393 -0.647866 0
M  V30 1368 O 122.034 1.92236 0.366556 0
M  V30 1369 C 122.333 1.77031 -3.10475 0
M  V30 1370 C 121.999 1.00693 -4.39513 0
M  V30 1371 C 120.661 0.796145 -4.74568 0
M  V30 1372 C 123.013 0.469559 -5.19081 0
M  V30 1373 C 120.341 0.0364588 -5.86689 0
M  V30 1374 C 122.693 -0.2769 -6.31994 0
M  V30 1375 C 121.357 -0.49873 -6.65634 0
M  V30 1376 H 120.627 0.336391 -0.660244 0
M  V30 1377 H 123.274 0.185872 -1.90596 0
M  V30 1378 H 121.579 2.5723 -2.95533 0
M  V30 1379 H 123.276 2.33065 -3.26315 0
M  V30 1380 H 119.866 1.18122 -4.12001 0
M  V30 1381 H 124.05 0.619816 -4.92414 0
M  V30 1382 H 119.306 -0.145412 -6.11227 0
M  V30 1383 H 123.48 -0.700684 -6.92866 0
M  V30 1384 H 121.107 -1.0893 -7.52355 0
M  V30 1385 N 122.682 1.50554 0.465978 0
M  V30 1386 C 123.645 1.69233 1.54574 0
M  V30 1387 C 124.645 0.562901 1.50626 0
M  V30 1388 O 125.835 0.830016 1.53155 0
M  V30 1389 C 122.967 1.7223 2.94193 0
M  V30 1390 H 124.16 2.65571 1.39327 0
M  V30 1391 H 121.713 1.40111 0.692711 0
M  V30 1392 H 122.448 0.77603 3.14878 0
M  V30 1393 H 122.233 2.54285 2.98466 0
M  V30 1394 H 123.723 1.88618 3.72576 0
M  V30 1395 N 124.16 -0.719506 1.40217 0
M  V30 1396 C 125.571 -1.29848 1.34151 0
M  V30 1397 C 125.922 -1.96196 0.0131349 0
M  V30 1398 O 125.047 -1.973 -0.88892 0
M  V30 1399 C 125.642 -2.36118 2.42968 0
M  V30 1400 C 124.201 -2.8965 2.40374 0
M  V30 1401 C 123.348 -1.63393 2.24049 0
M  V30 1402 H 126.299 -0.51591 1.5008 0
M  V30 1403 H 126.32 -3.16871 2.10649 0
M  V30 1404 H 125.832 -1.878 3.39636 0
M  V30 1405 H 123.933 -3.42208 1.47392 0
M  V30 1406 H 124.046 -3.4171 3.35814 0
M  V30 1407 H 122.41 -1.88312 1.71495 0
M  V30 1408 H 123.193 -1.17104 3.2271 0
M  V30 1409 N 125.638 -1.25649 -0.95132 0
M  V30 1410 C 126.548 -1.08073 -2.08224 0
M  V30 1411 C 127.564 -0.0169666 -1.73992 0
M  V30 1412 O 128.74 -0.218593 -2.0021 0
M  V30 1413 C 125.805 -0.704922 -3.39458 0
M  V30 1414 C 124.866 -1.84699 -3.87537 0
M  V30 1415 C 124.099 -1.48902 -5.12508 0
M  V30 1416 O 124.322 -0.386156 -5.69091 0
M  V30 1417 O 123.256 -2.32033 -5.55378 0
M  V30 1418 H 127.082 -2.02924 -2.25954 0
M  V30 1419 H 124.667 -1.04618 -1.06656 0
M  V30 1420 H 126.549 -0.507609 -4.18332 0
M  V30 1421 H 125.224 0.214291 -3.2299 0
M  V30 1422 H 124.131 -2.09919 -3.09653 0
M  V30 1423 H 125.464 -2.74557 -4.08509 0
M  V30 1424 N 127.117 1.15442 -1.07289 0
M  V30 1425 C 128.067 2.18164 -0.662467 0
M  V30 1426 C 129.051 1.57845 0.312074 0
M  V30 1427 O 130.243 1.76552 0.125905 0
M  V30 1428 C 127.372 3.43246 -0.0611295 0
M  V30 1429 C 126.458 4.1062 -1.06077 0
M  V30 1430 N 126.849 4.53491 -2.24008 0
M  V30 1431 C 125.147 4.36949 -0.893964 0
M  V30 1432 C 125.848 5.05731 -2.87422 0
M  V30 1433 N 124.824 4.99236 -2.15091 0
M  V30 1434 H 128.626 2.49038 -1.56068 0
M  V30 1435 H 126.14 1.32003 -0.945988 0
M  V30 1436 H 128.137 4.16145 0.250792 0
M  V30 1437 H 126.797 3.13854 0.832207 0
M  V30 1438 H 127.808 4.46898 -2.6173 0
M  V30 1439 H 124.485 4.17466 -0.0534693 0
M  V30 1440 H 125.875 5.48865 -3.87553 0
M  V30 1441 N 128.595 0.856903 1.32268 0
M  V30 1442 C 129.542 0.301172 2.28827 0
M  V30 1443 C 130.512 -0.593104 1.5515 0
M  V30 1444 O 131.697 -0.527537 1.83362 0
M  V30 1445 C 128.837 -0.502523 3.41422 0
M  V30 1446 C 127.95 0.417797 4.29975 0
M  V30 1447 C 127.085 -0.398749 5.29701 0
M  V30 1448 C 126.124 0.518827 6.09897 0
M  V30 1449 N 125.261 -0.260674 7.01616 0
M  V30 1450 H 130.101 1.12983 2.75751 0
M  V30 1451 H 127.638 0.568582 1.35667 0
M  V30 1452 H 129.596 -0.984141 4.05426 0
M  V30 1453 H 128.226 -1.29599 2.95642 0
M  V30 1454 H 127.278 1.01781 3.66531 0
M  V30 1455 H 128.59 1.12191 4.86019 0
M  V30 1456 H 127.744 -0.943435 5.9932 0
M  V30 1457 H 126.483 -1.13622 4.7428 0
M  V30 1458 H 125.488 1.07538 5.39181 0
M  V30 1459 H 126.713 1.25495 6.67404 0
M  V30 1460 H 124.659 -0.981198 6.4862 0
M  V30 1461 H 124.576 0.384364 7.55022 0
M  V30 1462 H 125.844 -0.787014 7.75517 0
M  V30 1463 N 130.073 -1.45103 0.615059 0
M  V30 1464 C 130.983 -2.34382 -0.101034 0
M  V30 1465 C 131.999 -1.51681 -0.852585 0
M  V30 1466 O 133.175 -1.8446 -0.808484 0
M  V30 1467 C 130.24 -3.29417 -1.08099 0
M  V30 1468 C 129.301 -4.28025 -0.330577 0
M  V30 1469 C 128.534 -5.1852 -1.26385 0
M  V30 1470 O 128.757 -5.12598 -2.50198 0
M  V30 1471 O 127.691 -5.97122 -0.756866 0
M  V30 1472 H 131.517 -2.97033 0.632855 0
M  V30 1473 H 129.102 -1.4461 0.375293 0
M  V30 1474 H 130.984 -3.87958 -1.6452 0
M  V30 1475 H 129.659 -2.69321 -1.79577 0
M  V30 1476 H 128.566 -3.73078 0.276283 0
M  V30 1477 H 129.899 -4.90997 0.343866 0
M  V30 1478 N 131.551 -0.354651 -1.53558 0
M  V30 1479 C 132.962 0.126902 -1.86268 0
M  V30 1480 C 133.313 1.49075 -1.27558 0
M  V30 1481 O 132.438 2.08105 -0.5934 0
M  V30 1482 C 133.033 0.237046 -3.3797 0
M  V30 1483 C 131.592 0.662842 -3.70518 0
M  V30 1484 C 130.739 -0.196652 -2.76602 0
M  V30 1485 H 133.69 -0.573849 -1.47962 0
M  V30 1486 H 133.711 1.06259 -3.65362 0
M  V30 1487 H 133.223 -0.755725 -3.80671 0
M  V30 1488 H 131.324 1.66424 -3.33367 0
M  V30 1489 H 131.437 0.445034 -4.77029 0
M  V30 1490 H 129.801 0.332763 -2.52517 0
M  V30 1491 H 130.584 -1.18676 -3.22135 0
M  V30 1492 N 133.029 1.57378 -0.0835403 0
M  V30 1493 C 134.257 1.98263 0.59157 0
M  V30 1494 C 134.672 0.962302 1.62435 0
M  V30 1495 O 134.029 -0.049581 1.82433 0
M  V30 1496 C 134.08 3.39214 1.24965 0
M  V30 1497 O 133.801 4.37339 0.258186 0
M  V30 1498 C 135.302 3.95038 2.01147 0
M  V30 1499 H 132.522 0.651773 0.159477 0
M  V30 1500 H 135.066 2.03878 -0.159415 0
M  V30 1501 H 133.221 3.34649 1.95164 0
M  V30 1502 H 133.635 5.19371 0.731734 0
M  V30 1503 H 135.109 4.95848 2.42567 0
M  V30 1504 H 135.586 3.32222 2.87272 0
M  V30 1505 H 136.192 4.0304 1.35789 0
M  V30 1506 N 134.507 -0.190092 1.56449 0
M  V30 1507 C 135.437 -1.23816 1.97969 0
M  V30 1508 C 136.418 -1.47201 0.852395 0
M  V30 1509 O 137.603 -1.58854 1.1171 0
M  V30 1510 C 134.733 -2.5813 2.3235 0
M  V30 1511 C 133.687 -2.49348 3.47864 0
M  V30 1512 C 133.013 -3.8798 3.67934 0
M  V30 1513 C 134.313 -2.01424 4.81898 0
M  V30 1514 H 136.007 -0.89311 2.85769 0
M  V30 1515 H 133.553 -0.428177 1.37487 0
M  V30 1516 H 135.506 -3.31637 2.59991 0
M  V30 1517 H 134.23 -2.94386 1.41438 0
M  V30 1518 H 132.889 -1.78297 3.20321 0
M  V30 1519 H 132.537 -4.21597 2.74344 0
M  V30 1520 H 132.237 -3.82978 4.45648 0
M  V30 1521 H 133.761 -4.63101 3.97957 0
M  V30 1522 H 135.175 -2.64693 5.08538 0
M  V30 1523 H 133.572 -2.07413 5.63116 0
M  V30 1524 H 134.642 -0.967677 4.75146 0
M  V30 1525 N 135.985 -1.50799 -0.457987 0
M  V30 1526 C 137.396 -1.55152 -1.0385 0
M  V30 1527 C 137.747 -0.362719 -1.92818 0
M  V30 1528 O 136.872 0.522915 -2.09987 0
M  V30 1529 C 137.467 -2.81173 -1.89017 0
M  V30 1530 C 136.026 -2.88164 -2.42154 0
M  V30 1531 C 135.173 -2.49591 -1.20829 0
M  V30 1532 H 138.124 -1.56874 -0.240068 0
M  V30 1533 H 138.145 -2.63769 -2.74238 0
M  V30 1534 H 137.657 -3.67677 -1.24238 0
M  V30 1535 H 135.758 -2.06042 -3.10447 0
M  V30 1536 H 135.871 -3.91356 -2.76364 0
M  V30 1537 H 134.235 -2.02322 -1.54719 0
M  V30 1538 H 135.018 -3.38418 -0.576927 0
M  V30 1539 N 137.463 0.71206 -1.40597 0
M  V30 1540 C 138.688 1.50617 -1.42581 0
M  V30 1541 C 139.113 1.88079 -0.0282102 0
M  V30 1542 O 138.471 1.53511 0.964579 0
M  V30 1543 C 138.519 2.7557 -2.3258 0
M  V30 1544 O 137.623 3.72414 -1.77148 0
M  V30 1545 H 136.964 0.453966 -0.484573 0
M  V30 1546 H 139.494 0.876649 -1.84868 0
M  V30 1547 H 139.504 3.2406 -2.47889 0
M  V30 1548 H 138.179 2.47639 -3.34138 0
M  V30 1549 H 136.756 3.31276 -1.71204 0
M  V30 1550 N 138.941 1.26152 0.944643 0
M  V30 1551 C 140.218 1.02247 1.66748 0
M  V30 1552 C 140.598 -0.448202 2.06287 0
M  V30 1553 O 139.946 -1.42779 1.78399 0
M  V30 1554 C 140.156 1.96788 2.88228 0
M  V30 1555 C 141.504 2.25201 3.59958 0
M  V30 1556 O 142.528 1.94626 2.98327 0
M  V30 1557 O 141.387 2.77242 4.70956 0
M  V30 1558 H 138.481 0.388517 0.730057 0
M  V30 1559 H 141.027 1.37348 0.99668 0
M  V30 1560 H 139.799 2.96047 2.55875 0
M  V30 1561 H 139.422 1.62145 3.63035 0
M  V30 1562 N 140.419 -1.14872 1.07899 0
M  V30 1563 C 141.644 -1.90202 0.826926 0
M  V30 1564 C 142.069 -1.77774 -0.614664 0
M  V30 1565 O 141.427 -1.11431 -1.43013 0
M  V30 1566 C 141.475 -3.38352 1.24702 0
M  V30 1567 O 140.579 -4.10497 0.39575 0
M  V30 1568 H 139.92 -0.591968 0.300782 0
M  V30 1569 H 142.45 -1.45437 1.43907 0
M  V30 1570 H 142.46 -3.89156 1.22563 0
M  V30 1571 H 141.135 -3.46715 2.29698 0
M  V30 1572 H 139.712 -3.69796 0.480117 0
M  V30 1573 N 141.898 -0.863906 -1.31812 0
M  V30 1574 C 143.309 -0.52522 -1.7916 0
M  V30 1575 C 143.66 0.957518 -1.71248 0
M  V30 1576 O 142.785 1.74734 -1.27659 0
M  V30 1577 C 143.38 -0.9466 -3.25307 0
M  V30 1578 C 141.939 -0.659668 -3.70574 0
M  V30 1579 C 141.086 -1.14126 -2.52726 0
M  V30 1580 H 144.037 -1.05022 -1.1898 0
M  V30 1581 H 144.058 -0.266766 -3.79564 0
M  V30 1582 H 143.57 -2.02579 -3.31034 0
M  V30 1583 H 141.671 0.408416 -3.70355 0
M  V30 1584 H 141.784 -1.23245 -4.62977 0
M  V30 1585 H 140.148 -0.561216 -2.4844 0
M  V30 1586 H 140.931 -2.22775 -2.61201 0
M  V30 1587 N 143.376 1.44774 -0.622745 0
M  V30 1588 C 144.792 1.56986 -0.287652 0
M  V30 1589 C 144.992 1.61167 1.20944 0
M  V30 1590 O 144.048 1.55015 1.99315 0
M  V30 1591 C 145.361 2.84551 -0.972188 0
M  V30 1592 C 146.909 2.9825 -0.949536 0
M  V30 1593 C 147.384 4.28605 -1.61437 0
M  V30 1594 N 148.875 4.35399 -1.58057 0
M  V30 1595 C 149.61 5.34964 -2.064 0
M  V30 1596 N 149.106 6.40981 -2.62897 0
M  V30 1597 N 150.899 5.26419 -1.97078 0
M  V30 1598 H 143.05 1.40304 -1.59463 0
M  V30 1599 H 145.313 0.671794 -0.668878 0
M  V30 1600 H 145.019 2.87417 -2.02693 0
M  V30 1601 H 144.893 3.73807 -0.504771 0
M  V30 1602 H 147.28 2.94941 0.0967067 0
M  V30 1603 H 147.361 2.10364 -1.45536 0
M  V30 1604 H 147.005 4.32672 -2.66002 0
M  V30 1605 H 146.935 5.15334 -1.08344 0
M  V30 1606 H 149.426 3.59397 -1.16801 0
M  V30 1607 H 149.739 7.13225 -2.97539 0
M  V30 1608 H 148.084 6.4169 -2.66943 0
M  V30 1609 H 151.275 4.42504 -1.52669 0
M  V30 1610 H 151.448 6.03861 -2.35066 0
M  V30 1611 N 144.854 0.36279 1.53368 0
M  V30 1612 C 145.804 -0.501391 2.22419 0
M  V30 1613 C 146.788 -1.0509 1.2184 0
M  V30 1614 O 147.98 -0.981404 1.47301 0
M  V30 1615 C 145.109 -1.64201 3.01484 0
M  V30 1616 C 144.195 -1.10552 4.09438 0
M  V30 1617 N 144.586 -0.291788 5.04958 0
M  V30 1618 C 142.884 -1.3806 4.24094 0
M  V30 1619 C 143.585 0.00162655 5.817 0
M  V30 1620 N 142.561 -0.595244 5.40331 0
M  V30 1621 H 146.363 0.127159 2.93625 0
M  V30 1622 H 143.877 0.170658 1.61501 0
M  V30 1623 H 145.874 -2.27326 3.49469 0
M  V30 1624 H 144.534 -2.27365 2.31809 0
M  V30 1625 H 145.545 0.0687731 5.17854 0
M  V30 1626 H 142.222 -2.01522 3.65644 0
M  V30 1627 H 143.612 0.659278 6.68658 0
M  V30 1628 N 146.332 -1.57332 0.0918853 0
M  V30 1629 C 147.262 -2.16872 -0.865371 0
M  V30 1630 C 148.243 -1.10118 -1.29646 0
M  V30 1631 O 149.428 -1.38242 -1.36392 0
M  V30 1632 C 146.558 -2.74649 -2.12569 0
M  V30 1633 C 145.512 -3.86747 -1.83333 0
M  V30 1634 C 144.838 -4.31212 -3.16166 0
M  V30 1635 C 146.138 -5.10089 -1.1228 0
M  V30 1636 H 147.832 -2.97114 -0.369307 0
M  V30 1637 H 145.378 -1.42918 -0.176194 0
M  V30 1638 H 147.331 -3.14952 -2.7997 0
M  V30 1639 H 146.055 -1.91657 -2.64452 0
M  V30 1640 H 144.714 -3.46978 -1.18331 0
M  V30 1641 H 144.362 -3.45115 -3.6593 0
M  V30 1642 H 144.062 -5.06788 -2.97388 0
M  V30 1643 H 145.586 -4.74146 -3.84731 0
M  V30 1644 H 147 -5.47582 -1.69785 0
M  V30 1645 H 145.397 -5.91073 -1.03693 0
M  V30 1646 H 146.467 -4.84786 -0.105041 0
M  V30 1647 N 147.81 0.181792 -1.56548 0
M  V30 1648 C 149.221 0.745244 -1.71181 0
M  V30 1649 C 149.572 1.83262 -0.70068 0
M  V30 1650 O 148.697 2.15946 0.140154 0
M  V30 1651 C 149.292 1.35859 -3.10367 0
M  V30 1652 C 147.851 1.86898 -3.2672 0
M  V30 1653 C 146.998 0.743942 -2.67134 0
M  V30 1654 H 149.949 -0.0434661 -1.5864 0
M  V30 1655 H 149.97 2.22817 -3.08436 0
M  V30 1656 H 149.482 0.566948 -3.83937 0
M  V30 1657 H 147.583 2.68738 -2.5809 0
M  V30 1658 H 147.696 2.02162 -4.34359 0
M  V30 1659 H 146.06 1.16169 -2.26665 0
M  V30 1660 H 146.843 -0.035676 -3.43281 0
M  V30 1661 N 149.288 1.51039 0.449983 0
M  V30 1662 C 150.198 1.74261 1.57067 0
M  V30 1663 C 151.214 0.626363 1.62335 0
M  V30 1664 O 152.39 0.907162 1.79812 0
M  V30 1665 C 149.455 1.85114 2.93144 0
M  V30 1666 C 148.516 3.0893 2.98095 0
M  V30 1667 C 147.749 3.19256 4.27681 0
M  V30 1668 O 147.972 2.35835 5.19363 0
M  V30 1669 O 146.906 4.12144 4.38658 0
M  V30 1670 H 150.732 2.69303 1.40391 0
M  V30 1671 H 148.317 1.35389 0.631688 0
M  V30 1672 H 150.199 1.94311 3.73926 0
M  V30 1673 H 148.874 0.932588 3.09975 0
M  V30 1674 H 147.781 3.0522 2.16314 0
M  V30 1675 H 149.114 4.00433 2.86206 0
M  V30 1676 N 150.766 -0.704594 1.40972 0
M  V30 1677 C 152.177 -1.28418 1.3552 0
M  V30 1678 C 152.528 -1.96171 0.0339434 0
M  V30 1679 O 151.653 -1.98231 -0.867944 0
M  V30 1680 C 152.248 -2.33528 2.45459 0
M  V30 1681 C 150.807 -2.87085 2.43433 0
M  V30 1682 C 149.954 -1.61007 2.2577 0
M  V30 1683 H 152.905 -0.499963 1.50619 0
M  V30 1684 H 152.926 -3.14619 2.13998 0
M  V30 1685 H 152.438 -1.84187 3.41609 0
M  V30 1686 H 150.539 -3.40626 1.51013 0
M  V30 1687 H 150.652 -3.3813 3.39419 0
M  V30 1688 H 149.016 -1.86482 1.73483 0
M  V30 1689 H 149.799 -1.13675 3.23933 0
M  V30 1690 N 152.244 -1.26651 -0.937939 0
M  V30 1691 C 153.154 -1.10276 -2.07066 0
M  V30 1692 C 154.17 -0.0354197 -1.73964 0
M  V30 1693 O 155.346 -0.239816 -1.99967 0
M  V30 1694 C 152.411 -0.740887 -3.38691 0
M  V30 1695 C 151.472 -1.88799 -3.85556 0
M  V30 1696 C 150.705 -1.54329 -5.10899 0
M  V30 1697 O 150.928 -0.446494 -5.6865 0
M  V30 1698 O 149.862 -2.37911 -5.52885 0
M  V30 1699 H 153.688 -2.05309 -2.23789 0
M  V30 1700 H 151.273 -1.05743 -1.0554 0
M  V30 1701 H 153.155 -0.55195 -4.1777 0
M  V30 1702 H 151.83 0.180022 -3.23199 0
M  V30 1703 H 150.737 -2.13191 -3.07409 0
M  V30 1704 H 152.07 -2.78874 -4.05574 0
M  V30 1705 N 153.722 1.14298 -1.08507 0
M  V30 1706 C 154.97 1.84993 -0.813763 0
M  V30 1707 C 155.291 1.83405 0.662393 0
M  V30 1708 O 154.561 1.28319 1.48024 0
M  V30 1709 H 153.141 0.684966 -0.298045 0
M  V30 1710 H 155.803 1.385 -1.37126 0
M  V30 1711 H 154.899 2.89788 -1.15884 0
M  V30 1712 N 155.201 0.870884 1.31352 0
M  V30 1713 C 156.449 0.48132 1.96285 0
M  V30 1714 C 156.77 -0.969813 1.69173 0
M  V30 1715 O 156.04 -1.67998 1.00764 0
M  V30 1716 H 154.62 0.175002 0.726212 0
M  V30 1717 H 157.282 1.11087 1.60143 0
M  V30 1718 H 156.378 0.639825 3.05471 0
M  V30 1719 N 156.679 -1.44442 0.630414 0
M  V30 1720 C 157.609 -2.33418 -0.0618083 0
M  V30 1721 C 158.59 -1.48165 -0.835541 0
M  V30 1722 O 159.775 -1.76886 -0.801564 0
M  V30 1723 C 156.905 -3.31222 -1.04449 0
M  V30 1724 C 155.859 -4.26288 -0.382436 0
M  V30 1725 C 155.185 -5.13954 -1.47497 0
M  V30 1726 C 156.485 -5.1744 0.710865 0
M  V30 1727 H 158.179 -2.91548 0.681184 0
M  V30 1728 H 155.725 -1.40191 0.329026 0
M  V30 1729 H 157.678 -3.92351 -1.53748 0
M  V30 1730 H 156.402 -2.71299 -1.81836 0
M  V30 1731 H 155.061 -3.6649 0.0899054 0
M  V30 1732 H 154.709 -4.50385 -2.2397 0
M  V30 1733 H 154.409 -5.7837 -1.03737 0
M  V30 1734 H 155.933 -5.77955 -1.96979 0
M  V30 1735 H 157.347 -5.72509 0.300996 0
M  V30 1736 H 155.744 -5.90455 1.07156 0
M  V30 1737 H 156.814 -4.58496 1.57829 0
M  V30 1738 N 158.157 -0.370918 -1.53173 0
M  V30 1739 C 159.104 0.473035 -2.259 0
M  V30 1740 C 160.074 1.07311 -1.26781 0
M  V30 1741 O 161.259 1.1046 -1.55574 0
M  V30 1742 C 158.399 1.60405 -3.05556 0
M  V30 1743 C 157.512 1.02863 -4.19575 0
M  V30 1744 C 156.647 2.12918 -4.86661 0
M  V30 1745 C 155.686 1.52869 -5.92704 0
M  V30 1746 N 154.823 2.56779 -6.53459 0
M  V30 1747 H 159.663 -0.153649 -2.97604 0
M  V30 1748 H 157.2 -0.0875946 -1.46839 0
M  V30 1749 H 159.158 2.27034 -3.50016 0
M  V30 1750 H 157.788 2.20131 -2.36097 0
M  V30 1751 H 156.84 0.252465 -3.79561 0
M  V30 1752 H 158.152 0.549642 -4.95762 0
M  V30 1753 H 157.306 2.87356 -5.34333 0
M  V30 1754 H 156.045 2.6417 -4.09958 0
M  V30 1755 H 155.05 0.769479 -5.44389 0
M  V30 1756 H 156.275 1.02435 -6.7133 0
M  V30 1757 H 154.221 3.07235 -5.79606 0
M  V30 1758 H 154.138 2.13583 -7.25202 0
M  V30 1759 H 155.406 3.30903 -7.05779 0
M  V30 1760 N 159.635 1.57281 -0.100228 0
M  V30 1761 C 160.875 1.96419 0.56558 0
M  V30 1762 C 161.239 0.981265 1.65031 0
M  V30 1763 O 162.44 1.26133 2.37369 0
M  V30 1764 C 160.711 3.39996 1.10171 0
M  V30 1765 S 162.27 4.01134 1.77867 0
M  V30 1766 H 159.088 0.68667 0.184406 0
M  V30 1767 H 161.69 1.94662 -0.180851 0
M  V30 1768 H 160.394 4.09296 0.300803 0
M  V30 1769 H 159.925 3.45361 1.88385 0
M  V30 1770 H 161.94 3.90358 3.06326 0
M  V30 1771 N 161.113 -0.173488 1.56642 0
M  V30 1772 C 162.043 -1.2171 1.99271 0
M  V30 1773 C 163.024 -1.46289 0.867959 0
M  V30 1774 O 164.209 -1.5766 1.13388 0
M  V30 1775 C 161.339 -2.55651 2.35074 0
M  V30 1776 C 160.293 -2.45645 3.50489 0
M  V30 1777 C 159.619 -3.84056 3.72028 0
M  V30 1778 C 160.919 -1.96302 4.84007 0
M  V30 1779 H 162.613 -0.86275 2.867 0
M  V30 1780 H 160.159 -0.413571 1.37933 0
M  V30 1781 H 162.112 -3.2886 2.63494 0
M  V30 1782 H 160.836 -2.92869 1.44552 0
M  V30 1783 H 159.495 -1.7489 3.22194 0
M  V30 1784 H 159.143 -4.18664 2.788 0
M  V30 1785 H 158.843 -3.7823 4.49684 0
M  V30 1786 H 160.367 -4.58854 4.02846 0
M  V30 1787 H 161.781 -2.59284 5.11317 0
M  V30 1788 H 160.178 -2.01429 5.65284 0
M  V30 1789 H 161.248 -0.917226 4.76146 0
M  V30 1790 N 162.591 -1.51276 -0.441967 0
M  V30 1791 C 163.84 -1.6295 -1.18871 0
M  V30 1792 C 164.153 -0.349312 -1.92456 0
M  V30 1793 O 165.359 -0.345355 -2.69295 0
M  V30 1794 C 163.815 -2.87759 -2.16155 0
M  V30 1795 C 163.423 -4.22764 -1.48239 0
M  V30 1796 C 165.167 -3.08788 -2.91291 0
M  V30 1797 C 163.074 -5.38728 -2.4398 0
M  V30 1798 H 162.004 -0.606913 -0.447406 0
M  V30 1799 H 164.655 -1.77739 -0.456205 0
M  V30 1800 H 163.037 -2.66593 -2.92821 0
M  V30 1801 H 164.211 -4.54293 -0.771635 0
M  V30 1802 H 162.526 -4.07575 -0.852741 0
M  V30 1803 H 165.123 -3.92599 -3.63002 0
M  V30 1804 H 165.466 -2.21679 -3.5237 0
M  V30 1805 H 165.999 -3.30272 -2.21733 0
M  V30 1806 H 162.738 -6.28082 -1.87598 0
M  V30 1807 H 162.258 -5.1158 -3.13123 0
M  V30 1808 H 163.937 -5.70489 -3.05207 0
M  V30 1809 N 164.069 0.697108 -1.41344 0
M  V30 1810 C 165.48 1.27697 -1.36199 0
M  V30 1811 C 165.831 1.9615 -0.0443463 0
M  V30 1812 O 164.956 1.98689 0.857419 0
M  V30 1813 C 165.551 2.32223 -2.46694 0
M  V30 1814 C 164.11 2.8579 -2.44952 0
M  V30 1815 C 163.257 1.59807 -2.26621 0
M  V30 1816 H 166.208 0.491968 -1.50882 0
M  V30 1817 H 166.229 3.1348 -2.15664 0
M  V30 1818 H 165.741 1.82373 -3.42581 0
M  V30 1819 H 163.842 3.3982 -1.52817 0
M  V30 1820 H 163.955 3.36325 -3.41207 0
M  V30 1821 H 162.319 1.8556 -1.7447 0
M  V30 1822 H 163.102 1.11956 -3.24532 0
M  V30 1823 N 165.547 1.27147 0.931209 0
M  V30 1824 C 166.457 1.11372 2.06478 0
M  V30 1825 C 167.473 0.044645 1.73943 0
M  V30 1826 O 168.649 0.250417 1.99837 0
M  V30 1827 C 165.714 0.758838 3.38294 0
M  V30 1828 C 164.775 1.90841 3.84549 0
M  V30 1829 C 164.008 1.57036 5.10074 0
M  V30 1830 O 164.231 0.476645 5.68405 0
M  V30 1831 O 163.165 2.40839 5.51616 0
M  V30 1832 H 166.991 2.06493 2.22698 0
M  V30 1833 H 164.576 1.06301 1.04978 0
M  V30 1834 H 166.458 0.574098 4.17471 0
M  V30 1835 H 165.133 -0.162879 3.2329 0
M  V30 1836 H 164.04 2.14819 3.06274 0
M  V30 1837 H 165.373 2.81021 4.04089 0
M  V30 1838 N 167.025 -1.13721 1.09112 0
M  V30 1839 C 168.273 -1.84559 0.823562 0
M  V30 1840 C 168.594 -1.83754 -0.652658 0
M  V30 1841 O 167.864 -1.29102 -1.47342 0
M  V30 1842 H 166.444 -0.683376 0.301673 0
M  V30 1843 H 169.106 -1.37771 1.37859 0
M  V30 1844 H 168.202 -2.8917 1.17419 0
M  V30 1845 N 168.503 -0.877838 -1.30888 0
M  V30 1846 C 169.466 -0.344265 -2.266 0
M  V30 1847 C 170.466 0.50922 -1.52524 0
M  V30 1848 O 171.656 0.317398 -1.71284 0
M  V30 1849 C 168.788 0.510198 -3.37061 0
M  V30 1850 H 169.981 -1.1893 -2.7531 0
M  V30 1851 H 167.534 -0.654088 -1.41956 0
M  V30 1852 H 168.269 1.37612 -2.93655 0
M  V30 1853 H 168.054 -0.101047 -3.9197 0
M  V30 1854 H 169.544 0.875537 -4.08319 0
M  V30 1855 N 169.982 1.44106 -0.638065 0
M  V30 1856 C 171.228 2.02277 -0.145546 0
M  V30 1857 C 171.561 1.50125 1.23191 0
M  V30 1858 O 170.836 0.688133 1.8192 0
M  V30 1859 C 171.119 3.59829 -0.139791 0
M  V30 1860 C 170.972 4.22247 -1.55008 0
M  V30 1861 C 172.291 4.36873 0.531966 0
M  V30 1862 H 169.41 0.734992 -0.0543632 0
M  V30 1863 H 172.052 1.71592 -0.815863 0
M  V30 1864 H 170.202 3.86102 0.431007 0
M  V30 1865 H 171.874 4.07057 -2.1703 0
M  V30 1866 H 170.117 3.79476 -2.10191 0
M  V30 1867 H 170.788 5.31284 -1.49804 0
M  V30 1868 H 173.264 4.16074 0.0464781 0
M  V30 1869 H 172.14 5.4657 0.505206 0
M  V30 1870 H 172.401 4.11995 1.60352 0
M  V30 1871 N 171.46 0.379036 1.52974 0
M  V30 1872 C 172.7 -0.206325 2.03356 0
M  V30 1873 C 173.064 -1.44892 1.25977 0
M  V30 1874 O 174.265 -2.11078 1.66432 0
M  V30 1875 C 172.536 -0.477887 3.54191 0
M  V30 1876 S 174.095 -1.035 4.26419 0
M  V30 1877 H 170.913 -0.0590259 0.708546 0
M  V30 1878 H 173.515 0.525013 1.88319 0
M  V30 1879 H 172.219 0.433745 4.08101 0
M  V30 1880 H 171.75 -1.23793 3.73415 0
M  V30 1881 H 173.765 -2.31821 4.38718 0
M  V30 1882 N 172.938 -1.57226 0.108567 0
M  V30 1883 C 174.354 -1.5766 -0.248058 0
M  V30 1884 C 174.554 -1.12063 -1.67464 0
M  V30 1885 O 173.61 -0.803236 -2.39383 0
M  V30 1886 C 174.923 -3.0069 -0.0242287 0
M  V30 1887 C 176.471 -3.12868 -0.0909372 0
M  V30 1888 C 176.946 -4.57879 0.105067 0
M  V30 1889 N 178.437 -4.63172 0.0506846 0
M  V30 1890 C 179.172 -5.73126 0.177396 0
M  V30 1891 N 178.668 -6.91866 0.359696 0
M  V30 1892 N 180.461 -5.61977 0.117709 0
M  V30 1893 H 172.612 -1.85169 1.04049 0
M  V30 1894 H 174.875 -0.85529 0.40888 0
M  V30 1895 H 174.581 -3.38299 0.961604 0
M  V30 1896 H 174.455 -3.6945 -0.76068 0
M  V30 1897 H 176.842 -2.75124 -1.06729 0
M  V30 1898 H 176.923 -2.46672 0.677225 0
M  V30 1899 H 176.567 -4.96321 1.07834 0
M  V30 1900 H 176.497 -5.22153 -0.682954 0
M  V30 1901 H 178.988 -3.778 -0.0871266 0
M  V30 1902 H 179.301 -7.71503 0.447529 0
M  V30 1903 H 177.646 -6.93874 0.395536 0
M  V30 1904 H 180.837 -4.68094 -0.0236741 0
M  V30 1905 H 181.01 -6.47627 0.219905 0
M  V30 1906 N 174.416 0.165178 -1.56732 0
M  V30 1907 C 175.664 0.879068 -1.8198 0
M  V30 1908 C 175.985 1.82514 -0.686561 0
M  V30 1909 O 175.255 1.93694 0.293146 0
M  V30 1910 H 173.835 0.327608 -0.671329 0
M  V30 1911 H 176.497 0.163526 -1.94213 0
M  V30 1912 H 175.593 1.45228 -2.76252 0
M  V30 1913 N 175.894 1.51508 0.433938 0
M  V30 1914 C 176.804 1.75917 1.5521 0
M  V30 1915 C 177.82 0.643545 1.61662 0
M  V30 1916 O 178.996 0.926183 1.7884 0
M  V30 1917 C 176.061 1.88213 2.91164 0
M  V30 1918 C 175.122 3.12074 2.94802 0
M  V30 1919 C 174.355 3.23774 4.24271 0
M  V30 1920 O 174.578 2.4133 5.16833 0
M  V30 1921 O 173.512 4.16774 4.34262 0
M  V30 1922 H 177.338 2.70777 1.37527 0
M  V30 1923 H 174.923 1.36051 0.617293 0
M  V30 1924 H 176.805 1.98267 3.71845 0
M  V30 1925 H 175.48 0.965413 3.08968 0
M  V30 1926 H 174.387 3.07497 2.13065 0
M  V30 1927 H 175.72 4.03446 2.81943 0
M  V30 1928 N 177.372 -0.689602 1.41712 0
M  V30 1929 C 178.302 -1.81577 1.46806 0
M  V30 1930 C 179.283 -1.66945 0.326105 0
M  V30 1931 O 180.468 -1.86588 0.538377 0
M  V30 1932 C 177.598 -3.19762 1.35535 0
M  V30 1933 C 176.552 -3.49107 2.47605 0
M  V30 1934 C 175.878 -4.86711 2.21397 0
M  V30 1935 C 177.178 -3.47483 3.89939 0
M  V30 1936 H 178.872 -1.7757 2.41058 0
M  V30 1937 H 176.418 -0.852887 1.16025 0
M  V30 1938 H 178.371 -3.98263 1.3771 0
M  V30 1939 H 177.095 -3.24409 0.377708 0
M  V30 1940 H 175.754 -2.72959 2.44722 0
M  V30 1941 H 175.402 -4.8799 1.21961 0
M  V30 1942 H 175.102 -5.0731 2.96497 0
M  V30 1943 H 176.626 -5.67515 2.25297 0
M  V30 1944 H 178.04 -4.1598 3.94505 0
M  V30 1945 H 176.437 -3.79615 4.64771 0
M  V30 1946 H 177.507 -2.46341 4.17665 0
M  V30 1947 N 178.85 -1.27639 -0.924453 0
M  V30 1948 C 179.78 -1.13166 -2.04244 0
M  V30 1949 C 180.761 -0.032256 -1.70069 0
M  V30 1950 O 181.946 -0.207328 -1.9309 0
M  V30 1951 C 179.076 -0.781496 -3.38393 0
M  V30 1952 C 178.03 -1.83449 -3.86692 0
M  V30 1953 C 177.356 -1.33822 -5.17683 0
M  V30 1954 C 178.656 -3.23917 -4.09726 0
M  V30 1955 H 180.35 -2.06689 -2.1661 0
M  V30 1956 H 177.896 -0.995136 -1.04082 0
M  V30 1957 H 179.849 -0.667057 -4.16087 0
M  V30 1958 H 178.573 0.189439 -3.2605 0
M  V30 1959 H 177.232 -1.93789 -3.11193 0
M  V30 1960 H 176.88 -0.35665 -5.01734 0
M  V30 1961 H 176.58 -2.04224 -5.50968 0
M  V30 1962 H 178.104 -1.23679 -5.97943 0
M  V30 1963 H 179.518 -3.16559 -4.77978 0
M  V30 1964 H 177.915 -3.92059 -4.54324 0
M  V30 1965 H 178.985 -3.68729 -3.14908 0
M  V30 1966 N 180.328 1.1314 -1.09713 0
M  V30 1967 C 181.576 1.84119 -0.833338 0
M  V30 1968 C 181.897 1.84097 0.642904 0
M  V30 1969 O 181.167 1.29881 1.46655 0
M  V30 1970 H 179.747 0.681766 -0.305293 0
M  V30 1971 H 182.409 1.37038 -1.38588 0
M  V30 1972 H 181.505 2.88543 -1.18951 0
M  V30 1973 N 181.806 0.884767 1.30421 0
M  V30 1974 C 183.031 0.517288 2.00845 0
M  V30 1975 C 183.456 -0.886779 1.65885 0
M  V30 1976 O 182.814 -1.58768 0.875354 0
M  V30 1977 C 182.862 0.698994 3.5376 0
M  V30 1978 O 181.966 -0.255208 4.1161 0
M  V30 1979 H 181.307 0.203872 0.631927 0
M  V30 1980 H 183.837 1.19225 1.66272 0
M  V30 1981 H 183.847 0.597912 4.03595 0
M  V30 1982 H 182.522 1.72271 3.78544 0
M  V30 1983 H 181.099 -0.10784 3.72744 0
M  V30 1984 N 183.284 -1.43765 0.645699 0
M  V30 1985 C 184.532 -2.01499 0.155731 0
M  V30 1986 C 184.853 -1.51151 -1.232 0
M  V30 1987 O 184.123 -0.721044 -1.82148 0
M  V30 1988 H 182.703 -0.745003 0.0545817 0
M  V30 1989 H 185.365 -1.76075 0.835677 0
M  V30 1990 H 184.461 -3.1181 0.134577 0
M  V30 1991 N 184.763 -0.387143 -1.52771 0
M  V30 1992 C 186.003 0.195537 -2.03463 0
M  V30 1993 C 186.367 1.44222 -1.26744 0
M  V30 1994 O 187.568 2.10192 -1.67549 0
M  V30 1995 C 185.839 0.459097 -3.54439 0
M  V30 1996 S 187.398 1.01237 -4.26962 0
M  V30 1997 H 184.216 0.0552675 -0.708849 0
M  V30 1998 H 186.818 -0.534992 -1.88037 0
M  V30 1999 H 185.522 -0.455382 -4.07866 0
M  V30 2000 H 185.053 1.21811 -3.74066 0
M  V30 2001 H 187.068 2.29492 -4.39941 0
M  V30 2002 N 186.241 1.57166 -0.116904 0
M  V30 2003 C 187.488 1.95123 0.541603 0
M  V30 2004 C 187.816 1.00006 1.6682 0
M  V30 2005 O 187.071 0.0235658 1.95686 0
M  V30 2006 C 187.37 3.39508 1.11664 0
M  V30 2007 C 187.036 4.50762 0.111606 0
M  V30 2008 C 185.698 4.80918 -0.164758 0
M  V30 2009 C 188.05 5.18036 -0.573438 0
M  V30 2010 C 185.378 5.75666 -1.13249 0
M  V30 2011 C 187.73 6.13824 -1.52978 0
M  V30 2012 C 186.394 6.42374 -1.81415 0
M  V30 2013 H 185.664 0.714005 0.198187 0
M  V30 2014 H 188.311 1.9048 -0.197365 0
M  V30 2015 H 186.616 3.40835 1.93232 0
M  V30 2016 H 188.313 3.66189 1.63422 0
M  V30 2017 H 184.903 4.27272 0.337192 0
M  V30 2018 H 189.087 4.94896 -0.373092 0
M  V30 2019 H 184.343 5.96092 -1.35958 0
M  V30 2020 H 188.517 6.65039 -2.06629 0
M  V30 2021 H 186.144 7.15599 -2.56557 0
M  V30 2022 N 187.719 -0.156864 1.56817 0
M  V30 2023 C 188.967 -0.869404 1.82444 0
M  V30 2024 C 189.288 -1.82147 0.69623 0
M  V30 2025 O 188.558 -1.93847 -0.28287 0
M  V30 2026 H 187.138 -0.324043 0.673056 0
M  V30 2027 H 189.8 -0.153224 1.94297 0
M  V30 2028 H 188.896 -1.43761 2.77019 0
M  V30 2029 N 189.197 -1.51736 -0.425897 0
M  V30 2030 C 190.443 -1.65214 -1.1761 0
M  V30 2031 C 190.776 -0.372778 -1.90589 0
M  V30 2032 O 190.051 0.628139 -1.84078 0
M  V30 2033 C 190.334 -2.86312 -2.18398 0
M  V30 2034 C 190.187 -4.24254 -1.49426 0
M  V30 2035 C 191.506 -3.02925 -3.19256 0
M  V30 2036 H 188.625 -0.601263 -0.426206 0
M  V30 2037 H 191.267 -1.8425 -0.463882 0
M  V30 2038 H 189.417 -2.70213 -2.79137 0
M  V30 2039 H 191.089 -4.52046 -0.919362 0
M  V30 2040 H 189.332 -4.26426 -0.796432 0
M  V30 2041 H 190.003 -5.05001 -2.22885 0
M  V30 2042 H 192.479 -3.1781 -2.68581 0
M  V30 2043 H 191.355 -3.89199 -3.8706 0
M  V30 2044 H 191.616 -2.15497 -3.86023 0
M  V30 2045 N 190.675 0.682077 -1.42076 0
M  V30 2046 C 191.921 1.44428 -1.42367 0
M  V30 2047 C 192.254 1.94164 -0.0373056 0
M  V30 2048 O 191.529 1.70429 0.937239 0
M  V30 2049 C 191.812 2.64654 -2.44194 0
M  V30 2050 C 191.665 2.20596 -3.91991 0
M  V30 2051 C 192.984 3.66865 -2.431 0
M  V30 2052 H 190.103 0.523834 -0.518428 0
M  V30 2053 H 192.745 0.77576 -1.73442 0
M  V30 2054 H 190.895 3.2169 -2.17826 0
M  V30 2055 H 192.567 1.68783 -4.29313 0
M  V30 2056 H 190.81 1.52242 -4.06208 0
M  V30 2057 H 191.481 3.06921 -4.58807 0
M  V30 2058 H 193.957 3.19531 -2.66532 0
M  V30 2059 H 192.833 4.48577 -3.16339 0
M  V30 2060 H 193.094 4.17493 -1.45437 0
M  V30 2061 N 192.153 1.28127 0.917671 0
M  V30 2062 C 193.103 1.08361 2.00604 0
M  V30 2063 C 194.087 0.00847518 1.60898 0
M  V30 2064 O 195.279 0.228167 1.75523 0
M  V30 2065 C 192.408 0.743376 3.35155 0
M  V30 2066 C 191.494 1.85716 3.81275 0
M  V30 2067 N 191.885 3.09822 3.99805 0
M  V30 2068 C 190.183 1.74612 4.10398 0
M  V30 2069 C 190.884 3.82368 4.38372 0
M  V30 2070 N 189.86 3.10192 4.4641 0
M  V30 2071 H 193.662 2.02531 2.12975 0
M  V30 2072 H 191.176 1.18989 1.10523 0
M  V30 2073 H 193.173 0.582859 4.12805 0
M  V30 2074 H 191.833 -0.190595 3.2414 0
M  V30 2075 H 192.844 3.45475 3.85833 0
M  V30 2076 H 189.521 0.883657 4.08041 0
M  V30 2077 H 190.911 4.89082 4.60704 0
M  V30 2078 N 193.631 -1.12557 1.10312 0
M  V30 2079 C 195.047 -1.36036 0.834649 0
M  V30 2080 C 195.247 -1.93946 -0.546539 0
M  V30 2081 O 194.303 -2.16484 -1.29966 0
M  V30 2082 C 195.616 -2.30312 1.9333 0
M  V30 2083 C 197.164 -2.43906 1.9616 0
M  V30 2084 C 197.639 -3.41496 3.05195 0
M  V30 2085 N 199.13 -3.49053 3.04494 0
M  V30 2086 C 199.865 -4.24471 3.85502 0
M  V30 2087 N 199.361 -5.02966 4.76442 0
M  V30 2088 N 201.154 -4.19864 3.73725 0
M  V30 2089 H 193.305 -0.733246 1.99342 0
M  V30 2090 H 195.568 -0.385234 0.866198 0
M  V30 2091 H 195.274 -1.94933 2.92735 0
M  V30 2092 H 195.148 -3.30421 1.81939 0
M  V30 2093 H 197.535 -2.78567 0.973886 0
M  V30 2094 H 197.616 -1.4369 2.11629 0
M  V30 2095 H 197.26 -3.07565 4.04186 0
M  V30 2096 H 197.19 -4.41539 2.86968 0
M  V30 2097 H 199.681 -2.93053 2.38596 0
M  V30 2098 H 199.994 -5.57846 5.34815 0
M  V30 2099 H 198.339 -5.02167 4.80472 0
M  V30 2100 H 201.53 -3.57623 3.02032 0
M  V30 2101 H 201.703 -4.78386 4.37093 0
M  V30 2102 N 195.109 -0.891671 -1.2995 0
M  V30 2103 C 196.357 -0.512486 -1.95494 0
M  V30 2104 C 196.678 0.942776 -1.70695 0
M  V30 2105 O 195.948 1.66374 -1.03424 0
M  V30 2106 H 194.528 -0.186533 -0.723336 0
M  V30 2107 H 197.19 -1.13621 -1.58355 0
M  V30 2108 H 196.286 -0.688342 -3.04415 0
M  V30 2109 N 196.587 1.43421 -0.653314 0
M  V30 2110 C 197.517 2.33487 0.0246656 0
M  V30 2111 C 198.498 1.49475 0.811863 0
M  V30 2112 O 199.683 1.78139 0.773322 0
M  V30 2113 C 196.813 3.32841 0.99166 0
M  V30 2114 C 195.767 4.26842 0.314568 0
M  V30 2115 C 195.093 5.16236 1.39302 0
M  V30 2116 C 196.393 5.16243 -0.793095 0
M  V30 2117 H 198.087 2.90427 -0.727481 0
M  V30 2118 H 195.633 1.39649 -0.351287 0
M  V30 2119 H 197.586 3.94747 1.47487 0
M  V30 2120 H 196.31 2.74158 1.77497 0
M  V30 2121 H 194.969 3.663 -0.148199 0
M  V30 2122 H 194.617 4.53891 2.16776 0
M  V30 2123 H 194.317 5.79948 0.945223 0
M  V30 2124 H 195.841 5.81015 1.87759 0
M  V30 2125 H 197.255 5.71958 -0.392039 0
M  V30 2126 H 195.652 5.88676 -1.16536 0
M  V30 2127 H 196.722 4.55927 -1.65103 0
M  V30 2128 N 198.065 0.39524 1.52563 0
M  V30 2129 C 199.311 -0.177763 2.02622 0
M  V30 2130 C 199.666 -1.43974 1.27629 0
M  V30 2131 O 198.959 -1.87995 0.36992 0
M  V30 2132 C 199.153 -0.493444 3.53977 0
M  V30 2133 C 198.982 0.736392 4.4363 0
M  V30 2134 C 197.752 1.25744 4.89404 0
M  V30 2135 C 199.95 1.61046 4.88435 0
M  V30 2136 N 197.932 2.44421 5.63145 0
M  V30 2137 C 199.303 2.64359 5.60816 0
M  V30 2138 C 201.358 1.62985 4.70468 0
M  V30 2139 C 200.061 3.69505 6.17137 0
M  V30 2140 C 202.087 2.67042 5.27677 0
M  V30 2141 C 201.449 3.69077 5.99968 0
M  V30 2142 H 197.548 -0.0269794 0.781534 0
M  V30 2143 H 200.132 0.546466 1.86874 0
M  V30 2144 H 198.303 -1.18672 3.69826 0
M  V30 2145 H 200.035 -1.05412 3.90731 0
M  V30 2146 H 196.79 0.817546 4.6649 0
M  V30 2147 H 197.214 3.04485 6.04663 0
M  V30 2148 H 201.856 0.854442 4.14076 0
M  V30 2149 H 199.574 4.4791 6.72608 0
M  V30 2150 H 203.16 2.69433 5.15652 0
M  V30 2151 H 202.04 4.48273 6.43444 0
M  V30 2152 N 199.544 -1.57102 0.125237 0
M  V30 2153 C 200.772 -1.99761 -0.538797 0
M  V30 2154 C 201.187 -1.00503 -1.59827 0
M  V30 2155 O 200.544 0.00119474 -1.825 0
M  V30 2156 C 200.595 -3.42408 -1.15927 0
M  V30 2157 O 200.316 -4.37869 -0.142143 0
M  V30 2158 C 201.817 -4.00232 -1.90602 0
M  V30 2159 H 199.037 -0.655772 -0.14214 0
M  V30 2160 H 201.581 -2.03383 0.213413 0
M  V30 2161 H 199.736 -3.39706 -1.86223 0
M  V30 2162 H 200.15 -5.21128 -0.593775 0
M  V30 2163 H 201.624 -5.02105 -2.29335 0
M  V30 2164 H 202.101 -3.39721 -2.78363 0
M  V30 2165 H 202.707 -4.06499 -1.25055 0
M  V30 2166 N 201.022 0.148545 -1.56898 0
M  V30 2167 C 201.952 1.18524 -2.01182 0
M  V30 2168 C 202.933 1.4489 -0.891123 0
M  V30 2169 O 204.118 1.55836 -1.15882 0
M  V30 2170 C 201.248 2.51879 -2.39112 0
M  V30 2171 C 200.202 2.40038 -3.54353 0
M  V30 2172 C 199.528 3.78089 -3.78091 0
M  V30 2173 C 200.828 1.88577 -4.87069 0
M  V30 2174 H 202.522 0.817029 -2.88036 0
M  V30 2175 H 200.068 0.391575 -1.38574 0
M  V30 2176 H 202.021 3.24627 -2.68692 0
M  V30 2177 H 200.745 2.90532 -1.49193 0
M  V30 2178 H 199.404 1.69742 -3.24936 0
M  V30 2179 H 199.052 4.14175 -2.85426 0
M  V30 2180 H 198.752 3.71028 -4.55645 0
M  V30 2181 H 200.276 4.52387 -4.10095 0
M  V30 2182 H 201.69 2.51117 -5.15377 0
M  V30 2183 H 200.087 1.9241 -5.68417 0
M  V30 2184 H 201.157 0.84136 -4.77545 0
M  V30 2185 N 202.5 1.5196 0.417844 0
M  V30 2186 C 203.911 1.57851 0.997 0
M  V30 2187 C 204.262 0.413714 1.91789 0
M  V30 2188 O 203.387 -0.467057 2.113 0
M  V30 2189 C 203.982 2.86085 1.81496 0
M  V30 2190 C 202.541 2.94483 2.34428 0
M  V30 2191 C 201.688 2.52707 1.14169 0
M  V30 2192 H 204.639 1.57455 0.198392 0
M  V30 2193 H 204.66 2.70947 2.67148 0
M  V30 2194 H 204.172 3.70842 1.14446 0
M  V30 2195 H 202.273 2.142 3.04875 0
M  V30 2196 H 202.386 3.98546 2.65891 0
M  V30 2197 H 200.75 2.06353 1.49301 0
M  V30 2198 H 201.533 3.39828 0.486999 0
M  V30 2199 N 203.978 -0.674533 1.42435 0
M  V30 2200 C 205.203 -1.46784 1.46524 0
M  V30 2201 C 205.628 -1.87938 0.078066 0
M  V30 2202 O 204.986 -1.56014 -0.92354 0
M  V30 2203 C 205.034 -2.69307 2.39805 0
M  V30 2204 O 204.138 -3.67587 1.86959 0
M  V30 2205 H 203.479 -0.440959 0.496439 0
M  V30 2206 H 206.009 -0.827326 1.87127 0
M  V30 2207 H 206.019 -3.17374 2.56393 0
M  V30 2208 H 204.694 -2.38692 3.40586 0
M  V30 2209 H 203.271 -3.2662 1.79927 0
M  V30 2210 N 205.456 -1.28612 -0.910864 0
M  V30 2211 C 206.704 -1.15705 -1.65701 0
M  V30 2212 C 207.025 0.29416 -1.92769 0
M  V30 2213 O 206.295 1.20331 -1.54588 0
M  V30 2214 H 204.875 -0.425216 -0.614167 0
M  V30 2215 H 207.537 -1.61381 -1.0928 0
M  V30 2216 H 206.633 -1.6988 -2.61815 0
M  V30 2217 N 206.934 1.1197 -1.10907 0
M  V30 2218 C 207.881 2.17846 -0.762345 0
M  V30 2219 C 208.851 1.63995 0.263599 0
M  V30 2220 O 210.036 1.90273 0.141773 0
M  V30 2221 C 207.176 3.44487 -0.205651 0
M  V30 2222 C 206.289 4.12369 -1.28748 0
M  V30 2223 C 205.424 5.26674 -0.691919 0
M  V30 2224 C 204.463 5.86431 -1.75399 0
M  V30 2225 N 203.6 6.92142 -1.17833 0
M  V30 2226 H 208.44 2.46851 -1.6694 0
M  V30 2227 H 205.977 1.21188 -0.833776 0
M  V30 2228 H 207.935 4.16981 0.135037 0
M  V30 2229 H 206.565 3.15884 0.664613 0
M  V30 2230 H 205.617 3.38003 -1.74522 0
M  V30 2231 H 206.929 4.52844 -2.09125 0
M  V30 2232 H 206.083 6.05953 -0.300963 0
M  V30 2233 H 204.822 4.8749 0.143232 0
M  V30 2234 H 203.827 5.05835 -2.15432 0
M  V30 2235 H 205.052 6.27685 -2.59208 0
M  V30 2236 H 202.998 6.54985 -0.364725 0
M  V30 2237 H 202.915 7.31242 -1.91887 0
M  V30 2238 H 204.183 7.75237 -0.81408 0
M  V30 2239 N 208.412 0.89855 1.29475 0
M  V30 2240 C 209.637 0.538561 2.00285 0
M  V30 2241 C 210.062 -0.869135 1.66816 0
M  V30 2242 O 209.42 -1.57831 0.892145 0
M  V30 2243 C 209.468 0.736475 3.52999 0
M  V30 2244 O 208.572 -0.211537 4.11857 0
M  V30 2245 H 207.913 0.210563 0.62973 0
M  V30 2246 H 210.443 1.20982 1.64998 0
M  V30 2247 H 210.453 0.640685 4.02938 0
M  V30 2248 H 209.128 1.76276 3.76696 0
M  V30 2249 H 207.705 -0.0682991 3.72837 0
M  V30 2250 N 209.89 -1.43072 0.660911 0
M  V30 2251 C 211.136 -2.0202 0.177708 0
M  V30 2252 C 211.469 -1.52066 -1.20787 0
M  V30 2253 O 210.744 -0.716987 -1.80802 0
M  V30 2254 C 211.027 -3.59561 0.197019 0
M  V30 2255 C 210.88 -4.19727 1.61706 0
M  V30 2256 C 212.199 -4.37664 -0.462396 0
M  V30 2257 H 209.318 -0.734034 0.0660494 0
M  V30 2258 H 211.96 -1.70272 0.843058 0
M  V30 2259 H 210.11 -3.86739 -0.369527 0
M  V30 2260 H 211.782 -4.03553 2.23479 0
M  V30 2261 H 210.025 -3.76084 2.16201 0
M  V30 2262 H 210.696 -5.28834 1.58237 0
M  V30 2263 H 213.172 -4.16095 0.0197215 0
M  V30 2264 H 212.048 -5.47305 -0.418188 0
M  V30 2265 H 212.309 -4.14493 -1.53778 0
M  V30 2266 N 211.368 -0.403325 -1.52352 0
M  V30 2267 C 212.779 0.0675782 -1.86578 0
M  V30 2268 C 213.13 1.44941 -1.32236 0
M  V30 2269 O 212.255 2.06112 -0.659307 0
M  V30 2270 C 212.85 0.129404 -3.38553 0
M  V30 2271 C 211.409 0.544629 -3.72439 0
M  V30 2272 C 210.556 -0.284551 -2.75836 0
M  V30 2273 H 213.507 -0.620631 -1.46061 0
M  V30 2274 H 213.528 0.94581 -3.68558 0
M  V30 2275 H 213.04 -0.87645 -3.78074 0
M  V30 2276 H 211.141 1.55734 -3.38493 0
M  V30 2277 H 211.254 0.293046 -4.78203 0
M  V30 2278 H 209.618 0.252258 -2.53448 0
M  V30 2279 H 210.401 -1.28865 -3.18196 0
M  V30 2280 N 212.846 1.57033 -0.133567 0
M  V30 2281 C 214.092 1.95976 0.521649 0
M  V30 2282 C 214.425 1.01779 1.65393 0
M  V30 2283 O 213.7 0.0576581 1.94415 0
M  V30 2284 C 213.983 3.44738 1.04057 0
M  V30 2285 C 213.836 4.49711 -0.0892897 0
M  V30 2286 C 215.155 3.95682 1.92675 0
M  V30 2287 H 212.274 0.712579 0.188149 0
M  V30 2288 H 214.916 1.88813 -0.212076 0
M  V30 2289 H 213.066 3.50973 1.66583 0
M  V30 2290 H 214.738 4.55565 -0.725152 0
M  V30 2291 H 212.981 4.27261 -0.750378 0
M  V30 2292 H 213.652 5.51099 0.315284 0
M  V30 2293 H 216.128 3.91841 1.39998 0
M  V30 2294 H 215.004 5.00262 2.25897 0
M  V30 2295 H 215.265 3.37239 2.85872 0
M  V30 2296 N 214.325 -0.140222 1.56975 0
M  V30 2297 C 215.288 -1.15689 1.97861 0
M  V30 2298 C 216.288 -1.3549 0.865974 0
M  V30 2299 O 217.478 -1.32367 1.13246 0
M  V30 2300 C 214.61 -2.51582 2.30042 0
M  V30 2301 H 215.803 -0.805971 2.88867 0
M  V30 2302 H 213.356 -0.383801 1.51515 0
M  V30 2303 H 214.091 -2.91632 1.41849 0
M  V30 2304 H 213.876 -2.38569 3.11171 0
M  V30 2305 H 215.366 -3.24792 2.62488 0
M  V30 2306 N 215.803 -1.52179 -0.40978 0
M  V30 2307 C 217.049 -1.66453 -1.15851 0
M  V30 2308 C 217.382 -0.392972 -1.90182 0
M  V30 2309 O 216.657 0.608579 -1.84734 0
M  V30 2310 C 216.94 -2.88612 -2.15349 0
M  V30 2311 C 216.793 -4.25815 -1.44918 0
M  V30 2312 C 218.112 -3.06294 -3.16026 0
M  V30 2313 H 215.231 -0.60575 -0.419805 0
M  V30 2314 H 217.873 -1.84732 -0.444314 0
M  V30 2315 H 216.023 -2.73158 -2.76255 0
M  V30 2316 H 217.695 -4.52995 -0.871365 0
M  V30 2317 H 215.938 -4.27247 -0.751159 0
M  V30 2318 H 216.609 -5.07337 -2.17516 0
M  V30 2319 H 219.085 -3.20641 -2.65195 0
M  V30 2320 H 217.961 -3.93283 -3.8291 0
M  V30 2321 H 218.222 -2.19579 -3.83715 0
M  V30 2322 N 217.281 0.66697 -1.42791 0
M  V30 2323 C 218.228 1.7803 -1.4688 0
M  V30 2324 C 219.198 1.6299 -0.319919 0
M  V30 2325 O 220.383 1.83432 -0.525118 0
M  V30 2326 C 217.523 3.1611 -1.38451 0
M  V30 2327 C 216.636 3.42381 -2.63437 0
M  V30 2328 C 215.771 4.70232 -2.47094 0
M  V30 2329 C 214.81 4.89564 -3.67415 0
M  V30 2330 N 213.947 6.08661 -3.49966 0
M  V30 2331 H 218.787 1.7387 -2.42019 0
M  V30 2332 H 216.324 0.84868 -1.20149 0
M  V30 2333 H 218.282 3.95914 -1.31561 0
M  V30 2334 H 216.912 3.19374 -0.469033 0
M  V30 2335 H 215.964 2.56774 -2.80662 0
M  V30 2336 H 217.276 3.52557 -3.52853 0
M  V30 2337 H 216.43 5.5814 -2.37834 0
M  V30 2338 H 215.169 4.62353 -1.5518 0
M  V30 2339 H 214.174 4.00096 -3.77099 0
M  V30 2340 H 215.399 4.99282 -4.6032 0
M  V30 2341 H 213.345 6.0194 -2.60776 0
M  V30 2342 H 213.262 6.19733 -4.32975 0
M  V30 2343 H 214.53 6.99226 -3.44532 0
M  V30 2344 N 218.759 1.29093 0.90403 0
M  V30 2345 C 219.984 1.19809 1.69294 0
M  V30 2346 C 220.409 -0.238481 1.86582 0
M  V30 2347 O 219.767 -1.1723 1.383 0
M  V30 2348 C 219.815 1.91202 3.05736 0
M  V30 2349 O 218.919 1.22611 3.93752 0
M  V30 2350 H 218.26 0.415385 0.518027 0
M  V30 2351 H 220.79 1.70586 1.12967 0
M  V30 2352 H 220.8 1.99487 3.55906 0
M  V30 2353 H 219.475 2.95692 2.92471 0
M  V30 2354 H 218.052 1.22554 3.52186 0
M  V30 2355 N 220.237 -1.11381 1.11499 0
M  V30 2356 C 221.167 -2.19509 0.796125 0
M  V30 2357 C 222.148 -1.68458 -0.235796 0
M  V30 2358 O 223.333 -1.93947 -0.0991344 0
M  V30 2359 C 220.463 -3.46475 0.239205 0
M  V30 2360 C 219.417 -4.10744 1.20307 0
M  V30 2361 C 218.743 -5.32293 0.50683 0
M  V30 2362 C 220.043 -4.55597 2.55399 0
M  V30 2363 H 221.737 -2.46439 1.70024 0
M  V30 2364 H 219.283 -1.18446 0.818935 0
M  V30 2365 H 221.236 -4.214 0.00392006 0
M  V30 2366 H 219.96 -3.19006 -0.700206 0
M  V30 2367 H 218.619 -3.37813 1.42399 0
M  V30 2368 H 218.267 -5.01095 -0.437408 0
M  V30 2369 H 217.967 -5.76243 1.1497 0
M  V30 2370 H 219.491 -6.09956 0.280351 0
M  V30 2371 H 220.905 -5.21841 2.37391 0
M  V30 2372 H 219.302 -5.10363 3.15673 0
M  V30 2373 H 220.372 -3.69013 3.14575 0
M  V30 2374 N 221.715 -0.905404 -1.28997 0
M  V30 2375 C 223.131 -0.60233 -1.47798 0
M  V30 2376 C 223.331 0.854645 -1.82478 0
M  V30 2377 O 222.387 1.63439 -1.92468 0
M  V30 2378 C 223.7 -1.53306 -2.58685 0
M  V30 2379 C 225.248 -1.53887 -2.72558 0
M  V30 2380 C 225.723 -2.45602 -3.86579 0
M  V30 2381 N 227.214 -2.43681 -3.93921 0
M  V30 2382 C 227.949 -3.11347 -4.81509 0
M  V30 2383 N 227.445 -3.88313 -5.73746 0
M  V30 2384 N 229.238 -3.00476 -4.75048 0
M  V30 2385 H 221.389 -1.84765 -1.04764 0
M  V30 2386 H 223.652 -0.792025 -0.520961 0
M  V30 2387 H 223.358 -2.57141 -2.39941 0
M  V30 2388 H 223.232 -1.25787 -3.55609 0
M  V30 2389 H 225.619 -0.507941 -2.90696 0
M  V30 2390 H 225.7 -1.85447 -1.76191 0
M  V30 2391 H 225.344 -3.48792 -3.69197 0
M  V30 2392 H 225.274 -2.11349 -4.82327 0
M  V30 2393 H 227.765 -1.87767 -3.27951 0
M  V30 2394 H 228.078 -4.36985 -6.37389 0
M  V30 2395 H 226.423 -3.92419 -5.73614 0
M  V30 2396 H 229.614 -2.39858 -4.01977 0
M  V30 2397 H 229.787 -3.53485 -5.43095 0
M  V30 2398 N 223.193 1.4272 -0.668489 0
M  V30 2399 C 224.439 2.01923 -0.188419 0
M  V30 2400 C 224.772 1.52704 1.19979 0
M  V30 2401 O 224.047 0.726566 1.8042 0
M  V30 2402 C 224.33 3.59451 -0.216085 0
M  V30 2403 C 224.183 4.18864 -1.6393 0
M  V30 2404 C 225.502 4.37903 0.439179 0
M  V30 2405 H 222.621 0.733674 -0.0699412 0
M  V30 2406 H 225.263 1.69822 -0.852076 0
M  V30 2407 H 223.413 3.86929 0.349012 0
M  V30 2408 H 225.085 4.02362 -2.25616 0
M  V30 2409 H 223.328 3.74933 -2.18193 0
M  V30 2410 H 223.999 5.27987 -1.61039 0
M  V30 2411 H 226.475 4.16079 -0.0417878 0
M  V30 2412 H 225.351 5.47519 0.389157 0
M  V30 2413 H 225.612 4.15303 1.51577 0
M  V30 2414 N 224.671 0.411399 1.52136 0
M  V30 2415 C 225.919 -0.163322 2.01439 0
M  V30 2416 C 226.24 -1.45453 1.29879 0
M  V30 2417 O 225.51 -1.91225 0.4254 0
M  V30 2418 H 224.09 -0.0633447 0.744309 0
M  V30 2419 H 226.752 0.548161 1.87033 0
M  V30 2420 H 225.848 -0.357817 3.10042 0
M  V30 2421 N 226.149 -1.5696 0.141893 0
M  V30 2422 C 227.56 -1.82797 -0.379776 0
M  V30 2423 C 227.911 -1.06033 -1.6508 0
M  V30 2424 O 227.036 -0.304011 -2.14254 0
M  V30 2425 C 227.631 -3.31578 -0.695802 0
M  V30 2426 C 226.19 -3.58014 -1.16201 0
M  V30 2427 C 225.337 -2.76699 -0.182455 0
M  V30 2428 H 228.288 -1.54406 0.366675 0
M  V30 2429 H 228.309 -3.47454 -1.55099 0
M  V30 2430 H 227.821 -3.87421 0.229449 0
M  V30 2431 H 225.922 -3.07553 -2.10338 0
M  V30 2432 H 226.035 -4.66501 -1.09151 0
M  V30 2433 H 224.399 -2.45618 -0.674072 0
M  V30 2434 H 225.182 -3.35311 0.736297 0
M  V30 2435 N 227.627 0.131896 -1.57047 0
M  V30 2436 C 228.537 1.1815 -2.02676 0
M  V30 2437 C 229.553 1.46113 -0.944824 0
M  V30 2438 O 230.729 1.57485 -1.25541 0
M  V30 2439 C 227.794 2.49139 -2.41103 0
M  V30 2440 C 226.855 2.28688 -3.63318 0
M  V30 2441 C 226.088 3.53431 -3.99903 0
M  V30 2442 O 226.311 4.60223 -3.36973 0
M  V30 2443 O 225.245 3.45198 -4.93074 0
M  V30 2444 H 229.071 0.824069 -2.92306 0
M  V30 2445 H 226.656 0.341745 -1.45439 0
M  V30 2446 H 228.538 3.26338 -2.66611 0
M  V30 2447 H 227.213 2.84382 -1.54624 0
M  V30 2448 H 226.12 1.4939 -3.42977 0
M  V30 2449 H 227.453 1.98355 -4.50462 0
M  V30 2450 N 229.106 1.52395 0.401703 0
M  V30 2451 C 230.354 1.66488 1.14569 0
M  V30 2452 C 230.675 0.400897 1.90835 0
M  V30 2453 O 229.945 -0.584415 1.8698 0
M  V30 2454 H 228.525 0.613672 0.425929 0
M  V30 2455 H 231.187 1.89464 0.457093 0
M  V30 2456 H 230.283 2.50942 1.85566 0
M  V30 2457 N 230.584 -0.659388 1.43143 0
M  V30 2458 C 231.995 -1.24041 1.39537 0
M  V30 2459 C 232.346 -1.95963 0.0963364 0
M  V30 2460 O 231.471 -2.00892 -0.804438 0
M  V30 2461 C 232.066 -2.25601 2.52764 0
M  V30 2462 C 230.625 -2.79195 2.52443 0
M  V30 2463 C 229.772 -1.53743 2.30778 0
M  V30 2464 H 232.723 -0.451792 1.52133 0
M  V30 2465 H 232.744 -3.07651 2.23899 0
M  V30 2466 H 232.256 -1.73226 3.47296 0
M  V30 2467 H 230.357 -3.35649 1.61773 0
M  V30 2468 H 230.47 -3.2716 3.50004 0
M  V30 2469 H 228.834 -1.80869 1.79328 0
M  V30 2470 H 229.617 -1.03312 3.27386 0
M  V30 2471 N 232.062 -1.29571 -0.897171 0
M  V30 2472 C 232.995 -1.0924 -2.00354 0
M  V30 2473 C 233.973 -0.00354011 -1.626 0
M  V30 2474 O 235.157 -0.15473 -1.87864 0
M  V30 2475 C 232.284 -0.66352 -3.32137 0
M  V30 2476 C 231.33 -1.75146 -3.88878 0
M  V30 2477 S 232.163 -3.35124 -4.17674 0
M  V30 2478 C 233.319 -2.9411 -5.52494 0
M  V30 2479 H 233.552 -2.02907 -2.17292 0
M  V30 2480 H 231.085 -1.13746 -1.04408 0
M  V30 2481 H 233.043 -0.422791 -4.08317 0
M  V30 2482 H 231.704 0.253588 -3.13075 0
M  V30 2483 H 230.897 -1.40337 -4.84068 0
M  V30 2484 H 230.499 -1.94584 -3.19395 0
M  V30 2485 H 232.791 -2.41312 -6.33068 0
M  V30 2486 H 233.734 -3.88161 -5.9223 0
M  V30 2487 H 234.142 -2.32332 -5.14473 0
M  V30 2488 N 233.54 1.10788 -1.12088 0
M  V30 2489 C 234.788 1.8231 -0.872205 0
M  V30 2490 C 235.109 1.85419 0.603709 0
M  V30 2491 O 234.379 1.32963 1.43867 0
M  V30 2492 H 232.959 0.675137 -0.319686 0
M  V30 2493 H 235.621 1.34068 -1.41463 0
M  V30 2494 H 234.717 2.85955 -1.25045 0
M  V30 2495 N 235.018 0.912232 1.28515 0
M  V30 2496 C 236.246 0.560416 1.99166 0
M  V30 2497 C 236.661 -0.857927 1.68182 0
M  V30 2498 O 236.018 -1.56805 0.933733 0
M  V30 2499 C 236.069 0.758142 3.53461 0
M  V30 2500 O 235.79 2.12067 3.83352 0
M  V30 2501 C 237.291 0.412954 4.41372 0
M  V30 2502 H 234.511 0.213805 0.636026 0
M  V30 2503 H 237.055 1.22502 1.63749 0
M  V30 2504 H 235.21 0.140556 3.87145 0
M  V30 2505 H 235.624 2.15923 4.77993 0
M  V30 2506 H 237.098 0.60208 5.48707 0
M  V30 2507 H 237.575 -0.65073 4.34353 0
M  V30 2508 H 238.181 1.00802 4.13182 0
M  V30 2509 N 236.496 -1.42363 0.676048 0
M  V30 2510 C 237.406 -2.346 -0.00153389 0
M  V30 2511 C 238.422 -1.5516 -0.787485 0
M  V30 2512 O 239.598 -1.87723 -0.729521 0
M  V30 2513 C 236.663 -3.33705 -0.940298 0
M  V30 2514 C 235.724 -4.29042 -0.148739 0
M  V30 2515 C 234.957 -5.23413 -1.04279 0
M  V30 2516 O 235.18 -5.22749 -2.28232 0
M  V30 2517 O 234.114 -5.99795 -0.502925 0
M  V30 2518 H 237.94 -2.94082 0.758268 0
M  V30 2519 H 235.525 -1.42888 0.436289 0
M  V30 2520 H 237.407 -3.94586 -1.47917 0
M  V30 2521 H 236.082 -2.76695 -1.67993 0
M  V30 2522 H 234.989 -3.71571 0.43427 0
M  V30 2523 H 236.322 -4.89097 0.551805 0
M  V30 2524 N 237.974 -0.419461 -1.51915 0
M  V30 2525 C 238.904 0.391813 -2.30189 0
M  V30 2526 C 239.885 1.03699 -1.34836 0
M  V30 2527 O 241.07 1.04403 -1.63748 0
M  V30 2528 C 238.2 1.50312 -3.13087 0
M  V30 2529 C 237.154 0.9824 -4.16573 0
M  V30 2530 C 236.48 2.18809 -4.8788 0
M  V30 2531 C 237.78 0.0292356 -5.22292 0
M  V30 2532 H 239.474 -0.26135 -2.98257 0
M  V30 2533 H 237.02 -0.127134 -1.43438 0
M  V30 2534 H 238.973 2.07773 -3.66617 0
M  V30 2535 H 237.697 2.18431 -2.42807 0
M  V30 2536 H 236.356 0.430119 -3.64068 0
M  V30 2537 H 236.004 2.85507 -4.14119 0
M  V30 2538 H 235.704 1.84615 -5.57845 0
M  V30 2539 H 237.228 2.76858 -5.44226 0
M  V30 2540 H 238.642 0.512976 -5.71 0
M  V30 2541 H 237.039 -0.2244 -5.9968 0
M  V30 2542 H 238.109 -0.912931 -4.76228 0
M  V30 2543 N 239.452 1.56882 -0.150215 0
M  V30 2544 C 240.7 1.9584 0.499105 0
M  V30 2545 C 241.021 1.03623 1.65188 0
M  V30 2546 O 240.291 0.0984084 1.95653 0
M  V30 2547 H 238.871 0.723119 0.187373 0
M  V30 2548 H 241.533 1.9358 -0.226466 0
M  V30 2549 H 240.629 2.99638 0.873122 0
M  V30 2550 N 240.93 -0.123565 1.57115 0
M  V30 2551 C 242.207 -0.862196 1.75572 0
M  V30 2552 C 242.587 -1.98279 0.724475 0
M  V30 2553 O 241.935 -2.27102 -0.252407 0
M  V30 2554 C 242.145 -1.38309 3.20424 0
M  V30 2555 C 243.493 -1.83724 3.82793 0
M  V30 2556 O 244.517 -1.47999 3.23998 0
M  V30 2557 O 243.376 -2.49685 4.86127 0
M  V30 2558 H 240.47 -0.409113 0.718718 0
M  V30 2559 H 243.016 -0.107661 1.69358 0
M  V30 2560 H 241.788 -0.578889 3.86994 0
M  V30 2561 H 241.411 -2.20046 3.31158 0
M  V30 2562 N 242.408 -1.52605 -0.393616 0
M  V30 2563 C 243.655 -1.67424 -1.1391 0
M  V30 2564 C 243.983 -0.411859 -1.90089 0
M  V30 2565 O 243.238 0.605626 -1.86093 0
M  V30 2566 C 243.537 -2.85721 -2.14705 0
M  V30 2567 C 243.203 -4.23342 -1.55218 0
M  V30 2568 C 241.865 -4.60771 -1.3872 0
M  V30 2569 C 244.217 -5.09041 -1.11924 0
M  V30 2570 C 241.545 -5.81563 -0.774689 0
M  V30 2571 C 243.897 -6.30452 -0.520853 0
M  V30 2572 C 242.561 -6.66617 -0.343134 0
M  V30 2573 H 241.831 -0.612648 -0.416826 0
M  V30 2574 H 244.478 -1.8674 -0.424315 0
M  V30 2575 H 242.783 -2.60803 -2.92385 0
M  V30 2576 H 244.48 -2.94382 -2.72288 0
M  V30 2577 H 241.07 -3.93855 -1.69045 0
M  V30 2578 H 245.254 -4.80695 -1.23473 0
M  V30 2579 H 240.51 -6.08196 -0.625154 0
M  V30 2580 H 244.684 -6.96175 -0.177065 0
M  V30 2581 H 242.311 -7.60083 0.133571 0
M  V30 2582 N 243.887 0.651787 -1.4349 0
M  V30 2583 C 244.817 1.77621 -1.51569 0
M  V30 2584 C 245.798 1.66022 -0.370253 0
M  V30 2585 O 246.983 1.85095 -0.587658 0
M  V30 2586 C 244.113 3.16056 -1.43966 0
M  V30 2587 C 243.067 3.4242 -2.56774 0
M  V30 2588 C 242.393 4.8067 -2.34223 0
M  V30 2589 C 243.693 3.37023 -3.99015 0
M  V30 2590 H 245.387 1.71117 -2.45681 0
M  V30 2591 H 242.933 0.821825 -1.18246 0
M  V30 2592 H 244.886 3.94472 -1.48221 0
M  V30 2593 H 243.61 3.23293 -0.463586 0
M  V30 2594 H 242.269 2.66375 -2.51873 0
M  V30 2595 H 241.917 4.84585 -1.34856 0
M  V30 2596 H 241.617 4.9927 -3.09844 0
M  V30 2597 H 243.141 5.61342 -2.40265 0
M  V30 2598 H 244.555 4.05374 -4.05395 0
M  V30 2599 H 242.952 3.67159 -4.74673 0
M  V30 2600 H 244.022 2.3518 -4.2405 0
M  V30 2601 N 245.365 1.30045 0.890287 0
M  V30 2602 C 246.781 1.08261 1.17268 0
M  V30 2603 C 246.981 -0.160063 2.00863 0
M  V30 2604 O 246.037 -0.855181 2.37577 0
M  V30 2605 C 247.35 2.34323 1.8845 0
M  V30 2606 C 248.898 2.39735 2.01237 0
M  V30 2607 C 249.373 3.65625 2.7583 0
M  V30 2608 N 250.864 3.66402 2.83379 0
M  V30 2609 C 251.599 4.60498 3.41657 0
M  V30 2610 N 251.095 5.64933 4.01026 0
M  V30 2611 N 252.888 4.48051 3.39421 0
M  V30 2612 H 245.039 2.09777 0.332762 0
M  V30 2613 H 247.302 0.92446 0.209948 0
M  V30 2614 H 247.008 3.2498 1.34465 0
M  V30 2615 H 246.882 2.4256 2.88867 0
M  V30 2616 H 249.269 1.4956 2.54393 0
M  V30 2617 H 249.35 2.35476 0.999232 0
M  V30 2618 H 248.994 4.56156 2.23347 0
M  V30 2619 H 248.924 3.67144 3.77509 0
M  V30 2620 H 251.415 2.90896 2.41222 0
M  V30 2621 H 251.728 6.32841 4.43545 0
M  V30 2622 H 250.073 5.68732 3.99461 0
M  V30 2623 H 253.264 3.65649 2.92264 0
M  V30 2624 H 253.437 5.21565 3.84544 0
M  V30 2625 N 246.843 -1.10192 1.12674 0
M  V30 2626 C 247.753 -2.20172 0.810026 0
M  V30 2627 C 248.769 -1.72821 -0.202188 0
M  V30 2628 O 249.945 -2.01369 -0.0351691 0
M  V30 2629 C 247.01 -3.45631 0.272007 0
M  V30 2630 C 246.071 -4.07704 1.34447 0
M  V30 2631 C 245.304 -5.27175 0.832029 0
M  V30 2632 O 245.527 -5.69425 -0.333284 0
M  V30 2633 O 244.461 -5.80168 1.60277 0
M  V30 2634 H 248.287 -2.49701 1.72867 0
M  V30 2635 H 245.872 -1.18977 0.903597 0
M  V30 2636 H 247.754 -4.21394 -0.0230219 0
M  V30 2637 H 246.429 -3.17723 -0.619164 0
M  V30 2638 H 245.336 -3.33614 1.6927 0
M  V30 2639 H 246.669 -4.3982 2.2095 0
M  V30 2640 N 248.321 -0.919034 -1.28029 0
M  V30 2641 C 249.567 -0.555757 -1.95036 0
M  V30 2642 C 249.9 0.899198 -1.72128 0
M  V30 2643 O 249.175 1.64023 -1.04531 0
M  V30 2644 C 249.458 -0.872024 -3.49382 0
M  V30 2645 C 249.311 -2.3801 -3.81669 0
M  V30 2646 C 250.63 -0.37185 -4.38526 0
M  V30 2647 H 247.749 -0.203386 -0.708381 0
M  V30 2648 H 250.391 -1.14924 -1.51303 0
M  V30 2649 H 248.541 -0.366946 -3.86763 0
M  V30 2650 H 250.213 -2.9562 -3.54128 0
M  V30 2651 H 248.456 -2.83289 -3.28526 0
M  V30 2652 H 249.127 -2.55192 -4.8947 0
M  V30 2653 H 251.603 -0.804602 -4.08247 0
M  V30 2654 H 250.479 -0.622173 -5.45362 0
M  V30 2655 H 250.74 0.727934 -4.36066 0
M  V30 2656 N 249.799 1.42003 -0.683588 0
M  V30 2657 C 251.024 2.06265 -0.216647 0
M  V30 2658 C 251.449 1.51059 1.12083 0
M  V30 2659 O 250.807 0.632638 1.69904 0
M  V30 2660 C 250.855 3.60191 -0.171759 0
M  V30 2661 O 249.959 4.03396 0.857069 0
M  V30 2662 H 249.3 0.65502 -0.108834 0
M  V30 2663 H 251.83 1.81982 -0.935077 0
M  V30 2664 H 251.84 4.08 0.0014303 0
M  V30 2665 H 250.515 3.99743 -1.14796 0
M  V30 2666 H 249.092 3.67117 0.654208 0
M  V30 2667 N 251.277 0.427512 1.51691 0
M  V30 2668 C 252.523 -0.142439 2.02299 0
M  V30 2669 C 252.856 -1.43214 1.31162 0
M  V30 2670 O 252.131 -1.89833 0.423511 0
M  V30 2671 C 252.414 -0.371301 3.58181 0
M  V30 2672 C 252.267 0.936358 4.39946 0
M  V30 2673 C 253.586 -1.14542 4.24933 0
M  V30 2674 H 250.705 -0.0502937 0.735282 0
M  V30 2675 H 253.347 0.564584 1.81418 0
M  V30 2676 H 251.497 -0.973559 3.76104 0
M  V30 2677 H 253.169 1.57184 4.33694 0
M  V30 2678 H 251.412 1.5432 4.05423 0
M  V30 2679 H 252.083 0.730388 5.47147 0
M  V30 2680 H 254.559 -0.635362 4.11221 0
M  V30 2681 H 253.435 -1.27431 5.33903 0
M  V30 2682 H 253.696 -2.17093 3.85127 0
M  V30 2683 N 252.755 -1.56801 0.158532 0
M  V30 2684 C 253.688 -2.13148 -0.815065 0
M  V30 2685 C 254.666 -1.0581 -1.23462 0
M  V30 2686 O 255.85 -1.3371 -1.32868 0
M  V30 2687 C 252.977 -2.6606 -2.09594 0
M  V30 2688 C 252.023 -3.85651 -1.82141 0
M  V30 2689 S 252.856 -5.26041 -1.00207 0
M  V30 2690 C 254.012 -5.8235 -2.29389 0
M  V30 2691 H 254.245 -2.95396 -0.335937 0
M  V30 2692 H 251.778 -1.54299 -0.0559391 0
M  V30 2693 H 253.736 -2.97195 -2.8317 0
M  V30 2694 H 252.397 -1.83921 -2.54621 0
M  V30 2695 H 251.59 -4.20958 -2.77147 0
M  V30 2696 H 251.192 -3.55338 -1.16667 0
M  V30 2697 H 253.484 -5.94485 -3.24952 0
M  V30 2698 H 254.427 -6.79688 -1.9857 0
M  V30 2699 H 254.835 -5.10675 -2.40564 0
M  V30 2700 N 254.233 0.115231 -1.57178 0
M  V30 2701 C 255.166 1.17166 -1.95825 0
M  V30 2702 C 256.144 1.39912 -0.828463 0
M  V30 2703 O 257.328 1.54004 -1.08697 0
M  V30 2704 C 254.455 2.52478 -2.25771 0
M  V30 2705 C 253.501 2.46136 -3.48309 0
M  V30 2706 S 254.334 1.89736 -5.0076 0
M  V30 2707 C 255.49 3.26713 -5.33863 0
M  V30 2708 H 255.723 0.842103 -2.85124 0
M  V30 2709 H 253.256 0.322136 -1.51002 0
M  V30 2710 H 255.214 3.30332 -2.43702 0
M  V30 2711 H 253.875 2.82609 -1.37079 0
M  V30 2712 H 253.068 3.45819 -3.66641 0
M  V30 2713 H 252.67 1.76404 -3.29784 0
M  V30 2714 H 254.962 4.22935 -5.29275 0
M  V30 2715 H 255.905 3.13205 -6.35065 0
M  V30 2716 H 256.313 3.25316 -4.61335 0
M  V30 2717 N 255.711 1.52812 0.385517 0
M  V30 2718 C 256.659 1.78482 1.49155 0
M  V30 2719 C 257.653 0.652914 1.56312 0
M  V30 2720 O 258.859 0.835464 1.59436 0
M  V30 2721 H 255.234 0.5648 0.496493 0
M  V30 2722 H 257.205 2.71095 1.24699 0
M  V30 2723 C 255.954 1.97378 2.86247 0
M  V30 2724 H 255.277 2.83907 2.81491 0
M  V30 2725 H 256.717 2.19327 3.62866 0
M  V30 2726 C 255.176 0.74728 3.28508 0
M  V30 2727 O 255.706 -0.0736232 4.01633 0
M  V30 2728 N 253.912 0.576396 2.84826 0
M  V30 2729 H 253.459 1.24555 2.25486 0
M  V30 2730 H 253.417 -0.24288 3.1346 0
M  V30 2731 N 257.189 -0.644168 1.43834 0
M  V30 2732 C 258.119 -1.76814 1.52509 0
M  V30 2733 C 259.1 -1.65823 0.379052 0
M  V30 2734 O 260.285 -1.84781 0.597466 0
M  V30 2735 C 257.415 -3.15288 1.4564 0
M  V30 2736 C 256.369 -3.41053 2.58586 0
M  V30 2737 C 255.695 -4.79421 2.36769 0
M  V30 2738 C 256.995 -3.34902 4.00797 0
M  V30 2739 H 258.689 -1.69812 2.46586 0
M  V30 2740 H 256.235 -0.815542 1.1868 0
M  V30 2741 H 258.188 -3.93681 1.50311 0
M  V30 2742 H 256.912 -3.23043 0.480725 0
M  V30 2743 H 255.571 -2.65035 2.53282 0
M  V30 2744 H 255.219 -4.83863 1.37424 0
M  V30 2745 H 254.919 -4.9762 3.12487 0
M  V30 2746 H 256.443 -5.6006 2.43238 0
M  V30 2747 H 257.857 -4.03218 4.07539 0
M  V30 2748 H 256.254 -3.64637 4.76613 0
M  V30 2749 H 257.324 -2.32928 4.25291 0
M  V30 2750 N 258.668 -1.30515 -0.883378 0
M  V30 2751 C 259.578 -1.18959 -2.02203 0
M  V30 2752 C 260.594 -0.109172 -1.73657 0
M  V30 2753 O 261.77 -0.324413 -1.9877 0
M  V30 2754 C 258.835 -0.883871 -3.35244 0
M  V30 2755 C 257.896 -2.04982 -3.77201 0
M  V30 2756 C 257.129 -1.75859 -5.03894 0
M  V30 2757 O 257.352 -0.687276 -5.66244 0
M  V30 2758 O 256.286 -2.61146 -5.42297 0
M  V30 2759 H 260.112 -2.14616 -2.1488 0
M  V30 2760 H 257.697 -1.10124 -1.0096 0
M  V30 2761 H 259.579 -0.728644 -4.15053 0
M  V30 2762 H 258.254 0.0427798 -3.23672 0
M  V30 2763 H 257.161 -2.26038 -2.9809 0
M  V30 2764 H 258.494 -2.95825 -3.93381 0
M  V30 2765 N 260.146 1.09593 -1.13257 0
M  V30 2766 C 261.096 2.14345 -0.777179 0
M  V30 2767 C 262.08 1.59277 0.227966 0
M  V30 2768 O 263.272 1.76971 0.0321413 0
M  V30 2769 C 260.401 3.42439 -0.242991 0
M  V30 2770 C 259.487 4.04419 -1.27694 0
M  V30 2771 N 259.878 4.40979 -2.47732 0
M  V30 2772 C 258.176 4.31596 -1.12432 0
M  V30 2773 C 258.877 4.89784 -3.13826 0
M  V30 2774 N 257.853 4.87133 -2.41252 0
M  V30 2775 H 261.655 2.40415 -1.69049 0
M  V30 2776 H 259.169 1.26803 -1.01463 0
M  V30 2777 H 261.166 4.16889 0.0298496 0
M  V30 2778 H 259.826 3.17824 0.66467 0
M  V30 2779 H 260.837 4.32396 -2.85051 0
M  V30 2780 H 257.514 4.16595 -0.274684 0
M  V30 2781 H 258.904 5.2755 -4.16102 0
M  V30 2782 N 261.624 0.925811 1.2754 0
M  V30 2783 C 263.035 0.610102 1.7645 0
M  V30 2784 C 263.386 -0.874723 1.75622 0
M  V30 2785 O 262.511 -1.68444 1.35851 0
M  V30 2786 C 263.106 1.10073 3.20421 0
M  V30 2787 C 261.665 0.835723 3.67005 0
M  V30 2788 C 260.812 1.26054 2.46993 0
M  V30 2789 H 263.763 1.10579 1.13833 0
M  V30 2790 H 263.784 0.447557 3.77859 0
M  V30 2791 H 263.296 2.18143 3.20991 0
M  V30 2792 H 261.397 -0.231249 3.71882 0
M  V30 2793 H 261.51 1.45193 4.56569 0
M  V30 2794 H 259.874 0.679111 2.45479 0
M  V30 2795 H 260.657 2.34984 2.50275 0
M  V30 2796 N 263.102 -1.41638 0.69111 0
M  V30 2797 C 264.052 -2.28 -0.000107832 0
M  V30 2798 C 265.036 -1.41964 -0.757304 0
M  V30 2799 O 266.228 -1.65274 -0.633532 0
M  V30 2800 C 263.357 -3.30209 -0.938983 0
M  V30 2801 C 262.443 -4.23725 -0.17827 0
M  V30 2802 N 262.834 -4.99017 0.825563 0
M  V30 2803 C 261.132 -4.44071 -0.414392 0
M  V30 2804 C 261.833 -5.67431 1.28052 0
M  V30 2805 N 260.809 -5.40197 0.607304 0
M  V30 2806 H 264.611 -2.83644 0.769617 0
M  V30 2807 H 262.125 -1.53797 0.521562 0
M  V30 2808 H 264.122 -3.90898 -1.44929 0
M  V30 2809 H 262.782 -2.76126 -1.70836 0
M  V30 2810 H 263.793 -5.03671 1.20566 0
M  V30 2811 H 260.47 -4.01004 -1.162 0
M  V30 2812 H 261.86 -6.37801 2.11327 0
M  V30 2813 N 264.58 -0.43555 -1.51462 0
M  V30 2814 C 265.826 0.131709 -2.02372 0
M  V30 2815 C 266.159 1.42516 -1.3192 0
M  V30 2816 O 265.434 1.89606 -0.433573 0
M  V30 2817 C 265.717 0.352301 -3.58373 0
M  V30 2818 C 265.57 -0.959676 -4.39443 0
M  V30 2819 C 266.889 1.12286 -4.25535 0
M  V30 2820 H 264.008 0.0463936 -0.735538 0
M  V30 2821 H 266.65 -0.574197 -1.81116 0
M  V30 2822 H 264.8 0.9536 -3.76615 0
M  V30 2823 H 266.472 -1.59482 -4.32855 0
M  V30 2824 H 264.715 -1.56468 -4.04599 0
M  V30 2825 H 265.386 -0.759394 -5.46752 0
M  V30 2826 H 267.862 0.613545 -4.11552 0
M  V30 2827 H 266.738 1.24598 -5.34571 0
M  V30 2828 H 266.999 2.15048 -3.86273 0
M  V30 2829 N 266.058 1.56714 -0.166846 0
M  V30 2830 C 266.988 2.20754 0.760913 0
M  V30 2831 C 267.969 1.16178 1.24244 0
M  V30 2832 O 269.154 1.44592 1.29641 0
M  V30 2833 C 266.284 2.84478 1.99223 0
M  V30 2834 C 265.238 3.95053 1.64672 0
M  V30 2835 C 264.564 4.45805 2.95232 0
M  V30 2836 C 265.864 5.14865 0.878155 0
M  V30 2837 H 267.558 2.98537 0.22713 0
M  V30 2838 H 265.104 1.43596 0.107805 0
M  V30 2839 H 267.057 3.27951 2.64624 0
M  V30 2840 H 265.781 2.04056 2.55007 0
M  V30 2841 H 264.44 3.52228 1.01641 0
M  V30 2842 H 264.088 3.62181 3.49047 0
M  V30 2843 H 263.788 5.204 2.7287 0
M  V30 2844 H 265.312 4.91962 3.6167 0
M  V30 2845 H 266.726 5.55059 1.43466 0
M  V30 2846 H 265.123 5.95348 0.753738 0
M  V30 2847 H 266.193 4.84735 -0.126377 0
M  V30 2848 N 267.536 -0.106894 1.57237 0
M  V30 2849 C 268.952 -0.46078 1.52804 0
M  V30 2850 C 269.152 -1.81184 0.881746 0
M  V30 2851 O 268.208 -2.48102 0.469224 0
M  V30 2852 C 269.521 -0.434127 2.9755 0
M  V30 2853 C 271.069 -0.516821 3.08704 0
M  V30 2854 C 271.544 -0.520436 4.55033 0
M  V30 2855 N 273.035 -0.58153 4.59535 0
M  V30 2856 C 273.77 -0.605973 5.70189 0
M  V30 2857 N 273.266 -0.587331 6.90306 0
M  V30 2858 N 275.059 -0.649895 5.5833 0
M  V30 2859 H 267.21 0.778203 1.9763 0
M  V30 2860 H 269.473 0.288403 0.903066 0
M  V30 2861 H 269.179 0.491197 3.48253 0
M  V30 2862 H 269.053 -1.25748 3.55622 0
M  V30 2863 H 271.44 -1.43256 2.57995 0
M  V30 2864 H 271.521 0.334449 2.53604 0
M  V30 2865 H 271.165 0.391313 5.0639 0
M  V30 2866 H 271.095 -1.38876 5.07958 0
M  V30 2867 H 273.586 -0.60161 3.73081 0
M  V30 2868 H 273.899 -0.60894 7.70397 0
M  V30 2869 H 272.244 -0.554564 6.92784 0
M  V30 2870 H 275.435 -0.661907 4.63397 0
M  V30 2871 H 275.608 -0.665476 6.44574 0
M  V30 2872 N 269.014 -1.53014 -0.377408 0
M  V30 2873 C 269.944 -1.81589 -1.46791 0
M  V30 2874 C 270.925 -0.668622 -1.56408 0
M  V30 2875 O 272.11 -0.917337 -1.71168 0
M  V30 2876 C 269.24 -1.99519 -2.8427 0
M  V30 2877 C 268.194 -3.15249 -2.89486 0
M  V30 2878 C 267.52 -3.18451 -4.29527 0
M  V30 2879 C 268.82 -4.54084 -2.58079 0
M  V30 2880 H 270.514 -2.7291 -1.23127 0
M  V30 2881 H 268.06 -1.31319 -0.590883 0
M  V30 2882 H 270.013 -2.18092 -3.60575 0
M  V30 2883 H 268.737 -1.04897 -3.09296 0
M  V30 2884 H 267.396 -2.96477 -2.15631 0
M  V30 2885 H 267.044 -2.2149 -4.5161 0
M  V30 2886 H 266.744 -3.962 -4.33934 0
M  V30 2887 H 268.268 -3.39193 -5.07721 0
M  V30 2888 H 269.682 -4.72899 -3.24098 0
M  V30 2889 H 268.079 -5.33987 -2.7382 0
M  V30 2890 H 269.149 -4.60006 -1.53372 0
M  V30 2891 N 270.492 0.636531 -1.44174 0
M  V30 2892 C 271.442 1.74233 -1.47061 0
M  V30 2893 C 272.426 1.57331 -0.337034 0
M  V30 2894 O 273.618 1.67159 -0.581973 0
M  V30 2895 C 270.747 3.12897 -1.41246 0
M  V30 2896 C 269.833 3.35288 -2.59698 0
M  V30 2897 N 270.224 3.2807 -3.84972 0
M  V30 2898 C 268.522 3.66065 -2.54778 0
M  V30 2899 C 269.223 3.51001 -4.63867 0
M  V30 2900 N 268.199 3.73616 -3.94857 0
M  V30 2901 H 272.001 1.67103 -2.41773 0
M  V30 2902 H 269.515 0.838806 -1.3906 0
M  V30 2903 H 271.512 3.92189 -1.41398 0
M  V30 2904 H 270.172 3.21197 -0.47569 0
M  V30 2905 H 271.183 3.07109 -4.17019 0
M  V30 2906 H 267.86 3.81379 -1.6987 0
M  V30 2907 H 269.25 3.51059 -5.72894 0
M  V30 2908 N 271.97 1.30982 0.876444 0
M  V30 2909 C 273.218 1.20058 1.62575 0
M  V30 2910 C 273.539 -0.242947 1.93481 0
M  V30 2911 O 272.809 -1.1619 1.57724 0
M  V30 2912 H 271.389 0.44135 0.602677 0
M  V30 2913 H 274.051 1.64222 1.04962 0
M  V30 2914 H 273.147 1.76762 2.57219 0
M  V30 2915 N 273.449 -1.08991 1.13837 0
M  V30 2916 C 274.379 -2.17771 0.842507 0
M  V30 2917 C 275.36 -1.6892 -0.20001 0
M  V30 2918 O 276.545 -1.94113 -0.0579731 0
M  V30 2919 C 273.675 -3.4589 0.312644 0
M  V30 2920 C 272.629 -4.08099 1.28992 0
M  V30 2921 C 271.955 -5.31098 0.619623 0
M  V30 2922 C 273.255 -4.50077 2.65005 0
M  V30 2923 H 274.949 -2.42777 1.75213 0
M  V30 2924 H 272.495 -1.16682 0.843875 0
M  V30 2925 H 274.448 -4.21297 0.0933043 0
M  V30 2926 H 273.172 -3.20419 -0.632382 0
M  V30 2927 H 271.831 -3.34717 1.49533 0
M  V30 2928 H 271.479 -5.0191 -0.33102 0
M  V30 2929 H 271.179 -5.73674 1.27167 0
M  V30 2930 H 272.703 -6.09224 0.409669 0
M  V30 2931 H 274.117 -5.16688 2.48407 0
M  V30 2932 H 272.514 -5.03553 3.26427 0
M  V30 2933 H 273.584 -3.62257 3.22332 0
M  V30 2934 N 274.927 -0.932562 -1.27047 0
M  V30 2935 C 276.173 -0.576412 -1.94436 0
M  V30 2936 C 276.506 0.880891 -1.73072 0
M  V30 2937 O 275.781 1.62905 -1.06264 0
M  V30 2938 C 276.064 -0.909031 -3.48437 0
M  V30 2939 C 275.917 -2.42044 -3.79123 0
M  V30 2940 C 277.236 -0.418341 -4.38107 0
M  V30 2941 H 274.355 -0.210888 -0.706184 0
M  V30 2942 H 276.997 -1.16522 -1.50075 0
M  V30 2943 H 275.147 -0.407947 -3.86352 0
M  V30 2944 H 276.819 -2.99359 -3.50973 0
M  V30 2945 H 275.062 -2.86758 -3.25503 0
M  V30 2946 H 275.733 -2.6037 -4.86736 0
M  V30 2947 H 278.209 -0.847856 -4.0737 0
M  V30 2948 H 277.085 -0.679981 -5.44672 0
M  V30 2949 H 277.346 0.681642 -4.36814 0
M  V30 2950 N 276.405 1.4127 -0.698611 0
M  V30 2951 C 277.335 2.33447 -0.049629 0
M  V30 2952 C 278.316 1.51982 0.763898 0
M  V30 2953 O 279.501 1.80509 0.716257 0
M  V30 2954 C 276.631 3.35828 0.885267 0
M  V30 2955 C 275.585 4.27627 0.178613 0
M  V30 2956 C 274.911 5.20406 1.22807 0
M  V30 2957 C 276.211 5.13459 -0.956933 0
M  V30 2958 H 277.905 2.87966 -0.81951 0
M  V30 2959 H 275.451 1.38461 -0.395538 0
M  V30 2960 H 277.404 3.9924 1.34854 0
M  V30 2961 H 276.128 2.79666 1.68685 0
M  V30 2962 H 274.787 3.65643 -0.26466 0
M  V30 2963 H 274.435 4.60558 2.02226 0
M  V30 2964 H 274.135 5.82661 0.760239 0
M  V30 2965 H 275.659 5.86695 1.69179 0
M  V30 2966 H 277.073 5.70421 -0.573805 0
M  V30 2967 H 275.47 5.8467 -1.35205 0
M  V30 2968 H 276.54 4.50443 -1.79524 0
M  V30 2969 N 277.883 0.443576 1.51229 0
M  V30 2970 C 279.131 -0.120557 2.0174 0
M  V30 2971 C 279.452 -1.42665 1.32935 0
M  V30 2972 O 278.722 -1.9028 0.465866 0
M  V30 2973 H 277.302 -0.0475426 0.745486 0
M  V30 2974 H 279.964 0.587711 1.85828 0
M  V30 2975 H 279.06 -0.291972 3.10731 0
M  V30 2976 N 279.361 -1.56624 0.175154 0
M  V30 2977 C 280.293 -2.15333 -0.785128 0
M  V30 2978 C 281.306 -1.1099 -1.19101 0
M  V30 2979 O 282.495 -1.38162 -1.13019 0
M  V30 2980 C 279.595 -2.68427 -2.06882 0
M  V30 2981 C 278.768 -3.97466 -1.8259 0
M  V30 2982 C 277.827 -4.35585 -2.95215 0
M  V30 2983 O 276.853 -5.03389 -2.65684 0
M  V30 2984 N 278.055 -3.97457 -4.23094 0
M  V30 2985 H 280.82 -2.98359 -0.283187 0
M  V30 2986 H 278.381 -1.61898 -0.00749817 0
M  V30 2987 H 280.373 -2.90924 -2.81328 0
M  V30 2988 H 278.943 -1.89968 -2.48256 0
M  V30 2989 H 278.163 -3.83307 -0.920287 0
M  V30 2990 H 279.451 -4.81736 -1.63733 0
M  V30 2991 H 278.849 -3.42878 -4.49945 0
M  V30 2992 H 277.406 -4.24947 -4.9423 0
M  V30 2993 N 280.839 0.0985539 -1.57292 0
M  V30 2994 C 282.25 0.653457 -1.74891 0
M  V30 2995 C 282.601 1.7929 -0.796838 0
M  V30 2996 O 281.726 2.16385 0.0254886 0
M  V30 2997 C 282.321 1.19216 -3.17133 0
M  V30 2998 C 280.88 1.69316 -3.36168 0
M  V30 2999 C 280.027 0.601294 -2.70702 0
M  V30 3000 H 282.978 -0.127497 -1.58187 0
M  V30 3001 H 282.999 2.06154 -3.19814 0
M  V30 3002 H 282.511 0.362635 -3.86402 0
M  V30 3003 H 280.612 2.5468 -2.71972 0
M  V30 3004 H 280.725 1.78853 -4.44464 0
M  V30 3005 H 279.089 1.0399 -2.32504 0
M  V30 3006 H 279.872 -0.217592 -3.4261 0
M  V30 3007 N 282.317 1.53212 0.369288 0
M  V30 3008 C 283.247 1.82365 1.45826 0
M  V30 3009 C 284.228 0.676907 1.56051 0
M  V30 3010 O 285.413 0.926401 1.70679 0
M  V30 3011 C 282.543 2.01023 2.83208 0
M  V30 3012 C 281.497 3.1678 2.8781 0
M  V30 3013 C 280.823 3.20724 4.27832 0
M  V30 3014 C 282.123 4.55447 2.55667 0
M  V30 3015 H 283.817 2.73559 1.21678 0
M  V30 3016 H 281.363 1.3163 0.583911 0
M  V30 3017 H 283.316 2.20001 3.59413 0
M  V30 3018 H 282.04 1.06536 3.08736 0
M  V30 3019 H 280.699 2.97616 2.14056 0
M  V30 3020 H 280.347 2.23882 4.50429 0
M  V30 3021 H 280.047 3.98496 4.31827 0
M  V30 3022 H 281.571 3.41881 5.05915 0
M  V30 3023 H 282.985 4.74611 3.21586 0
M  V30 3024 H 281.382 5.35432 2.70984 0
M  V30 3025 H 282.452 4.60812 1.5093 0
M  V30 3026 N 283.795 -0.628877 1.44509 0
M  V30 3027 C 284.727 -1.754 1.47538 0
M  V30 3028 C 285.74 -1.58575 0.368506 0
M  V30 3029 O 286.929 -1.66847 0.634376 0
M  V30 3030 C 284.029 -3.1315 1.29577 0
M  V30 3031 C 283.202 -3.56413 2.53551 0
M  V30 3032 C 282.261 -4.7305 2.30457 0
M  V30 3033 O 281.287 -4.81247 3.03957 0
M  V30 3034 N 282.489 -5.64903 1.3366 0
M  V30 3035 H 285.254 -1.73272 2.44534 0
M  V30 3036 H 282.815 -0.813512 1.39977 0
M  V30 3037 H 284.807 -3.88902 1.11971 0
M  V30 3038 H 283.377 -3.09908 0.409371 0
M  V30 3039 H 282.597 -2.70847 2.86419 0
M  V30 3040 H 283.885 -3.82071 3.36005 0
M  V30 3041 H 283.283 -5.60975 0.729604 0
M  V30 3042 H 281.84 -6.40275 1.22032 0
M  V30 3043 N 285.273 -1.31445 -0.869486 0
M  V30 3044 C 286.206 -1.13465 -1.97992 0
M  V30 3045 C 287.184 -0.0380291 -1.62556 0
M  V30 3046 O 288.368 -0.194544 -1.87493 0
M  V30 3047 C 285.495 -0.733822 -3.30655 0
M  V30 3048 C 284.541 -1.83356 -3.85075 0
M  V30 3049 S 285.374 -3.43909 -4.10472 0
M  V30 3050 C 286.53 -3.05763 -5.46132 0
M  V30 3051 H 286.763 -2.07471 -2.1294 0
M  V30 3052 H 284.296 -1.15936 -1.01972 0
M  V30 3053 H 286.254 -0.509306 -4.07328 0
M  V30 3054 H 284.915 0.187123 -3.13542 0
M  V30 3055 H 284.108 -1.50574 -4.80982 0
M  V30 3056 H 283.71 -2.01315 -3.15195 0
M  V30 3057 H 286.002 -2.54686 -6.27807 0
M  V30 3058 H 286.945 -4.00635 -5.83864 0
M  V30 3059 H 287.353 -2.43192 -5.09429 0
M  V30 3060 N 286.751 1.08385 -1.14413 0
M  V30 3061 C 287.997 1.81044 -0.913834 0
M  V30 3062 C 288.33 1.86004 0.558209 0
M  V30 3063 O 287.605 1.33606 1.4135 0
M  V30 3064 C 287.888 3.26648 -1.51569 0
M  V30 3065 C 287.741 3.29895 -3.0576 0
M  V30 3066 C 289.06 4.23629 -1.19273 0
M  V30 3067 H 286.179 0.65727 -0.333414 0
M  V30 3068 H 288.821 1.26896 -1.41412 0
M  V30 3069 H 286.971 3.72889 -1.09023 0
M  V30 3070 H 288.643 2.91977 -3.57137 0
M  V30 3071 H 286.886 2.69163 -3.40197 0
M  V30 3072 H 287.557 4.32516 -3.42977 0
M  V30 3073 H 290.033 3.85727 -1.56057 0
M  V30 3074 H 288.909 5.23822 -1.64017 0
M  V30 3075 H 289.17 4.41968 -0.108068 0
M  V30 3076 N 288.23 0.939286 1.26551 0
M  V30 3077 C 289.163 0.391702 2.24813 0
M  V30 3078 C 290.141 -0.518421 1.54114 0
M  V30 3079 O 291.325 -0.456299 1.82894 0
M  V30 3080 C 288.452 -0.437382 3.35864 0
M  V30 3081 C 287.498 0.410946 4.24516 0
M  V30 3082 S 288.331 1.83372 5.03125 0
M  V30 3083 C 289.487 1.01264 6.17654 0
M  V30 3084 H 289.72 1.22448 2.70913 0
M  V30 3085 H 287.253 0.742269 1.35387 0
M  V30 3086 H 289.211 -0.909837 4.0029 0
M  V30 3087 H 287.872 -1.24482 2.8838 0
M  V30 3088 H 287.065 -0.224191 5.03501 0
M  V30 3089 H 286.667 0.818014 3.64945 0
M  V30 3090 H 288.959 0.254023 6.77024 0
M  V30 3091 H 289.902 1.77589 6.85469 0
M  V30 3092 H 290.31 0.549532 5.61819 0
M  V30 3093 N 289.708 -1.40897 0.706093 0
M  V30 3094 C 290.618 -2.3455 0.0482286 0
M  V30 3095 C 291.634 -1.56796 -0.754396 0
M  V30 3096 O 292.81 -1.89228 -0.689538 0
M  V30 3097 C 289.875 -3.35625 -0.869303 0
M  V30 3098 C 288.936 -4.29261 -0.0576994 0
M  V30 3099 C 288.169 -5.25508 -0.931531 0
M  V30 3100 O 288.392 -5.27472 -2.17092 0
M  V30 3101 O 287.326 -6.00727 -0.375587 0
M  V30 3102 H 291.152 -2.92407 0.820476 0
M  V30 3103 H 288.737 -1.4193 0.4665 0
M  V30 3104 H 290.619 -3.97635 -1.39514 0
M  V30 3105 H 289.294 -2.80196 -1.62086 0
M  V30 3106 H 288.201 -3.70566 0.512988 0
M  V30 3107 H 289.534 -4.87817 0.655426 0
M  V30 3108 N 291.186 -0.45159 -1.50991 0
M  V30 3109 C 292.116 0.342898 -2.30969 0
M  V30 3110 C 293.097 1.00815 -1.37005 0
M  V30 3111 O 294.282 1.00907 -1.65926 0
M  V30 3112 C 291.412 1.43637 -3.16205 0
M  V30 3113 C 290.366 0.893818 -4.18563 0
M  V30 3114 C 289.692 2.08411 -4.92411 0
M  V30 3115 C 290.992 -0.0815568 -5.22236 0
M  V30 3116 H 292.686 -0.324556 -2.97636 0
M  V30 3117 H 290.232 -0.157531 -1.43136 0
M  V30 3118 H 292.185 1.9995 -3.70942 0
M  V30 3119 H 290.909 2.13232 -2.47386 0
M  V30 3120 H 289.568 0.352798 -3.64898 0
M  V30 3121 H 289.216 2.76658 -4.20082 0
M  V30 3122 H 288.916 1.72741 -5.61636 0
M  V30 3123 H 290.44 2.65251 -5.49976 0
M  V30 3124 H 291.854 0.391742 -5.7196 0
M  V30 3125 H 290.251 -0.351551 -5.99069 0
M  V30 3126 H 291.321 -1.01374 -4.74185 0
M  V30 3127 N 292.664 1.56529 -0.183458 0
M  V30 3128 C 293.627 2.17324 0.728223 0
M  V30 3129 C 294.627 1.12453 1.14939 0
M  V30 3130 O 295.817 1.37902 1.06437 0
M  V30 3131 C 292.949 2.76591 1.99274 0
M  V30 3132 H 294.142 2.99241 0.198772 0
M  V30 3133 H 291.695 1.5616 0.0661391 0
M  V30 3134 H 292.43 1.98441 2.56499 0
M  V30 3135 H 292.215 3.5335 1.69959 0
M  V30 3136 H 293.705 3.23311 2.6431 0
M  V30 3137 N 294.142 -0.090211 1.57342 0
M  V30 3138 C 295.553 -0.644173 1.75235 0
M  V30 3139 C 295.904 -1.78865 0.806335 0
M  V30 3140 O 295.029 -2.16395 -0.0140128 0
M  V30 3141 C 295.624 -1.17532 3.1776 0
M  V30 3142 C 294.183 -1.67531 3.37061 0
M  V30 3143 C 293.33 -0.58693 2.71017 0
M  V30 3144 H 296.281 0.135884 1.58117 0
M  V30 3145 H 296.302 -2.04455 3.20902 0
M  V30 3146 H 295.814 -0.342138 3.86589 0
M  V30 3147 H 293.915 -2.53234 2.73319 0
M  V30 3148 H 294.028 -1.76493 4.45406 0
M  V30 3149 H 292.392 -1.02756 2.33052 0
M  V30 3150 H 293.175 0.235758 3.4249 0
M  V30 3151 N 295.62 -1.53406 -0.361157 0
M  V30 3152 C 296.55 -1.83136 -1.44857 0
M  V30 3153 C 297.531 -0.685174 -1.5569 0
M  V30 3154 O 298.716 -0.93544 -1.70186 0
M  V30 3155 C 295.846 -2.02522 -2.82138 0
M  V30 3156 C 294.8 -3.18302 -2.86126 0
M  V30 3157 C 294.126 -3.22989 -4.26125 0
M  V30 3158 C 295.426 -4.56796 -2.53248 0
M  V30 3159 H 297.12 -2.74201 -1.20226 0
M  V30 3160 H 294.666 -1.31938 -0.576922 0
M  V30 3161 H 296.619 -2.21904 -3.58241 0
M  V30 3162 H 295.343 -1.08172 -3.08166 0
M  V30 3163 H 294.002 -2.98747 -2.12475 0
M  V30 3164 H 293.65 -2.26267 -4.49235 0
M  V30 3165 H 293.35 -4.00781 -4.29708 0
M  V30 3166 H 294.874 -3.44559 -5.04094 0
M  V30 3167 H 296.288 -4.7631 -3.19064 0
M  V30 3168 H 294.685 -5.36862 -2.68141 0
M  V30 3169 H 295.755 -4.61606 -1.48484 0
M  V30 3170 N 297.098 0.621204 -1.44841 0
M  V30 3171 C 298.346 1.37783 -1.47852 0
M  V30 3172 C 298.667 1.94653 -0.116224 0
M  V30 3173 O 297.937 1.76367 0.852737 0
M  V30 3174 H 296.517 0.511453 -0.544449 0
M  V30 3175 H 299.179 0.730446 -1.80694 0
M  V30 3176 H 298.275 2.20414 -2.20961 0
M  V30 3177 N 298.576 1.31904 0.862503 0
M  V30 3178 C 299.801 1.25135 1.65397 0
M  V30 3179 C 300.226 -0.179 1.87246 0
M  V30 3180 O 299.584 -1.1277 1.4196 0
M  V30 3181 C 299.632 2.00832 2.99498 0
M  V30 3182 O 298.736 1.35075 3.89652 0
M  V30 3183 H 298.077 0.431655 0.504549 0
M  V30 3184 H 300.607 1.74094 1.07483 0
M  V30 3185 H 300.617 2.10709 3.49379 0
M  V30 3186 H 299.292 3.04847 2.82916 0
M  V30 3187 H 297.869 1.33696 3.48109 0
M  V30 3188 N 300.054 -1.07777 1.14986 0
M  V30 3189 C 300.984 -2.16865 0.865557 0
M  V30 3190 C 301.965 -1.69123 -0.182083 0
M  V30 3191 O 303.15 -1.94164 -0.0373815 0
M  V30 3192 C 300.28 -3.45539 0.349313 0
M  V30 3193 C 299.234 -4.06708 1.33313 0
M  V30 3194 C 298.56 -5.30411 0.675918 0
M  V30 3195 C 299.86 -4.47241 2.69764 0
M  V30 3196 H 301.554 -2.40905 1.77778 0
M  V30 3197 H 299.1 -1.15781 0.856203 0
M  V30 3198 H 301.053 -4.21174 0.137983 0
M  V30 3199 H 299.777 -3.21072 -0.598362 0
M  V30 3200 H 298.436 -3.33112 1.53075 0
M  V30 3201 H 298.084 -5.02232 -0.277767 0
M  V30 3202 H 297.784 -5.72293 1.33244 0
M  V30 3203 H 299.308 -6.08755 0.474262 0
M  V30 3204 H 300.722 -5.14025 2.53873 0
M  V30 3205 H 299.119 -5.00062 3.3175 0
M  V30 3206 H 300.189 -3.58818 3.26156 0
M  V30 3207 N 301.532 -0.945985 -1.26051 0
M  V30 3208 C 302.482 -0.430164 -2.23905 0
M  V30 3209 C 303.466 0.47579 -1.53704 0
M  V30 3210 O 304.658 0.310252 -1.7426 0
M  V30 3211 C 301.787 0.298957 -3.41996 0
M  V30 3212 C 300.873 -0.624566 -4.19476 0
M  V30 3213 N 301.264 -1.75245 -4.74471 0
M  V30 3214 C 299.562 -0.431082 -4.43912 0
M  V30 3215 C 300.263 -2.32834 -5.3307 0
M  V30 3216 N 299.239 -1.61583 -5.1903 0
M  V30 3217 H 303.041 -1.29107 -2.64024 0
M  V30 3218 H 300.555 -0.802428 -1.41191 0
M  V30 3219 H 302.552 0.685565 -4.11225 0
M  V30 3220 H 301.212 1.15657 -3.03403 0
M  V30 3221 H 302.223 -2.13449 -4.71868 0
M  V30 3222 H 298.9 0.384364 -4.15727 0
M  V30 3223 H 300.29 -3.27893 -5.86461 0
M  V30 3224 N 303.011 1.40521 -0.713556 0
M  V30 3225 C 303.974 2.29098 -0.0684347 0
M  V30 3226 C 304.974 1.45268 0.689472 0
M  V30 3227 O 306.164 1.66205 0.521677 0
M  V30 3228 C 303.296 3.28446 0.913024 0
M  V30 3229 H 304.489 2.87645 -0.84855 0
M  V30 3230 H 302.042 1.48809 -0.47809 0
M  V30 3231 H 302.777 2.74913 1.72027 0
M  V30 3232 H 302.562 3.90327 0.372472 0
M  V30 3233 H 304.052 3.94777 1.36165 0
M  V30 3234 N 304.489 0.459591 1.5075 0
M  V30 3235 C 305.905 0.113092 1.59199 0
M  V30 3236 C 306.105 -1.37951 1.46874 0
M  V30 3237 O 305.161 -2.15168 1.32132 0
M  V30 3238 C 306.474 0.653043 2.93523 0
M  V30 3239 C 308.022 0.615449 3.0689 0
M  V30 3240 C 308.497 1.13275 4.43771 0
M  V30 3241 N 309.988 1.09167 4.50152 0
M  V30 3242 C 310.723 1.46256 5.54434 0
M  V30 3243 N 310.219 1.90739 6.66026 0
M  V30 3244 N 312.012 1.37932 5.44914 0
M  V30 3245 H 304.163 1.43049 1.57005 0
M  V30 3246 H 306.426 0.590861 0.741341 0
M  V30 3247 H 306.132 1.69822 3.07983 0
M  V30 3248 H 306.006 0.0902132 3.77092 0
M  V30 3249 H 308.393 -0.420793 2.92084 0
M  V30 3250 H 308.474 1.21495 2.25106 0
M  V30 3251 H 308.118 2.16757 4.59324 0
M  V30 3252 H 308.048 0.509576 5.24129 0
M  V30 3253 H 310.539 0.76528 3.7007 0
M  V30 3254 H 310.852 2.17218 7.41644 0
M  V30 3255 H 309.197 1.94683 6.67176 0
M  V30 3256 H 312.388 1.0303 4.56621 0
M  V30 3257 H 312.561 1.67164 6.26067 0
M  V30 3258 N 305.967 -1.56429 0.191757 0
M  V30 3259 C 306.897 -2.21937 -0.725696 0
M  V30 3260 C 307.878 -1.1814 -1.2238 0
M  V30 3261 O 309.063 -1.46636 -1.27325 0
M  V30 3262 C 306.193 -2.87611 -1.94672 0
M  V30 3263 C 305.147 -3.97623 -1.58366 0
M  V30 3264 C 304.473 -4.50446 -2.88102 0
M  V30 3265 C 305.773 -5.16197 -0.796133 0
M  V30 3266 H 307.467 -2.98861 -0.179606 0
M  V30 3267 H 305.013 -1.43749 -0.0849464 0
M  V30 3268 H 306.966 -3.3212 -2.59373 0
M  V30 3269 H 305.69 -2.08087 -2.51728 0
M  V30 3270 H 304.349 -3.53801 -0.960247 0
M  V30 3271 H 303.997 -3.67688 -3.43241 0
M  V30 3272 H 303.697 -5.24675 -2.64556 0
M  V30 3273 H 305.221 -4.97654 -3.53798 0
M  V30 3274 H 306.635 -5.57271 -1.34618 0
M  V30 3275 H 305.032 -5.96471 -0.658928 0
M  V30 3276 H 306.102 -4.84473 0.203478 0
M  V30 3277 N 307.445 0.0818655 -1.57387 0
M  V30 3278 C 308.673 0.796108 -1.9097 0
M  V30 3279 C 309.088 1.71626 -0.786757 0
M  V30 3280 O 308.445 1.80908 0.240513 0
M  V30 3281 C 308.496 1.59829 -3.24248 0
M  V30 3282 O 308.217 0.715131 -4.32224 0
M  V30 3283 C 309.718 2.41442 -3.7178 0
M  V30 3284 H 306.938 0.22691 -0.631469 0
M  V30 3285 H 309.482 0.0551439 -2.04426 0
M  V30 3286 H 307.637 2.29163 -3.12351 0
M  V30 3287 H 308.051 1.27205 -5.08841 0
M  V30 3288 H 309.525 2.932 -4.67694 0
M  V30 3289 H 310.002 3.2051 -3.00283 0
M  V30 3290 H 310.608 1.77283 -3.86589 0
M  V30 3291 N 308.923 1.53595 0.353017 0
M  V30 3292 C 309.886 1.80232 1.41594 0
M  V30 3293 C 310.886 0.673081 1.46035 0
M  V30 3294 O 312.076 0.941335 1.46576 0
M  V30 3295 C 309.208 1.93578 2.80607 0
M  V30 3296 H 310.401 2.75174 1.19244 0
M  V30 3297 H 307.954 1.44864 0.586872 0
M  V30 3298 H 308.689 1.00746 3.08254 0
M  V30 3299 H 308.474 2.75724 2.78781 0
M  V30 3300 H 309.964 2.15735 3.57558 0
M  V30 3301 N 310.401 -0.613514 1.45168 0
M  V30 3302 C 311.812 -1.19539 1.43413 0
M  V30 3303 C 312.163 -1.95558 0.158632 0
M  V30 3304 O 311.288 -2.0335 -0.740119 0
M  V30 3305 C 311.883 -2.17445 2.59813 0
M  V30 3306 C 310.442 -2.71022 2.61197 0
M  V30 3307 C 309.589 -1.46323 2.35552 0
M  V30 3308 H 312.54 -0.403163 1.53494 0
M  V30 3309 H 312.561 -3.00373 2.33574 0
M  V30 3310 H 312.073 -1.62089 3.52631 0
M  V30 3311 H 310.174 -3.30332 1.7237 0
M  V30 3312 H 310.287 -3.15859 3.60236 0
M  V30 3313 H 308.651 -1.75072 1.84992 0
M  V30 3314 H 309.434 -0.92844 3.30507 0
M  V30 3315 N 311.879 -1.3236 -0.855495 0
M  V30 3316 C 312.842 -1.21164 -1.94556 0
M  V30 3317 C 313.842 -0.134908 -1.60233 0
M  V30 3318 O 315.032 -0.385249 -1.69887 0
M  V30 3319 C 312.164 -0.863192 -3.29791 0
M  V30 3320 H 313.357 -2.18038 -2.05911 0
M  V30 3321 H 310.91 -1.16179 -1.04557 0
M  V30 3322 H 311.645 0.103769 -3.24134 0
M  V30 3323 H 311.43 -1.64166 -3.56078 0
M  V30 3324 H 312.92 -0.809156 -4.09686 0
M  V30 3325 N 313.357 1.07166 -1.15556 0
M  V30 3326 C 314.768 1.6127 -0.940693 0
M  V30 3327 C 315.119 1.89251 0.517551 0
M  V30 3328 O 314.244 1.65937 1.38903 0
M  V30 3329 C 314.839 2.92993 -1.7012 0
M  V30 3330 C 313.398 3.43832 -1.53156 0
M  V30 3331 C 312.545 2.1786 -1.71558 0
M  V30 3332 H 315.496 0.90229 -1.30554 0
M  V30 3333 H 315.517 3.62007 -1.17181 0
M  V30 3334 H 315.029 2.72596 -2.76248 0
M  V30 3335 H 313.13 3.69307 -0.494294 0
M  V30 3336 H 313.243 4.19747 -2.30975 0
M  V30 3337 H 311.607 2.2765 -1.14225 0
M  V30 3338 H 312.39 1.99956 -2.79056 0
M  V30 3339 N 314.835 0.952656 1.25548 0
M  V30 3340 C 316.063 0.623496 1.97282 0
M  V30 3341 C 316.478 -0.803987 1.70826 0
M  V30 3342 O 315.835 -1.53755 0.983147 0
M  V30 3343 C 315.886 0.870209 3.5087 0
M  V30 3344 O 315.607 2.24156 3.76412 0
M  V30 3345 C 317.108 0.553164 4.39835 0
M  V30 3346 H 314.328 0.233931 0.628902 0
M  V30 3347 H 316.872 1.27649 1.59768 0
M  V30 3348 H 315.027 0.263652 3.86502 0
M  V30 3349 H 315.441 2.31021 4.70882 0
M  V30 3350 H 316.915 0.776342 5.46513 0
M  V30 3351 H 317.392 -0.512215 4.36203 0
M  V30 3352 H 317.998 1.13896 4.09766 0
M  V30 3353 N 316.313 -1.40141 0.720998 0
M  V30 3354 C 317.724 -1.83678 0.334553 0
M  V30 3355 C 318.075 -1.6027 -1.13173 0
M  V30 3356 O 317.2 -1.08643 -1.87152 0
M  V30 3357 C 317.795 -3.33437 0.600437 0
M  V30 3358 C 316.354 -3.75447 0.267642 0
M  V30 3359 C 315.501 -2.63296 0.870097 0
M  V30 3360 H 318.452 -1.29331 0.919732 0
M  V30 3361 H 318.473 -3.80269 -0.132517 0
M  V30 3362 H 317.985 -3.50442 1.66768 0
M  V30 3363 H 316.086 -3.64035 -0.794329 0
M  V30 3364 H 316.199 -4.73344 0.74042 0
M  V30 3365 H 314.563 -2.52954 0.297739 0
M  V30 3366 H 315.346 -2.83112 1.94172 0
M  V30 3367 N 317.792 -0.46758 -1.50504 0
M  V30 3368 C 319.203 -0.0116166 -1.86696 0
M  V30 3369 C 319.554 1.39202 -1.38265 0
M  V30 3370 O 318.679 2.0313 -0.746132 0
M  V30 3371 C 319.274 -0.0143044 -3.38797 0
M  V30 3372 C 317.833 0.386175 -3.74414 0
M  V30 3373 C 316.98 -0.401287 -2.74381 0
M  V30 3374 H 319.931 -0.682022 -1.43297 0
M  V30 3375 H 319.952 0.788641 -3.72237 0
M  V30 3376 H 319.464 -1.03602 -3.74016 0
M  V30 3377 H 317.565 1.41237 -3.44794 0
M  V30 3378 H 317.678 0.0899596 -4.79016 0
M  V30 3379 H 316.042 0.144536 -2.5429 0
M  V30 3380 H 316.825 -1.42244 -3.12444 0
M  V30 3381 N 319.27 1.56325 -0.20005 0
M  V30 3382 C 320.2 2.22318 0.713916 0
M  V30 3383 C 321.181 1.18788 1.21752 0
M  V30 3384 O 322.366 1.47309 1.26545 0
M  V30 3385 C 319.496 2.88639 1.93144 0
M  V30 3386 C 318.45 3.98457 1.56255 0
M  V30 3387 C 317.776 4.51967 2.85709 0
M  V30 3388 C 319.076 5.16612 0.768747 0
M  V30 3389 H 320.77 2.98952 0.163755 0
M  V30 3390 H 318.316 1.43792 0.0773219 0
M  V30 3391 H 320.269 3.33491 2.57608 0
M  V30 3392 H 318.993 2.09419 2.50621 0
M  V30 3393 H 317.652 3.54305 0.941471 0
M  V30 3394 H 317.3 3.69503 3.41287 0
M  V30 3395 H 317 5.26071 2.6177 0
M  V30 3396 H 318.524 4.99523 3.51154 0
M  V30 3397 H 319.938 5.57977 1.3166 0
M  V30 3398 H 318.335 5.96812 0.627286 0
M  V30 3399 H 319.405 4.84358 -0.229168 0
M  V30 3400 N 320.748 -0.0735177 1.57428 0
M  V30 3401 C 321.678 -1.0879 2.06608 0
M  V30 3402 C 322.659 -1.40473 0.959237 0
M  V30 3403 O 323.844 -1.5013 1.23185 0
M  V30 3404 C 320.974 -2.40183 2.50857 0
M  V30 3405 C 319.928 -2.22858 3.65402 0
M  V30 3406 C 319.254 -3.59619 3.957 0
M  V30 3407 C 320.554 -1.65123 4.95511 0
M  V30 3408 H 322.248 -0.678673 2.91607 0
M  V30 3409 H 319.794 -0.325013 1.40284 0
M  V30 3410 H 321.747 -3.11437 2.83874 0
M  V30 3411 H 320.471 -2.83083 1.62885 0
M  V30 3412 H 319.13 -1.54045 3.32664 0
M  V30 3413 H 318.778 -4.00086 3.04861 0
M  V30 3414 H 318.478 -3.48866 4.72828 0
M  V30 3415 H 320.002 -4.32306 4.31212 0
M  V30 3416 H 321.416 -2.26241 5.26771 0
M  V30 3417 H 319.813 -1.65071 5.7695 0
M  V30 3418 H 320.883 -0.612559 4.81015 0
M  V30 3419 N 322.226 -1.5378 -0.344866 0
M  V30 3420 C 323.472 -1.71216 -1.08687 0
M  V30 3421 C 323.805 -0.473281 -1.88345 0
M  V30 3422 O 323.08 0.52968 -1.87149 0
M  V30 3423 C 323.363 -2.97486 -2.02914 0
M  V30 3424 C 323.216 -4.31579 -1.26727 0
M  V30 3425 C 324.535 -3.19422 -3.0275 0
M  V30 3426 H 321.654 -0.62301 -0.393735 0
M  V30 3427 H 324.296 -1.8645 -0.365563 0
M  V30 3428 H 322.446 -2.84629 -2.64421 0
M  V30 3429 H 324.118 -4.56284 -0.67845 0
M  V30 3430 H 322.361 -4.30049 -0.569273 0
M  V30 3431 H 323.032 -5.16106 -1.95803 0
M  V30 3432 H 325.508 -3.316 -2.51357 0
M  V30 3433 H 324.384 -4.09169 -3.65885 0
M  V30 3434 H 324.645 -2.35656 -3.74057 0
M  V30 3435 N 323.704 0.605807 -1.45491 0
M  V30 3436 C 324.667 1.69836 -1.5391 0
M  V30 3437 C 325.667 1.55261 -0.418424 0
M  V30 3438 O 326.857 1.60296 -0.681965 0
M  V30 3439 C 323.989 3.09117 -1.43734 0
M  V30 3440 H 325.182 1.63738 -2.51257 0
M  V30 3441 H 322.735 0.821689 -1.32959 0
M  V30 3442 H 323.47 3.20791 -0.475788 0
M  V30 3443 H 323.255 3.21104 -2.25021 0
M  V30 3444 H 324.745 3.88696 -1.52661 0
M  V30 3445 N 325.182 1.32811 0.848464 0
M  V30 3446 C 326.112 1.24882 1.97299 0
M  V30 3447 C 327.093 0.131357 1.69592 0
M  V30 3448 O 328.278 0.319553 1.91553 0
M  V30 3449 C 325.408 0.97746 3.33261 0
M  V30 3450 C 324.362 2.05682 3.75338 0
M  V30 3451 C 323.688 1.63777 5.09 0
M  V30 3452 C 324.988 3.47254 3.90144 0
M  V30 3453 H 326.682 2.18966 2.04191 0
M  V30 3454 H 324.228 1.05413 0.981029 0
M  V30 3455 H 326.181 0.908513 4.1149 0
M  V30 3456 H 324.905 0.000980011 3.266 0
M  V30 3457 H 323.564 2.11603 2.99366 0
M  V30 3458 H 323.212 0.648569 4.98801 0
M  V30 3459 H 322.912 2.36 5.38124 0
M  V30 3460 H 324.436 1.5833 5.89715 0
M  V30 3461 H 325.85 3.43888 4.58709 0
M  V30 3462 H 324.247 4.1788 4.30693 0
M  V30 3463 H 325.317 3.86462 2.92874 0
M  V30 3464 N 326.66 -1.06551 1.16123 0
M  V30 3465 C 327.59 -2.15935 0.88851 0
M  V30 3466 C 328.571 -1.69306 -0.164135 0
M  V30 3467 O 329.756 -1.94193 -0.0167857 0
M  V30 3468 C 326.886 -3.45149 0.385942 0
M  V30 3469 C 325.84 -4.05271 1.3762 0
M  V30 3470 C 325.166 -5.29664 0.732137 0
M  V30 3471 C 326.466 -4.44355 2.74493 0
M  V30 3472 H 328.16 -2.39006 1.80323 0
M  V30 3473 H 325.706 -1.14866 0.868435 0
M  V30 3474 H 327.659 -4.21004 0.182647 0
M  V30 3475 H 326.383 -3.21689 -0.564274 0
M  V30 3476 H 325.042 -3.3147 1.56599 0
M  V30 3477 H 324.69 -5.02499 -0.224483 0
M  V30 3478 H 324.39 -5.70848 1.39307 0
M  V30 3479 H 325.914 -6.08218 0.538802 0
M  V30 3480 H 327.328 -5.11303 2.59311 0
M  V30 3481 H 325.725 -4.96515 3.37035 0
M  V30 3482 H 326.795 -3.55339 3.29943 0
M  V30 3483 N 328.138 -0.959301 -1.25041 0
M  V30 3484 C 329.378 -0.624343 -1.94631 0
M  V30 3485 C 329.742 0.82403 -1.73418 0
M  V30 3486 O 330.943 1.26881 -2.3697 0
M  V30 3487 C 329.214 -0.978805 -3.43736 0
M  V30 3488 S 330.773 -0.757127 -4.32219 0
M  V30 3489 H 327.591 -0.229327 -0.673001 0
M  V30 3490 H 330.193 -1.23447 -1.51595 0
M  V30 3491 H 328.897 -2.02997 -3.56679 0
M  V30 3492 H 328.428 -0.359117 -3.91757 0
M  V30 3493 H 330.443 0.369759 -4.9482 0
M  V30 3494 N 329.616 1.39756 -0.72842 0
M  V30 3495 C 330.546 2.33289 -0.0991354 0
M  V30 3496 C 331.527 1.53568 0.731489 0
M  V30 3497 O 332.712 1.81987 0.677807 0
M  V30 3498 C 329.842 3.3763 0.813834 0
M  V30 3499 C 328.796 4.2791 0.0878663 0
M  V30 3500 C 328.122 5.22894 1.11741 0
M  V30 3501 C 329.422 5.11314 -1.06563 0
M  V30 3502 H 331.116 2.86163 -0.880408 0
M  V30 3503 H 328.662 1.37591 -0.424819 0
M  V30 3504 H 330.615 4.0201 1.26355 0
M  V30 3505 H 329.339 2.83181 1.62715 0
M  V30 3506 H 327.998 3.65 -0.342159 0
M  V30 3507 H 327.646 4.64744 1.92412 0
M  V30 3508 H 327.346 5.84143 0.636477 0
M  V30 3509 H 328.87 5.90151 1.56697 0
M  V30 3510 H 330.284 5.69076 -0.694671 0
M  V30 3511 H 328.681 5.81671 -1.47577 0
M  V30 3512 H 329.751 4.46534 -1.89038 0
M  V30 3513 N 331.094 0.475555 1.50254 0
M  V30 3514 C 332.341 -0.0778919 2.0235 0
M  V30 3515 C 332.669 -1.39319 1.35722 0
M  V30 3516 O 331.924 -1.89888 0.473395 0
M  V30 3517 C 332.223 -0.305114 3.56095 0
M  V30 3518 C 331.889 0.92903 4.41225 0
M  V30 3519 C 330.551 1.26739 4.6421 0
M  V30 3520 C 332.903 1.75054 4.90923 0
M  V30 3521 C 330.231 2.42724 5.34137 0
M  V30 3522 C 332.583 2.9017 5.62125 0
M  V30 3523 C 331.247 3.24416 5.83362 0
M  V30 3524 H 330.517 -0.0285027 0.740452 0
M  V30 3525 H 333.164 0.630543 1.80821 0
M  V30 3526 H 331.469 -1.09584 3.76163 0
M  V30 3527 H 333.166 -0.747377 3.93974 0
M  V30 3528 H 329.756 0.655428 4.23559 0
M  V30 3529 H 333.94 1.50231 4.73016 0
M  V30 3530 H 329.196 2.69525 5.48786 0
M  V30 3531 H 333.37 3.54169 5.99614 0
M  V30 3532 H 330.997 4.14396 6.37323 0
M  V30 3533 N 332.573 -1.56217 0.208337 0
M  V30 3534 C 333.503 -2.22694 -0.702116 0
M  V30 3535 C 334.484 -1.19432 -1.2112 0
M  V30 3536 O 335.669 -1.47978 -1.25762 0
M  V30 3537 C 332.799 -2.8966 -1.9161 0
M  V30 3538 C 331.753 -3.9928 -1.5414 0
M  V30 3539 C 331.079 -4.53476 -2.83308 0
M  V30 3540 C 332.379 -5.17012 -0.741339 0
M  V30 3541 H 334.073 -2.99034 -0.147898 0
M  V30 3542 H 331.619 -1.43831 -0.0696951 0
M  V30 3543 H 333.572 -3.34852 -2.55836 0
M  V30 3544 H 332.296 -2.10746 -2.49507 0
M  V30 3545 H 330.955 -3.54799 -0.922668 0
M  V30 3546 H 330.603 -3.71308 -3.39322 0
M  V30 3547 H 330.303 -5.27451 -2.58976 0
M  V30 3548 H 331.827 -5.01378 -3.485 0
M  V30 3549 H 333.241 -5.58667 -1.28699 0
M  V30 3550 H 331.638 -5.97137 -0.595627 0
M  V30 3551 H 332.708 -4.8423 0.254851 0
M  V30 3552 N 334.051 0.0651679 -1.57465 0
M  V30 3553 C 335.467 0.420105 -1.53972 0
M  V30 3554 C 335.667 1.78782 -0.929474 0
M  V30 3555 O 334.723 2.46771 -0.534839 0
M  V30 3556 C 336.036 0.355084 -2.98596 0
M  V30 3557 C 337.584 0.434792 -3.09965 0
M  V30 3558 C 338.059 0.399609 -4.56253 0
M  V30 3559 N 339.55 0.459488 -4.60915 0
M  V30 3560 C 340.285 0.454584 -5.71595 0
M  V30 3561 N 339.781 0.404102 -6.9162 0
M  V30 3562 N 341.574 0.501635 -5.59857 0
M  V30 3563 H 333.725 -0.830328 -1.95498 0
M  V30 3564 H 335.988 -0.312244 -0.895102 0
M  V30 3565 H 335.694 -0.583357 -3.46828 0
M  V30 3566 H 335.568 1.16275 -3.58831 0
M  V30 3567 H 337.955 1.36366 -2.61703 0
M  V30 3568 H 338.036 -0.40157 -2.52628 0
M  V30 3569 H 337.68 -0.525436 -5.05175 0
M  V30 3570 H 337.61 1.25359 -5.11461 0
M  V30 3571 H 340.101 0.502482 -3.74544 0
M  V30 3572 H 340.414 0.404468 -7.71741 0
M  V30 3573 H 338.759 0.37069 -6.94011 0
M  V30 3574 H 341.95 0.538812 -4.64989 0
M  V30 3575 H 342.123 0.494345 -6.46112 0
M  V30 3576 N 335.529 1.53961 0.336706 0
M  V30 3577 C 336.461 1.78751 1.4346 0
M  V30 3578 C 337.474 0.669019 1.48418 0
M  V30 3579 O 338.663 0.945884 1.51378 0
M  V30 3580 C 335.763 1.87844 2.82078 0
M  V30 3581 C 334.936 3.17854 3.00479 0
M  V30 3582 C 333.995 3.17816 4.19379 0
M  V30 3583 O 333.021 3.91511 4.13168 0
M  V30 3584 N 334.223 2.40669 5.2826 0
M  V30 3585 H 336.988 2.73493 1.22563 0
M  V30 3586 H 334.549 1.53096 0.526625 0
M  V30 3587 H 336.541 1.85261 3.59806 0
M  V30 3588 H 335.111 1.00257 2.96086 0
M  V30 3589 H 334.331 3.33504 2.10163 0
M  V30 3590 H 335.619 4.03718 3.0966 0
M  V30 3591 H 335.017 1.8036 5.36178 0
M  V30 3592 H 333.574 2.43877 6.04456 0
M  V30 3593 N 337.007 -0.598083 1.45811 0
M  V30 3594 C 337.937 -1.71873 1.58057 0
M  V30 3595 C 338.918 -1.64533 0.431615 0
M  V30 3596 O 340.103 -1.82787 0.65595 0
M  V30 3597 C 337.233 -3.10495 1.55597 0
M  V30 3598 C 336.187 -3.32654 2.69305 0
M  V30 3599 C 335.513 -4.71646 2.51902 0
M  V30 3600 C 336.813 -3.21981 4.11248 0
M  V30 3601 H 338.507 -1.61881 2.51863 0
M  V30 3602 H 336.053 -0.777372 1.21214 0
M  V30 3603 H 338.006 -3.88699 1.6276 0
M  V30 3604 H 336.73 -3.2135 0.583255 0
M  V30 3605 H 335.389 -2.56843 2.61586 0
M  V30 3606 H 335.037 -4.79246 1.52748 0
M  V30 3607 H 334.737 -4.87426 3.2816 0
M  V30 3608 H 336.261 -5.52038 2.60933 0
M  V30 3609 H 337.675 -3.90049 4.20161 0
M  V30 3610 H 336.072 -3.49289 4.87972 0
M  V30 3611 H 337.142 -2.1928 4.32486 0
M  V30 3612 N 338.485 -1.33259 -0.841409 0
M  V30 3613 C 339.448 -1.23221 -1.9326 0
M  V30 3614 C 340.448 -0.151895 -1.60081 0
M  V30 3615 O 341.638 -0.403246 -1.69468 0
M  V30 3616 C 338.77 -0.898123 -3.28856 0
M  V30 3617 H 339.963 -2.2021 -2.03587 0
M  V30 3618 H 337.516 -1.17281 -1.03319 0
M  V30 3619 H 338.251 0.0693841 -3.24226 0
M  V30 3620 H 338.036 -1.67934 -3.54317 0
M  V30 3621 H 339.526 -0.852563 -4.08805 0
M  V30 3622 N 339.963 1.05934 -1.16686 0
M  V30 3623 C 341.211 1.78447 -0.948744 0
M  V30 3624 C 341.532 1.87813 0.524523 0
M  V30 3625 O 340.802 1.38945 1.38098 0
M  V30 3626 H 339.382 0.660971 -0.348033 0
M  V30 3627 H 342.044 1.27947 -1.47022 0
M  V30 3628 H 341.14 2.80394 -1.37061 0
M  V30 3629 N 341.441 0.965919 1.2453 0
M  V30 3630 C 342.404 0.499547 2.2369 0
M  V30 3631 C 343.404 -0.40294 1.5567 0
M  V30 3632 O 344.594 -0.19865 1.73064 0
M  V30 3633 C 341.726 -0.276792 3.39774 0
M  V30 3634 H 342.919 1.37613 2.66463 0
M  V30 3635 H 340.472 0.750324 1.37112 0
M  V30 3636 H 341.207 -1.17055 3.02438 0
M  V30 3637 H 340.992 0.370826 3.90343 0
M  V30 3638 H 342.482 -0.592175 4.1338 0
M  V30 3639 N 342.919 -1.39368 0.735821 0
M  V30 3640 C 343.852 -2.28155 0.0451175 0
M  V30 3641 C 344.83 -1.44433 -0.746852 0
M  V30 3642 O 346.014 -1.73823 -0.729237 0
M  V30 3643 C 343.141 -3.253 -0.943266 0
M  V30 3644 C 342.187 -4.25826 -0.239685 0
M  V30 3645 S 343.02 -5.25166 1.04693 0
M  V30 3646 C 344.176 -6.2587 0.0611639 0
M  V30 3647 H 344.409 -2.86388 0.79807 0
M  V30 3648 H 341.942 -1.45104 0.527653 0
M  V30 3649 H 343.9 -3.81789 -1.50824 0
M  V30 3650 H 342.561 -2.66085 -1.66906 0
M  V30 3651 H 341.754 -4.94229 -0.987596 0
M  V30 3652 H 341.356 -3.73141 0.253274 0
M  V30 3653 H 343.648 -6.73007 -0.778941 0
M  V30 3654 H 344.591 -7.04508 0.712362 0
M  V30 3655 H 344.999 -5.63639 -0.311602 0
M  V30 3656 N 344.397 -0.483516 -1.5 0
M  V30 3657 C 345.36 0.292965 -2.2732 0
M  V30 3658 C 346.36 0.909499 -1.32608 0
M  V30 3659 O 347.55 0.776745 -1.55924 0
M  V30 3660 C 344.682 1.41854 -3.09984 0
M  V30 3661 H 345.875 -0.385289 -2.97415 0
M  V30 3662 H 343.428 -0.237942 -1.54478 0
M  V30 3663 H 344.163 2.13148 -2.44414 0
M  V30 3664 H 343.948 0.982114 -3.79601 0
M  V30 3665 H 345.438 1.96597 -3.68429 0
M  V30 3666 N 345.875 1.56104 -0.216619 0
M  V30 3667 C 347.105 2.02269 0.420802 0
M  V30 3668 C 347.513 1.09575 1.5424 0
M  V30 3669 O 346.856 0.0967308 1.83445 0
M  V30 3670 C 346.918 3.44784 1.01806 0
M  V30 3671 C 346.582 4.56988 0.0325154 0
M  V30 3672 C 347.579 5.14225 -0.766055 0
M  V30 3673 C 345.264 5.02228 -0.0848092 0
M  V30 3674 C 347.258 6.15169 -1.6687 0
M  V30 3675 C 344.945 6.03011 -0.990994 0
M  V30 3676 C 345.943 6.59357 -1.78149 0
M  V30 3677 O 345.631 7.58179 -2.67245 0
M  V30 3678 H 345.363 0.667353 0.107776 0
M  V30 3679 H 347.917 2.02747 -0.329034 0
M  V30 3680 H 346.147 3.41359 1.81689 0
M  V30 3681 H 347.836 3.74626 1.56237 0
M  V30 3682 H 348.602 4.80126 -0.685836 0
M  V30 3683 H 344.481 4.58054 0.520349 0
M  V30 3684 H 348.025 6.59076 -2.28615 0
M  V30 3685 H 343.922 6.36532 -1.07225 0
M  V30 3686 H 344.69 7.75682 -2.61265 0
M  V30 3687 N 347.353 -0.0568162 1.57498 0
M  V30 3688 C 348.283 -1.06593 2.0775 0
M  V30 3689 C 349.264 -1.39448 0.974082 0
M  V30 3690 O 350.449 -1.48815 1.24771 0
M  V30 3691 C 347.579 -2.37509 2.5339 0
M  V30 3692 C 346.533 -2.1897 3.67745 0
M  V30 3693 C 345.859 -3.55402 3.99492 0
M  V30 3694 C 347.159 -1.59859 4.97235 0
M  V30 3695 H 348.853 -0.647706 2.9231 0
M  V30 3696 H 346.399 -0.310116 1.40621 0
M  V30 3697 H 348.352 -3.08409 2.87162 0
M  V30 3698 H 347.076 -2.8134 1.65878 0
M  V30 3699 H 345.735 -1.50508 3.3428 0
M  V30 3700 H 345.383 -3.9683 3.09088 0
M  V30 3701 H 345.083 -3.43831 4.76502 0
M  V30 3702 H 346.607 -4.27708 4.35773 0
M  V30 3703 H 348.021 -2.20642 5.29141 0
M  V30 3704 H 346.418 -1.58942 5.78669 0
M  V30 3705 H 347.488 -0.561506 4.81638 0
M  V30 3706 N 348.832 -1.54138 -0.328536 0
M  V30 3707 C 350.08 -1.71765 -1.06496 0
M  V30 3708 C 350.401 -0.49149 -1.88704 0
M  V30 3709 O 349.671 0.494539 -1.89555 0
M  V30 3710 H 348.251 -0.633295 -0.396164 0
M  V30 3711 H 350.913 -1.91429 -0.366176 0
M  V30 3712 H 350.009 -2.5951 -1.73381 0
M  V30 3713 N 350.31 0.590341 -1.46126 0
M  V30 3714 C 351.273 1.68194 -1.55703 0
M  V30 3715 C 352.273 1.54808 -0.434868 0
M  V30 3716 O 353.463 1.59564 -0.698928 0
M  V30 3717 C 350.595 3.07575 -1.47005 0
M  V30 3718 H 351.788 1.61064 -2.52979 0
M  V30 3719 H 349.341 0.807541 -1.33823 0
M  V30 3720 H 350.076 3.20268 -0.509785 0
M  V30 3721 H 349.861 3.187 -2.28414 0
M  V30 3722 H 351.351 3.87055 -1.56776 0
M  V30 3723 N 351.788 1.33704 0.83433 0
M  V30 3724 C 353.204 1.13137 1.12571 0
M  V30 3725 C 353.404 -0.0747261 2.01361 0
M  V30 3726 O 352.46 -0.753647 2.4099 0
M  V30 3727 C 353.773 2.42105 1.78342 0
M  V30 3728 C 355.321 2.48054 1.90888 0
M  V30 3729 C 355.796 3.76995 2.60075 0
M  V30 3730 N 357.287 3.78092 2.67584 0
M  V30 3731 C 358.022 4.74574 3.21818 0
M  V30 3732 N 357.518 5.81434 3.76705 0
M  V30 3733 N 359.311 4.62044 3.20112 0
M  V30 3734 H 351.462 2.11 0.243489 0
M  V30 3735 H 353.725 0.932532 0.17055 0
M  V30 3736 H 353.431 3.30391 1.20561 0
M  V30 3737 H 353.305 2.54594 2.7832 0
M  V30 3738 H 355.692 1.60215 2.47821 0
M  V30 3739 H 355.773 2.39502 0.898459 0
M  V30 3740 H 355.417 4.65219 2.03799 0
M  V30 3741 H 355.347 3.82825 3.61597 0
M  V30 3742 H 357.838 3.00865 2.28667 0
M  V30 3743 H 358.151 6.51084 4.16305 0
M  V30 3744 H 356.496 5.85163 3.7498 0
M  V30 3745 H 359.687 3.77716 2.76493 0
M  V30 3746 H 359.86 5.37406 3.62076 0
M  V30 3747 N 353.266 -1.05314 1.17247 0
M  V30 3748 C 354.514 -1.77941 0.958194 0
M  V30 3749 C 354.835 -1.88089 -0.514556 0
M  V30 3750 O 354.105 -1.39676 -1.37359 0
M  V30 3751 H 352.685 -0.659116 0.351533 0
M  V30 3752 H 355.347 -1.27166 1.47699 0
M  V30 3753 H 354.443 -2.79663 1.38546 0
M  V30 3754 N 354.744 -0.972509 -1.24016 0
M  V30 3755 C 355.674 -0.525548 -2.27509 0
M  V30 3756 C 356.655 0.437262 -1.64384 0
M  V30 3757 O 357.84 0.332343 -1.91335 0
M  V30 3758 C 354.97 0.180448 -3.46831 0
M  V30 3759 C 353.924 -0.698859 -4.22256 0
M  V30 3760 C 353.25 0.138903 -5.3452 0
M  V30 3761 C 354.55 -1.98582 -4.83076 0
M  V30 3762 H 356.244 -1.39058 -2.65148 0
M  V30 3763 H 353.79 -0.67009 -1.27459 0
M  V30 3764 H 355.743 0.504387 -4.18371 0
M  V30 3765 H 354.467 1.07987 -3.08231 0
M  V30 3766 H 353.126 -1.00614 -3.52523 0
M  V30 3767 H 352.774 1.03862 -4.9216 0
M  V30 3768 H 352.474 -0.446259 -5.85903 0
M  V30 3769 H 353.998 0.457404 -6.08884 0
M  V30 3770 H 355.412 -1.72715 -5.46665 0
M  V30 3771 H 353.809 -2.5181 -5.44713 0
M  V30 3772 H 354.879 -2.67769 -4.04262 0
M  V30 3773 N 356.222 1.38976 -0.743202 0
M  V30 3774 C 357.468 2.0064 -0.295189 0
M  V30 3775 C 357.801 1.5885 1.11716 0
M  V30 3776 O 357.076 0.821181 1.76315 0
M  V30 3777 C 357.359 3.578 -0.406318 0
M  V30 3778 C 357.212 4.09586 -1.85903 0
M  V30 3779 C 358.531 4.39616 0.206439 0
M  V30 3780 H 355.65 0.728935 -0.108733 0
M  V30 3781 H 358.292 1.65067 -0.940897 0
M  V30 3782 H 356.442 3.88235 0.143419 0
M  V30 3783 H 358.114 3.89837 -2.46627 0
M  V30 3784 H 356.357 3.6284 -2.3776 0
M  V30 3785 H 357.028 5.18708 -1.888 0
M  V30 3786 H 359.504 4.15273 -0.262283 0
M  V30 3787 H 358.38 5.48812 0.0983819 0
M  V30 3788 H 358.641 4.22754 1.2935 0
M  V30 3789 N 357.7 0.491464 1.49741 0
M  V30 3790 C 358.65 -0.311086 2.25868 0
M  V30 3791 C 359.634 -0.943857 1.30308 0
M  V30 3792 O 360.826 -0.853035 1.55088 0
M  V30 3793 C 357.955 -1.38059 3.14316 0
M  V30 3794 C 357.041 -0.754541 4.17334 0
M  V30 3795 N 357.432 0.137216 5.05614 0
M  V30 3796 C 355.73 -1.01621 4.34269 0
M  V30 3797 C 356.431 0.494614 5.79593 0
M  V30 3798 N 355.407 -0.135169 5.43432 0
M  V30 3799 H 359.209 0.37555 2.91491 0
M  V30 3800 H 356.723 0.306917 1.59473 0
M  V30 3801 H 358.72 -1.96891 3.67477 0
M  V30 3802 H 357.38 -2.06901 2.50244 0
M  V30 3803 H 358.391 0.50741 5.15408 0
M  V30 3804 H 355.068 -1.69808 3.81407 0
M  V30 3805 H 356.458 1.2236 6.60665 0
M  V30 3806 N 359.178 -1.55987 0.224894 0
M  V30 3807 C 360.594 -1.59066 -0.130426 0
M  V30 3808 C 360.794 -1.24176 -1.5869 0
M  V30 3809 O 359.85 -0.978592 -2.32766 0
M  V30 3810 C 361.163 -3.00042 0.198883 0
M  V30 3811 C 362.711 -3.1268 0.141391 0
M  V30 3812 C 363.186 -4.55839 0.444422 0
M  V30 3813 N 364.677 -4.6152 0.394115 0
M  V30 3814 C 365.412 -5.70231 0.602038 0
M  V30 3815 N 364.908 -6.87291 0.871914 0
M  V30 3816 N 366.701 -5.59555 0.534245 0
M  V30 3817 H 358.852 -1.76941 1.17497 0
M  V30 3818 H 361.115 -0.822604 0.471197 0
M  V30 3819 H 360.821 -3.30234 1.2099 0
M  V30 3820 H 360.695 -3.74075 -0.484535 0
M  V30 3821 H 363.082 -2.82283 -0.860265 0
M  V30 3822 H 363.163 -2.40969 0.858335 0
M  V30 3823 H 362.807 -4.86954 1.44353 0
M  V30 3824 H 362.737 -5.2578 -0.293752 0
M  V30 3825 H 365.228 -3.77405 0.193356 0
M  V30 3826 H 365.541 -7.66058 1.01858 0
M  V30 3827 H 363.886 -6.89028 0.909145 0
M  V30 3828 H 367.077 -4.6698 0.323612 0
M  V30 3829 H 367.25 -6.44211 0.699693 0
M  V30 3830 N 360.656 0.0484629 -1.57525 0
M  V30 3831 C 361.933 0.777447 -1.79486 0
M  V30 3832 C 362.313 1.94597 -0.818251 0
M  V30 3833 O 361.661 2.28047 0.143767 0
M  V30 3834 C 361.871 1.22864 -3.26658 0
M  V30 3835 C 363.219 1.65251 -3.91123 0
M  V30 3836 O 364.243 1.32372 -3.3069 0
M  V30 3837 O 363.102 2.26207 -4.97486 0
M  V30 3838 H 360.196 0.374357 -0.737419 0
M  V30 3839 H 362.742 0.0267359 -1.69679 0
M  V30 3840 H 361.514 0.393589 -3.89316 0
M  V30 3841 H 361.137 2.03996 -3.41279 0
M  V30 3842 N 362.134 1.5431 0.320358 0
M  V30 3843 C 363.064 1.86912 1.3995 0
M  V30 3844 C 364.045 0.726211 1.53819 0
M  V30 3845 O 365.23 0.980233 1.67646 0
M  V30 3846 C 362.36 2.09932 2.7667 0
M  V30 3847 C 361.314 3.25776 2.77586 0
M  V30 3848 C 360.64 3.34173 4.17412 0
M  V30 3849 C 361.94 4.6335 2.41048 0
M  V30 3850 H 363.634 2.77292 1.12914 0
M  V30 3851 H 361.18 1.33421 0.541738 0
M  V30 3852 H 363.133 2.31324 3.52232 0
M  V30 3853 H 361.857 1.16304 3.0519 0
M  V30 3854 H 360.516 3.04276 2.04479 0
M  V30 3855 H 360.164 2.38098 4.43078 0
M  V30 3856 H 359.864 4.12033 4.18931 0
M  V30 3857 H 361.388 3.57803 4.94782 0
M  V30 3858 H 362.802 4.84602 3.06324 0
M  V30 3859 H 361.199 5.43782 2.53813 0
M  V30 3860 H 362.269 4.65381 1.36193 0
M  V30 3861 N 363.613 -0.582584 1.46437 0
M  V30 3862 C 364.576 -1.67366 1.56592 0
M  V30 3863 C 365.576 -1.54575 0.443072 0
M  V30 3864 O 366.766 -1.59191 0.707381 0
M  V30 3865 C 363.898 -3.06791 1.48634 0
M  V30 3866 H 365.091 -1.5972 2.5383 0
M  V30 3867 H 362.644 -0.800432 1.34249 0
M  V30 3868 H 363.379 -3.19993 0.526763 0
M  V30 3869 H 363.164 -3.17484 2.30101 0
M  V30 3870 H 364.654 -3.86218 1.58826 0
M  V30 3871 N 365.091 -1.34144 -0.827227 0
M  V30 3872 C 366.319 -1.29325 -1.61501 0
M  V30 3873 C 366.734 0.13354 -1.88327 0
M  V30 3874 O 366.091 1.0793 -1.47164 0
M  V30 3875 C 366.142 -2.07746 -2.95844 0
M  V30 3876 O 365.863 -3.4486 -2.70191 0
M  V30 3877 C 367.364 -2.10273 -3.90256 0
M  V30 3878 H 364.584 -0.445069 -0.50215 0
M  V30 3879 H 367.128 -1.76693 -1.02955 0
M  V30 3880 H 365.283 -1.6403 -3.5096 0
M  V30 3881 H 365.697 -3.85345 -3.55822 0
M  V30 3882 H 367.171 -2.69575 -4.81698 0
M  V30 3883 H 367.648 -1.096 -4.25305 0
M  V30 3884 H 368.254 -2.54059 -3.41078 0
M  V30 3885 N 366.569 1.04691 -1.17803 0
M  V30 3886 C 367.985 1.29963 -0.926379 0
M  V30 3887 C 368.185 1.97251 0.411635 0
M  V30 3888 O 367.241 2.24922 1.14744 0
M  V30 3889 C 368.554 2.16447 -2.08737 0
M  V30 3890 C 370.102 2.29814 -2.12496 0
M  V30 3891 C 370.577 3.19661 -3.27995 0
M  V30 3892 N 372.068 3.27247 -3.27816 0
M  V30 3893 C 372.803 3.96906 -4.13827 0
M  V30 3894 N 372.299 4.6895 -5.09959 0
M  V30 3895 N 374.092 3.93122 -4.01761 0
M  V30 3896 H 366.243 0.594182 -2.0392 0
M  V30 3897 H 368.506 0.324649 -0.890678 0
M  V30 3898 H 368.212 1.74304 -3.05469 0
M  V30 3899 H 368.086 3.17103 -2.04268 0
M  V30 3900 H 370.473 2.71196 -1.16347 0
M  V30 3901 H 370.554 1.2877 -2.21025 0
M  V30 3902 H 370.198 2.78991 -4.24413 0
M  V30 3903 H 370.128 4.20722 -3.16703 0
M  V30 3904 H 372.619 2.75921 -2.58217 0
M  V30 3905 H 372.932 5.19679 -5.71974 0
M  V30 3906 H 371.277 4.67875 -5.13924 0
M  V30 3907 H 374.468 3.35967 -3.2595 0
M  V30 3908 H 374.641 4.47139 -4.6901 0
M  V30 3909 N 368.047 0.979072 1.23499 0
M  V30 3910 C 368.995 0.510604 2.26926 0
M  V30 3911 C 369.989 -0.431691 1.63807 0
M  V30 3912 O 371.195 -0.30573 1.77385 0
M  V30 3913 H 367.57 0.146688 0.737554 0
M  V30 3914 H 369.541 1.39466 2.63803 0
M  V30 3915 C 368.29 -0.172658 3.47271 0
M  V30 3916 H 367.613 0.543331 3.96091 0
M  V30 3917 H 369.053 -0.464101 4.21452 0
M  V30 3918 C 367.512 -1.40345 3.06276 0
M  V30 3919 O 368.042 -2.49978 3.14442 0
M  V30 3920 N 366.248 -1.27362 2.61203 0
M  V30 3921 H 365.795 -0.381584 2.54758 0
M  V30 3922 H 365.753 -2.09822 2.34141 0
M  V30 3923 N 369.525 -1.3858 0.750561 0
M  V30 3924 C 370.455 -2.33102 0.136237 0
M  V30 3925 C 371.436 -1.54713 -0.706965 0
M  V30 3926 O 372.621 -1.83043 -0.648769 0
M  V30 3927 C 369.751 -3.38882 -0.760017 0
M  V30 3928 C 368.705 -4.27995 -0.0197785 0
M  V30 3929 C 368.031 -5.24605 -1.03408 0
M  V30 3930 C 369.331 -5.09554 1.14684 0
M  V30 3931 H 371.025 -2.84726 0.925822 0
M  V30 3932 H 368.571 -1.36898 0.446654 0
M  V30 3933 H 370.524 -4.0397 -1.19943 0
M  V30 3934 H 369.248 -2.85734 -1.58189 0
M  V30 3935 H 367.907 -3.64409 0.400184 0
M  V30 3936 H 367.555 -4.67746 -1.84994 0
M  V30 3937 H 367.255 -5.85081 -0.543464 0
M  V30 3938 H 368.779 -5.9257 -1.47288 0
M  V30 3939 H 370.193 -5.67899 0.785118 0
M  V30 3940 H 368.59 -5.7925 1.56812 0
M  V30 3941 H 369.66 -4.4347 1.96118 0
M  V30 3942 N 371.003 -0.499398 -1.49478 0
M  V30 3943 C 371.933 0.269244 -2.31943 0
M  V30 3944 C 372.914 0.964054 -1.40143 0
M  V30 3945 O 374.099 0.955767 -1.69052 0
M  V30 3946 C 371.229 1.33504 -3.20615 0
M  V30 3947 C 370.183 0.760202 -4.21195 0
M  V30 3948 C 369.509 1.9264 -4.98792 0
M  V30 3949 C 370.809 -0.247661 -5.21712 0
M  V30 3950 H 372.503 -0.419082 -2.96452 0
M  V30 3951 H 370.049 -0.202988 -1.42562 0
M  V30 3952 H 372.002 1.88048 -3.77115 0
M  V30 3953 H 370.726 2.05253 -2.54045 0
M  V30 3954 H 369.385 0.23653 -3.65836 0
M  V30 3955 H 369.033 2.63154 -4.28671 0
M  V30 3956 H 368.733 1.54785 -5.66847 0
M  V30 3957 H 370.257 2.4762 -5.58137 0
M  V30 3958 H 371.671 0.209579 -5.72917 0
M  V30 3959 H 370.068 -0.541962 -5.97648 0
M  V30 3960 H 371.138 -1.16409 -4.7072 0
M  V30 3961 N 372.481 1.55866 -0.233164 0
M  V30 3962 C 373.411 2.23783 0.666599 0
M  V30 3963 C 374.392 1.21343 1.19205 0
M  V30 3964 O 375.577 1.4996 1.23392 0
M  V30 3965 C 372.707 2.92671 1.86978 0
M  V30 3966 C 371.661 4.01682 1.47768 0
M  V30 3967 C 370.987 4.57926 2.76058 0
M  V30 3968 C 372.287 5.18126 0.658993 0
M  V30 3969 H 373.981 2.99232 0.100306 0
M  V30 3970 H 371.527 1.43924 0.046804 0
M  V30 3971 H 373.48 3.3888 2.50476 0
M  V30 3972 H 372.204 2.14688 2.46123 0
M  V30 3973 H 370.863 3.56222 0.866106 0
M  V30 3974 H 370.511 3.76659 3.33372 0
M  V30 3975 H 370.211 5.31505 2.50552 0
M  V30 3976 H 371.735 5.06859 3.40479 0
M  V30 3977 H 373.149 5.60644 1.19795 0
M  V30 3978 H 371.546 5.98009 0.500552 0
M  V30 3979 H 372.616 4.83763 -0.331856 0
M  V30 3980 N 373.959 -0.0401083 1.57549 0
M  V30 3981 C 374.922 -1.02871 2.04817 0
M  V30 3982 C 375.922 -1.29708 0.950388 0
M  V30 3983 O 377.112 -1.24897 1.21435 0
M  V30 3984 C 374.244 -2.36443 2.45576 0
M  V30 3985 H 375.437 -0.620631 2.93408 0
M  V30 3986 H 372.99 -0.286667 1.53649 0
M  V30 3987 H 373.725 -2.82021 1.60108 0
M  V30 3988 H 373.51 -2.18296 3.25713 0
M  V30 3989 H 375 -3.07441 2.82612 0
M  V30 3990 N 375.437 -1.54477 -0.31217 0
M  V30 3991 C 376.662 -1.77526 -1.07235 0
M  V30 3992 C 377.087 -0.527775 -1.80544 0
M  V30 3993 O 376.445 0.52121 -1.73646 0
M  V30 3994 C 376.493 -2.97535 -2.03728 0
M  V30 3995 O 375.597 -2.69878 -3.11833 0
M  V30 3996 H 374.938 -0.58792 -0.30862 0
M  V30 3997 H 377.468 -2.01532 -0.352993 0
M  V30 3998 H 377.478 -3.25198 -2.46395 0
M  V30 3999 H 376.153 -3.87996 -1.49774 0
M  V30 4000 H 374.73 -2.53199 -2.7376 0
M  V30 4001 N 376.915 0.57481 -1.46744 0
M  V30 4002 C 378.326 1.15695 -1.46532 0
M  V30 4003 C 378.677 1.95068 -0.210425 0
M  V30 4004 O 377.802 2.05241 0.685944 0
M  V30 4005 C 378.397 2.1048 -2.65487 0
M  V30 4006 C 376.956 2.64002 -2.68291 0
M  V30 4007 C 376.103 1.40026 -2.39349 0
M  V30 4008 H 379.054 0.362325 -1.54509 0
M  V30 4009 H 379.075 2.94074 -2.41455 0
M  V30 4010 H 378.587 1.52683 -3.56805 0
M  V30 4011 H 376.688 3.25646 -1.81067 0
M  V30 4012 H 376.801 3.06197 -3.68483 0
M  V30 4013 H 375.165 1.70106 -1.89568 0
M  V30 4014 H 375.948 0.840485 -3.32852 0
M  V30 4015 N 378.394 1.34581 0.820102 0
M  V30 4016 C 379.81 1.14325 1.11364 0
M  V30 4017 C 380.01 -0.0533648 2.01429 0
M  V30 4018 O 379.066 -0.728044 2.41776 0
M  V30 4019 C 380.379 2.43983 1.75764 0
M  V30 4020 C 381.927 2.50065 1.88246 0
M  V30 4021 C 382.402 3.79732 2.56061 0
M  V30 4022 N 383.893 3.80908 2.63558 0
M  V30 4023 C 384.628 4.77961 3.16766 0
M  V30 4024 N 384.124 5.85397 3.70517 0
M  V30 4025 N 385.917 4.65413 3.15194 0
M  V30 4026 H 378.068 2.11246 0.221096 0
M  V30 4027 H 380.331 0.934289 0.160649 0
M  V30 4028 H 380.037 3.31651 1.1705 0
M  V30 4029 H 379.911 2.57531 2.75604 0
M  V30 4030 H 382.298 1.62834 2.46108 0
M  V30 4031 H 382.379 2.40442 0.873006 0
M  V30 4032 H 382.023 4.67354 1.98853 0
M  V30 4033 H 381.953 3.86639 3.57516 0
M  V30 4034 H 384.444 3.03274 2.25463 0
M  V30 4035 H 384.757 6.55463 4.09376 0
M  V30 4036 H 383.102 5.89107 3.68752 0
M  V30 4037 H 386.293 3.80627 2.72471 0
M  V30 4038 H 386.466 5.41216 3.56356 0
M  V30 4039 N 379.872 -1.04064 1.18357 0
M  V30 4040 C 381.1 -1.80916 1.00384 0
M  V30 4041 C 381.515 -1.83414 -0.447738 0
M  V30 4042 O 380.872 -1.26962 -1.31099 0
M  V30 4043 C 380.923 -3.26516 1.55144 0
M  V30 4044 O 380.644 -3.2424 2.94618 0
M  V30 4045 C 382.145 -4.20013 1.41789 0
M  V30 4046 H 379.365 -0.569728 0.354474 0
M  V30 4047 H 381.909 -1.31151 1.56906 0
M  V30 4048 H 380.064 -3.73512 1.02798 0
M  V30 4049 H 380.478 -4.15452 3.20156 0
M  V30 4050 H 381.952 -5.20111 1.84901 0
M  V30 4051 H 382.429 -4.37667 0.36661 0
M  V30 4052 H 383.035 -3.78881 1.93207 0
M  V30 4053 N 381.35 -0.985608 -1.22978 0
M  V30 4054 C 382.599 -0.652881 -1.90841 0
M  V30 4055 C 382.912 0.817842 -1.77681 0
M  V30 4056 O 384.118 1.26185 -2.40395 0
M  V30 4057 C 382.574 -1.11717 -3.42122 0
M  V30 4058 C 382.182 -2.6126 -3.63933 0
M  V30 4059 C 383.926 -0.85843 -4.1573 0
M  V30 4060 C 381.833 -3.0133 -5.08876 0
M  V30 4061 H 380.763 -0.240491 -0.714619 0
M  V30 4062 H 383.414 -1.1942 -1.39324 0
M  V30 4063 H 381.796 -0.504027 -3.92779 0
M  V30 4064 H 382.97 -3.27858 -3.23799 0
M  V30 4065 H 381.285 -2.84937 -3.03644 0
M  V30 4066 H 383.882 -1.13359 -5.22546 0
M  V30 4067 H 384.225 0.205461 -4.15793 0
M  V30 4068 H 384.758 -1.43341 -3.71077 0
M  V30 4069 H 381.497 -4.06864 -5.13947 0
M  V30 4070 H 381.017 -2.3943 -5.49939 0
M  V30 4071 H 382.696 -2.92224 -5.77247 0
M  V30 4072 N 382.828 1.3818 -0.7579 0
M  V30 4073 C 383.775 2.30416 -0.133057 0
M  V30 4074 C 384.745 1.50398 0.704957 0
M  V30 4075 O 385.93 1.79014 0.660192 0
M  V30 4076 C 383.07 3.36834 0.750813 0
M  V30 4077 C 382.183 4.31879 -0.102297 0
M  V30 4078 C 381.318 5.25368 0.784979 0
M  V30 4079 C 380.357 6.12058 -0.0715046 0
M  V30 4080 N 379.494 6.97832 0.772972 0
M  V30 4081 H 384.334 2.83274 -0.925186 0
M  V30 4082 H 381.871 1.39461 -0.467866 0
M  V30 4083 H 383.829 3.97145 1.27794 0
M  V30 4084 H 382.459 2.85374 1.50868 0
M  V30 4085 H 381.511 3.72991 -0.747095 0
M  V30 4086 H 382.823 4.92921 -0.763552 0
M  V30 4087 H 381.977 5.90818 1.37911 0
M  V30 4088 H 380.716 4.64703 1.47996 0
M  V30 4089 H 379.721 5.456 -0.678272 0
M  V30 4090 H 380.946 6.74793 -0.763606 0
M  V30 4091 H 378.892 6.3971 1.45282 0
M  V30 4092 H 378.809 7.55812 0.168709 0
M  V30 4093 H 380.077 7.67687 1.35194 0
M  V30 4094 N 384.306 0.507319 1.49211 0
M  V30 4095 C 385.552 -0.0350047 2.0277 0
M  V30 4096 C 385.885 -1.3606 1.38569 0
M  V30 4097 O 385.16 -1.87321 0.523542 0
M  V30 4098 C 385.443 -0.180916 3.59645 0
M  V30 4099 C 385.296 1.16825 4.34364 0
M  V30 4100 C 386.615 -0.918558 4.30407 0
M  V30 4101 H 383.734 -0.0112473 0.736914 0
M  V30 4102 H 386.376 0.659956 1.7817 0
M  V30 4103 H 384.526 -0.772826 3.80736 0
M  V30 4104 H 386.198 1.79952 4.24753 0
M  V30 4105 H 384.441 1.75594 3.96673 0
M  V30 4106 H 385.112 1.01939 5.42506 0
M  V30 4107 H 387.588 -0.41649 4.1401 0
M  V30 4108 H 386.464 -0.989505 5.39907 0
M  V30 4109 H 386.725 -1.96373 3.96093 0
M  V30 4110 N 385.784 -1.5574 0.241426 0
M  V30 4111 C 386.747 -2.19877 -0.647063 0
M  V30 4112 C 387.747 -1.16642 -1.10686 0
M  V30 4113 O 388.937 -1.41757 -1.01245 0
M  V30 4114 C 386.069 -2.83797 -1.88871 0
M  V30 4115 H 387.262 -2.99772 -0.087574 0
M  V30 4116 H 384.815 -1.56298 -0.00813574 0
M  V30 4117 H 385.55 -2.07824 -2.48957 0
M  V30 4118 H 385.335 -3.59414 -1.56728 0
M  V30 4119 H 386.825 -3.32898 -2.52129 0
M  V30 4120 N 387.262 0.0317525 -1.57568 0
M  V30 4121 C 388.539 0.758366 -1.803 0
M  V30 4122 C 388.919 1.93718 -0.838845 0
M  V30 4123 O 388.267 2.28187 0.119571 0
M  V30 4124 C 388.477 1.19392 -3.27943 0
M  V30 4125 C 389.825 1.61094 -3.92854 0
M  V30 4126 O 390.849 1.28857 -3.32076 0
M  V30 4127 O 389.708 2.20918 -4.99858 0
M  V30 4128 H 386.802 0.366514 -0.741348 0
M  V30 4129 H 389.348 0.00873765 -1.69698 0
M  V30 4130 H 388.12 0.352275 -3.89711 0
M  V30 4131 H 387.743 2.00365 -3.43424 0
M  V30 4132 N 388.74 1.54641 0.303973 0
M  V30 4133 C 389.987 1.7378 1.03955 0
M  V30 4134 C 390.315 0.521986 1.87365 0
M  V30 4135 O 389.57 -0.496099 1.89308 0
M  V30 4136 C 389.869 2.97753 1.97681 0
M  V30 4137 C 389.535 4.31671 1.30271 0
M  V30 4138 C 388.197 4.68075 1.11619 0
M  V30 4139 C 390.549 5.147 0.82055 0
M  V30 4140 C 387.877 5.8509 0.434304 0
M  V30 4141 C 390.229 6.32416 0.152395 0
M  V30 4142 C 388.893 6.67484 -0.0461067 0
M  V30 4143 H 388.163 0.635908 0.380398 0
M  V30 4144 H 390.81 1.88896 0.314718 0
M  V30 4145 H 389.115 2.77406 2.76682 0
M  V30 4146 H 390.812 3.09756 2.54661 0
M  V30 4147 H 387.402 4.03041 1.45795 0
M  V30 4148 H 391.586 4.87077 0.952374 0
M  V30 4149 H 386.842 6.10806 0.269495 0
M  V30 4150 H 391.016 6.96023 -0.229126 0
M  V30 4151 H 388.643 7.58011 -0.576494 0
M  V30 4152 N 390.218 -0.567019 1.47046 0
M  V30 4153 C 391.466 -1.322 1.52864 0
M  V30 4154 C 391.787 -1.94088 0.188388 0
M  V30 4155 O 391.057 -1.7941 -0.786693 0
M  V30 4156 H 389.637 -0.490894 0.563056 0
M  V30 4157 H 392.299 -0.662879 1.83281 0
M  V30 4158 H 391.395 -2.12062 2.2899 0
M  V30 4159 N 391.696 -1.35014 -0.812953 0
M  V30 4160 C 392.626 -1.30069 -1.93919 0
M  V30 4161 C 393.607 -0.176275 -1.69184 0
M  V30 4162 O 394.792 -0.370227 -1.90638 0
M  V30 4163 C 391.922 -1.06547 -3.30552 0
M  V30 4164 C 390.876 -2.15561 -3.69753 0
M  V30 4165 C 390.202 -1.77214 -5.04479 0
M  V30 4166 C 391.502 -3.57476 -3.808 0
M  V30 4167 H 393.196 -2.24303 -1.98314 0
M  V30 4168 H 390.742 -1.07977 -0.952736 0
M  V30 4169 H 392.695 -1.01729 -4.08937 0
M  V30 4170 H 391.419 -0.0875719 -3.26483 0
M  V30 4171 H 390.078 -2.19466 -2.9365 0
M  V30 4172 H 389.726 -0.780589 -4.96906 0
M  V30 4173 H 389.426 -2.50184 -5.31678 0
M  V30 4174 H 390.95 -1.7391 -5.8531 0
M  V30 4175 H 392.364 -3.55929 -4.4943 0
M  V30 4176 H 390.761 -4.29152 -4.19462 0
M  V30 4177 H 391.831 -3.94091 -2.82525 0
M  V30 4178 N 393.175 1.03435 -1.18907 0
M  V30 4179 C 394.421 1.77005 -0.989798 0
M  V30 4180 C 394.754 1.88205 0.478816 0
M  V30 4181 O 394.029 1.39481 1.35556 0
M  V30 4182 C 394.312 3.19925 -1.65287 0
M  V30 4183 C 394.165 3.1663 -3.19477 0
M  V30 4184 C 395.484 4.18189 -1.37134 0
M  V30 4185 H 392.603 0.642538 -0.360991 0
M  V30 4186 H 395.245 1.20784 -1.46667 0
M  V30 4187 H 393.395 3.67929 -1.24741 0
M  V30 4188 H 395.067 2.76567 -3.692 0
M  V30 4189 H 393.31 2.54491 -3.51307 0
M  V30 4190 H 393.981 4.1758 -3.61013 0
M  V30 4191 H 396.457 3.78761 -1.72276 0
M  V30 4192 H 395.333 5.16394 -1.86087 0
M  V30 4193 H 395.594 4.41112 -0.295424 0
M  V30 4194 N 394.653 0.992116 1.22453 0
M  V30 4195 C 396.069 0.702713 1.43297 0
M  V30 4196 C 396.269 -0.726909 1.87932 0
M  V30 4197 O 395.325 -1.49792 2.0327 0
M  V30 4198 C 396.638 1.70762 2.47509 0
M  V30 4199 C 398.186 1.72298 2.61309 0
M  V30 4200 C 398.661 2.71649 3.68742 0
M  V30 4201 N 400.152 2.70239 3.76199 0
M  V30 4202 C 400.887 3.43778 4.58917 0
M  V30 4203 N 400.383 4.26914 5.45633 0
M  V30 4204 N 402.176 3.32487 4.5322 0
M  V30 4205 H 394.327 1.91543 0.917871 0
M  V30 4206 H 396.59 0.826031 0.465162 0
M  V30 4207 H 396.296 2.73059 2.21657 0
M  V30 4208 H 396.17 1.49985 3.46099 0
M  V30 4209 H 398.557 0.706989 2.86506 0
M  V30 4210 H 398.638 1.97143 1.62997 0
M  V30 4211 H 398.282 3.73397 3.44292 0
M  V30 4212 H 398.212 2.44074 4.66622 0
M  V30 4213 H 400.703 2.09912 3.14237 0
M  V30 4214 H 401.016 4.79855 6.05771 0
M  V30 4215 H 399.361 4.31002 5.45218 0
M  V30 4216 H 402.552 2.6698 3.84499 0
M  V30 4217 H 402.725 3.90058 5.17454 0
M  V30 4218 N 396.131 -1.37776 0.765217 0
M  V30 4219 C 397.542 -1.82521 0.392819 0
M  V30 4220 C 397.893 -1.63789 -1.08017 0
M  V30 4221 O 397.018 -1.14542 -1.83601 0
M  V30 4222 C 397.613 -3.31358 0.706214 0
M  V30 4223 C 396.172 -3.74406 0.386952 0
M  V30 4224 C 395.319 -2.60394 0.953422 0
M  V30 4225 H 398.27 -1.2634 0.960412 0
M  V30 4226 H 398.291 -3.80498 -0.0114706 0
M  V30 4227 H 397.803 -3.44959 1.77833 0
M  V30 4228 H 395.904 -3.66377 -0.678112 0
M  V30 4229 H 396.017 -4.70749 0.890636 0
M  V30 4230 H 394.381 -2.51878 0.378064 0
M  V30 4231 H 395.164 -2.76791 2.03081 0
M  V30 4232 N 397.609 -0.515225 -1.4894 0
M  V30 4233 C 398.539 0.244628 -2.32215 0
M  V30 4234 C 399.52 0.949136 -1.41157 0
M  V30 4235 O 400.705 0.937783 -1.70057 0
M  V30 4236 C 397.835 1.30096 -3.22013 0
M  V30 4237 C 396.789 0.715486 -4.21977 0
M  V30 4238 C 396.115 1.87339 -5.00808 0
M  V30 4239 C 397.415 -0.302982 -5.2142 0
M  V30 4240 H 399.109 -0.450501 -2.95991 0
M  V30 4241 H 396.655 -0.218098 -1.42339 0
M  V30 4242 H 398.608 1.84037 -3.79089 0
M  V30 4243 H 397.332 2.02547 -2.56207 0
M  V30 4244 H 395.991 0.197715 -3.66066 0
M  V30 4245 H 395.639 2.58592 -4.31438 0
M  V30 4246 H 395.339 1.48764 -5.68457 0
M  V30 4247 H 396.863 2.41686 -5.60732 0
M  V30 4248 H 398.277 0.148802 -5.73107 0
M  V30 4249 H 396.674 -0.60532 -5.97039 0
M  V30 4250 H 397.744 -1.21395 -4.69459 0
M  V30 4251 N 399.087 1.5561 -0.249682 0
M  V30 4252 C 400.335 1.98618 0.373548 0
M  V30 4253 C 400.656 1.13919 1.58264 0
M  V30 4254 O 399.926 0.222637 1.94631 0
M  V30 4255 H 398.506 0.733571 0.141006 0
M  V30 4256 H 401.168 1.91748 -0.349117 0
M  V30 4257 H 400.264 3.04584 0.680796 0
M  V30 4258 N 400.565 -0.0233959 1.57583 0
M  V30 4259 C 401.813 -0.711654 1.89156 0
M  V30 4260 C 402.134 -1.75591 0.848096 0
M  V30 4261 O 401.404 -1.95547 -0.117566 0
M  V30 4262 H 399.984 -0.265835 0.698098 0
M  V30 4263 H 402.646 0.0119948 1.94896 0
M  V30 4264 H 401.742 -1.19766 2.88206 0
M  V30 4265 N 402.043 -1.548 -0.295768 0
M  V30 4266 C 403.006 -1.85363 -1.34808 0
M  V30 4267 C 404.006 -0.726817 -1.43436 0
M  V30 4268 O 405.196 -0.995088 -1.42981 0
M  V30 4269 C 402.328 -2.03859 -2.73229 0
M  V30 4270 H 403.521 -2.7941 -1.08949 0
M  V30 4271 H 401.074 -1.46942 -0.532702 0
M  V30 4272 H 401.809 -1.12117 -3.04303 0
M  V30 4273 H 401.594 -2.8588 -2.68356 0
M  V30 4274 H 403.084 -2.28857 -3.49305 0
M  V30 4275 N 403.521 0.559213 -1.47345 0
M  V30 4276 C 404.937 0.884943 -1.32819 0
M  V30 4277 C 405.137 1.98988 -0.317173 0
M  V30 4278 O 404.193 2.51031 0.272011 0
M  V30 4279 C 405.506 1.28007 -2.72093 0
M  V30 4280 C 407.054 1.39161 -2.80363 0
M  V30 4281 C 407.529 1.82031 -4.20272 0
M  V30 4282 N 409.02 1.89185 -4.22804 0
M  V30 4283 C 409.755 2.2368 -5.27973 0
M  V30 4284 N 409.251 2.56802 -6.43447 0
M  V30 4285 N 411.044 2.24436 -5.15349 0
M  V30 4286 H 403.195 -0.170304 -2.11716 0
M  V30 4287 H 405.458 -0.0135247 -0.947904 0
M  V30 4288 H 405.164 0.542027 -3.47498 0
M  V30 4289 H 405.038 2.23665 -3.03733 0
M  V30 4290 H 407.425 2.12048 -2.05231 0
M  V30 4291 H 407.506 0.41696 -2.52379 0
M  V30 4292 H 407.15 1.09715 -4.95908 0
M  V30 4293 H 407.08 2.80495 -4.45679 0
M  V30 4294 H 409.571 1.65982 -3.39497 0
M  V30 4295 H 409.884 2.82144 -7.19454 0
M  V30 4296 H 408.229 2.54387 -6.46771 0
M  V30 4297 H 411.42 1.97998 -4.24163 0
M  V30 4298 H 411.593 2.50989 -5.97418 0
M  V30 4299 N 404.999 1.35443 0.805782 0
M  V30 4300 C 406.247 1.28507 1.55982 0
M  V30 4301 C 406.568 -0.140046 1.94496 0
M  V30 4302 O 405.838 -1.07666 1.63661 0
M  V30 4303 H 404.418 0.472676 0.578434 0
M  V30 4304 H 407.08 1.69555 0.961098 0
M  V30 4305 H 406.176 1.90148 2.47488 0
M  V30 4306 N 406.477 -1.02803 1.19454 0
M  V30 4307 C 407.893 -1.28473 0.946937 0
M  V30 4308 C 408.093 -1.97881 -0.380202 0
M  V30 4309 O 407.149 -2.26719 -1.11151 0
M  V30 4310 C 408.462 -2.13099 2.12154 0
M  V30 4311 C 410.01 -2.26404 2.16126 0
M  V30 4312 C 410.485 -3.14402 3.33039 0
M  V30 4313 N 411.976 -3.21991 3.32981 0
M  V30 4314 C 412.711 -3.90272 4.20089 0
M  V30 4315 N 412.207 -4.60777 5.17355 0
M  V30 4316 N 414 -3.8668 4.07964 0
M  V30 4317 H 406.151 -0.561665 2.04839 0
M  V30 4318 H 408.414 -0.310438 0.89573 0
M  V30 4319 H 408.12 -1.69422 3.08203 0
M  V30 4320 H 407.994 -3.13813 2.09287 0
M  V30 4321 H 410.381 -2.69311 1.20647 0
M  V30 4322 H 410.462 -1.25237 2.23045 0
M  V30 4323 H 410.106 -2.72204 4.28798 0
M  V30 4324 H 410.036 -4.1563 3.23356 0
M  V30 4325 H 412.527 -2.71778 2.62574 0
M  V30 4326 H 412.84 -5.10513 5.80169 0
M  V30 4327 H 411.185 -4.5964 5.21302 0
M  V30 4328 H 414.376 -3.30739 3.31254 0
M  V30 4329 H 414.549 -4.39621 4.76064 0
M  V30 4330 N 407.956 -0.998596 -1.21925 0
M  V30 4331 C 409.186 -0.695276 -1.94549 0
M  V30 4332 C 409.594 0.745079 -1.73911 0
M  V30 4333 O 408.937 1.51507 -1.03881 0
M  V30 4334 C 408.999 -0.928485 -3.47303 0
M  V30 4335 C 408.663 -2.35443 -3.91683 0
M  V30 4336 C 409.66 -3.33428 -3.98901 0
M  V30 4337 C 407.345 -2.69038 -4.24174 0
M  V30 4338 C 409.339 -4.63079 -4.37992 0
M  V30 4339 C 407.026 -3.98906 -4.62944 0
M  V30 4340 C 408.024 -4.95738 -4.69822 0
M  V30 4341 O 407.712 -6.23285 -5.07711 0
M  V30 4342 H 407.444 -0.255902 -0.625692 0
M  V30 4343 H 409.998 -1.33767 -1.5587 0
M  V30 4344 H 408.228 -0.228917 -3.86022 0
M  V30 4345 H 409.917 -0.619539 -4.01144 0
M  V30 4346 H 410.683 -3.08807 -3.73983 0
M  V30 4347 H 406.562 -1.94367 -4.18022 0
M  V30 4348 H 410.106 -5.38658 -4.43275 0
M  V30 4349 H 406.003 -4.23314 -4.87314 0
M  V30 4350 H 406.771 -6.27306 -5.25766 0
M  V30 4351 N 409.434 1.37368 -0.772513 0
M  V30 4352 C 410.68 1.99969 -0.337681 0
M  V30 4353 C 411.013 1.61184 1.08321 0
M  V30 4354 O 410.288 0.858395 1.74533 0
M  V30 4355 C 410.571 3.56858 -0.482121 0
M  V30 4356 C 410.424 4.0555 -1.94549 0
M  V30 4357 C 411.743 4.39955 0.113143 0
M  V30 4358 H 408.862 0.726464 -0.124171 0
M  V30 4359 H 411.504 1.63034 -0.975699 0
M  V30 4360 H 409.654 3.88452 0.0610361 0
M  V30 4361 H 411.326 3.84518 -2.54841 0
M  V30 4362 H 409.569 3.57715 -2.45403 0
M  V30 4363 H 410.24 5.14587 -1.9976 0
M  V30 4364 H 412.716 4.14623 -0.35031 0
M  V30 4365 H 411.592 5.48897 -0.0180514 0
M  V30 4366 H 411.853 4.25403 1.20354 0
M  V30 4367 N 410.912 0.523116 1.48665 0
M  V30 4368 C 411.845 -0.290518 2.26343 0
M  V30 4369 C 412.823 -0.950913 1.31895 0
M  V30 4370 O 414.007 -0.976662 1.61225 0
M  V30 4371 C 411.134 -1.41088 3.07915 0
M  V30 4372 C 410.18 -0.862597 4.17686 0
M  V30 4373 S 411.013 0.264135 5.34848 0
M  V30 4374 C 412.169 -0.858864 6.19979 0
M  V30 4375 H 412.402 0.368726 2.95005 0
M  V30 4376 H 409.935 0.30878 1.51281 0
M  V30 4377 H 411.893 -2.0527 3.55492 0
M  V30 4378 H 410.554 -2.04182 2.38681 0
M  V30 4379 H 409.747 -1.70287 4.74361 0
M  V30 4380 H 409.349 -0.297595 3.72814 0
M  V30 4381 H 411.641 -1.7591 6.54264 0
M  V30 4382 H 412.584 -0.330244 7.07329 0
M  V30 4383 H 412.992 -1.13617 5.52948 0
M  V30 4384 N 412.39 -1.55475 0.257931 0
M  V30 4385 C 413.638 -1.98813 -0.363009 0
M  V30 4386 C 413.959 -1.14757 -1.57657 0
M  V30 4387 O 413.229 -0.232956 -1.9451 0
M  V30 4388 H 411.809 -0.734308 -0.137113 0
M  V30 4389 H 414.471 -1.9156 0.359281 0
M  V30 4390 H 413.567 -3.04941 -0.664634 0
M  V30 4391 N 413.868 0.0150385 -1.57593 0
M  V30 4392 C 415.116 0.701613 -1.8953 0
M  V30 4393 C 415.437 1.75139 -0.857396 0
M  V30 4394 O 414.707 1.95607 0.107194 0
M  V30 4395 H 413.287 0.26213 -0.699498 0
M  V30 4396 H 415.949 -0.0223304 -1.94887 0
M  V30 4397 H 415.045 1.18236 -2.88837 0
M  V30 4398 N 415.346 1.54954 0.287554 0
M  V30 4399 C 416.757 1.65732 0.859634 0
M  V30 4400 C 417.108 0.574767 1.87592 0
M  V30 4401 O 416.233 -0.286299 2.14498 0
M  V30 4402 C 416.828 3.00438 1.56597 0
M  V30 4403 C 415.387 3.13292 2.08627 0
M  V30 4404 C 414.534 2.61473 0.923416 0
M  V30 4405 H 417.485 1.5857 0.0642338 0
M  V30 4406 H 417.506 2.92613 2.43224 0
M  V30 4407 H 417.018 3.79207 0.826053 0
M  V30 4408 H 415.119 2.39268 2.85625 0
M  V30 4409 H 415.232 4.19647 2.31157 0
M  V30 4410 H 413.596 2.18264 1.31275 0
M  V30 4411 H 414.379 3.42733 0.197241 0
M  V30 4412 N 416.824 -0.551391 1.4764 0
M  V30 4413 C 418.24 -0.877887 1.33287 0
M  V30 4414 C 418.44 -1.98817 0.327721 0
M  V30 4415 O 417.496 -2.51171 -0.258695 0
M  V30 4416 C 418.809 -1.26563 2.72768 0
M  V30 4417 C 420.357 -1.37673 2.81097 0
M  V30 4418 C 420.832 -1.79799 4.21232 0
M  V30 4419 N 422.323 -1.8694 4.23802 0
M  V30 4420 C 423.058 -2.20876 5.29151 0
M  V30 4421 N 422.554 -2.53386 6.448 0
M  V30 4422 N 424.347 -2.217 5.16532 0
M  V30 4423 H 416.498 0.18153 2.11623 0
M  V30 4424 H 418.761 0.0185514 0.947818 0
M  V30 4425 H 418.467 -0.523591 3.47781 0
M  V30 4426 H 418.341 -2.22052 3.04915 0
M  V30 4427 H 420.728 -2.10956 2.06353 0
M  V30 4428 H 420.809 -0.40357 2.52596 0
M  V30 4429 H 420.453 -1.07083 4.96483 0
M  V30 4430 H 420.383 -2.78128 4.4716 0
M  V30 4431 H 422.874 -1.64179 3.40373 0
M  V30 4432 H 423.187 -2.78325 7.20941 0
M  V30 4433 H 421.532 -2.50953 6.48111 0
M  V30 4434 H 424.723 -1.95745 4.25207 0
M  V30 4435 H 424.896 -2.47818 5.98741 0
M  V30 4436 N 418.302 -1.35869 -0.798587 0
M  V30 4437 C 419.713 -1.26498 -1.37314 0
M  V30 4438 C 420.064 0.0991899 -1.95949 0
M  V30 4439 O 419.189 1.0004 -1.91888 0
M  V30 4440 C 419.784 -2.29054 -2.49639 0
M  V30 4441 C 418.343 -2.234 -3.02935 0
M  V30 4442 C 417.49 -2.14329 -1.75949 0
M  V30 4443 H 420.441 -1.46881 -0.600971 0
M  V30 4444 H 420.462 -1.92166 -3.28409 0
M  V30 4445 H 419.974 -3.2833 -2.06933 0
M  V30 4446 H 418.075 -1.27562 -3.50084 0
M  V30 4447 H 418.188 -3.15703 -3.60372 0
M  V30 4448 H 416.552 -1.60435 -1.9782 0
M  V30 4449 H 417.335 -3.15477 -1.35384 0
M  V30 4450 N 419.78 1.02168 -1.19998 0
M  V30 4451 C 421.029 1.75091 -1.0013 0
M  V30 4452 C 421.342 1.89923 0.467835 0
M  V30 4453 O 422.548 2.59888 0.785515 0
M  V30 4454 C 421.004 3.14892 -1.74273 0
M  V30 4455 C 420.612 3.0809 -3.25245 0
M  V30 4456 C 422.356 3.9206 -1.62755 0
M  V30 4457 C 420.263 4.42867 -3.91948 0
M  V30 4458 H 419.193 0.656394 -0.37103 0
M  V30 4459 H 421.844 1.14284 -1.43567 0
M  V30 4460 H 420.226 3.7621 -1.2362 0
M  V30 4461 H 421.4 2.5611 -3.83072 0
M  V30 4462 H 419.715 2.44416 -3.3712 0
M  V30 4463 H 422.312 4.91764 -2.09934 0
M  V30 4464 H 422.655 4.12199 -0.582894 0
M  V30 4465 H 423.188 3.37359 -2.10793 0
M  V30 4466 H 419.927 4.27931 -4.96543 0
M  V30 4467 H 419.447 4.94874 -3.3891 0
M  V30 4468 H 421.126 5.11728 -3.95909 0
M  V30 4469 N 421.258 1.00505 1.21394 0
M  V30 4470 C 422.669 0.721082 1.72213 0
M  V30 4471 C 423.02 -0.761263 1.80829 0
M  V30 4472 O 422.145 -1.59464 1.46288 0
M  V30 4473 C 422.74 1.30228 3.12772 0
M  V30 4474 C 421.299 1.06743 3.60947 0
M  V30 4475 C 420.446 1.41507 2.38477 0
M  V30 4476 H 423.397 1.17594 1.06571 0
M  V30 4477 H 423.418 0.686955 3.74247 0
M  V30 4478 H 422.93 2.38115 3.06468 0
M  V30 4479 H 421.031 0.00572162 3.726 0
M  V30 4480 H 421.144 1.73936 4.46411 0
M  V30 4481 H 419.508 0.833852 2.40664 0
M  V30 4482 H 420.291 2.50424 2.34824 0
M  V30 4483 N 422.737 -1.36956 0.779787 0
M  V30 4484 C 423.967 -2.03459 0.358877 0
M  V30 4485 C 424.375 -1.58939 -1.02641 0
M  V30 4486 O 423.718 -0.769777 -1.66794 0
M  V30 4487 C 423.78 -3.5796 0.332393 0
M  V30 4488 C 423.444 -4.25644 1.66362 0
M  V30 4489 C 424.441 -4.49205 2.61746 0
M  V30 4490 C 422.126 -4.63313 1.94027 0
M  V30 4491 C 424.12 -5.09503 3.82996 0
M  V30 4492 C 421.807 -5.2333 3.15546 0
M  V30 4493 C 422.805 -5.46363 4.0985 0
M  V30 4494 O 422.493 -6.05122 5.29228 0
M  V30 4495 H 422.225 -0.659767 0.147254 0
M  V30 4496 H 424.779 -1.76111 1.05708 0
M  V30 4497 H 423.009 -3.84388 -0.422237 0
M  V30 4498 H 424.698 -4.05852 -0.0625389 0
M  V30 4499 H 425.464 -4.20508 2.41657 0
M  V30 4500 H 421.343 -4.44715 1.21448 0
M  V30 4501 H 424.887 -5.27397 4.56617 0
M  V30 4502 H 420.784 -5.51451 3.35517 0
M  V30 4503 H 421.552 -6.23595 5.30161 0
M  V30 4504 N 424.215 -0.530993 -1.48385 0
M  V30 4505 C 425.178 0.220497 -2.28137 0
M  V30 4506 C 426.178 0.866851 -1.35434 0
M  V30 4507 O 427.368 0.726746 -1.58316 0
M  V30 4508 C 424.5 1.31921 -3.1434 0
M  V30 4509 H 425.693 -0.479714 -2.96038 0
M  V30 4510 H 423.246 -0.286968 -1.53643 0
M  V30 4511 H 423.981 2.05264 -2.51072 0
M  V30 4512 H 423.766 0.86085 -3.82533 0
M  V30 4513 H 425.256 1.84776 -3.74497 0
M  V30 4514 N 425.693 1.55336 -0.266172 0
M  V30 4515 C 426.939 2.00423 0.346714 0
M  V30 4516 C 427.294 1.15132 1.54151 0
M  V30 4517 O 426.587 0.211289 1.90431 0
M  V30 4518 C 426.781 3.48606 0.787957 0
M  V30 4519 C 426.61 4.48236 -0.362535 0
M  V30 4520 C 425.38 4.98211 -0.843445 0
M  V30 4521 C 427.578 5.00199 -1.19603 0
M  V30 4522 N 425.56 5.81625 -1.96434 0
M  V30 4523 C 426.931 5.80973 -2.16497 0
M  V30 4524 C 428.986 4.82458 -1.2304 0
M  V30 4525 C 427.689 6.45896 -3.1656 0
M  V30 4526 C 429.715 5.48174 -2.21944 0
M  V30 4527 C 429.077 6.28751 -3.17571 0
M  V30 4528 H 425.176 0.776535 0.0922914 0
M  V30 4529 H 427.76 1.90792 -0.388154 0
M  V30 4530 H 425.931 3.58597 1.49207 0
M  V30 4531 H 427.663 3.80538 1.37742 0
M  V30 4532 H 424.418 4.71696 -0.424271 0
M  V30 4533 H 424.842 6.28025 -2.52813 0
M  V30 4534 H 429.484 4.19774 -0.504903 0
M  V30 4535 H 427.202 7.07734 -3.90048 0
M  V30 4536 H 430.788 5.36392 -2.25333 0
M  V30 4537 H 429.668 6.78703 -3.92851 0
M  V30 4538 N 427.171 -0.0066808 1.57599 0
M  V30 4539 C 428.411 -0.697501 1.92131 0
M  V30 4540 C 428.775 -1.71306 0.867071 0
M  V30 4541 O 429.976 -2.45377 1.09743 0
M  V30 4542 C 428.247 -1.32978 3.3174 0
M  V30 4543 S 429.806 -2.04665 3.88146 0
M  V30 4544 H 426.624 -0.230555 0.672581 0
M  V30 4545 H 429.226 0.0484026 1.9544 0
M  V30 4546 H 427.93 -0.57772 4.06313 0
M  V30 4547 H 427.461 -2.11376 3.31789 0
M  V30 4548 H 429.476 -3.32097 3.68682 0
M  V30 4549 N 428.649 -1.55105 -0.279332 0
M  V30 4550 C 429.612 -1.86783 -1.32834 0
M  V30 4551 C 430.612 -0.74199 -1.42657 0
M  V30 4552 O 431.802 -1.0102 -1.41918 0
M  V30 4553 C 428.934 -2.06746 -2.71052 0
M  V30 4554 H 430.127 -2.8055 -1.05979 0
M  V30 4555 H 427.68 -1.47499 -0.517087 0
M  V30 4556 H 428.415 -1.15339 -3.03097 0
M  V30 4557 H 428.2 -2.88711 -2.65309 0
M  V30 4558 H 429.69 -2.32549 -3.46858 0
M  V30 4559 N 430.127 0.543554 -1.4793 0
M  V30 4560 C 431.538 1.12561 -1.48953 0
M  V30 4561 C 431.889 1.94578 -0.251754 0
M  V30 4562 O 431.014 2.0665 0.642255 0
M  V30 4563 C 431.609 2.04801 -2.69892 0
M  V30 4564 C 430.168 2.58251 -2.73831 0
M  V30 4565 C 429.315 1.34918 -2.42265 0
M  V30 4566 H 432.266 0.32947 -1.55242 0
M  V30 4567 H 432.287 2.88886 -2.47639 0
M  V30 4568 H 431.799 1.4508 -3.59963 0
M  V30 4569 H 429.9 3.21732 -1.87934 0
M  V30 4570 H 430.013 2.98312 -3.74895 0
M  V30 4571 H 428.377 1.66046 -1.93134 0
M  V30 4572 H 429.16 0.769693 -3.3456 0
M  V30 4573 N 431.605 1.3629 0.791371 0
M  V30 4574 C 432.515 1.32606 1.93527 0
M  V30 4575 C 433.531 0.228541 1.72493 0
M  V30 4576 O 434.707 0.460571 1.96063 0
M  V30 4577 C 431.772 1.11271 3.28359 0
M  V30 4578 C 430.833 2.3048 3.62185 0
M  V30 4579 C 430.066 2.10154 4.90583 0
M  V30 4580 O 430.289 1.07572 5.60165 0
M  V30 4581 O 429.223 2.97884 5.23019 0
M  V30 4582 H 433.049 2.28909 1.99585 0
M  V30 4583 H 430.634 1.16818 0.931344 0
M  V30 4584 H 432.516 1.01283 4.09047 0
M  V30 4585 H 431.191 0.180292 3.23198 0
M  V30 4586 H 430.098 2.46036 2.81811 0
M  V30 4587 H 431.431 3.22221 3.72068 0
M  V30 4588 N 433.083 -1.0153 1.20538 0
M  V30 4589 C 434.308 -1.79283 1.04271 0
M  V30 4590 C 434.733 -1.8372 -0.403544 0
M  V30 4591 O 434.091 -1.27321 -1.2907 0
M  V30 4592 C 434.139 -3.21535 1.63241 0
M  V30 4593 O 433.243 -4.03099 0.870908 0
M  V30 4594 H 432.584 -0.55293 0.367647 0
M  V30 4595 H 435.114 -1.27696 1.59859 0
M  V30 4596 H 435.124 -3.72243 1.6703 0
M  V30 4597 H 433.799 -3.1762 2.68497 0
M  V30 4598 H 432.376 -3.61693 0.907323 0
M  V30 4599 N 434.561 -1.01147 -1.20859 0
M  V30 4600 C 435.491 -0.597663 -2.25722 0
M  V30 4601 C 436.472 0.384744 -1.65692 0
M  V30 4602 O 437.657 0.271303 -1.92296 0
M  V30 4603 C 434.787 0.0700149 -3.47229 0
M  V30 4604 C 433.741 -0.832843 -4.19819 0
M  V30 4605 C 433.067 -0.0312202 -5.34691 0
M  V30 4606 C 434.367 -2.1385 -4.76514 0
M  V30 4607 H 436.061 -1.47423 -2.60589 0
M  V30 4608 H 433.607 -0.710301 -1.25263 0
M  V30 4609 H 435.56 0.37103 -4.19763 0
M  V30 4610 H 434.284 0.981259 -3.11511 0
M  V30 4611 H 432.943 -1.11778 -3.49144 0
M  V30 4612 H 432.591 0.881515 -4.95215 0
M  V30 4613 H 432.291 -0.632434 -5.84187 0
M  V30 4614 H 433.815 0.26346 -6.10031 0
M  V30 4615 H 435.229 -1.9002 -5.40893 0
M  V30 4616 H 433.626 -2.69012 -5.36426 0
M  V30 4617 H 434.696 -2.80495 -3.95538 0
M  V30 4618 N 436.039 1.36541 -0.78704 0
M  V30 4619 C 437.455 1.52571 -0.46844 0
M  V30 4620 C 437.655 1.7415 1.01361 0
M  V30 4621 O 436.711 1.77163 1.79915 0
M  V30 4622 C 438.024 2.71299 -1.29682 0
M  V30 4623 C 439.572 2.85169 -1.29027 0
M  V30 4624 C 440.047 4.06898 -2.10233 0
M  V30 4625 N 441.538 4.1404 -2.07666 0
M  V30 4626 C 442.273 5.07301 -2.67271 0
M  V30 4627 N 441.769 6.06021 -3.35724 0
M  V30 4628 N 443.562 4.99898 -2.57018 0
M  V30 4629 H 435.713 1.20788 -1.74711 0
M  V30 4630 H 437.976 0.589364 -0.742532 0
M  V30 4631 H 437.682 2.61868 -2.34773 0
M  V30 4632 H 437.556 3.6539 -0.936479 0
M  V30 4633 H 439.943 2.94062 -0.247284 0
M  V30 4634 H 440.024 1.91992 -1.69035 0
M  V30 4635 H 439.668 3.98766 -3.1456 0
M  V30 4636 H 439.598 4.99218 -1.67597 0
M  V30 4637 H 442.089 3.43357 -1.57843 0
M  V30 4638 H 442.402 6.73741 -3.78541 0
M  V30 4639 H 440.747 6.06253 -3.39826 0
M  V30 4640 H 443.938 4.21724 -2.03142 0
M  V30 4641 H 444.111 5.72392 -3.03761 0
M  V30 4642 N 437.518 0.538854 1.48102 0
M  V30 4643 C 438.468 -0.23907 2.26743 0
M  V30 4644 C 439.452 -0.901923 1.33245 0
M  V30 4645 O 440.644 -0.803263 1.57723 0
M  V30 4646 C 437.773 -1.2799 3.18549 0
M  V30 4647 C 436.859 -0.621388 4.19523 0
M  V30 4648 N 437.25 0.298004 5.04921 0
M  V30 4649 C 435.548 -0.877533 4.37282 0
M  V30 4650 C 436.249 0.678757 5.77726 0
M  V30 4651 N 435.225 0.0377881 5.43587 0
M  V30 4652 H 439.027 0.468096 2.90148 0
M  V30 4653 H 436.541 0.357497 1.58416 0
M  V30 4654 H 438.538 -1.851 3.73555 0
M  V30 4655 H 437.198 -1.98835 2.567 0
M  V30 4656 H 438.209 0.671126 5.13533 0
M  V30 4657 H 434.886 -1.57588 3.86616 0
M  V30 4658 H 436.276 1.43316 6.56437 0
M  V30 4659 N 438.996 -1.55193 0.274407 0
M  V30 4660 C 440.244 -1.99187 -0.341902 0
M  V30 4661 C 440.565 -1.16422 -1.56431 0
M  V30 4662 O 439.835 -0.253573 -1.94252 0
M  V30 4663 H 438.415 -0.735721 -0.129317 0
M  V30 4664 H 441.077 -1.91168 0.379578 0
M  V30 4665 H 440.173 -3.05629 -0.632253 0
M  V30 4666 N 440.474 -0.00167713 -1.576 0
M  V30 4667 C 441.437 0.974046 -2.07473 0
M  V30 4668 C 442.437 1.27143 -0.984444 0
M  V30 4669 O 443.627 1.21633 -1.24703 0
M  V30 4670 C 440.759 2.29849 -2.51759 0
M  V30 4671 H 441.952 0.54262 -2.9495 0
M  V30 4672 H 439.505 0.245829 -1.54355 0
M  V30 4673 H 440.24 2.77677 -1.67529 0
M  V30 4674 H 440.025 2.09584 -3.31386 0
M  V30 4675 H 441.515 2.9984 -2.90664 0
M  V30 4676 N 441.952 1.55251 0.271103 0
M  V30 4677 C 443.199 1.75946 1.00245 0
M  V30 4678 C 443.527 0.561611 1.86215 0
M  V30 4679 O 442.782 -0.455832 1.90317 0
M  V30 4680 C 443.081 3.01879 1.91321 0
M  V30 4681 C 442.747 4.34337 1.21086 0
M  V30 4682 C 441.409 4.70338 1.01666 0
M  V30 4683 C 443.761 5.16325 0.71119 0
M  V30 4684 C 441.089 5.8588 0.310099 0
M  V30 4685 C 443.441 6.32597 0.0182157 0
M  V30 4686 C 442.105 6.67236 -0.18768 0
M  V30 4687 H 441.375 0.643833 0.366824 0
M  V30 4688 H 444.022 1.89521 0.27458 0
M  V30 4689 H 442.327 2.83212 2.70736 0
M  V30 4690 H 444.024 3.15088 2.48033 0
M  V30 4691 H 440.614 4.06043 1.37213 0
M  V30 4692 H 444.798 4.88987 0.848844 0
M  V30 4693 H 440.054 6.1124 0.139873 0
M  V30 4694 H 444.228 6.9538 -0.376711 0
M  V30 4695 H 441.855 7.56618 -0.73715 0
M  V30 4696 N 443.43 -0.535701 1.48216 0
M  V30 4697 C 444.655 -1.32149 1.59848 0
M  V30 4698 C 445.08 -1.86338 0.256842 0
M  V30 4699 O 444.438 -1.64107 -0.770632 0
M  V30 4700 C 444.486 -2.45224 2.64381 0
M  V30 4701 O 443.59 -3.48093 2.21144 0
M  V30 4702 H 442.931 -0.391634 0.536208 0
M  V30 4703 H 445.461 -0.645202 1.94161 0
M  V30 4704 H 445.471 -2.91491 2.85476 0
M  V30 4705 H 444.146 -2.05143 3.61786 0
M  V30 4706 H 442.723 -3.07984 2.10239 0
M  V30 4707 N 444.908 -1.36708 -0.784132 0
M  V30 4708 C 446.133 -1.34565 -1.5782 0
M  V30 4709 C 446.558 0.0695257 -1.87971 0
M  V30 4710 O 445.916 1.04302 -1.48293 0
M  V30 4711 C 445.964 -2.17952 -2.87279 0
M  V30 4712 O 445.068 -1.57563 -3.81114 0
M  V30 4713 H 444.409 -0.460337 -0.478524 0
M  V30 4714 H 446.939 -1.80064 -0.971495 0
M  V30 4715 H 446.949 -2.30721 -3.365 0
M  V30 4716 H 445.624 -3.20823 -2.64661 0
M  V30 4717 H 444.201 -1.53764 -3.39722 0
M  V30 4718 N 446.386 1.0089 -1.21074 0
M  V30 4719 C 447.349 2.0775 -0.968129 0
M  V30 4720 C 448.349 1.6069 0.0593445 0
M  V30 4721 O 449.539 1.73293 -0.177525 0
M  V30 4722 C 446.671 3.37794 -0.459108 0
M  V30 4723 H 447.864 2.30707 -1.9161 0
M  V30 4724 H 445.417 1.17807 -1.02719 0
M  V30 4725 H 446.152 3.20516 0.49397 0
M  V30 4726 H 445.937 3.7328 -1.20019 0
M  V30 4727 H 447.427 4.16454 -0.309099 0
M  V30 4728 N 447.864 1.01787 1.20321 0
M  V30 4729 C 449.089 0.727009 1.9424 0
M  V30 4730 C 449.514 -0.706179 1.74341 0
M  V30 4731 O 448.872 -1.48609 1.03852 0
M  V30 4732 C 448.92 1.06958 3.44372 0
M  V30 4733 O 448.024 0.181983 4.11998 0
M  V30 4734 H 447.365 0.269626 0.606793 0
M  V30 4735 H 449.895 1.36158 1.52716 0
M  V30 4736 H 449.905 1.02182 3.94997 0
M  V30 4737 H 448.58 2.11378 3.58179 0
M  V30 4738 H 447.157 0.287378 3.71791 0
M  V30 4739 N 449.342 -1.36122 0.79427 0
M  V30 4740 C 450.619 -1.93398 0.292685 0
M  V30 4741 C 450.999 -1.72567 -1.21589 0
M  V30 4742 O 450.347 -1.08745 -2.00965 0
M  V30 4743 C 450.557 -3.42099 0.690614 0
M  V30 4744 C 451.905 -4.19231 0.673105 0
M  V30 4745 O 452.929 -3.50559 0.631389 0
M  V30 4746 O 451.788 -5.41732 0.720362 0
M  V30 4747 H 448.882 -0.823712 0.0736693 0
M  V30 4748 H 451.428 -1.45273 0.87714 0
M  V30 4749 H 450.2 -3.50938 1.73085 0
M  V30 4750 H 449.823 -3.97519 0.0803036 0
M  V30 4751 N 450.82 -0.546701 -1.47814 0
M  V30 4752 C 452.066 -0.0187684 -2.02791 0
M  V30 4753 C 452.399 1.32338 -1.42128 0
M  V30 4754 O 451.674 1.85867 -0.573023 0
M  V30 4755 C 451.957 0.0854985 -3.59998 0
M  V30 4756 C 451.81 -1.283 -4.31114 0
M  V30 4757 C 453.129 0.80412 -4.32691 0
M  V30 4758 H 450.248 -0.0082946 -0.736953 0
M  V30 4759 H 452.89 -0.706962 -1.76358 0
M  V30 4760 H 451.04 0.671609 -3.82651 0
M  V30 4761 H 452.712 -1.91151 -4.19832 0
M  V30 4762 H 450.955 -1.86049 -3.91878 0
M  V30 4763 H 451.626 -1.16287 -5.39612 0
M  V30 4764 H 454.102 0.306576 -4.14969 0
M  V30 4765 H 452.978 0.846011 -5.42341 0
M  V30 4766 H 453.239 1.85802 -4.01161 0
M  V30 4767 N 452.299 1.55045 -0.282633 0
M  V30 4768 C 453.545 2.0078 0.325436 0
M  V30 4769 C 453.9 1.1676 1.52921 0
M  V30 4770 O 453.193 0.231475 1.90197 0
M  V30 4771 C 453.387 3.49422 0.750938 0
M  V30 4772 C 453.216 4.47827 -0.410056 0
M  V30 4773 C 451.986 4.97288 -0.896239 0
M  V30 4774 C 454.184 4.98903 -1.24902 0
M  V30 4775 N 452.166 5.79508 -2.02591 0
M  V30 4776 C 453.537 5.78644 -2.22646 0
M  V30 4777 C 455.592 4.81126 -1.2815 0
M  V30 4778 C 454.295 6.42502 -3.23393 0
M  V30 4779 C 456.321 5.45789 -2.27745 0
M  V30 4780 C 455.683 6.25348 -3.24222 0
M  V30 4781 H 451.782 0.77747 0.08405 0
M  V30 4782 H 454.366 1.90369 -0.408368 0
M  V30 4783 H 452.537 3.60159 1.45395 0
M  V30 4784 H 454.269 3.81978 1.33698 0
M  V30 4785 H 451.024 4.71219 -0.474277 0
M  V30 4786 H 451.448 6.25308 -2.59459 0
M  V30 4787 H 456.09 4.19215 -0.549397 0
M  V30 4788 H 453.808 7.03558 -3.97533 0
M  V30 4789 H 457.394 5.33972 -2.31009 0
M  V30 4790 H 456.274 6.74498 -4.00027 0
M  V30 4791 N 453.777 0.010035 1.57597 0
M  V30 4792 C 454.71 -1.01234 2.04516 0
M  V30 4793 C 455.688 -1.32886 0.937024 0
M  V30 4794 O 456.872 -1.44879 1.20592 0
M  V30 4795 C 453.999 -2.33738 2.45121 0
M  V30 4796 C 453.045 -2.17679 3.66767 0
M  V30 4797 S 453.878 -1.49343 5.14254 0
M  V30 4798 C 455.034 -2.83256 5.58137 0
M  V30 4799 H 455.267 -0.612866 2.90914 0
M  V30 4800 H 452.8 -0.201124 1.53084 0
M  V30 4801 H 454.758 -3.09922 2.69182 0
M  V30 4802 H 453.419 -2.70823 1.59103 0
M  V30 4803 H 452.612 -3.1559 3.92962 0
M  V30 4804 H 452.214 -1.4964 3.42759 0
M  V30 4805 H 454.506 -3.79538 5.6121 0
M  V30 4806 H 455.449 -2.61749 6.57946 0
M  V30 4807 H 455.857 -2.87627 4.85727 0
M  V30 4808 N 455.255 -1.55392 -0.262866 0
M  V30 4809 C 456.502 -1.76476 -0.993109 0
M  V30 4810 C 456.83 -0.571479 -1.85915 0
M  V30 4811 O 456.085 0.445733 -1.90556 0
M  V30 4812 C 456.384 -3.02889 -1.89718 0
M  V30 4813 C 456.05 -4.34974 -1.18781 0
M  V30 4814 C 454.712 -4.7087 -0.991699 0
M  V30 4815 C 457.064 -5.16695 -0.683798 0
M  V30 4816 C 454.392 -5.86036 -0.279024 0
M  V30 4817 C 456.744 -6.32598 0.0153327 0
M  V30 4818 C 455.408 -6.67127 0.223062 0
M  V30 4819 H 454.678 -0.64577 -0.363404 0
M  V30 4820 H 457.325 -1.89664 -0.264525 0
M  V30 4821 H 455.63 -2.84644 -2.6923 0
M  V30 4822 H 457.327 -3.16399 -2.46359 0
M  V30 4823 H 453.917 -4.06765 -1.35058 0
M  V30 4824 H 458.101 -4.8943 -0.8229 0
M  V30 4825 H 453.357 -6.11306 -0.107456 0
M  V30 4826 H 457.531 -6.95171 0.413584 0
M  V30 4827 H 455.158 -7.56216 0.777265 0
M  V30 4828 N 456.733 0.527833 -1.48498 0
M  V30 4829 C 457.981 1.28101 -1.56316 0
M  V30 4830 C 458.302 1.9352 -0.239781 0
M  V30 4831 O 457.572 1.81433 0.738849 0
M  V30 4832 H 456.152 0.475793 -0.575873 0
M  V30 4833 H 458.814 0.614052 -1.84974 0
M  V30 4834 H 457.91 2.05916 -2.34532 0
M  V30 4835 N 458.211 1.37122 0.776871 0
M  V30 4836 C 459.457 1.32243 1.53752 0
M  V30 4837 C 459.79 -0.0944745 1.9397 0
M  V30 4838 O 459.065 -1.05068 1.6368 0
M  V30 4839 C 459.348 2.25681 2.80607 0
M  V30 4840 C 459.201 3.76127 2.46676 0
M  V30 4841 C 460.52 2.17657 3.82509 0
M  V30 4842 H 457.639 0.481704 0.557791 0
M  V30 4843 H 460.281 1.6778 0.891612 0
M  V30 4844 H 458.431 1.95505 3.35723 0
M  V30 4845 H 460.103 4.16877 1.97513 0
M  V30 4846 H 458.346 3.94946 1.79443 0
M  V30 4847 H 459.017 4.36933 3.37333 0
M  V30 4848 H 461.493 2.44245 3.36873 0
M  V30 4849 H 460.369 2.85185 4.69 0
M  V30 4850 H 460.63 1.16785 4.26396 0
M  V30 4851 N 459.689 -1.00246 1.21608 0
M  V30 4852 C 460.917 -1.77631 1.06089 0
M  V30 4853 C 461.332 -1.84746 -0.38916 0
M  V30 4854 O 460.689 -1.31068 -1.26994 0
M  V30 4855 C 460.74 -3.21415 1.65453 0
M  V30 4856 O 460.461 -3.14703 3.04785 0
M  V30 4857 C 461.962 -4.15289 1.55079 0
M  V30 4858 H 459.182 -0.558162 0.37242 0
M  V30 4859 H 461.726 -1.26093 1.60999 0
M  V30 4860 H 459.881 -3.70053 1.14629 0
M  V30 4861 H 460.295 -4.05056 3.33212 0
M  V30 4862 H 461.769 -5.13965 2.01355 0
M  V30 4863 H 462.246 -4.36279 0.505665 0
M  V30 4864 H 462.852 -3.72543 2.05163 0
M  V30 4865 N 461.167 -1.02423 -1.1978 0
M  V30 4866 C 462.097 -0.62157 -2.25075 0
M  V30 4867 C 463.078 0.367148 -1.6609 0
M  V30 4868 O 464.263 0.250892 -1.92573 0
M  V30 4869 C 461.393 0.0331826 -3.47284 0
M  V30 4870 C 460.347 -0.877323 -4.18912 0
M  V30 4871 C 459.673 -0.0879296 -5.34628 0
M  V30 4872 C 460.973 -2.18892 -4.74219 0
M  V30 4873 H 462.667 -1.50179 -2.59011 0
M  V30 4874 H 460.213 -0.723547 -1.24502 0
M  V30 4875 H 462.166 0.326488 -4.20133 0
M  V30 4876 H 460.89 0.948164 -3.12534 0
M  V30 4877 H 459.549 -1.15475 -3.47938 0
M  V30 4878 H 459.197 0.828941 -4.96123 0
M  V30 4879 H 458.897 -0.694359 -5.83483 0
M  V30 4880 H 460.421 0.198743 -6.10276 0
M  V30 4881 H 461.835 -1.95746 -5.38847 0
M  V30 4882 H 460.232 -2.74686 -5.33542 0
M  V30 4883 H 461.302 -2.84674 -3.92541 0
M  V30 4884 N 462.645 1.35699 -0.801477 0
M  V30 4885 C 463.891 1.99643 -0.389135 0
M  V30 4886 C 464.246 1.62447 1.03095 0
M  V30 4887 O 463.539 0.875064 1.7045 0
M  V30 4888 C 463.733 3.53828 -0.504041 0
M  V30 4889 C 463.562 4.06 -1.93375 0
M  V30 4890 C 462.332 4.35592 -2.561 0
M  V30 4891 C 464.53 4.24905 -2.89759 0
M  V30 4892 N 462.512 4.73663 -3.90534 0
M  V30 4893 C 463.883 4.65914 -4.09052 0
M  V30 4894 C 465.938 4.07101 -2.86658 0
M  V30 4895 C 464.641 4.90984 -5.25669 0
M  V30 4896 C 466.667 4.33324 -4.02472 0
M  V30 4897 C 466.029 4.74601 -5.20512 0
M  V30 4898 H 462.128 0.758552 -0.19006 0
M  V30 4899 H 464.712 1.64493 -1.04164 0
M  V30 4900 H 462.883 3.88219 0.118437 0
M  V30 4901 H 464.615 4.04645 -0.0667794 0
M  V30 4902 H 461.37 4.25728 -2.07492 0
M  V30 4903 H 461.794 4.96965 -4.59734 0
M  V30 4904 H 466.436 3.74335 -1.96552 0
M  V30 4905 H 464.154 5.22626 -6.1635 0
M  V30 4906 H 467.74 4.21107 -4.01447 0
M  V30 4907 H 466.62 4.94497 -6.08639 0
M  V30 4908 N 464.123 0.554532 1.47522 0
M  V30 4909 C 465.033 -0.197865 2.33764 0
M  V30 4910 C 466.049 -0.914576 1.48025 0
M  V30 4911 O 467.225 -0.884067 1.80959 0
M  V30 4912 C 464.29 -1.21628 3.24665 0
M  V30 4913 C 463.351 -0.507283 4.26292 0
M  V30 4914 C 462.584 -1.47718 5.1285 0
M  V30 4915 O 462.807 -2.7118 5.01814 0
M  V30 4916 O 461.741 -1.00313 5.93482 0
M  V30 4917 H 465.567 0.50949 2.99396 0
M  V30 4918 H 463.152 0.315176 1.46038 0
M  V30 4919 H 465.034 -1.80421 3.80823 0
M  V30 4920 H 463.709 -1.9056 2.61665 0
M  V30 4921 H 462.616 0.121778 3.73902 0
M  V30 4922 H 463.949 0.140544 4.91999 0
M  V30 4923 N 465.601 -1.54893 0.290851 0
M  V30 4924 C 466.534 -2.19289 -0.631489 0
M  V30 4925 C 467.512 -1.15893 -1.14051 0
M  V30 4926 O 468.696 -1.4449 -1.21058 0
M  V30 4927 C 465.823 -2.82866 -1.86291 0
M  V30 4928 C 464.869 -3.997 -1.48801 0
M  V30 4929 S 465.702 -5.32641 -0.552644 0
M  V30 4930 C 466.858 -5.99696 -1.79209 0
M  V30 4931 H 467.091 -2.9718 -0.0843791 0
M  V30 4932 H 464.624 -1.54218 0.075031 0
M  V30 4933 H 466.582 -3.20124 -2.56964 0
M  V30 4934 H 465.243 -2.04839 -2.38117 0
M  V30 4935 H 464.436 -4.42932 -2.40473 0
M  V30 4936 H 464.038 -3.63947 -0.861321 0
M  V30 4937 H 466.33 -6.19886 -2.734 0
M  V30 4938 H 467.273 -6.94071 -1.40251 0
M  V30 4939 H 467.681 -5.29226 -1.96419 0
M  V30 4940 N 467.08 -0.0183926 -1.57589 0
M  V30 4941 C 468.327 0.662562 -1.91354 0
M  V30 4942 C 468.655 1.72747 -0.893788 0
M  V30 4943 O 467.91 1.9545 0.0988509 0
M  V30 4944 C 468.209 1.32676 -3.31861 0
M  V30 4945 C 467.875 0.393267 -4.49182 0
M  V30 4946 C 466.537 0.136302 -4.81007 0
M  V30 4947 C 468.889 -0.248366 -5.20608 0
M  V30 4948 C 466.217 -0.770282 -5.81621 0
M  V30 4949 C 468.569 -1.14294 -6.22189 0
M  V30 4950 C 467.233 -1.4089 -6.52462 0
M  V30 4951 H 466.503 0.242448 -0.700214 0
M  V30 4952 H 469.15 -0.0778629 -1.91342 0
M  V30 4953 H 467.455 2.14168 -3.28084 0
M  V30 4954 H 469.152 1.86001 -3.55253 0
M  V30 4955 H 465.742 0.603723 -4.24327 0
M  V30 4956 H 469.926 -0.062883 -4.9626 0
M  V30 4957 H 465.182 -0.984154 -6.03427 0
M  V30 4958 H 469.356 -1.64637 -6.76659 0
M  V30 4959 H 466.983 -2.11306 -7.30242 0
M  V30 4960 N 468.558 1.5553 0.254621 0
M  V30 4961 C 469.783 1.81383 1.00573 0
M  V30 4962 C 470.208 0.594419 1.78461 0
M  V30 4963 O 469.566 -0.456403 1.75461 0
M  V30 4964 C 469.614 3.04892 1.92545 0
M  V30 4965 O 468.718 2.81266 3.01601 0
M  V30 4966 H 468.059 0.598969 0.286587 0
M  V30 4967 H 470.589 2.02703 0.277952 0
M  V30 4968 H 470.599 3.34119 2.34155 0
M  V30 4969 H 469.274 3.93287 1.3527 0
M  V30 4970 H 467.851 2.63185 2.64174 0
M  V30 4971 N 470.036 -0.519951 1.48776 0
M  V30 4972 C 471.284 -1.2727 1.56993 0
M  V30 4973 C 471.605 -1.9339 0.25004 0
M  V30 4974 O 470.875 -1.81822 -0.729216 0
M  V30 4975 H 469.455 -0.472732 0.578389 0
M  V30 4976 H 472.117 -0.604234 1.85297 0
M  V30 4977 H 471.213 -2.04669 2.3562 0
M  V30 4978 N 471.514 -1.37532 -0.769588 0
M  V30 4979 C 472.762 -1.32597 -1.5252 0
M  V30 4980 C 473.083 0.0884294 -1.94799 0
M  V30 4981 O 472.353 1.03289 -1.66458 0
M  V30 4982 H 470.933 -0.487846 -0.565699 0
M  V30 4983 H 473.595 -1.72044 -0.915806 0
M  V30 4984 H 472.691 -1.96643 -2.42359 0
M  V30 4985 N 472.992 0.995999 -1.22138 0
M  V30 4986 C 473.902 2.11985 -1.00496 0
M  V30 4987 C 474.918 1.7394 0.0457701 0
M  V30 4988 O 476.094 2.00868 -0.146273 0
M  V30 4989 C 473.159 3.41779 -0.582086 0
M  V30 4990 C 472.22 3.93943 -1.70608 0
M  V30 4991 C 471.453 5.17542 -1.30328 0
M  V30 4992 O 471.676 5.70114 -0.180743 0
M  V30 4993 O 470.61 5.63382 -2.11861 0
M  V30 4994 H 474.436 2.33123 -1.94647 0
M  V30 4995 H 472.021 1.10358 -1.00705 0
M  V30 4996 H 473.903 4.1989 -0.356467 0
M  V30 4997 H 472.578 3.22007 0.330592 0
M  V30 4998 H 471.485 3.17019 -1.98619 0
M  V30 4999 H 472.818 4.18141 -2.59651 0
M  V30 5000 N 474.47 1.03057 1.19235 0
M  V30 5001 C 475.38 0.622922 2.26179 0
M  V30 5002 C 476.396 -0.346113 1.70523 0
M  V30 5003 O 477.572 -0.203572 2.00369 0
M  V30 5004 C 474.637 -0.0182063 3.46695 0
M  V30 5005 C 473.698 0.998546 4.17526 0
M  V30 5006 C 472.931 0.387917 5.32288 0
M  V30 5007 O 473.154 -0.808668 5.64639 0
M  V30 5008 O 472.088 1.1116 5.91546 0
M  V30 5009 H 475.914 1.51363 2.63292 0
M  V30 5010 H 473.499 0.800856 1.26122 0
M  V30 5011 H 475.381 -0.375606 4.19723 0
M  V30 5012 H 474.056 -0.882895 3.11427 0
M  V30 5013 H 472.963 1.40756 3.4661 0
M  V30 5014 H 474.296 1.83366 4.56769 0
M  V30 5015 N 475.948 -1.35272 0.808662 0
M  V30 5016 C 477.359 -1.81179 0.450688 0
M  V30 5017 C 477.71 -1.67143 -1.02751 0
M  V30 5018 O 476.835 -1.20325 -1.79864 0
M  V30 5019 C 477.43 -3.28943 0.811275 0
M  V30 5020 C 475.989 -3.72985 0.505871 0
M  V30 5021 C 475.136 -2.57229 1.03578 0
M  V30 5022 H 478.087 -1.2322 1.00012 0
M  V30 5023 H 478.108 -3.80342 0.109588 0
M  V30 5024 H 477.62 -3.39127 1.88718 0
M  V30 5025 H 475.721 -3.68349 -0.561209 0
M  V30 5026 H 475.834 -4.67677 1.03995 0
M  V30 5027 H 474.198 -2.50548 0.458005 0
M  V30 5028 H 474.981 -2.7019 2.11784 0
M  V30 5029 N 477.426 -0.562348 -1.47226 0
M  V30 5030 C 478.672 -0.0485293 -2.03342 0
M  V30 5031 C 479.027 1.28898 -1.42839 0
M  V30 5032 O 478.32 1.82719 -0.576563 0
M  V30 5033 C 478.514 0.0969817 -3.57268 0
M  V30 5034 C 478.343 -1.22487 -4.32697 0
M  V30 5035 C 477.113 -1.79357 -4.72397 0
M  V30 5036 C 479.311 -2.14332 -4.67511 0
M  V30 5037 N 477.293 -3.05493 -5.32491 0
M  V30 5038 C 478.664 -3.25049 -5.27961 0
M  V30 5039 C 480.719 -2.14263 -4.4944 0
M  V30 5040 C 479.422 -4.35804 -5.72248 0
M  V30 5041 C 481.448 -3.24033 -4.94729 0
M  V30 5042 C 480.81 -4.3347 -5.55233 0
M  V30 5043 H 476.909 -0.0600464 -0.779691 0
M  V30 5044 H 479.493 -0.750769 -1.79643 0
M  V30 5045 H 477.664 0.768353 -3.80724 0
M  V30 5046 H 479.396 0.613333 -4.00025 0
M  V30 5047 H 476.151 -1.33093 -4.54514 0
M  V30 5048 H 476.575 -3.698 -5.67077 0
M  V30 5049 H 481.217 -1.30935 -4.02015 0
M  V30 5050 H 478.935 -5.19888 -6.18661 0
M  V30 5051 H 482.521 -3.25073 -4.82513 0
M  V30 5052 H 481.401 -5.17008 -5.89638 0
M  V30 5053 N 478.904 1.54736 -0.299062 0
M  V30 5054 C 479.867 2.22127 0.565012 0
M  V30 5055 C 480.867 1.20669 1.06281 0
M  V30 5056 O 482.057 1.45417 0.959145 0
M  V30 5057 C 479.189 2.90611 1.78208 0
M  V30 5058 H 480.382 2.99891 -0.0237448 0
M  V30 5059 H 477.935 1.5622 -0.0498788 0
M  V30 5060 H 478.67 2.16921 2.41072 0
M  V30 5061 H 478.455 3.64984 1.43281 0
M  V30 5062 H 479.945 3.42026 2.396 0
M  V30 5063 N 480.382 0.0267497 1.57577 0
M  V30 5064 C 481.63 -0.651116 1.91324 0
M  V30 5065 C 481.951 -1.72804 0.90353 0
M  V30 5066 O 481.221 -1.95822 -0.0552946 0
M  V30 5067 H 479.801 -0.243491 0.706202 0
M  V30 5068 H 482.463 0.0739935 1.94759 0
M  V30 5069 H 481.559 -1.10536 2.9187 0
M  V30 5070 N 481.861 -1.55662 -0.24637 0
M  V30 5071 C 483.107 -1.77782 -0.975779 0
M  V30 5072 C 483.44 -0.592103 -1.84953 0
M  V30 5073 O 482.715 0.409588 -1.90138 0
M  V30 5074 C 482.998 -3.09788 -1.83584 0
M  V30 5075 C 482.851 -4.38764 -0.990241 0
M  V30 5076 C 484.17 -3.38029 -2.81823 0
M  V30 5077 H 481.289 -0.646789 -0.353317 0
M  V30 5078 H 483.931 -1.88398 -0.246248 0
M  V30 5079 H 482.081 -3.00869 -2.45784 0
M  V30 5080 H 483.753 -4.59675 -0.386897 0
M  V30 5081 H 481.996 -4.32798 -0.294626 0
M  V30 5082 H 482.667 -5.27514 -1.62584 0
M  V30 5083 H 485.143 -3.46915 -2.2976 0
M  V30 5084 H 484.019 -4.3161 -3.39122 0
M  V30 5085 H 484.28 -2.58968 -3.58313 0
M  V30 5086 N 483.339 0.512053 -1.4905 0
M  V30 5087 C 484.75 1.09376 -1.51307 0
M  V30 5088 C 485.101 1.94 -0.292971 0
M  V30 5089 O 484.226 2.07965 0.598277 0
M  V30 5090 C 484.821 1.99031 -2.74176 0
M  V30 5091 C 483.38 2.52385 -2.79247 0
M  V30 5092 C 482.527 1.29749 -2.45073 0
M  V30 5093 H 485.478 0.296467 -1.55906 0
M  V30 5094 H 485.499 2.83569 -2.53711 0
M  V30 5095 H 485.011 1.37412 -3.62959 0
M  V30 5096 H 483.112 3.17673 -1.94716 0
M  V30 5097 H 483.225 2.90293 -3.81139 0
M  V30 5098 H 481.589 1.61912 -1.96612 0
M  V30 5099 H 482.372 0.698555 -3.36118 0
M  V30 5100 N 484.817 1.37938 0.762283 0
M  V30 5101 C 486.228 1.30094 1.33912 0
M  V30 5102 C 486.579 -0.0472026 1.96143 0
M  V30 5103 O 485.704 -0.94917 1.94473 0
M  V30 5104 C 486.299 2.35592 2.43478 0
M  V30 5105 C 484.858 2.31353 2.96905 0
M  V30 5106 C 484.005 2.18919 1.70205 0
M  V30 5107 H 486.956 1.48423 0.561816 0
M  V30 5108 H 486.977 2.00806 3.23199 0
M  V30 5109 H 486.489 3.33701 1.98155 0
M  V30 5110 H 484.59 1.36799 3.46579 0
M  V30 5111 H 484.703 3.25147 3.51875 0
M  V30 5112 H 483.067 1.65624 1.93496 0
M  V30 5113 H 483.85 3.18956 1.26973 0
M  V30 5114 N 486.295 -0.989507 1.22664 0
M  V30 5115 C 487.525 -1.7624 1.0781 0
M  V30 5116 C 487.933 -1.85466 -0.374036 0
M  V30 5117 O 487.276 -1.32645 -1.27087 0
M  V30 5118 C 487.338 -3.21007 1.61849 0
M  V30 5119 C 487.002 -3.35316 3.10503 0
M  V30 5120 C 487.999 -3.22362 4.07896 0
M  V30 5121 C 485.684 -3.60258 3.50028 0
M  V30 5122 C 487.678 -3.34139 5.42798 0
M  V30 5123 C 485.365 -3.71676 4.85078 0
M  V30 5124 C 486.363 -3.58625 5.81272 0
M  V30 5125 O 486.051 -3.69655 7.1387 0
M  V30 5126 H 485.783 -0.560209 0.378341 0
M  V30 5127 H 488.337 -1.25252 1.62792 0
M  V30 5128 H 486.567 -3.73202 1.01279 0
M  V30 5129 H 488.256 -3.80024 1.42606 0
M  V30 5130 H 489.022 -3.03 3.78703 0
M  V30 5131 H 484.901 -3.69492 2.75675 0
M  V30 5132 H 488.445 -3.23869 6.17863 0
M  V30 5133 H 484.342 -3.90545 5.1395 0
M  V30 5134 H 485.11 -3.86507 7.21495 0
M  V30 5135 N 487.773 -1.03688 -1.18687 0
M  V30 5136 C 488.703 -0.645407 -2.24403 0
M  V30 5137 C 489.684 0.349511 -1.66471 0
M  V30 5138 O 490.869 0.230453 -1.92828 0
M  V30 5139 C 487.999 -0.00365337 -3.473 0
M  V30 5140 C 486.953 -0.921705 -4.17958 0
M  V30 5141 C 486.279 -0.144629 -5.34504 0
M  V30 5142 C 487.579 -2.23909 -4.71871 0
M  V30 5143 H 489.273 -1.52917 -2.57404 0
M  V30 5144 H 486.819 -0.736711 -1.23728 0
M  V30 5145 H 488.772 0.281908 -4.20456 0
M  V30 5146 H 487.496 0.914963 -3.13522 0
M  V30 5147 H 486.155 -1.19159 -3.46694 0
M  V30 5148 H 485.803 0.776274 -4.96974 0
M  V30 5149 H 485.503 -0.756206 -5.82714 0
M  V30 5150 H 487.027 0.134004 -6.10453 0
M  V30 5151 H 488.441 -2.0145 -5.36741 0
M  V30 5152 H 486.838 -2.8033 -5.30599 0
M  V30 5153 H 487.908 -2.88822 -3.895 0
M  V30 5154 N 489.251 1.34841 -0.815825 0
M  V30 5155 C 490.5 1.97755 -0.396976 0
M  V30 5156 C 490.813 1.65422 1.04379 0
M  V30 5157 O 492.019 2.21771 1.5662 0
M  V30 5158 C 490.475 3.53818 -0.658869 0
M  V30 5159 C 490.083 3.95051 -2.11278 0
M  V30 5160 C 491.827 4.23397 -0.305834 0
M  V30 5161 C 489.734 5.43997 -2.31994 0
M  V30 5162 H 488.664 0.739985 -0.1447 0
M  V30 5163 H 491.315 1.53781 -1.00118 0
M  V30 5164 H 489.697 3.95997 0.0154112 0
M  V30 5165 H 490.871 3.63998 -2.82564 0
M  V30 5166 H 489.186 3.38388 -2.42657 0
M  V30 5167 H 491.783 5.32899 -0.43854 0
M  V30 5168 H 492.126 4.09508 0.748952 0
M  V30 5169 H 492.659 3.8667 -0.934403 0
M  V30 5170 H 489.398 5.62865 -3.35952 0
M  V30 5171 H 488.918 5.76589 -1.65244 0
M  V30 5172 H 490.597 6.10584 -2.14001 0
M  V30 5173 N 490.729 0.570148 1.46925 0
M  V30 5174 C 491.659 -0.158274 2.32963 0
M  V30 5175 C 492.64 -0.896093 1.44583 0
M  V30 5176 O 493.825 -0.874022 1.7342 0
M  V30 5177 C 490.955 -1.18055 3.26619 0
M  V30 5178 C 489.909 -0.558379 4.24342 0
M  V30 5179 C 489.235 -1.68623 5.07415 0
M  V30 5180 C 490.535 0.496295 5.19937 0
M  V30 5181 H 492.229 0.560046 2.94115 0
M  V30 5182 H 489.775 0.270775 1.41431 0
M  V30 5183 H 491.728 -1.69841 3.85658 0
M  V30 5184 H 490.452 -1.92899 2.63548 0
M  V30 5185 H 489.111 -0.0617157 3.66548 0
M  V30 5186 H 488.759 -2.42402 4.40738 0
M  V30 5187 H 488.459 -1.27564 5.73586 0
M  V30 5188 H 489.983 -2.20709 5.69315 0
M  V30 5189 H 491.397 0.0640052 5.73264 0
M  V30 5190 H 489.794 0.82649 5.94381 0
M  V30 5191 H 490.864 1.38735 4.6463 0
M  V30 5192 N 492.207 -1.54576 0.307264 0
M  V30 5193 C 493.139 -2.21212 -0.599807 0
M  V30 5194 C 494.152 -1.20685 -1.09266 0
M  V30 5195 O 495.341 -1.47244 -1.00903 0
M  V30 5196 C 492.441 -2.84994 -1.83389 0
M  V30 5197 C 491.614 -4.11511 -1.48248 0
M  V30 5198 C 490.673 -4.59038 -2.57237 0
M  V30 5199 O 489.699 -5.24095 -2.22065 0
M  V30 5200 N 490.901 -4.31884 -3.87887 0
M  V30 5201 H 493.666 -2.99686 -0.0293075 0
M  V30 5202 H 491.227 -1.61379 0.129738 0
M  V30 5203 H 493.219 -3.1372 -2.5566 0
M  V30 5204 H 491.789 -2.10324 -2.31263 0
M  V30 5205 H 491.009 -3.89728 -0.592122 0
M  V30 5206 H 492.297 -4.93879 -1.22316 0
M  V30 5207 H 491.695 -3.79778 -4.19268 0
M  V30 5208 H 490.252 -4.65304 -4.56438 0
M  V30 5209 N 493.685 -0.035106 -1.57561 0
M  V30 5210 C 495.101 0.321334 -1.56332 0
M  V30 5211 C 495.301 1.72509 -1.04129 0
M  V30 5212 O 494.357 2.4287 -0.690694 0
M  V30 5213 C 495.67 0.164469 -3.0025 0
M  V30 5214 C 497.218 0.236786 -3.12103 0
M  V30 5215 C 497.693 0.10864 -4.57871 0
M  V30 5216 N 499.184 0.165433 -4.62904 0
M  V30 5217 C 499.919 0.0901506 -5.73329 0
M  V30 5218 N 499.415 -0.0365606 -6.9279 0
M  V30 5219 N 501.208 0.144572 -5.61914 0
M  V30 5220 H 493.359 -0.952976 -1.89821 0
M  V30 5221 H 495.622 -0.368537 -0.873432 0
M  V30 5222 H 495.328 -0.802746 -3.42416 0
M  V30 5223 H 495.202 0.932194 -3.655 0
M  V30 5224 H 497.589 1.19446 -2.69845 0
M  V30 5225 H 497.67 -0.561419 -2.49563 0
M  V30 5226 H 497.314 -0.845644 -5.00811 0
M  V30 5227 H 497.244 0.925786 -5.18398 0
M  V30 5228 H 499.735 0.263269 -3.76982 0
M  V30 5229 H 500.048 -0.0871487 -7.72751 0
M  V30 5230 H 498.393 -0.0714256 -6.94963 0
M  V30 5231 H 501.584 0.242006 -4.67474 0
M  V30 5232 H 501.757 0.0824413 -6.47948 0
M  V30 5233 N 495.163 1.55791 0.238111 0
M  V30 5234 C 496.093 1.94068 1.29846 0
M  V30 5235 C 497.074 0.806726 1.49753 0
M  V30 5236 O 498.259 1.06772 1.62214 0
M  V30 5237 C 495.389 2.24302 2.65153 0
M  V30 5238 C 494.343 3.40032 2.59927 0
M  V30 5239 C 493.669 3.55829 3.99111 0
M  V30 5240 C 494.969 4.75476 2.16148 0
M  V30 5241 H 496.663 2.82887 0.980563 0
M  V30 5242 H 494.209 1.36105 0.470253 0
M  V30 5243 H 496.162 2.4967 3.39475 0
M  V30 5244 H 494.886 1.32318 2.98596 0
M  V30 5245 H 493.545 3.14687 1.88063 0
M  V30 5246 H 493.193 2.6125 4.29834 0
M  V30 5247 H 492.893 4.3366 3.96501 0
M  V30 5248 H 494.417 3.83528 4.7512 0
M  V30 5249 H 495.831 5.00158 2.80205 0
M  V30 5250 H 494.228 5.56472 2.24631 0
M  V30 5251 H 495.298 4.71946 1.11333 0
M  V30 5252 N 496.642 -0.504142 1.49319 0
M  V30 5253 C 497.552 -1.63248 1.68486 0
M  V30 5254 C 498.568 -1.64488 0.567432 0
M  V30 5255 O 499.744 -1.82966 0.841749 0
M  V30 5256 C 496.809 -2.99627 1.74426 0
M  V30 5257 C 495.87 -3.09039 2.97982 0
M  V30 5258 C 495.103 -4.38913 3.0363 0
M  V30 5259 O 495.326 -5.27528 2.16958 0
M  V30 5260 O 494.26 -4.53231 3.96062 0
M  V30 5261 H 498.086 -1.50008 2.64067 0
M  V30 5262 H 495.671 -0.680086 1.33023 0
M  V30 5263 H 497.553 -3.80689 1.80705 0
M  V30 5264 H 496.228 -3.13136 0.820233 0
M  V30 5265 H 495.135 -2.27177 2.97223 0
M  V30 5266 H 496.468 -3.00456 3.89855 0
M  V30 5267 N 498.12 -1.38341 -0.754957 0
M  V30 5268 C 499.397 -1.24995 -1.50451 0
M  V30 5269 C 499.777 0.149244 -2.10572 0
M  V30 5270 O 499.125 1.15861 -1.96948 0
M  V30 5271 C 499.335 -2.35904 -2.57197 0
M  V30 5272 C 500.683 -2.74262 -3.24138 0
M  V30 5273 O 501.707 -2.35205 -2.67501 0
M  V30 5274 O 500.566 -3.4161 -4.26574 0
M  V30 5275 H 497.66 -0.48872 -0.667144 0
M  V30 5276 H 500.206 -1.50165 -0.790486 0
M  V30 5277 H 498.978 -3.2953 -2.11011 0
M  V30 5278 H 498.601 -2.12291 -3.36182 0
M  V30 5279 N 499.598 0.982988 -1.23187 0
M  V30 5280 C 501.014 1.2487 -0.993967 0
M  V30 5281 C 501.214 1.99155 0.306498 0
M  V30 5282 O 500.27 2.30688 1.0266 0
M  V30 5283 C 501.583 2.05078 -2.19917 0
M  V30 5284 C 503.131 2.18227 -2.2438 0
M  V30 5285 C 503.606 3.01825 -3.44479 0
M  V30 5286 N 505.097 3.09411 -3.44702 0
M  V30 5287 C 505.832 3.74412 -4.34285 0
M  V30 5288 N 505.328 4.41259 -5.341 0
M  V30 5289 N 507.121 3.71273 -4.22035 0
M  V30 5290 H 499.272 0.485253 -2.06783 0
M  V30 5291 H 501.535 0.276979 -0.906635 0
M  V30 5292 H 501.241 1.57867 -3.14279 0
M  V30 5293 H 501.115 3.05829 -2.2079 0
M  V30 5294 H 503.502 2.64648 -1.30559 0
M  V30 5295 H 503.583 1.16873 -2.2754 0
M  V30 5296 H 503.227 2.56102 -4.38605 0
M  V30 5297 H 503.157 4.03342 -3.38559 0
M  V30 5298 H 505.648 2.61845 -2.7248 0
M  V30 5299 H 505.961 4.88629 -5.98717 0
M  V30 5300 H 504.306 4.39975 -5.38002 0
M  V30 5301 H 507.497 3.18217 -3.43301 0
M  V30 5302 H 507.67 4.21649 -4.92053 0
M  V30 5303 N 501.076 1.04316 1.18135 0
M  V30 5304 C 502.039 0.640794 2.2006 0
M  V30 5305 C 503.039 -0.303124 1.57917 0
M  V30 5306 O 504.229 -0.0881855 1.73977 0
M  V30 5307 C 501.361 -0.060148 3.40847 0
M  V30 5308 H 502.554 1.54281 2.57172 0
M  V30 5309 H 500.107 0.836004 1.32063 0
M  V30 5310 H 500.842 -0.975845 3.0927 0
M  V30 5311 H 500.627 0.618319 3.87194 0
M  V30 5312 H 502.117 -0.328082 4.16309 0
M  V30 5313 N 502.554 -1.34406 0.822964 0
M  V30 5314 C 503.97 -1.51275 0.508727 0
M  V30 5315 C 504.17 -1.76776 -0.967083 0
M  V30 5316 O 503.226 -1.81871 -1.75155 0
M  V30 5317 C 504.539 -2.67765 1.36829 0
M  V30 5318 C 506.087 -2.81647 1.36542 0
M  V30 5319 C 506.562 -4.01181 2.20947 0
M  V30 5320 N 508.053 -4.08388 2.18571 0
M  V30 5321 C 508.788 -5.00036 2.80627 0
M  V30 5322 N 508.284 -5.96906 3.51674 0
M  V30 5323 N 510.077 -4.92908 2.70181 0
M  V30 5324 H 502.228 -1.16113 1.77852 0
M  V30 5325 H 504.491 -0.56947 0.757897 0
M  V30 5326 H 504.197 -2.55551 2.41633 0
M  V30 5327 H 504.071 -3.62779 1.03303 0
M  V30 5328 H 506.458 -2.93303 0.325163 0
M  V30 5329 H 506.539 -1.87443 1.74066 0
M  V30 5330 H 506.183 -3.90286 3.25022 0
M  V30 5331 H 506.113 -4.94599 1.80774 0
M  V30 5332 H 508.604 -3.39051 1.66891 0
M  V30 5333 H 508.917 -6.63468 3.96271 0
M  V30 5334 H 507.262 -5.9703 3.5578 0
M  V30 5335 H 510.453 -4.1619 2.14251 0
M  V30 5336 H 510.626 -5.64137 3.18831 0
M  V30 5337 N 504.032 -0.577932 -1.46621 0
M  V30 5338 C 504.962 0.145917 -2.33044 0
M  V30 5339 C 505.943 0.888412 -1.45056 0
M  V30 5340 O 507.128 0.864812 -1.73881 0
M  V30 5341 C 504.258 1.16322 -3.27241 0
M  V30 5342 C 503.212 0.535868 -4.24632 0
M  V30 5343 C 502.538 1.65929 -5.08303 0
M  V30 5344 C 503.838 -0.523861 -5.19666 0
M  V30 5345 H 505.532 -0.575636 -2.93814 0
M  V30 5346 H 503.078 -0.278272 -1.41286 0
M  V30 5347 H 505.031 1.67793 -3.86553 0
M  V30 5348 H 503.755 1.91498 -2.64567 0
M  V30 5349 H 502.414 0.0422759 -3.66576 0
M  V30 5350 H 502.062 2.40061 -4.42018 0
M  V30 5351 H 501.762 1.2452 -5.74255 0
M  V30 5352 H 503.286 2.17686 -5.70478 0
M  V30 5353 H 504.7 -0.0944059 -5.73222 0
M  V30 5354 H 503.097 -0.858 -5.93935 0
M  V30 5355 H 504.167 -1.41197 -4.63887 0
M  V30 5356 N 505.51 1.54411 -0.315457 0
M  V30 5357 C 506.921 1.85885 0.174265 0
M  V30 5358 C 507.272 1.23723 1.52273 0
M  V30 5359 O 506.397 0.540246 2.09548 0
M  V30 5360 C 506.992 3.37257 0.322981 0
M  V30 5361 C 505.551 3.68711 0.756922 0
M  V30 5362 C 504.698 2.77013 -0.126195 0
M  V30 5363 H 507.649 1.49374 -0.536007 0
M  V30 5364 H 507.67 3.62539 1.15522 0
M  V30 5365 H 507.182 3.82471 -0.658602 0
M  V30 5366 H 505.283 3.29024 1.74854 0
M  V30 5367 H 505.396 4.75741 0.566291 0
M  V30 5368 H 503.76 2.51588 0.39692 0
M  V30 5369 H 504.543 3.25051 -1.1044 0
M  V30 5370 N 506.988 0.0434614 1.5754 0
M  V30 5371 C 508.404 -0.313039 1.565 0
M  V30 5372 C 508.604 -1.71954 1.05043 0
M  V30 5373 O 507.66 -2.425 0.703564 0
M  V30 5374 C 508.973 -0.148544 3.00333 0
M  V30 5375 C 510.521 -0.220231 3.12224 0
M  V30 5376 C 510.996 -0.0843565 4.57922 0
M  V30 5377 N 512.487 -0.140881 4.62986 0
M  V30 5378 C 513.222 -0.0597443 5.73369 0
M  V30 5379 N 512.718 0.0733004 6.92761 0
M  V30 5380 N 514.511 -0.11477 5.61983 0
M  V30 5381 H 506.662 0.96303 1.89313 0
M  V30 5382 H 508.925 0.373164 0.871466 0
M  V30 5383 H 508.631 0.820894 3.41986 0
M  V30 5384 H 508.505 -0.912798 3.65989 0
M  V30 5385 H 510.892 -1.18014 2.70475 0
M  V30 5386 H 510.973 0.574646 2.49262 0
M  V30 5387 H 510.617 0.872192 5.00355 0
M  V30 5388 H 510.547 -0.898281 5.18882 0
M  V30 5389 H 513.038 -0.243273 3.77116 0
M  V30 5390 H 513.351 0.128128 7.72694 0
M  V30 5391 H 511.696 0.10828 6.94916 0
M  V30 5392 H 514.887 -0.217212 4.67596 0
M  V30 5393 H 515.06 -0.0480779 6.47982 0
M  V30 5394 N 508.466 -1.55915 -0.229846 0
M  V30 5395 C 509.877 -1.68809 -0.797531 0
M  V30 5396 C 510.228 -0.643995 -1.8533 0
M  V30 5397 O 509.353 0.206492 -2.15413 0
M  V30 5398 C 509.948 -3.06043 -1.45338 0
M  V30 5399 C 508.507 -3.20819 -1.96856 0
M  V30 5400 C 507.654 -2.6472 -0.825736 0
M  V30 5401 H 510.605 -1.58699 -0.00533733 0
M  V30 5402 H 510.626 -3.01438 -2.32196 0
M  V30 5403 H 510.138 -3.82012 -0.684743 0
M  V30 5404 H 508.239 -2.49704 -2.76548 0
M  V30 5405 H 508.352 -4.27937 -2.15423 0
M  V30 5406 H 506.716 -2.22985 -1.23084 0
M  V30 5407 H 507.499 -3.43229 -0.0699019 0
M  V30 5408 N 509.944 0.496216 -1.49584 0
M  V30 5409 C 511.355 1.07765 -1.52459 0
M  V30 5410 C 511.706 1.93679 -0.31353 0
M  V30 5411 O 510.831 2.08588 0.576186 0
M  V30 5412 C 511.426 1.96111 -2.76271 0
M  V30 5413 C 509.985 2.49409 -2.81908 0
M  V30 5414 C 509.132 1.27142 -2.46435 0
M  V30 5415 H 512.083 0.279914 -1.56212 0
M  V30 5416 H 512.104 2.80862 -2.56704 0
M  V30 5417 H 511.616 1.33555 -3.64396 0
M  V30 5418 H 509.717 3.1559 -1.98074 0
M  V30 5419 H 509.83 2.86234 -3.84196 0
M  V30 5420 H 508.194 1.59818 -1.98319 0
M  V30 5421 H 508.977 0.662866 -3.3684 0
M  V30 5422 N 511.423 1.38739 0.74761 0
M  V30 5423 C 512.353 1.39173 1.87492 0
M  V30 5424 C 513.334 0.256794 1.6815 0
M  V30 5425 O 514.519 0.460762 1.88655 0
M  V30 5426 C 511.649 1.22197 3.25093 0
M  V30 5427 C 510.603 2.32957 3.59047 0
M  V30 5428 C 509.929 2.01082 4.95449 0
M  V30 5429 C 511.229 3.75237 3.6331 0
M  V30 5430 H 512.923 2.3351 1.87386 0
M  V30 5431 H 510.469 1.12399 0.900134 0
M  V30 5432 H 512.422 1.21124 4.03617 0
M  V30 5433 H 511.146 0.243241 3.25693 0
M  V30 5434 H 509.805 2.33226 2.82845 0
M  V30 5435 H 509.453 1.01678 4.92616 0
M  V30 5436 H 509.153 2.75267 5.19136 0
M  V30 5437 H 510.677 2.01638 5.76346 0
M  V30 5438 H 512.091 3.76966 4.31937 0
M  V30 5439 H 510.488 4.48677 3.98509 0
M  V30 5440 H 511.558 4.07122 2.634 0
M  V30 5441 N 512.901 -0.976442 1.23707 0
M  V30 5442 C 514.141 -1.73331 1.08332 0
M  V30 5443 C 514.505 -1.88346 -0.372781 0
M  V30 5444 O 515.706 -2.60877 -0.647813 0
M  V30 5445 C 513.977 -3.09159 1.7932 0
M  V30 5446 S 515.536 -4.00376 1.79567 0
M  V30 5447 H 512.354 -0.596045 0.387622 0
M  V30 5448 H 514.956 -1.16625 1.56904 0
M  V30 5449 H 513.66 -2.95884 2.84395 0
M  V30 5450 H 513.191 -3.70932 1.31046 0
M  V30 5451 H 515.206 -4.88742 0.857094 0
M  V30 5452 N 514.379 -1.04941 -1.1758 0
M  V30 5453 C 515.604 -0.778253 -1.92245 0
M  V30 5454 C 516.029 0.659707 -1.76152 0
M  V30 5455 O 515.387 1.45803 -1.07755 0
M  V30 5456 C 515.435 -1.16051 -3.41416 0
M  V30 5457 O 514.539 -0.291153 -4.11371 0
M  V30 5458 H 513.88 -0.285619 -0.599431 0
M  V30 5459 H 516.41 -1.40159 -1.49052 0
M  V30 5460 H 516.42 -1.12619 -3.92149 0
M  V30 5461 H 515.095 -2.208 -3.52449 0
M  V30 5462 H 513.672 -0.385851 -3.70898 0
M  V30 5463 N 515.857 1.33968 -0.830081 0
M  V30 5464 C 517.273 1.51003 -0.516742 0
M  V30 5465 C 517.473 1.77286 0.957694 0
M  V30 5466 O 516.529 1.82797 1.74188 0
M  V30 5467 C 517.842 2.67036 -1.38247 0
M  V30 5468 C 519.39 2.80919 -1.38034 0
M  V30 5469 C 519.865 4.00004 -2.23071 0
M  V30 5470 N 521.356 4.07224 -2.20733 0
M  V30 5471 C 522.091 4.98541 -2.83275 0
M  V30 5472 N 521.587 5.95033 -3.54835 0
M  V30 5473 N 523.38 4.91469 -2.72791 0
M  V30 5474 H 515.531 1.15168 -1.78466 0
M  V30 5475 H 517.794 0.565443 -0.760906 0
M  V30 5476 H 517.5 2.54266 -2.42985 0
M  V30 5477 H 517.374 3.62226 -1.05225 0
M  V30 5478 H 519.761 2.93127 -0.340713 0
M  V30 5479 H 519.842 1.86517 -1.75057 0
M  V30 5480 H 519.486 3.88557 -3.27087 0
M  V30 5481 H 519.416 4.93634 -1.83394 0
M  V30 5482 H 521.907 3.38162 -1.68687 0
M  V30 5483 H 522.22 6.61357 -3.99784 0
M  V30 5484 H 520.565 5.95135 -3.58942 0
M  V30 5485 H 523.756 4.15048 -2.16456 0
M  V30 5486 H 523.929 5.62439 -3.21818 0
M  V30 5487 N 517.335 0.585699 1.46312 0
M  V30 5488 C 518.298 -0.135673 2.28798 0
M  V30 5489 C 519.298 -0.815988 1.38558 0
M  V30 5490 O 520.488 -0.667487 1.60904 0
M  V30 5491 C 517.62 -1.20163 3.1902 0
M  V30 5492 H 518.813 0.589257 2.94054 0
M  V30 5493 H 516.366 0.343794 1.52472 0
M  V30 5494 H 517.101 -1.95804 2.58517 0
M  V30 5495 H 516.886 -0.718282 3.85465 0
M  V30 5496 H 518.376 -1.70749 3.81096 0
M  V30 5497 N 518.813 -1.54241 0.323641 0
M  V30 5498 C 519.743 -2.27289 -0.534993 0
M  V30 5499 C 520.724 -1.28087 -1.11927 0
M  V30 5500 O 521.909 -1.56899 -1.14439 0
M  V30 5501 C 519.039 -3.03075 -1.69596 0
M  V30 5502 C 517.993 -4.09614 -1.24098 0
M  V30 5503 C 517.319 -4.73242 -2.4889 0
M  V30 5504 C 518.619 -5.21087 -0.355789 0
M  V30 5505 H 520.313 -2.99308 0.0743257 0
M  V30 5506 H 517.859 -1.43952 0.0371874 0
M  V30 5507 H 519.812 -3.52907 -2.30293 0
M  V30 5508 H 518.536 -2.28673 -2.33187 0
M  V30 5509 H 517.195 -3.60666 -0.656945 0
M  V30 5510 H 516.843 -3.95455 -3.10845 0
M  V30 5511 H 516.543 -5.45209 -2.19138 0
M  V30 5512 H 518.067 -5.25848 -3.10348 0
M  V30 5513 H 519.481 -5.66675 -0.869042 0
M  V30 5514 H 517.878 -5.9991 -0.151045 0
M  V30 5515 H 518.948 -4.81005 0.613339 0
M  V30 5516 N 520.291 -0.0518155 -1.57515 0
M  V30 5517 C 521.521 0.63048 -1.96745 0
M  V30 5518 C 521.929 1.64875 -0.928054 0
M  V30 5519 O 521.272 1.83449 0.0960678 0
M  V30 5520 C 521.334 1.37381 -3.32215 0
M  V30 5521 C 520.998 0.511298 -4.54131 0
M  V30 5522 C 521.995 -0.222884 -5.19422 0
M  V30 5523 C 519.68 0.442035 -5.00351 0
M  V30 5524 C 521.674 -1.01476 -6.2927 0
M  V30 5525 C 519.361 -0.35353 -6.10077 0
M  V30 5526 C 520.359 -1.08062 -6.74397 0
M  V30 5527 O 520.047 -1.8631 -7.82013 0
M  V30 5528 H 519.779 0.177126 -0.652382 0
M  V30 5529 H 522.333 -0.114726 -2.05079 0
M  V30 5530 H 520.563 2.16466 -3.20436 0
M  V30 5531 H 522.252 1.9464 -3.56188 0
M  V30 5532 H 523.018 -0.178846 -4.8467 0
M  V30 5533 H 518.897 0.997562 -4.50077 0
M  V30 5534 H 522.441 -1.58279 -6.79407 0
M  V30 5535 H 518.338 -0.399205 -6.44264 0
M  V30 5536 H 519.106 -1.78528 -7.98793 0
M  V30 5537 N 521.769 1.56035 0.221574 0
M  V30 5538 C 522.994 1.83476 0.967026 0
M  V30 5539 C 523.419 0.632139 1.7716 0
M  V30 5540 O 522.777 -0.419082 1.7639 0
M  V30 5541 C 522.825 3.08907 1.86034 0
M  V30 5542 O 521.929 2.876 2.95567 0
M  V30 5543 H 521.27 0.604913 0.273817 0
M  V30 5544 H 523.8 2.03247 0.234893 0
M  V30 5545 H 523.81 3.3901 2.27016 0
M  V30 5546 H 522.485 3.96068 1.26898 0
M  V30 5547 H 521.062 2.6873 2.58532 0
M  V30 5548 N 523.247 -0.488276 1.49845 0
M  V30 5549 C 524.177 -1.59675 1.70371 0
M  V30 5550 C 525.158 -1.60878 0.552473 0
M  V30 5551 O 526.343 -1.77417 0.78973 0
M  V30 5552 C 523.473 -2.98098 1.782 0
M  V30 5553 C 522.427 -3.11761 2.93239 0
M  V30 5554 C 521.753 -4.51661 2.86193 0
M  V30 5555 C 523.053 -2.90589 4.33999 0
M  V30 5556 H 524.747 -1.42752 2.63177 0
M  V30 5557 H 522.293 -0.685317 1.26647 0
M  V30 5558 H 524.246 -3.75555 1.91144 0
M  V30 5559 H 522.97 -3.16138 0.820018 0
M  V30 5560 H 521.629 -2.36732 2.79917 0
M  V30 5561 H 521.277 -4.66595 1.87877 0
M  V30 5562 H 520.977 -4.61742 3.63412 0
M  V30 5563 H 522.501 -5.31162 3.01163 0
M  V30 5564 H 523.915 -3.57807 4.47936 0
M  V30 5565 H 522.312 -3.1213 5.12538 0
M  V30 5566 H 523.382 -1.86595 4.4756 0
M  V30 5567 N 524.725 -1.39134 -0.740242 0
M  V30 5568 C 525.688 -1.37217 -1.83587 0
M  V30 5569 C 526.688 -0.270221 -1.58513 0
M  V30 5570 O 527.878 -0.527843 -1.6601 0
M  V30 5571 C 525.01 -1.13959 -3.21288 0
M  V30 5572 H 526.203 -2.34705 -1.86691 0
M  V30 5573 H 523.756 -1.24622 -0.94335 0
M  V30 5574 H 524.491 -0.17131 -3.23847 0
M  V30 5575 H 524.276 -1.93754 -3.40884 0
M  V30 5576 H 525.766 -1.15346 -4.01354 0
M  V30 5577 N 526.204 0.969867 -1.24223 0
M  V30 5578 C 527.134 2.08191 -1.05729 0
M  V30 5579 C 528.115 1.70075 0.0290765 0
M  V30 5580 O 529.3 1.93712 -0.137583 0
M  V30 5581 C 526.43 3.40991 -0.658995 0
M  V30 5582 C 525.384 3.93054 -1.69389 0
M  V30 5583 C 524.71 5.22171 -1.15072 0
M  V30 5584 C 526.01 4.21137 -3.08935 0
M  V30 5585 H 527.704 2.23921 -1.98746 0
M  V30 5586 H 525.25 1.07602 -0.956967 0
M  V30 5587 H 527.203 4.18221 -0.51662 0
M  V30 5588 H 525.927 3.25155 0.30686 0
M  V30 5589 H 524.586 3.17977 -1.82444 0
M  V30 5590 H 524.234 5.02694 -0.175539 0
M  V30 5591 H 523.934 5.57973 -1.84229 0
M  V30 5592 H 525.458 6.02013 -1.02042 0
M  V30 5593 H 526.872 4.8908 -2.99121 0
M  V30 5594 H 525.269 4.68163 -3.75425 0
M  V30 5595 H 526.339 3.27996 -3.57137 0
M  V30 5596 N 527.682 1.05563 1.17022 0
M  V30 5597 C 529.098 0.777684 1.39371 0
M  V30 5598 C 529.298 -0.626269 1.91521 0
M  V30 5599 O 528.354 -1.38806 2.10924 0
M  V30 5600 C 529.667 1.83642 2.3811 0
M  V30 5601 C 531.215 1.85907 2.51809 0
M  V30 5602 C 531.69 2.90813 3.53824 0
M  V30 5603 N 533.181 2.898 3.61345 0
M  V30 5604 C 533.916 3.6762 4.40049 0
M  V30 5605 N 533.412 4.55237 5.22237 0
M  V30 5606 N 535.205 3.56044 4.34959 0
M  V30 5607 H 527.356 1.9614 0.815047 0
M  V30 5608 H 529.619 0.849527 0.420722 0
M  V30 5609 H 529.325 2.84425 2.06871 0
M  V30 5610 H 529.199 1.6812 3.37662 0
M  V30 5611 H 531.586 0.857865 2.82356 0
M  V30 5612 H 531.667 2.05506 1.52318 0
M  V30 5613 H 531.311 3.91122 3.24015 0
M  V30 5614 H 531.241 2.68465 4.53028 0
M  V30 5615 H 533.732 2.26274 3.02669 0
M  V30 5616 H 534.045 5.11291 5.79484 0
M  V30 5617 H 532.39 4.59296 5.21605 0
M  V30 5618 H 535.581 2.86986 3.69806 0
M  V30 5619 H 535.754 4.16938 4.96051 0
M  V30 5620 N 529.16 -1.33526 0.837174 0
M  V30 5621 C 530.4 -1.99649 0.438115 0
M  V30 5622 C 530.764 -1.64879 -0.983816 0
M  V30 5623 O 531.965 -2.23956 -1.48651 0
M  V30 5624 C 530.236 -3.51431 0.650461 0
M  V30 5625 S 531.795 -4.37431 0.346371 0
M  V30 5626 H 528.613 -0.69162 0.164872 0
M  V30 5627 H 531.215 -1.62556 1.08609 0
M  V30 5628 H 529.919 -3.74225 1.68475 0
M  V30 5629 H 529.45 -3.93398 -0.0117309 0
M  V30 5630 H 531.465 -4.89132 -0.834504 0
M  V30 5631 N 530.638 -0.59345 -1.46 0
M  V30 5632 C 531.884 -0.0916503 -2.03193 0
M  V30 5633 C 532.239 1.25839 -1.45541 0
M  V30 5634 O 531.532 1.81455 -0.615191 0
M  V30 5635 C 531.726 0.021178 -3.57394 0
M  V30 5636 C 531.555 -1.31638 -4.30002 0
M  V30 5637 C 530.325 -1.89336 -4.68487 0
M  V30 5638 C 532.523 -2.242 -4.62859 0
M  V30 5639 N 530.505 -3.1672 -5.25891 0
M  V30 5640 C 531.876 -3.36175 -5.20948 0
M  V30 5641 C 533.931 -2.23748 -4.44794 0
M  V30 5642 C 532.634 -4.47844 -5.62875 0
M  V30 5643 C 534.66 -3.34454 -4.87744 0
M  V30 5644 C 534.022 -4.4515 -5.45913 0
M  V30 5645 H 530.121 -0.0765713 -0.778242 0
M  V30 5646 H 532.705 -0.788705 -1.7801 0
M  V30 5647 H 530.876 0.687423 -3.82268 0
M  V30 5648 H 532.608 0.528343 -4.01236 0
M  V30 5649 H 529.363 -1.42704 -4.51589 0
M  V30 5650 H 529.787 -3.81746 -5.59106 0
M  V30 5651 H 534.429 -1.39433 -3.99147 0
M  V30 5652 H 532.147 -5.32894 -6.07495 0
M  V30 5653 H 535.733 -3.35234 -4.75509 0
M  V30 5654 H 534.613 -5.29398 -5.78539 0
M  V30 5655 N 532.116 1.54067 -0.331816 0
M  V30 5656 C 533.079 2.23275 0.517768 0
M  V30 5657 C 534.079 1.22897 1.03697 0
M  V30 5658 O 535.269 1.47419 0.928084 0
M  V30 5659 C 532.401 2.94326 1.72004 0
M  V30 5660 H 533.594 2.99773 -0.0873507 0
M  V30 5661 H 531.147 1.56079 -0.0830042 0
M  V30 5662 H 531.882 2.21986 2.36417 0
M  V30 5663 H 531.667 3.67941 1.35507 0
M  V30 5664 H 533.157 3.47031 2.32291 0
M  V30 5665 N 533.594 0.0601682 1.57485 0
M  V30 5666 C 535.005 -0.474217 1.80577 0
M  V30 5667 C 535.356 -1.70365 0.973147 0
M  V30 5668 O 534.481 -2.15544 0.192306 0
M  V30 5669 C 535.076 -0.867102 3.27516 0
M  V30 5670 C 533.635 -1.34642 3.51495 0
M  V30 5671 C 532.782 -0.32594 2.75378 0
M  V30 5672 H 535.733 0.285973 1.56102 0
M  V30 5673 H 535.754 -1.72938 3.38929 0
M  V30 5674 H 535.266 0.0278927 3.8809 0
M  V30 5675 H 533.367 -2.2603 2.96212 0
M  V30 5676 H 533.48 -1.33237 4.60201 0
M  V30 5677 H 531.844 -0.800749 2.41785 0
M  V30 5678 H 532.627 0.561125 3.38683 0
M  V30 5679 N 535.072 -1.5615 -0.213296 0
M  V30 5680 C 536.022 -1.89485 -1.26804 0
M  V30 5681 C 537.006 -0.758713 -1.41889 0
M  V30 5682 O 538.198 -1.02127 -1.44565 0
M  V30 5683 C 535.327 -2.22219 -2.61675 0
M  V30 5684 C 534.413 -3.42245 -2.50458 0
M  V30 5685 N 534.804 -4.60645 -2.089 0
M  V30 5686 C 533.102 -3.46023 -2.81397 0
M  V30 5687 C 533.803 -5.42805 -2.09135 0
M  V30 5688 N 532.779 -4.82732 -2.49941 0
M  V30 5689 H 536.581 -2.78537 -0.937771 0
M  V30 5690 H 534.095 -1.56826 -0.421824 0
M  V30 5691 H 536.092 -2.44278 -3.37837 0
M  V30 5692 H 534.752 -1.34484 -2.95541 0
M  V30 5693 H 535.763 -4.85651 -1.79899 0
M  V30 5694 H 532.44 -2.68654 -3.1958 0
M  V30 5695 H 533.83 -6.47601 -1.79059 0
M  V30 5696 N 536.55 0.480323 -1.50102 0
M  V30 5697 C 537.961 1.06142 -1.53593 0
M  V30 5698 C 538.312 1.93335 -0.334055 0
M  V30 5699 O 537.437 2.09188 0.55403 0
M  V30 5700 C 538.032 1.9317 -2.78336 0
M  V30 5701 C 536.591 2.46405 -2.84538 0
M  V30 5702 C 535.738 1.24521 -2.4777 0
M  V30 5703 H 538.689 0.26333 -1.565 0
M  V30 5704 H 538.71 2.78123 -2.59669 0
M  V30 5705 H 538.222 1.29683 -3.65792 0
M  V30 5706 H 536.323 3.13472 -2.01411 0
M  V30 5707 H 536.436 2.82143 -3.87211 0
M  V30 5708 H 534.8 1.57706 -2.00003 0
M  V30 5709 H 535.583 0.627102 -3.37524 0
M  V30 5710 N 538.028 1.39524 0.732853 0
M  V30 5711 C 538.991 1.38189 1.82857 0
M  V30 5712 C 539.991 0.278624 1.58368 0
M  V30 5713 O 541.181 0.536639 1.65728 0
M  V30 5714 C 538.313 1.15661 3.2068 0
M  V30 5715 H 539.506 2.35692 1.85444 0
M  V30 5716 H 537.059 1.2512 0.936728 0
M  V30 5717 H 537.794 0.188482 3.23752 0
M  V30 5718 H 537.579 1.95559 3.39852 0
M  V30 5719 H 539.069 1.17472 4.00737 0
M  V30 5720 N 539.506 -0.963266 1.24736 0
M  V30 5721 C 540.783 -1.68248 0.9976 0
M  V30 5722 C 541.163 -2.05599 -0.478776 0
M  V30 5723 O 540.511 -1.7626 -1.45412 0
M  V30 5724 C 540.721 -2.91118 1.92487 0
M  V30 5725 C 542.069 -3.63261 2.19833 0
M  V30 5726 O 543.093 -3.01184 1.90176 0
M  V30 5727 O 541.952 -4.75019 2.7022 0
M  V30 5728 H 539.046 -0.735744 0.377637 0
M  V30 5729 H 541.592 -1.01696 1.35853 0
M  V30 5730 H 540.364 -2.60242 2.92215 0
M  V30 5731 H 539.987 -3.65402 1.56738 0
M  V30 5732 N 540.985 -1.06182 -1.16461 0
M  V30 5733 C 542.401 -0.785065 -1.38956 0
M  V30 5734 C 542.601 0.616103 -1.9185 0
M  V30 5735 O 541.657 1.37686 -2.11657 0
M  V30 5736 C 542.97 -1.84902 -2.37132 0
M  V30 5737 C 544.518 -1.8724 -2.50819 0
M  V30 5738 C 544.993 -2.92686 -3.52277 0
M  V30 5739 N 546.484 -2.91712 -3.59803 0
M  V30 5740 C 547.219 -3.69949 -4.38093 0
M  V30 5741 N 546.715 -4.58 -5.19815 0
M  V30 5742 N 548.508 -3.58346 -4.33064 0
M  V30 5743 H 540.659 -1.96569 -0.804634 0
M  V30 5744 H 542.922 -0.851747 -0.416211 0
M  V30 5745 H 542.628 -2.85518 -2.0536 0
M  V30 5746 H 542.502 -1.69908 -3.36766 0
M  V30 5747 H 544.889 -0.872827 -2.81897 0
M  V30 5748 H 544.97 -2.06311 -1.51226 0
M  V30 5749 H 544.614 -3.92835 -3.21937 0
M  V30 5750 H 544.544 -2.70864 -4.51598 0
M  V30 5751 H 547.035 -2.27876 -3.01464 0
M  V30 5752 H 547.348 -5.14357 -5.76764 0
M  V30 5753 H 545.693 -4.62056 -5.19162 0
M  V30 5754 H 548.884 -2.88943 -3.68279 0
M  V30 5755 H 549.057 -4.19563 -4.93833 0
M  V30 5756 N 542.463 1.3308 -0.844243 0
M  V30 5757 C 543.874 1.7992 -0.498566 0
M  V30 5758 C 544.225 1.69808 0.982834 0
M  V30 5759 O 543.35 1.25051 1.7661 0
M  V30 5760 C 543.945 3.26677 -0.898204 0
M  V30 5761 C 542.504 3.71513 -0.604583 0
M  V30 5762 C 541.651 2.54393 -1.10362 0
M  V30 5763 H 544.602 1.20526 -1.03244 0
M  V30 5764 H 544.623 3.79918 -0.21039 0
M  V30 5765 H 544.135 3.34004 -1.97643 0
M  V30 5766 H 542.236 3.69708 0.46335 0
M  V30 5767 H 542.349 4.64755 -1.16358 0
M  V30 5768 H 540.713 2.49246 -0.524273 0
M  V30 5769 H 541.496 2.6448 -2.18873 0
M  V30 5770 N 543.941 0.601185 1.45683 0
M  V30 5771 C 545.166 0.0982245 2.07167 0
M  V30 5772 C 545.591 -1.20546 1.44396 0
M  V30 5773 O 544.949 -1.73247 0.534347 0
M  V30 5774 C 544.997 -0.0346976 3.60583 0
M  V30 5775 O 544.101 -1.08657 3.97828 0
M  V30 5776 H 543.442 0.0711618 0.660176 0
M  V30 5777 H 545.972 0.829376 1.87036 0
M  V30 5778 H 545.982 -0.234969 4.07323 0
M  V30 5779 H 544.657 0.917265 4.05659 0
M  V30 5780 H 543.234 -0.863275 3.6277 0
M  V30 5781 N 545.419 -1.53889 0.339982 0
M  V30 5782 C 546.666 -2.00855 -0.257621 0
M  V30 5783 C 546.994 -1.22788 -1.50842 0
M  V30 5784 O 546.249 -0.302567 -1.93347 0
M  V30 5785 C 546.548 -3.51968 -0.620735 0
M  V30 5786 C 546.214 -4.47741 0.532771 0
M  V30 5787 C 544.876 -4.73645 0.849339 0
M  V30 5788 C 547.228 -5.04551 1.3068 0
M  V30 5789 C 544.556 -5.53614 1.94237 0
M  V30 5790 C 546.908 -5.85713 2.39005 0
M  V30 5791 C 545.572 -6.09912 2.71225 0
M  V30 5792 H 544.842 -0.734979 -0.0942703 0
M  V30 5793 H 547.489 -1.85714 0.467159 0
M  V30 5794 H 545.794 -3.64921 -1.42618 0
M  V30 5795 H 547.491 -3.85762 -1.09495 0
M  V30 5796 H 544.081 -4.27711 0.275973 0
M  V30 5797 H 548.265 -4.84507 1.07549 0
M  V30 5798 H 543.521 -5.7059 2.19628 0
M  V30 5799 H 547.695 -6.28748 2.99415 0
M  V30 5800 H 545.322 -6.71665 3.56047 0
M  V30 5801 N 546.897 -0.0685191 -1.57451 0
M  V30 5802 C 548.122 0.613919 -1.98106 0
M  V30 5803 C 548.547 1.62551 -0.946501 0
M  V30 5804 O 547.905 1.81085 0.0882824 0
M  V30 5805 C 547.953 1.26189 -3.378 0
M  V30 5806 O 547.057 2.37773 -3.36954 0
M  V30 5807 H 546.398 0.158163 -0.644888 0
M  V30 5808 H 548.928 -0.142063 -2.04106 0
M  V30 5809 H 548.938 1.60951 -3.74912 0
M  V30 5810 H 547.613 0.520625 -4.12629 0
M  V30 5811 H 546.19 2.04829 -3.11608 0
M  V30 5812 N 548.375 1.56261 0.205012 0
M  V30 5813 C 549.325 1.90155 1.25798 0
M  V30 5814 C 550.309 0.766227 1.41484 0
M  V30 5815 O 551.501 1.02893 1.44021 0
M  V30 5816 C 548.63 2.23603 2.60493 0
M  V30 5817 C 547.716 3.43568 2.48639 0
M  V30 5818 N 548.107 4.61747 2.06455 0
M  V30 5819 C 546.405 3.4751 2.79558 0
M  V30 5820 C 547.106 5.43907 2.06253 0
M  V30 5821 N 546.082 4.84051 2.47377 0
M  V30 5822 H 549.884 2.79031 0.922986 0
M  V30 5823 H 547.398 1.57048 0.413501 0
M  V30 5824 H 549.395 2.46067 3.36537 0
M  V30 5825 H 548.055 1.36049 2.94823 0
M  V30 5826 H 549.066 4.86598 1.77321 0
M  V30 5827 H 545.743 2.70345 3.18151 0
M  V30 5828 H 547.133 6.48542 1.75622 0
M  V30 5829 N 549.853 -0.472356 1.50355 0
M  V30 5830 C 550.783 -1.57859 1.72055 0
M  V30 5831 C 551.764 -1.60283 0.569505 0
M  V30 5832 O 552.949 -1.7657 0.808503 0
M  V30 5833 C 550.079 -2.96191 1.81351 0
M  V30 5834 C 549.033 -3.08633 2.96529 0
M  V30 5835 C 548.359 -4.486 2.90968 0
M  V30 5836 C 549.659 -2.85969 4.37057 0
M  V30 5837 H 551.353 -1.39953 2.64676 0
M  V30 5838 H 548.899 -0.671846 1.27367 0
M  V30 5839 H 550.852 -3.73507 1.95117 0
M  V30 5840 H 549.576 -3.15251 0.853502 0
M  V30 5841 H 548.235 -2.33749 2.82413 0
M  V30 5842 H 547.883 -4.64577 1.92815 0
M  V30 5843 H 547.583 -4.57861 3.68289 0
M  V30 5844 H 549.107 -5.27938 3.0678 0
M  V30 5845 H 550.521 -3.53036 4.51706 0
M  V30 5846 H 548.918 -3.06677 5.15819 0
M  V30 5847 H 549.988 -1.81838 4.49514 0
M  V30 5848 N 551.331 -1.39911 -0.725443 0
M  V30 5849 C 552.241 -1.41688 -1.8698 0
M  V30 5850 C 553.257 -0.310579 -1.71206 0
M  V30 5851 O 554.433 -0.55359 -1.93642 0
M  V30 5852 C 551.498 -1.26811 -3.22676 0
M  V30 5853 C 550.559 -2.47497 -3.50776 0
M  V30 5854 C 549.792 -2.3332 -4.79997 0
M  V30 5855 O 550.015 -1.34175 -5.54394 0
M  V30 5856 O 548.949 -3.22498 -5.08211 0
M  V30 5857 H 552.775 -2.38171 -1.88436 0
M  V30 5858 H 550.36 -1.21128 -0.874548 0
M  V30 5859 H 552.242 -1.20684 -4.03749 0
M  V30 5860 H 550.917 -0.334289 -3.21969 0
M  V30 5861 H 549.824 -2.59201 -2.69751 0
M  V30 5862 H 551.157 -3.39606 -3.5627 0
M  V30 5863 N 552.809 0.956637 -1.25245 0
M  V30 5864 C 554.057 1.69764 -1.09657 0
M  V30 5865 C 554.378 1.91583 0.363464 0
M  V30 5866 O 553.648 1.50149 1.25825 0
M  V30 5867 H 552.228 0.629097 -0.402798 0
M  V30 5868 H 554.89 1.15026 -1.57337 0
M  V30 5869 H 553.986 2.67769 -1.60331 0
M  V30 5870 N 554.287 1.06798 1.15896 0
M  V30 5871 C 555.217 0.704677 2.22613 0
M  V30 5872 C 556.198 -0.305252 1.67339 0
M  V30 5873 O 557.383 -0.179247 1.93371 0
M  V30 5874 C 554.513 0.0957325 3.47168 0
M  V30 5875 C 553.467 1.0322 4.15367 0
M  V30 5876 C 552.793 0.286293 5.33933 0
M  V30 5877 C 554.093 2.36341 4.65768 0
M  V30 5878 H 555.787 1.59688 2.53259 0
M  V30 5879 H 553.333 0.769257 1.21731 0
M  V30 5880 H 555.286 -0.170333 4.21056 0
M  V30 5881 H 554.01 -0.831516 3.15838 0
M  V30 5882 H 552.669 1.28309 3.43413 0
M  V30 5883 H 552.317 -0.644237 4.98857 0
M  V30 5884 H 552.017 0.910436 5.80504 0
M  V30 5885 H 553.541 0.0278938 6.10594 0
M  V30 5886 H 554.955 2.1561 5.31211 0
M  V30 5887 H 553.352 2.94299 5.2298 0
M  V30 5888 H 554.422 2.99047 3.81705 0
M  V30 5889 N 555.766 -1.3263 0.851289 0
M  V30 5890 C 556.696 -2.31449 0.308771 0
M  V30 5891 C 557.677 -1.59531 -0.590255 0
M  V30 5892 O 558.862 -1.87351 -0.511205 0
M  V30 5893 C 555.992 -3.43586 -0.506548 0
M  V30 5894 C 554.946 -4.26963 0.297753 0
M  V30 5895 C 554.272 -5.30831 -0.642094 0
M  V30 5896 C 555.572 -4.99643 1.52166 0
M  V30 5897 H 557.266 -2.77074 1.13447 0
M  V30 5898 H 554.812 -1.33207 0.546971 0
M  V30 5899 H 556.765 -4.11754 -0.896474 0
M  V30 5900 H 555.489 -2.96681 -1.36558 0
M  V30 5901 H 554.148 -3.60437 0.669391 0
M  V30 5902 H 553.796 -4.8018 -1.49788 0
M  V30 5903 H 553.496 -5.87501 -0.107968 0
M  V30 5904 H 555.02 -6.01862 -1.02927 0
M  V30 5905 H 556.434 -5.6051 1.20421 0
M  V30 5906 H 554.831 -5.66022 1.99347 0
M  V30 5907 H 555.901 -4.27701 2.28474 0
M  V30 5908 N 557.244 -0.608902 -1.45362 0
M  V30 5909 C 558.176 0.147318 -2.28726 0
M  V30 5910 C 559.189 0.830468 -1.40025 0
M  V30 5911 O 560.378 0.695636 -1.64387 0
M  V30 5912 C 557.478 1.22968 -3.15804 0
M  V30 5913 C 556.651 0.633391 -4.3279 0
M  V30 5914 C 555.71 1.60682 -5.01067 0
M  V30 5915 O 554.736 1.13261 -5.57818 0
M  V30 5916 N 555.938 2.94123 -5.00472 0
M  V30 5917 H 558.703 -0.568014 -2.94268 0
M  V30 5918 H 556.264 -0.448479 -1.55564 0
M  V30 5919 H 558.256 1.88072 -3.58345 0
M  V30 5920 H 556.826 1.84752 -2.52162 0
M  V30 5921 H 556.046 -0.195762 -3.93714 0
M  V30 5922 H 557.334 0.215255 -5.08344 0
M  V30 5923 H 556.732 3.3525 -4.55657 0
M  V30 5924 H 555.289 3.54646 -5.46872 0
M  V30 5925 N 558.722 1.53707 -0.348139 0
M  V30 5926 C 559.632 2.28881 0.514857 0
M  V30 5927 C 560.648 1.34168 1.10793 0
M  V30 5928 O 561.824 1.6721 1.12262 0
M  V30 5929 C 558.889 3.05042 1.64774 0
M  V30 5930 C 557.95 4.15389 1.08398 0
M  V30 5931 C 557.183 4.87909 2.16287 0
M  V30 5932 O 557.406 4.60137 3.3709 0
M  V30 5933 O 556.34 5.74254 1.80323 0
M  V30 5934 H 560.166 3.03547 -0.0963699 0
M  V30 5935 H 557.751 1.48972 -0.113043 0
M  V30 5936 H 559.633 3.52656 2.30677 0
M  V30 5937 H 558.308 2.33228 2.24469 0
M  V30 5938 H 557.215 3.72068 0.389341 0
M  V30 5939 H 558.548 4.89318 0.531829 0
M  V30 5940 N 560.2 0.0768682 1.57412 0
M  V30 5941 C 561.163 -0.873949 2.11884 0
M  V30 5942 C 562.163 -1.22301 1.04398 0
M  V30 5943 O 563.353 -1.15545 1.30365 0
M  V30 5944 C 560.485 -2.17575 2.62438 0
M  V30 5945 H 561.678 -0.401278 2.97203 0
M  V30 5946 H 559.231 -0.171904 1.55352 0
M  V30 5947 H 559.966 -2.69368 1.80587 0
M  V30 5948 H 559.751 -1.93534 3.41009 0
M  V30 5949 H 561.241 -2.85631 3.04639 0
M  V30 5950 N 561.678 -1.56367 -0.196722 0
M  V30 5951 C 562.926 -1.80172 -0.915554 0
M  V30 5952 C 563.247 -0.649649 -1.8386 0
M  V30 5953 O 562.517 0.332111 -1.93064 0
M  V30 5954 H 561.097 -0.664592 -0.341067 0
M  V30 5955 H 563.759 -1.93844 -0.202622 0
M  V30 5956 H 562.855 -2.7327 -1.50764 0
M  V30 5957 N 563.156 0.464375 -1.50603 0
M  V30 5958 C 564.567 1.04507 -1.5471 0
M  V30 5959 C 564.918 1.9297 -0.354542 0
M  V30 5960 O 564.043 2.09763 0.531812 0
M  V30 5961 C 564.638 1.90207 -2.80369 0
M  V30 5962 C 563.197 2.43373 -2.87135 0
M  V30 5963 C 562.344 1.21886 -2.49076 0
M  V30 5964 H 565.295 0.246716 -1.56771 0
M  V30 5965 H 565.316 2.75353 -2.62604 0
M  V30 5966 H 564.828 1.25796 -3.67147 0
M  V30 5967 H 562.929 3.11318 -2.04724 0
M  V30 5968 H 563.042 2.7802 -3.90181 0
M  V30 5969 H 561.406 1.55575 -2.01664 0
M  V30 5970 H 562.189 0.591268 -3.3817 0
M  V30 5971 N 564.634 1.40294 0.718013 0
M  V30 5972 C 565.859 1.41941 1.5122 0
M  V30 5973 C 566.284 0.0202371 1.88089 0
M  V30 5974 O 565.642 -0.971078 1.53101 0
M  V30 5975 C 565.69 2.3141 2.76554 0
M  V30 5976 O 564.794 1.75567 3.73162 0
M  V30 5977 H 564.135 0.482644 0.456016 0
M  V30 5978 H 566.665 1.84494 0.884478 0
M  V30 5979 H 566.675 2.46513 3.25108 0
M  V30 5980 H 565.35 3.33085 2.49053 0
M  V30 5981 H 563.927 1.69798 3.31999 0
M  V30 5982 N 566.112 -0.949982 1.2575 0
M  V30 5983 C 567.022 -2.08109 1.08295 0
M  V30 5984 C 568.038 -1.7399 0.0188181 0
M  V30 5985 O 569.214 -2.00187 0.220724 0
M  V30 5986 C 566.279 -3.39383 0.708534 0
M  V30 5987 C 565.34 -3.8734 1.85111 0
M  V30 5988 C 564.573 -5.12349 1.49447 0
M  V30 5989 O 564.796 -5.6905 0.392212 0
M  V30 5990 O 563.73 -5.5513 2.32624 0
M  V30 5991 H 567.556 -2.25738 2.03165 0
M  V30 5992 H 565.141 -1.06545 1.04731 0
M  V30 5993 H 567.023 -4.18277 0.512061 0
M  V30 5994 H 565.698 -3.23013 -0.210854 0
M  V30 5995 H 564.605 -3.09429 2.10248 0
M  V30 5996 H 565.938 -4.08216 2.74991 0
M  V30 5997 N 567.59 -1.07411 -1.15328 0
M  V30 5998 C 568.553 -0.698914 -2.18284 0
M  V30 5999 C 569.553 0.261149 -1.58665 0
M  V30 6000 O 570.743 0.0420277 -1.74149 0
M  V30 6001 C 567.875 -0.0302427 -3.40887 0
M  V30 6002 H 569.068 -1.61045 -2.52991 0
M  V30 6003 H 566.621 -0.870724 -1.298 0
M  V30 6004 H 567.356 0.893505 -3.11748 0
M  V30 6005 H 567.141 -0.720759 -3.85419 0
M  V30 6006 H 568.631 0.21759 -4.17033 0
M  V30 6007 N 569.068 1.32177 -0.85831 0
M  V30 6008 C 570.308 1.98927 -0.469822 0
M  V30 6009 C 570.672 1.66423 0.95746 0
M  V30 6010 O 571.873 2.26293 1.45069 0
M  V30 6011 C 570.144 3.50352 -0.706288 0
M  V30 6012 S 571.703 4.36824 -0.415918 0
M  V30 6013 H 568.521 0.688909 -0.175855 0
M  V30 6014 H 571.123 1.60807 -1.11181 0
M  V30 6015 H 569.827 3.71497 -1.74407 0
M  V30 6016 H 569.358 3.93367 -0.0508568 0
M  V30 6017 H 571.373 4.90398 0.756581 0
M  V30 6018 N 570.547 0.616602 1.45037 0
M  V30 6019 C 571.787 0.118453 2.04056 0
M  V30 6020 C 572.151 -1.23104 1.47341 0
M  V30 6021 O 573.352 -1.82044 1.97771 0
M  V30 6022 C 571.623 0.0892842 3.57288 0
M  V30 6023 S 573.182 -0.346361 4.37431 0
M  V30 6024 H 570 0.0539728 0.708948 0
M  V30 6025 H 572.602 0.816731 1.77623 0
M  V30 6026 H 571.306 1.07481 3.96076 0
M  V30 6027 H 570.837 -0.630703 3.88311 0
M  V30 6028 H 572.852 -1.59389 4.69904 0
M  V30 6029 N 572.025 -1.5352 0.356285 0
M  V30 6030 C 573.271 -2.01414 -0.236653 0
M  V30 6031 C 573.604 -1.24339 -1.49176 0
M  V30 6032 O 572.879 -0.334496 -1.91602 0
M  V30 6033 C 573.162 -3.56059 -0.537982 0
M  V30 6034 C 573.015 -4.43835 0.730112 0
M  V30 6035 C 574.334 -4.19127 -1.34239 0
M  V30 6036 H 571.453 -0.732135 -0.0845386 0
M  V30 6037 H 574.095 -1.83854 0.479341 0
M  V30 6038 H 572.245 -3.71153 -1.14795 0
M  V30 6039 H 573.917 -4.40555 1.36782 0
M  V30 6040 H 572.16 -4.1218 1.3524 0
M  V30 6041 H 572.831 -5.49958 0.474358 0
M  V30 6042 H 575.307 -4.07809 -0.826498 0
M  V30 6043 H 574.183 -5.27378 -1.52198 0
M  V30 6044 H 574.444 -3.74581 -2.34822 0
M  V30 6045 N 573.503 -0.0852151 -1.57369 0
M  V30 6046 C 574.919 0.271436 -1.57275 0
M  V30 6047 C 575.119 1.69109 -1.09565 0
M  V30 6048 O 574.175 2.40549 -0.767611 0
M  V30 6049 C 575.488 0.0688638 -3.00621 0
M  V30 6050 C 577.036 0.137373 -3.12698 0
M  V30 6051 C 577.511 -0.0370832 -4.57985 0
M  V30 6052 N 579.002 0.0180794 -4.63196 0
M  V30 6053 C 579.737 -0.0922953 -5.73326 0
M  V30 6054 N 579.233 -0.256948 -6.92323 0
M  V30 6055 N 581.026 -0.0342702 -5.6209 0
M  V30 6056 H 573.177 -1.01288 -1.86693 0
M  V30 6057 H 575.44 -0.396138 -0.861266 0
M  V30 6058 H 575.146 -0.911277 -3.39689 0
M  V30 6059 H 575.02 0.815442 -3.6828 0
M  V30 6060 H 577.407 1.10801 -2.73509 0
M  V30 6061 H 577.488 -0.640532 -2.47651 0
M  V30 6062 H 577.132 -1.00455 -4.97867 0
M  V30 6063 H 577.062 0.760392 -5.21081 0
M  V30 6064 H 579.553 0.143202 -3.77629 0
M  V30 6065 H 579.866 -0.332949 -7.72082 0
M  V30 6066 H 578.211 -0.292487 -6.94384 0
M  V30 6067 H 581.402 0.0931605 -4.68007 0
M  V30 6068 H 581.575 -0.12374 -6.47882 0
M  V30 6069 N 574.981 1.5647 0.188427 0
M  V30 6070 C 576.258 1.71857 0.934058 0
M  V30 6071 C 576.638 0.641867 2.01105 0
M  V30 6072 O 575.986 -0.346098 2.25864 0
M  V30 6073 C 576.196 3.14431 1.5144 0
M  V30 6074 C 577.544 3.74869 1.99396 0
M  V30 6075 O 578.568 3.17601 1.61269 0
M  V30 6076 O 577.427 4.75387 2.69573 0
M  V30 6077 H 574.521 0.701186 0.438483 0
M  V30 6078 H 577.067 1.68768 0.177599 0
M  V30 6079 H 575.839 3.8427 0.738416 0
M  V30 6080 H 575.462 3.21775 2.33552 0
M  V30 6081 N 576.459 -0.456382 1.50847 0
M  V30 6082 C 577.705 -1.20914 1.62811 0
M  V30 6083 C 578.038 -1.91301 0.334304 0
M  V30 6084 O 577.313 -1.82775 -0.665098 0
M  V30 6085 C 577.596 -2.24122 2.81853 0
M  V30 6086 C 577.449 -1.57944 4.21158 0
M  V30 6087 C 578.768 -3.25295 2.96431 0
M  V30 6088 H 575.887 -0.438233 0.592554 0
M  V30 6089 H 578.529 -0.50091 1.83278 0
M  V30 6090 H 576.679 -2.84524 2.64534 0
M  V30 6091 H 578.351 -1.01025 4.50102 0
M  V30 6092 H 576.594 -0.882185 4.24735 0
M  V30 6093 H 577.265 -2.33014 5.00408 0
M  V30 6094 H 579.741 -2.7493 3.12335 0
M  V30 6095 H 578.617 -3.94822 3.81322 0
M  V30 6096 H 578.878 -3.90286 2.07676 0
M  V30 6097 N 577.937 -1.40673 -0.710563 0
M  V30 6098 C 579.165 -1.42547 -1.4996 0
M  V30 6099 C 579.58 -0.0265485 -1.88781 0
M  V30 6100 O 578.937 0.950694 -1.55782 0
M  V30 6101 C 578.988 -2.32071 -2.77173 0
M  V30 6102 O 578.709 -3.66518 -2.39992 0
M  V30 6103 C 580.21 -2.42591 -3.71032 0
M  V30 6104 H 577.43 -0.486025 -0.462623 0
M  V30 6105 H 579.974 -1.84783 -0.876102 0
M  V30 6106 H 578.129 -1.93184 -3.35795 0
M  V30 6107 H 578.543 -4.14115 -3.21884 0
M  V30 6108 H 580.017 -3.09429 -4.57119 0
M  V30 6109 H 580.494 -1.4525 -4.14486 0
M  V30 6110 H 581.1 -2.82051 -3.18319 0
M  V30 6111 N 579.415 0.9433 -1.26252 0
M  V30 6112 C 580.325 2.07532 -1.09397 0
M  V30 6113 C 581.341 1.73977 -0.0280449 0
M  V30 6114 O 582.517 2.00067 -0.231337 0
M  V30 6115 C 579.582 3.39002 -0.726523 0
M  V30 6116 C 578.643 3.86353 -1.87163 0
M  V30 6117 C 577.876 5.11549 -1.52162 0
M  V30 6118 O 578.099 5.68834 -0.422385 0
M  V30 6119 O 577.033 5.53889 -2.35565 0
M  V30 6120 H 580.859 2.24658 -2.04359 0
M  V30 6121 H 578.444 1.05988 -1.05295 0
M  V30 6122 H 580.326 4.18 -0.534236 0
M  V30 6123 H 579.001 3.2312 0.193721 0
M  V30 6124 H 577.908 3.0831 -2.11886 0
M  V30 6125 H 579.241 4.06752 -2.77152 0
M  V30 6126 N 580.893 1.08022 1.14757 0
M  V30 6127 C 582.304 0.829144 1.67279 0
M  V30 6128 C 582.655 -0.644721 1.85305 0
M  V30 6129 O 581.78 -1.49838 1.56133 0
M  V30 6130 C 582.375 1.49855 3.03857 0
M  V30 6131 C 580.934 1.29482 3.53428 0
M  V30 6132 C 580.081 1.56386 2.28995 0
M  V30 6133 H 583.032 1.24134 0.988762 0
M  V30 6134 H 583.053 0.923572 3.69121 0
M  V30 6135 H 582.565 2.57123 2.90705 0
M  V30 6136 H 580.666 0.242669 3.71809 0
M  V30 6137 H 580.779 2.01974 4.34446 0
M  V30 6138 H 579.143 0.985217 2.34874 0
M  V30 6139 H 579.926 2.64851 2.18423 0
M  V30 6140 N 582.371 -1.3172 0.865308 0
M  V30 6141 C 583.619 -1.96487 0.472995 0
M  V30 6142 C 583.94 -1.68761 -0.976975 0
M  V30 6143 O 583.21 -1.00051 -1.68424 0
M  V30 6144 H 581.79 -0.726947 0.171922 0
M  V30 6145 H 584.452 -1.60612 1.10407 0
M  V30 6146 H 583.548 -3.0574 0.62687 0
M  V30 6147 N 583.85 -0.624285 -1.44708 0
M  V30 6148 C 584.812 0.0749638 -2.29077 0
M  V30 6149 C 585.812 0.778965 -1.40673 0
M  V30 6150 O 587.003 0.624591 -1.62618 0
M  V30 6151 C 584.135 1.11663 -3.22094 0
M  V30 6152 H 585.327 -0.667013 -2.92388 0
M  V30 6153 H 582.88 -0.384098 -1.51507 0
M  V30 6154 H 583.615 1.88881 -2.63618 0
M  V30 6155 H 583.401 0.61583 -3.87234 0
M  V30 6156 H 584.891 1.60585 -3.8549 0
M  V30 6157 N 585.328 1.53329 -0.364422 0
M  V30 6158 C 586.258 2.28627 0.474543 0
M  V30 6159 C 587.239 1.31009 1.08492 0
M  V30 6160 O 588.424 1.59878 1.10239 0
M  V30 6161 C 585.554 3.07465 1.61501 0
M  V30 6162 C 584.508 4.1276 1.13194 0
M  V30 6163 C 583.834 4.79674 2.36255 0
M  V30 6164 C 585.134 5.21847 0.217507 0
M  V30 6165 H 586.828 2.99005 -0.153656 0
M  V30 6166 H 584.374 1.43803 -0.0753406 0
M  V30 6167 H 586.327 3.58889 2.20855 0
M  V30 6168 H 585.051 2.34775 2.27042 0
M  V30 6169 H 583.71 3.62281 0.56109 0
M  V30 6170 H 583.358 4.03557 3.00251 0
M  V30 6171 H 583.058 5.50827 2.04606 0
M  V30 6172 H 584.582 5.33892 2.96297 0
M  V30 6173 H 585.996 5.6878 0.718493 0
M  V30 6174 H 584.393 6.00099 -0.00806408 0
M  V30 6175 H 585.463 4.7921 -0.740653 0
M  V30 6176 N 586.806 0.0935595 1.57322 0
M  V30 6177 C 588.222 -0.263091 1.57417 0
M  V30 6178 C 588.422 -1.68526 1.1046 0
M  V30 6179 O 587.478 -2.40139 0.780357 0
M  V30 6180 C 588.791 -0.0529201 3.00653 0
M  V30 6181 C 590.339 -0.120788 3.12767 0
M  V30 6182 C 590.814 0.0613707 4.57959 0
M  V30 6183 N 592.305 0.00648534 4.632 0
M  V30 6184 C 593.04 0.122699 5.73269 0
M  V30 6185 N 592.536 0.29366 6.92177 0
M  V30 6186 N 594.329 0.0640787 5.62063 0
M  V30 6187 H 586.48 1.02277 1.86154 0
M  V30 6188 H 588.743 0.4007 0.859153 0
M  V30 6189 H 588.449 0.929279 3.39201 0
M  V30 6190 H 588.323 -0.795899 3.68708 0
M  V30 6191 H 590.71 -1.09349 2.74093 0
M  V30 6192 H 590.791 0.653656 2.47307 0
M  V30 6193 H 590.435 1.03093 4.97327 0
M  V30 6194 H 590.365 -0.732748 5.21477 0
M  V30 6195 H 592.856 -0.123173 3.77699 0
M  V30 6196 H 593.169 0.37389 7.71895 0
M  V30 6197 H 591.514 0.329307 6.94219 0
M  V30 6198 H 594.705 -0.0683396 4.6805 0
M  V30 6199 H 594.878 0.158097 6.47807 0
M  V30 6200 N 588.284 -1.56567 -0.180126 0
M  V30 6201 C 589.217 -1.90813 -1.25163 0
M  V30 6202 C 590.195 -0.7699 -1.43218 0
M  V30 6203 O 591.379 -1.02236 -1.58367 0
M  V30 6204 C 588.506 -2.15138 -2.61597 0
M  V30 6205 C 587.552 -3.37834 -2.60328 0
M  V30 6206 S 588.385 -4.92486 -2.1028 0
M  V30 6207 C 589.541 -5.19896 -3.48509 0
M  V30 6208 H 589.774 -2.81398 -0.959283 0
M  V30 6209 H 587.307 -1.49541 -0.3843 0
M  V30 6210 H 589.265 -2.29835 -3.40127 0
M  V30 6211 H 587.926 -1.25276 -2.88036 0
M  V30 6212 H 587.119 -3.52027 -3.60684 0
M  V30 6213 H 586.721 -3.22208 -1.8989 0
M  V30 6214 H 589.013 -5.11334 -4.44459 0
M  V30 6215 H 589.956 -6.21571 -3.39198 0
M  V30 6216 H 590.364 -4.47489 -3.44114 0
M  V30 6217 N 589.762 0.448376 -1.51087 0
M  V30 6218 C 590.672 1.56882 -1.74428 0
M  V30 6219 C 591.688 1.62268 -0.62809 0
M  V30 6220 O 592.864 1.79716 -0.909075 0
M  V30 6221 C 589.929 2.92947 -1.85426 0
M  V30 6222 C 588.99 2.97766 -3.09247 0
M  V30 6223 C 588.223 4.27341 -3.19711 0
M  V30 6224 O 588.446 5.19112 -2.36387 0
M  V30 6225 O 587.38 4.38219 -4.12611 0
M  V30 6226 H 591.206 1.40104 -2.69452 0
M  V30 6227 H 588.791 0.630247 -1.35456 0
M  V30 6228 H 590.673 3.73719 -1.94709 0
M  V30 6229 H 589.348 3.09876 -0.935887 0
M  V30 6230 H 588.255 2.15989 -3.0545 0
M  V30 6231 H 589.588 2.8578 -4.00738 0
M  V30 6232 N 591.24 1.41047 0.703093 0
M  V30 6233 C 592.468 1.4334 1.49202 0
M  V30 6234 C 592.883 0.0365596 1.88765 0
M  V30 6235 O 592.24 -0.942419 1.56284 0
M  V30 6236 C 592.291 2.33538 2.75939 0
M  V30 6237 O 592.012 3.67786 2.38045 0
M  V30 6238 C 593.513 2.44555 3.6974 0
M  V30 6239 H 590.733 0.488472 0.460039 0
M  V30 6240 H 593.277 1.85245 0.86629 0
M  V30 6241 H 591.432 1.94962 3.34766 0
M  V30 6242 H 591.846 4.15816 3.19683 0
M  V30 6243 H 593.32 3.11849 4.55471 0
M  V30 6244 H 593.797 1.47447 4.1371 0
M  V30 6245 H 594.403 2.83735 3.16819 0
M  V30 6246 N 592.718 -0.936591 1.26751 0
M  V30 6247 C 593.966 -1.67998 1.12343 0
M  V30 6248 C 594.287 -1.92137 -0.332938 0
M  V30 6249 O 593.557 -1.52132 -1.23421 0
M  V30 6250 H 592.137 -0.622609 0.412756 0
M  V30 6251 H 594.799 -1.12509 1.59147 0
M  V30 6252 H 593.895 -2.65185 1.64571 0
M  V30 6253 N 594.196 -1.08629 -1.14182 0
M  V30 6254 C 595.473 -0.73002 -1.81466 0
M  V30 6255 C 595.853 0.785996 -1.95922 0
M  V30 6256 O 595.201 1.70535 -1.52086 0
M  V30 6257 C 595.411 -1.45957 -3.17014 0
M  V30 6258 C 596.759 -1.62008 -3.92477 0
M  V30 6259 O 597.783 -1.42141 -3.26611 0
M  V30 6260 O 596.642 -1.94806 -5.106 0
M  V30 6261 H 593.736 -0.261307 -0.784632 0
M  V30 6262 H 596.282 -1.188 -1.2118 0
M  V30 6263 H 595.054 -2.49221 -3.01669 0
M  V30 6264 H 594.677 -0.993222 -3.84995 0
M  V30 6265 N 595.674 1.31259 -0.872281 0
M  V30 6266 C 597.085 1.78822 -0.536617 0
M  V30 6267 C 597.436 1.71855 0.946594 0
M  V30 6268 O 596.561 1.28769 1.73918 0
M  V30 6269 C 597.156 3.24698 -0.967294 0
M  V30 6270 C 595.715 3.70147 -0.683251 0
M  V30 6271 C 594.862 2.51994 -1.15733 0
M  V30 6272 H 597.813 1.18308 -1.05777 0
M  V30 6273 H 597.834 3.79386 -0.290929 0
M  V30 6274 H 597.346 3.29737 -2.04683 0
M  V30 6275 H 595.447 3.70607 0.384825 0
M  V30 6276 H 595.56 4.62183 -1.2619 0
M  V30 6277 H 593.924 2.48078 -0.577024 0
M  V30 6278 H 594.707 2.59778 -2.24434 0
M  V30 6279 N 597.152 0.631951 1.44375 0
M  V30 6280 C 598.401 0.134214 2.01253 0
M  V30 6281 C 598.714 -1.25171 1.50305 0
M  V30 6282 O 599.92 -1.8435 1.99317 0
M  V30 6283 C 598.376 0.189187 3.59402 0
M  V30 6284 C 597.984 1.57647 4.19346 0
M  V30 6285 C 599.728 -0.252044 4.23751 0
M  V30 6286 C 597.635 1.58651 5.69722 0
M  V30 6287 H 596.565 0.0464101 0.75257 0
M  V30 6288 H 599.216 0.790868 1.65582 0
M  V30 6289 H 597.598 -0.534584 3.92375 0
M  V30 6290 H 598.772 2.32389 3.97909 0
M  V30 6291 H 597.087 1.96186 3.67288 0
M  V30 6292 H 599.684 -0.264084 5.34047 0
M  V30 6293 H 600.027 -1.27951 3.96149 0
M  V30 6294 H 600.56 0.41926 3.95584 0
M  V30 6295 H 597.299 2.59237 6.0206 0
M  V30 6296 H 596.819 0.882039 5.93279 0
M  V30 6297 H 598.498 1.32082 6.33375 0
M  V30 6298 N 598.631 -1.53133 0.372548 0
M  V30 6299 C 599.859 -2.05774 -0.215515 0
M  V30 6300 C 600.274 -1.24555 -1.41886 0
M  V30 6301 O 599.631 -0.287951 -1.80214 0
M  V30 6302 C 599.682 -3.5645 -0.602161 0
M  V30 6303 O 599.403 -4.34591 0.553359 0
M  V30 6304 C 600.904 -4.25374 -1.24787 0
M  V30 6305 H 598.124 -0.670009 -0.0364529 0
M  V30 6306 H 600.668 -1.97434 0.532934 0
M  V30 6307 H 598.823 -3.64918 -1.30052 0
M  V30 6308 H 599.237 -5.23954 0.239336 0
M  V30 6309 H 600.711 -5.32097 -1.46891 0
M  V30 6310 H 601.188 -3.79531 -2.21026 0
M  V30 6311 H 601.794 -4.21177 -0.590752 0
M  V30 6312 N 600.109 -0.101901 -1.5727 0
M  V30 6313 C 601.355 0.561027 -1.94885 0
M  V30 6314 C 601.688 1.6741 -0.984258 0
M  V30 6315 O 600.963 1.94491 -0.0184767 0
M  V30 6316 C 601.246 1.10982 -3.42571 0
M  V30 6317 C 601.099 0.00133418 -4.498 0
M  V30 6318 C 602.418 2.00608 -3.9172 0
M  V30 6319 H 599.537 0.202467 -0.708644 0
M  V30 6320 H 602.179 -0.173992 -1.89202 0
M  V30 6321 H 600.329 1.73621 -3.47546 0
M  V30 6322 H 602.001 -0.63322 -4.56933 0
M  V30 6323 H 600.244 -0.664143 -4.28686 0
M  V30 6324 H 600.915 0.426253 -5.50352 0
M  V30 6325 H 603.391 1.47864 -3.88941 0
M  V30 6326 H 602.267 2.3593 -4.95609 0
M  V30 6327 H 602.528 2.92608 -3.3141 0
M  V30 6328 N 601.587 1.56661 0.17182 0
M  V30 6329 C 602.836 1.81158 0.886831 0
M  V30 6330 C 603.149 0.679072 1.83434 0
M  V30 6331 O 604.355 0.808964 2.59168 0
M  V30 6332 C 602.811 3.20999 1.6275 0
M  V30 6333 C 602.419 4.42117 0.723652 0
M  V30 6334 C 604.163 3.5479 2.33076 0
M  V30 6335 C 602.07 5.7298 1.46452 0
M  V30 6336 H 601 0.675543 0.334899 0
M  V30 6337 H 603.651 1.82967 0.139765 0
M  V30 6338 H 602.033 3.13506 2.4193 0
M  V30 6339 H 603.207 4.60789 -0.0311485 0
M  V30 6340 H 601.522 4.16197 0.130063 0
M  V30 6341 H 604.119 4.49806 2.89099 0
M  V30 6342 H 604.462 2.79646 3.08389 0
M  V30 6343 H 604.995 3.63834 1.6084 0
M  V30 6344 H 601.734 6.51152 0.753729 0
M  V30 6345 H 601.254 5.58285 2.19266 0
M  V30 6346 H 602.933 6.14916 2.01214 0
M  V30 6347 N 603.065 -0.440357 1.51323 0
M  V30 6348 C 603.975 -1.55955 1.75258 0
M  V30 6349 C 604.991 -1.61933 0.636687 0
M  V30 6350 O 606.167 -1.79231 0.918593 0
M  V30 6351 C 603.232 -2.9196 1.86977 0
M  V30 6352 C 602.293 -2.96122 3.10822 0
M  V30 6353 C 601.526 -4.2564 3.21973 0
M  V30 6354 O 601.749 -5.17851 2.39137 0
M  V30 6355 O 600.683 -4.36025 4.14929 0
M  V30 6356 H 604.509 -1.38673 2.70191 0
M  V30 6357 H 602.094 -0.623055 1.35788 0
M  V30 6358 H 603.976 -3.72682 1.96688 0
M  V30 6359 H 602.651 -3.09375 0.952307 0
M  V30 6360 H 601.558 -2.14366 3.06591 0
M  V30 6361 H 602.891 -2.83651 4.02247 0
M  V30 6362 N 604.543 -1.41418 -0.695603 0
M  V30 6363 C 605.791 -1.40496 -1.45277 0
M  V30 6364 C 606.112 -0.0149538 -1.94994 0
M  V30 6365 O 605.382 0.9432 -1.71699 0
M  V30 6366 H 603.962 -0.517147 -0.539044 0
M  V30 6367 H 606.624 -1.76656 -0.823321 0
M  V30 6368 H 605.72 -2.09214 -2.31595 0
M  V30 6369 N 606.021 0.929856 -1.27246 0
M  V30 6370 C 607.246 1.71674 -1.16374 0
M  V30 6371 C 607.671 1.86064 0.276024 0
M  V30 6372 O 607.029 1.3591 1.19992 0
M  V30 6373 C 607.077 3.09526 -1.85003 0
M  V30 6374 O 606.181 3.96142 -1.14653 0
M  V30 6375 H 605.522 0.52629 -0.404863 0
M  V30 6376 H 608.052 1.16381 -1.68276 0
M  V30 6377 H 608.062 3.59852 -1.92276 0
M  V30 6378 H 606.737 2.98369 -2.89739 0
M  V30 6379 H 605.314 3.54584 -1.15433 0
M  V30 6380 N 607.499 1.09233 1.13605 0
M  V30 6381 C 608.724 0.849067 1.89224 0
M  V30 6382 C 609.149 -0.593875 1.78479 0
M  V30 6383 O 608.507 -1.41703 1.13092 0
M  V30 6384 C 608.555 1.28642 3.36873 0
M  V30 6385 O 607.659 0.44363 4.10007 0
M  V30 6386 H 607 0.30767 0.588417 0
M  V30 6387 H 609.53 1.45595 1.43748 0
M  V30 6388 H 609.54 1.27096 3.87699 0
M  V30 6389 H 608.215 2.33729 3.44011 0
M  V30 6390 H 606.792 0.523241 3.69211 0
M  V30 6391 N 608.977 -1.30795 0.87923 0
M  V30 6392 C 610.202 -2.01063 0.508769 0
M  V30 6393 C 610.627 -1.65508 -0.893803 0
M  V30 6394 O 609.985 -0.868616 -1.59138 0
M  V30 6395 C 610.033 -3.54054 0.683991 0
M  V30 6396 O 609.137 -4.11498 -0.272654 0
M  V30 6397 H 608.478 -0.632786 0.201191 0
M  V30 6398 H 611.008 -1.66776 1.18519 0
M  V30 6399 H 611.018 -4.03845 0.580798 0
M  V30 6400 H 609.693 -3.79271 1.70665 0
M  V30 6401 H 608.27 -3.72695 -0.12364 0
M  V30 6402 N 610.455 -0.639598 -1.44038 0
M  V30 6403 C 611.702 -0.14748 -2.01962 0
M  V30 6404 C 612.03 1.23372 -1.50365 0
M  V30 6405 O 611.285 1.8345 -0.681501 0
M  V30 6406 C 611.584 -0.0925348 -3.5728 0
M  V30 6407 C 611.25 -1.41365 -4.28167 0
M  V30 6408 C 609.912 -1.77545 -4.47248 0
M  V30 6409 C 612.264 -2.2853 -4.68427 0
M  V30 6410 C 609.592 -3.00583 -5.03852 0
M  V30 6411 C 611.944 -3.50846 -5.26393 0
M  V30 6412 C 610.608 -3.8724 -5.43692 0
M  V30 6413 H 609.878 -0.0539666 -0.739032 0
M  V30 6414 H 612.525 -0.827599 -1.72694 0
M  V30 6415 H 610.83 0.670987 -3.86012 0
M  V30 6416 H 612.527 0.304891 -3.99839 0
M  V30 6417 H 609.117 -1.1221 -4.13651 0
M  V30 6418 H 613.301 -2.0187 -4.5339 0
M  V30 6419 H 608.557 -3.28846 -5.15432 0
M  V30 6420 H 612.731 -4.18616 -5.56537 0
M  V30 6421 H 610.358 -4.8266 -5.87319 0
M  V30 6422 N 611.933 1.52934 -0.380664 0
M  V30 6423 C 612.883 2.22989 0.475399 0
M  V30 6424 C 613.867 1.23058 1.03661 0
M  V30 6425 O 615.059 1.48436 0.964146 0
M  V30 6426 C 612.188 3.0338 1.60671 0
M  V30 6427 C 611.274 4.107 1.05766 0
M  V30 6428 N 611.665 5.05264 0.232837 0
M  V30 6429 C 609.963 4.25676 1.33101 0
M  V30 6430 C 610.664 5.81658 -0.0695134 0
M  V30 6431 N 609.64 5.40989 0.532144 0
M  V30 6432 H 613.442 2.93456 -0.161418 0
M  V30 6433 H 610.956 1.61291 -0.189495 0
M  V30 6434 H 612.953 3.52098 2.23232 0
M  V30 6435 H 611.613 2.34446 2.24644 0
M  V30 6436 H 612.624 5.17739 -0.129204 0
M  V30 6437 H 609.301 3.6797 1.97241 0
M  V30 6438 H 610.691 6.67843 -0.737269 0
M  V30 6439 N 613.412 0.11024 1.57214 0
M  V30 6440 C 614.637 -0.561179 1.99664 0
M  V30 6441 C 615.062 -1.59985 0.989266 0
M  V30 6442 O 614.42 -1.81255 -0.0402399 0
M  V30 6443 C 614.468 -1.17189 3.41027 0
M  V30 6444 O 613.572 -2.28755 3.4314 0
M  V30 6445 H 612.913 -0.14101 0.648855 0
M  V30 6446 H 615.443 0.196128 2.03658 0
M  V30 6447 H 615.453 -1.50954 3.79047 0
M  V30 6448 H 614.128 -0.411041 4.13864 0
M  V30 6449 H 612.705 -1.96495 3.16929 0
M  V30 6450 N 614.89 -1.56749 -0.16351 0
M  V30 6451 C 616.301 -1.72039 -0.725216 0
M  V30 6452 C 616.652 -0.72202 -1.82432 0
M  V30 6453 O 615.777 0.114942 -2.16095 0
M  V30 6454 C 616.372 -3.11932 -1.32227 0
M  V30 6455 C 614.931 -3.28879 -1.83072 0
M  V30 6456 C 614.078 -2.67984 -0.712716 0
M  V30 6457 H 617.029 -1.58579 0.0619772 0
M  V30 6458 H 617.05 -3.11015 -2.19202 0
M  V30 6459 H 616.562 -3.84572 -0.522103 0
M  V30 6460 H 614.663 -2.61209 -2.65708 0
M  V30 6461 H 614.776 -4.36688 -1.97079 0
M  V30 6462 H 613.14 -2.28005 -1.13515 0
M  V30 6463 H 613.923 -3.43216 0.0757361 0
M  V30 6464 N 616.368 0.432326 -1.51554 0
M  V30 6465 C 617.645 1.19288 -1.55015 0
M  V30 6466 C 618.025 2.08701 -0.317375 0
M  V30 6467 O 617.373 2.17602 0.697243 0
M  V30 6468 C 617.583 1.99037 -2.86679 0
M  V30 6469 C 618.931 2.55907 -3.38817 0
M  V30 6470 O 619.955 2.09243 -2.88263 0
M  V30 6471 O 618.814 3.41029 -4.27038 0
M  V30 6472 H 615.908 0.543369 -0.623441 0
M  V30 6473 H 618.454 0.440988 -1.6387 0
M  V30 6474 H 617.226 1.33397 -3.6786 0
M  V30 6475 H 616.849 2.81281 -2.8101 0
M  V30 6476 N 617.846 1.41785 0.688094 0
M  V30 6477 C 619.071 1.45117 1.48175 0
M  V30 6478 C 619.496 0.060129 1.88004 0
M  V30 6479 O 618.854 -0.938385 1.55126 0
M  V30 6480 C 618.902 2.37224 2.71583 0
M  V30 6481 O 618.006 1.83443 3.69354 0
M  V30 6482 H 617.347 0.492208 0.445676 0
M  V30 6483 H 619.877 1.86329 0.845145 0
M  V30 6484 H 619.887 2.53353 3.19806 0
M  V30 6485 H 618.562 3.38293 2.41931 0
M  V30 6486 H 617.139 1.76802 3.28322 0
M  V30 6487 N 619.324 -0.923095 1.27737 0
M  V30 6488 C 620.552 -1.70525 1.17171 0
M  V30 6489 C 620.967 -1.86847 -0.270881 0
M  V30 6490 O 620.324 -1.38879 -1.18401 0
M  V30 6491 C 620.375 -3.10242 1.85559 0
M  V30 6492 O 620.096 -2.94683 3.24182 0
M  V30 6493 C 621.597 -4.04586 1.81176 0
M  V30 6494 H 618.817 -0.533347 0.407163 0
M  V30 6495 H 621.361 -1.15599 1.68692 0
M  V30 6496 H 619.516 -3.62014 1.3793 0
M  V30 6497 H 619.93 -3.83045 3.58297 0
M  V30 6498 H 621.404 -5.00119 2.33633 0
M  V30 6499 H 621.881 -4.3218 0.782099 0
M  V30 6500 H 622.487 -3.58741 2.2844 0
M  V30 6501 N 620.802 -1.09834 -1.13024 0
M  V30 6502 C 622.051 -0.831806 -1.83749 0
M  V30 6503 C 622.364 0.644763 -1.84668 0
M  V30 6504 O 623.57 1.02697 -2.51327 0
M  V30 6505 C 622.026 -1.43817 -3.29916 0
M  V30 6506 C 621.634 -2.94759 -3.37374 0
M  V30 6507 C 623.378 -1.25077 -4.05655 0
M  V30 6508 C 621.285 -3.48461 -4.77838 0
M  V30 6509 H 620.215 -0.30751 -0.688443 0
M  V30 6510 H 622.866 -1.32156 -1.27307 0
M  V30 6511 H 621.248 -0.876106 -3.86187 0
M  V30 6512 H 622.422 -3.57228 -2.91076 0
M  V30 6513 H 620.737 -3.12581 -2.75103 0
M  V30 6514 H 623.334 -1.62649 -5.09362 0
M  V30 6515 H 623.677 -0.191782 -4.15858 0
M  V30 6516 H 624.21 -1.78057 -3.55725 0
M  V30 6517 H 620.949 -4.53998 -4.72828 0
M  V30 6518 H 620.469 -2.90757 -5.24615 0
M  V30 6519 H 622.148 -3.45914 -5.46766 0
M  V30 6520 N 622.28 1.30327 -0.886154 0
M  V30 6521 C 623.526 1.96764 -0.515312 0
M  V30 6522 C 623.881 1.68675 0.925552 0
M  V30 6523 O 623.174 0.981693 1.6454 0
M  V30 6524 C 623.368 3.49906 -0.728042 0
M  V30 6525 C 623.197 3.92881 -2.18803 0
M  V30 6526 C 621.967 4.18424 -2.83284 0
M  V30 6527 C 624.165 4.05617 -3.16195 0
M  V30 6528 N 622.147 4.47867 -4.19867 0
M  V30 6529 C 623.518 4.38957 -4.37855 0
M  V30 6530 C 625.573 3.88047 -3.11968 0
M  V30 6531 C 624.276 4.56559 -5.55829 0
M  V30 6532 C 626.302 4.06851 -4.29215 0
M  V30 6533 C 625.664 4.40538 -5.49641 0
M  V30 6534 H 621.763 0.74493 -0.237916 0
M  V30 6535 H 624.347 1.57536 -1.14414 0
M  V30 6536 H 622.518 3.88187 -0.128696 0
M  V30 6537 H 624.25 4.03401 -0.323983 0
M  V30 6538 H 621.005 4.1167 -2.34146 0
M  V30 6539 H 621.429 4.66721 -4.90408 0
M  V30 6540 H 626.071 3.61078 -2.19961 0
M  V30 6541 H 623.789 4.8237 -6.4834 0
M  V30 6542 H 627.375 3.94724 -4.27416 0
M  V30 6543 H 626.255 4.54789 -6.38856 0
M  V30 6544 N 623.758 0.647228 1.43697 0
M  V30 6545 C 624.705 -0.0480092 2.3075 0
M  V30 6546 C 625.675 -0.820705 1.44408 0
M  V30 6547 O 626.86 -0.798515 1.73287 0
M  V30 6548 C 624 -1.01259 3.2991 0
M  V30 6549 C 623.113 -0.236629 4.31351 0
M  V30 6550 C 622.248 -1.19447 5.17596 0
M  V30 6551 C 621.287 -0.408595 6.10735 0
M  V30 6552 N 620.424 -1.31772 6.89623 0
M  V30 6553 H 625.264 0.700238 2.89656 0
M  V30 6554 H 622.801 0.357082 1.427 0
M  V30 6555 H 624.759 -1.58538 3.85903 0
M  V30 6556 H 623.389 -1.72778 2.72667 0
M  V30 6557 H 622.441 0.452353 3.77701 0
M  V30 6558 H 623.753 0.374731 4.9739 0
M  V30 6559 H 622.907 -1.83809 5.78186 0
M  V30 6560 H 621.646 -1.83975 4.51669 0
M  V30 6561 H 620.651 0.24841 5.49239 0
M  V30 6562 H 621.876 0.232188 6.78703 0
M  V30 6563 H 619.822 -1.94991 6.2635 0
M  V30 6564 H 619.739 -0.760779 7.52162 0
M  V30 6565 H 621.007 -1.94967 7.54724 0
M  V30 6566 N 625.236 -1.5273 0.388769 0
M  V30 6567 C 626.484 -2.01174 -0.193208 0
M  V30 6568 C 626.805 -1.27705 -1.47365 0
M  V30 6569 O 626.075 -0.396966 -1.91836 0
M  V30 6570 H 624.655 -0.743287 -0.0743871 0
M  V30 6571 H 627.317 -1.87826 0.520336 0
M  V30 6572 H 626.413 -3.09477 -0.403803 0
M  V30 6573 N 626.714 -0.118576 -1.57153 0
M  V30 6574 C 627.646 0.862247 -2.12363 0
M  V30 6575 C 628.659 1.23025 -1.06625 0
M  V30 6576 O 629.848 1.17927 -1.33998 0
M  V30 6577 C 626.948 2.16425 -2.60794 0
M  V30 6578 C 626.121 1.96801 -3.90626 0
M  V30 6579 C 625.18 3.10726 -4.2466 0
M  V30 6580 O 624.206 2.83659 -4.93484 0
M  V30 6581 N 625.408 4.37147 -3.81946 0
M  V30 6582 H 628.173 0.390564 -2.97144 0
M  V30 6583 H 625.734 0.0658591 -1.61766 0
M  V30 6584 H 627.726 2.91633 -2.80593 0
M  V30 6585 H 626.296 2.54943 -1.80895 0
M  V30 6586 H 625.516 1.05787 -3.7974 0
M  V30 6587 H 626.804 1.80993 -4.7552 0
M  V30 6588 H 626.202 4.62014 -3.26435 0
M  V30 6589 H 624.759 5.09229 -4.06853 0
M  V30 6590 N 628.193 1.56834 0.155195 0
M  V30 6591 C 629.141 1.98584 1.21107 0
M  V30 6592 C 630.135 0.876987 1.44932 0
M  V30 6593 O 631.341 1.06215 1.45322 0
M  V30 6594 H 627.716 0.632039 0.407469 0
M  V30 6595 H 629.687 2.86561 0.832195 0
M  V30 6596 C 628.436 2.37555 2.53895 0
M  V30 6597 H 627.759 3.22428 2.3639 0
M  V30 6598 H 629.199 2.70598 3.26424 0
M  V30 6599 C 627.658 1.22507 3.13837 0
M  V30 6600 O 628.188 0.521388 3.98302 0
M  V30 6601 N 626.394 0.991444 2.73164 0
M  V30 6602 H 625.941 1.56544 2.04577 0
M  V30 6603 H 625.899 0.223546 3.13604 0
M  V30 6604 N 629.671 -0.424282 1.51781 0
M  V30 6605 C 630.919 -1.17028 1.64769 0
M  V30 6606 C 631.24 -1.91409 0.372523 0
M  V30 6607 O 630.51 -1.86091 -0.612108 0
M  V30 6608 H 629.09 -0.434992 0.607282 0
M  V30 6609 H 631.752 -0.485169 1.88765 0
M  V30 6610 H 630.848 -1.8927 2.4816 0
M  V30 6611 N 631.149 -1.42148 -0.680565 0
M  V30 6612 C 632.565 -1.24947 -0.992995 0
M  V30 6613 C 632.765 -0.149527 -2.00944 0
M  V30 6614 O 631.821 0.481145 -2.47873 0
M  V30 6615 C 633.134 -2.60426 -1.5033 0
M  V30 6616 C 634.682 -2.67733 -1.62137 0
M  V30 6617 C 635.157 -4.03564 -2.16565 0
M  V30 6618 N 636.648 -4.05488 -2.23905 0
M  V30 6619 C 637.383 -5.07401 -2.67081 0
M  V30 6620 N 636.879 -6.19698 -3.09751 0
M  V30 6621 N 638.672 -4.94758 -2.66778 0
M  V30 6622 H 630.823 -2.12399 -0.0074788 0
M  V30 6623 H 633.086 -0.94571 -0.0658529 0
M  V30 6624 H 632.792 -3.41743 -0.830947 0
M  V30 6625 H 632.666 -2.83949 -2.483 0
M  V30 6626 H 635.053 -1.86765 -2.2848 0
M  V30 6627 H 635.134 -2.48004 -0.626713 0
M  V30 6628 H 634.778 -4.84987 -1.50833 0
M  V30 6629 H 634.708 -4.20641 -3.1681 0
M  V30 6630 H 637.199 -3.24415 -1.93812 0
M  V30 6631 H 637.512 -6.93318 -3.41365 0
M  V30 6632 H 635.857 -6.23212 -3.07623 0
M  V30 6633 H 639.048 -4.06105 -2.32801 0
M  V30 6634 H 639.221 -5.74317 -3.00107 0
M  V30 6635 N 632.627 0.916307 -1.28225 0
M  V30 6636 C 633.855 1.69901 -1.18073 0
M  V30 6637 C 634.27 1.86988 0.260968 0
M  V30 6638 O 633.627 1.39505 1.17663 0
M  V30 6639 C 633.678 3.09254 -1.87201 0
M  V30 6640 O 633.399 2.92959 -3.2574 0
M  V30 6641 C 634.9 4.0362 -1.83319 0
M  V30 6642 H 632.12 0.531181 -0.409985 0
M  V30 6643 H 634.664 1.14703 -1.69303 0
M  V30 6644 H 632.819 3.61277 -1.39848 0
M  V30 6645 H 633.233 3.81139 -3.60324 0
M  V30 6646 H 634.707 4.98873 -2.36282 0
M  V30 6647 H 635.184 4.3176 -0.805007 0
M  V30 6648 H 635.79 3.57524 -2.3034 0
M  V30 6649 N 634.105 1.10431 1.1244 0
M  V30 6650 C 635.352 0.846717 1.83948 0
M  V30 6651 C 635.68 -0.627709 1.84093 0
M  V30 6652 O 634.935 -1.47876 1.28184 0
M  V30 6653 C 635.234 1.34022 3.3132 0
M  V30 6654 C 634.9 2.82606 3.51347 0
M  V30 6655 C 633.562 3.23182 3.56521 0
M  V30 6656 C 635.914 3.78356 3.58464 0
M  V30 6657 C 633.242 4.58258 3.66356 0
M  V30 6658 C 635.594 5.13234 3.69829 0
M  V30 6659 C 634.258 5.53384 3.73259 0
M  V30 6660 H 633.528 0.309836 0.673114 0
M  V30 6661 H 636.175 1.38091 1.32677 0
M  V30 6662 H 634.48 0.726047 3.85014 0
M  V30 6663 H 636.177 1.11739 3.85118 0
M  V30 6664 H 632.767 2.50212 3.47983 0
M  V30 6665 H 636.951 3.48115 3.53737 0
M  V30 6666 H 632.207 4.88787 3.67284 0
M  V30 6667 H 636.381 5.87272 3.74279 0
M  V30 6668 H 634.008 6.58045 3.80633 0
M  V30 6669 N 635.583 -1.29855 0.893053 0
M  V30 6670 C 636.53 -2.27909 0.364161 0
M  V30 6671 C 637.5 -1.56726 -0.550093 0
M  V30 6672 O 638.685 -1.84747 -0.47677 0
M  V30 6673 C 635.825 -3.42678 -0.408178 0
M  V30 6674 C 634.938 -4.28659 0.536212 0
M  V30 6675 C 634.073 -5.30599 -0.252521 0
M  V30 6676 C 633.112 -6.08234 0.686822 0
M  V30 6677 N 632.249 -7.02068 -0.0670902 0
M  V30 6678 H 637.089 -2.72531 1.20544 0
M  V30 6679 H 634.626 -1.34047 0.605779 0
M  V30 6680 H 636.584 -4.07986 -0.871962 0
M  V30 6681 H 635.214 -2.99103 -1.21397 0
M  V30 6682 H 634.266 -3.63584 1.1185 0
M  V30 6683 H 635.578 -4.8274 1.25552 0
M  V30 6684 H 634.732 -6.01694 -0.777801 0
M  V30 6685 H 633.471 -4.77233 -1.005 0
M  V30 6686 H 632.476 -5.3601 1.22366 0
M  V30 6687 H 633.701 -6.63689 1.43852 0
M  V30 6688 H 631.647 -6.5108 -0.801955 0
M  V30 6689 H 631.564 -7.53675 0.59243 0
M  V30 6690 H 632.832 -7.77392 -0.572851 0
M  V30 6691 N 637.061 -0.65484 -1.43351 0
M  V30 6692 C 638.307 -0.169142 -2.02093 0
M  V30 6693 C 638.64 1.21431 -1.51553 0
M  V30 6694 O 637.915 1.81105 -0.709317 0
M  V30 6695 C 638.198 -0.181775 -3.59641 0
M  V30 6696 C 638.051 -1.59926 -4.20409 0
M  V30 6697 C 639.37 0.480945 -4.37464 0
M  V30 6698 H 636.489 -0.0629371 -0.734308 0
M  V30 6699 H 639.131 -0.835833 -1.70628 0
M  V30 6700 H 637.281 0.385918 -3.86578 0
M  V30 6701 H 638.953 -2.21766 -4.04497 0
M  V30 6702 H 637.196 -2.14605 -3.76998 0
M  V30 6703 H 637.867 -1.55994 -5.295 0
M  V30 6704 H 640.343 -0.00208273 -4.161 0
M  V30 6705 H 639.219 0.441384 -5.47122 0
M  V30 6706 H 639.48 1.55533 -4.13838 0
M  V30 6707 N 638.539 1.52521 -0.396863 0
M  V30 6708 C 639.787 2.01274 0.182536 0
M  V30 6709 C 640.108 1.28485 1.46685 0
M  V30 6710 O 639.378 0.407134 1.91623 0
M  V30 6711 H 637.958 0.743671 0.0704442 0
M  V30 6712 H 640.62 1.87547 -0.530289 0
M  V30 6713 H 639.716 3.09687 0.387385 0
M  V30 6714 N 640.017 0.126909 1.57088 0
M  V30 6715 C 641.242 -0.53997 2.00248 0
M  V30 6716 C 641.667 -1.58927 1.00618 0
M  V30 6717 O 641.025 -1.81288 -0.0210131 0
M  V30 6718 C 641.073 -1.13565 3.4225 0
M  V30 6719 O 640.177 -2.25103 3.45547 0
M  V30 6720 H 639.518 -0.13412 0.650314 0
M  V30 6721 H 642.048 0.217718 2.03438 0
M  V30 6722 H 642.058 -1.46925 3.80627 0
M  V30 6723 H 640.733 -0.367122 4.14277 0
M  V30 6724 H 639.31 -1.93123 3.18995 0
M  V30 6725 N 641.495 -1.56914 -0.146875 0
M  V30 6726 C 642.742 -1.83356 -0.859467 0
M  V30 6727 C 643.07 -0.707811 -1.81164 0
M  V30 6728 O 642.325 0.303155 -1.93338 0
M  V30 6729 C 642.624 -3.16128 -1.66727 0
M  V30 6730 C 642.29 -4.42586 -0.861881 0
M  V30 6731 C 640.952 -4.76929 -0.639687 0
M  V30 6732 C 643.304 -5.20344 -0.298643 0
M  V30 6733 C 640.632 -5.86491 0.156451 0
M  V30 6734 C 642.984 -6.30742 0.484536 0
M  V30 6735 C 641.648 -6.63635 0.717306 0
M  V30 6736 H 640.918 -0.670947 -0.314501 0
M  V30 6737 H 643.565 -1.91104 -0.123108 0
M  V30 6738 H 641.87 -3.03831 -2.47374 0
M  V30 6739 H 643.567 -3.33802 -2.2221 0
M  V30 6740 H 640.157 -4.15662 -1.04513 0
M  V30 6741 H 644.341 -4.94186 -0.457585 0
M  V30 6742 H 639.597 -6.10419 0.346292 0
M  V30 6743 H 643.771 -6.90188 0.928105 0
M  V30 6744 H 641.398 -7.48367 1.33607 0
M  V30 6745 N 642.974 0.416227 -1.52004 0
M  V30 6746 C 644.385 0.995319 -1.57957 0
M  V30 6747 C 644.736 1.91744 -0.415754 0
M  V30 6748 O 643.861 2.11349 0.464808 0
M  V30 6749 C 644.456 1.81191 -2.86278 0
M  V30 6750 C 643.015 2.34115 -2.94732 0
M  V30 6751 C 642.162 1.139 -2.52828 0
M  V30 6752 H 645.113 0.196716 -1.57476 0
M  V30 6753 H 645.134 2.66859 -2.71231 0
M  V30 6754 H 644.646 1.14051 -3.70963 0
M  V30 6755 H 642.747 3.04647 -2.14525 0
M  V30 6756 H 642.86 2.65466 -3.98829 0
M  V30 6757 H 641.224 1.49081 -2.06511 0
M  V30 6758 H 642.007 0.483383 -3.3988 0
M  V30 6759 N 644.452 1.42507 0.673017 0
M  V30 6760 C 645.415 1.4582 1.76831 0
M  V30 6761 C 646.415 0.345542 1.57043 0
M  V30 6762 O 647.605 0.606447 1.63303 0
M  V30 6763 C 644.737 1.29158 3.15485 0
M  V30 6764 H 645.93 2.43345 1.7528 0
M  V30 6765 H 643.483 1.28981 0.882817 0
M  V30 6766 H 644.218 0.325626 3.22661 0
M  V30 6767 H 644.003 2.09797 3.31252 0
M  V30 6768 H 645.493 1.34363 3.95394 0
M  V30 6769 N 645.93 -0.909495 1.28709 0
M  V30 6770 C 647.155 -1.69801 1.1909 0
M  V30 6771 C 647.58 -1.86479 -0.246388 0
M  V30 6772 O 646.938 -1.37802 -1.17815 0
M  V30 6773 C 646.986 -3.06543 1.89904 0
M  V30 6774 O 646.09 -3.94268 1.2094 0
M  V30 6775 H 645.431 -0.519783 0.413185 0
M  V30 6776 H 647.961 -1.13689 1.70106 0
M  V30 6777 H 647.971 -3.56748 1.97977 0
M  V30 6778 H 646.646 -2.93722 2.94449 0
M  V30 6779 H 645.223 -3.52702 1.2106 0
M  V30 6780 N 647.408 -1.11026 -1.11852 0
M  V30 6781 C 648.371 -0.768006 -2.1595 0
M  V30 6782 C 649.371 0.210538 -1.59416 0
M  V30 6783 O 650.561 -0.0133978 -1.74195 0
M  V30 6784 C 647.693 -0.138678 -3.40618 0
M  V30 6785 H 648.886 -1.69012 -2.4774 0
M  V30 6786 H 646.439 -0.911578 -1.26964 0
M  V30 6787 H 647.174 0.793872 -3.14433 0
M  V30 6788 H 646.959 -0.843012 -3.8293 0
M  V30 6789 H 648.449 0.0848039 -4.17514 0
M  V30 6790 N 648.886 1.2938 -0.899927 0
M  V30 6791 C 650.132 1.9584 -0.526742 0
M  V30 6792 C 650.465 1.70774 0.924651 0
M  V30 6793 O 649.74 1.02084 1.65557 0
M  V30 6794 C 650.023 3.50638 -0.820062 0
M  V30 6795 C 649.876 3.85161 -2.32317 0
M  V30 6796 C 651.195 4.3903 -0.30671 0
M  V30 6797 H 648.314 0.711322 -0.192848 0
M  V30 6798 H 650.956 1.52992 -1.12665 0
M  V30 6799 H 649.106 3.87265 -0.309491 0
M  V30 6800 H 650.778 3.58477 -2.9033 0
M  V30 6801 H 649.021 3.32696 -2.78381 0
M  V30 6802 H 649.692 4.93204 -2.47898 0
M  V30 6803 H 652.168 4.09396 -0.743908 0
M  V30 6804 H 651.044 5.46226 -0.541144 0
M  V30 6805 H 651.305 4.34937 0.792588 0
M  V30 6806 N 650.364 0.662433 1.43002 0
M  V30 6807 C 651.592 0.187615 2.06048 0
M  V30 6808 C 652.007 -1.15039 1.49705 0
M  V30 6809 O 651.364 -1.71209 0.631956 0
M  V30 6810 C 651.415 0.100498 3.6136 0
M  V30 6811 O 651.136 1.38562 4.15611 0
M  V30 6812 C 652.637 -0.399298 4.41498 0
M  V30 6813 H 649.857 0.0941675 0.664359 0
M  V30 6814 H 652.401 0.905681 1.83351 0
M  V30 6815 H 650.556 -0.568181 3.83211 0
M  V30 6816 H 650.97 1.25084 5.09366 0
M  V30 6817 H 652.444 -0.409187 5.50481 0
M  V30 6818 H 652.921 -1.43232 4.15188 0
M  V30 6819 H 653.527 0.23721 4.24638 0
M  V30 6820 N 651.842 -1.52309 0.404946 0
M  V30 6821 C 652.772 -2.29805 -0.41376 0
M  V30 6822 C 653.753 -1.3384 -1.0498 0
M  V30 6823 O 654.938 -1.62745 -1.05961 0
M  V30 6824 C 652.068 -3.11639 -1.53292 0
M  V30 6825 C 651.022 -4.15616 -1.02211 0
M  V30 6826 C 650.348 -4.8577 -2.23455 0
M  V30 6827 C 651.648 -5.2224 -0.0790725 0
M  V30 6828 H 653.342 -2.98493 0.232878 0
M  V30 6829 H 650.888 -1.43552 0.113441 0
M  V30 6830 H 652.841 -3.64618 -2.11262 0
M  V30 6831 H 651.565 -2.40712 -2.20738 0
M  V30 6832 H 650.224 -3.63641 -0.46484 0
M  V30 6833 H 649.872 -4.11376 -2.89445 0
M  V30 6834 H 649.572 -5.56058 -1.89929 0
M  V30 6835 H 651.096 -5.4156 -2.82038 0
M  V30 6836 H 652.51 -5.70485 -0.567438 0
M  V30 6837 H 650.907 -5.99867 0.167167 0
M  V30 6838 H 651.977 -4.77078 0.867447 0
M  V30 6839 N 653.32 -0.135238 -1.57019 0
M  V30 6840 C 654.283 0.794707 -2.14981 0
M  V30 6841 C 655.283 1.18342 -1.08866 0
M  V30 6842 O 656.473 1.10627 -1.34563 0
M  V30 6843 C 653.605 2.07685 -2.70333 0
M  V30 6844 H 654.798 0.290696 -2.98488 0
M  V30 6845 H 652.351 0.114128 -1.55883 0
M  V30 6846 H 653.086 2.6248 -1.9046 0
M  V30 6847 H 652.871 1.80745 -3.47957 0
M  V30 6848 H 654.361 2.74127 -3.1503 0
M  V30 6849 N 654.798 1.5699 0.138552 0
M  V30 6850 C 656.075 1.74741 0.87891 0
M  V30 6851 C 656.455 0.705522 1.98961 0
M  V30 6852 O 655.803 -0.274066 2.2685 0
M  V30 6853 C 656.013 3.1909 1.4136 0
M  V30 6854 C 657.361 3.81023 1.87368 0
M  V30 6855 O 658.385 3.22571 1.51084 0
M  V30 6856 O 657.244 4.83722 2.54312 0
M  V30 6857 H 654.338 0.714781 0.415953 0
M  V30 6858 H 656.884 1.69248 0.123817 0
M  V30 6859 H 655.656 3.86424 0.61579 0
M  V30 6860 H 655.279 3.29043 2.23196 0
M  V30 6861 N 656.276 -0.40816 1.52223 0
M  V30 6862 C 657.239 -1.48 1.7501 0
M  V30 6863 C 658.239 -1.48367 0.619996 0
M  V30 6864 O 659.429 -1.49874 0.887881 0
M  V30 6865 C 656.561 -2.87403 1.83336 0
M  V30 6866 H 657.754 -1.29086 2.70697 0
M  V30 6867 H 655.307 -0.638715 1.42654 0
M  V30 6868 H 656.042 -3.11686 0.895677 0
M  V30 6869 H 655.827 -2.8854 2.65494 0
M  V30 6870 H 657.317 -3.65103 2.02705 0
M  V30 6871 N 657.755 -1.42862 -0.66545 0
M  V30 6872 C 659.003 -1.43546 -1.42264 0
M  V30 6873 C 659.324 -0.0563116 -1.94919 0
M  V30 6874 O 658.594 0.906568 -1.73661 0
M  V30 6875 H 657.174 -0.528464 -0.527953 0
M  V30 6876 H 659.836 -1.78363 -0.785665 0
M  V30 6877 H 658.932 -2.14079 -2.27105 0
M  V30 6878 N 659.233 0.902656 -1.29189 0
M  V30 6879 C 660.481 1.6496 -1.16758 0
M  V30 6880 C 660.802 1.92952 0.28188 0
M  V30 6881 O 660.072 1.55351 1.19344 0
M  V30 6882 H 658.652 0.611447 -0.429118 0
M  V30 6883 H 661.314 1.0825 -1.62074 0
M  V30 6884 H 660.41 2.60728 -1.71544 0
M  V30 6885 N 660.711 1.11618 1.11262 0
M  V30 6886 C 661.641 0.79846 2.19424 0
M  V30 6887 C 662.622 -0.234003 1.68483 0
M  V30 6888 O 663.807 -0.0970704 1.93957 0
M  V30 6889 C 660.937 0.242892 3.4645 0
M  V30 6890 C 659.891 1.20744 4.10615 0
M  V30 6891 C 659.217 0.512494 5.32238 0
M  V30 6892 C 660.517 2.55884 4.55325 0
M  V30 6893 H 662.211 1.70286 2.46258 0
M  V30 6894 H 659.757 0.820195 1.18359 0
M  V30 6895 H 661.71 0.00840447 4.21399 0
M  V30 6896 H 660.434 -0.696811 3.1908 0
M  V30 6897 H 659.093 1.42759 3.37662 0
M  V30 6898 H 658.741 -0.432075 5.01141 0
M  V30 6899 H 658.441 1.15583 5.7612 0
M  V30 6900 H 659.965 0.286842 6.09926 0
M  V30 6901 H 661.379 2.37946 5.21588 0
M  V30 6902 H 659.776 3.16216 5.10027 0
M  V30 6903 H 660.846 3.14968 3.68678 0
M  V30 6904 N 662.189 -1.289 0.906776 0
M  V30 6905 C 663.6 -1.77336 0.58384 0
M  V30 6906 C 663.951 -1.74304 -0.900697 0
M  V30 6907 O 663.076 -1.33335 -1.70443 0
M  V30 6908 C 663.671 -3.22019 1.05304 0
M  V30 6909 C 662.23 -3.68205 0.781148 0
M  V30 6910 C 661.377 -2.48837 1.22373 0
M  V30 6911 H 664.328 -1.15462 1.08877 0
M  V30 6912 H 664.349 -3.78481 0.391414 0
M  V30 6913 H 663.861 -3.24194 2.13353 0
M  V30 6914 H 661.962 -3.71497 -0.28643 0
M  V30 6915 H 662.075 -4.58675 1.384 0
M  V30 6916 H 660.439 -2.46461 0.642594 0
M  V30 6917 H 661.222 -2.53736 2.31242 0
M  V30 6918 N 663.667 -0.670007 -1.42649 0
M  V30 6919 C 664.63 0.00204659 -2.292 0
M  V30 6920 C 665.63 0.733817 -1.4308 0
M  V30 6921 O 666.82 0.57254 -1.64522 0
M  V30 6922 C 663.952 1.01359 -3.25483 0
M  V30 6923 H 665.145 -0.759696 -2.90118 0
M  V30 6924 H 662.698 -0.432105 -1.50208 0
M  V30 6925 H 663.433 1.80399 -2.69493 0
M  V30 6926 H 663.218 0.492323 -3.88997 0
M  V30 6927 H 664.708 1.4824 -3.90403 0
M  V30 6928 N 665.145 1.52092 -0.413018 0
M  V30 6929 C 666.373 2.06274 0.160881 0
M  V30 6930 C 666.788 1.28273 1.38533 0
M  V30 6931 O 666.145 0.33563 1.79387 0
M  V30 6932 C 666.196 3.57921 0.507443 0
M  V30 6933 O 665.917 4.32971 -0.668388 0
M  V30 6934 C 667.418 4.28533 1.13465 0
M  V30 6935 H 664.638 0.67074 0.0186759 0
M  V30 6936 H 667.182 1.95951 -0.585092 0
M  V30 6937 H 665.337 3.68238 1.20331 0
M  V30 6938 H 665.751 5.23135 -0.378169 0
M  V30 6939 H 667.225 5.35804 1.32732 0
M  V30 6940 H 667.702 3.85258 2.10886 0
M  V30 6941 H 668.308 4.22595 0.478876 0
M  V30 6942 N 666.623 0.143563 1.56945 0
M  V30 6943 C 668.039 -0.212877 1.58174 0
M  V30 6944 C 668.239 -1.64926 1.15766 0
M  V30 6945 O 667.295 -2.37535 0.856361 0
M  V30 6946 C 668.608 0.0427573 3.0067 0
M  V30 6947 C 670.156 -0.0212221 3.12993 0
M  V30 6948 C 670.631 0.207036 4.57532 0
M  V30 6949 N 672.122 0.153845 4.62944 0
M  V30 6950 C 672.857 0.305018 5.72588 0
M  V30 6951 N 672.353 0.513722 6.90893 0
M  V30 6952 N 674.146 0.242862 5.61575 0
M  V30 6953 H 666.297 1.08148 1.82805 0
M  V30 6954 H 668.56 0.427831 0.84597 0
M  V30 6955 H 668.266 1.03672 3.36073 0
M  V30 6956 H 668.14 -0.678195 3.71053 0
M  V30 6957 H 670.527 -1.00574 2.77433 0
M  V30 6958 H 670.608 0.732004 2.45103 0
M  V30 6959 H 670.252 1.18863 4.93795 0
M  V30 6960 H 670.182 -0.566473 5.23544 0
M  V30 6961 H 672.673 -0.00294866 3.779 0
M  V30 6962 H 672.986 0.619273 7.70315 0
M  V30 6963 H 671.331 0.550001 6.9282 0
M  V30 6964 H 674.522 0.0806015 4.68031 0
M  V30 6965 H 674.695 0.364112 6.46976 0
M  V30 6966 N 668.101 -1.57061 -0.130224 0
M  V30 6967 C 669.512 -1.73539 -0.68856 0
M  V30 6968 C 669.863 -0.760554 -1.80859 0
M  V30 6969 O 668.988 0.0690796 -2.1629 0
M  V30 6970 C 669.583 -3.14666 -1.25581 0
M  V30 6971 C 668.142 -3.32689 -1.76055 0
M  V30 6972 C 667.289 -2.69436 -0.655712 0
M  V30 6973 H 670.24 -1.58412 0.0956002 0
M  V30 6974 H 670.261 -3.15595 -2.12556 0
M  V30 6975 H 669.773 -3.85593 -0.440412 0
M  V30 6976 H 667.874 -2.66786 -2.60108 0
M  V30 6977 H 667.987 -4.4077 -1.87772 0
M  V30 6978 H 666.351 -2.30362 -1.08654 0
M  V30 6979 H 667.134 -3.42979 0.14852 0
M  V30 6980 N 669.579 0.400081 -1.52437 0
M  V30 6981 C 670.825 1.14788 -1.67187 0
M  V30 6982 C 671.158 1.89928 -0.405074 0
M  V30 6983 O 670.433 1.85118 0.596804 0
M  V30 6984 C 670.716 2.13507 -2.89977 0
M  V30 6985 C 670.569 1.42204 -4.2673 0
M  V30 6986 C 671.888 3.14069 -3.083 0
M  V30 6987 H 669.007 0.415939 -0.608411 0
M  V30 6988 H 671.649 0.432542 -1.85011 0
M  V30 6989 H 669.799 2.7451 -2.74912 0
M  V30 6990 H 671.471 0.842503 -4.53541 0
M  V30 6991 H 669.714 0.723939 -4.27717 0
M  V30 6992 H 670.385 2.14281 -5.08712 0
M  V30 6993 H 672.861 2.63148 -3.22323 0
M  V30 6994 H 671.737 3.80398 -3.95713 0
M  V30 6995 H 671.998 3.82309 -2.22018 0
M  V30 6996 N 671.057 1.43213 0.657864 0
M  V30 6997 C 672.007 1.44459 1.76396 0
M  V30 6998 C 672.991 0.313641 1.57814 0
M  V30 6999 O 674.183 0.557094 1.68004 0
M  V30 7000 C 671.312 1.36586 3.14959 0
M  V30 7001 C 670.398 2.54692 3.39106 0
M  V30 7002 N 670.789 3.80059 3.33749 0
M  V30 7003 C 669.087 2.49316 3.69807 0
M  V30 7004 C 669.788 4.58606 3.57849 0
M  V30 7005 N 668.764 3.89267 3.79437 0
M  V30 7006 H 672.566 2.39265 1.70673 0
M  V30 7007 H 670.08 1.378 0.859357 0
M  V30 7008 H 672.077 1.35561 3.94245 0
M  V30 7009 H 670.737 0.427956 3.21867 0
M  V30 7010 H 671.748 4.12414 3.13266 0
M  V30 7011 H 668.425 1.6419 3.83859 0
M  V30 7012 H 669.815 5.67619 3.59525 0
M  V30 7013 N 672.536 -0.895792 1.29666 0
M  V30 7014 C 673.952 -1.17726 1.07763 0
M  V30 7015 C 674.152 -2.00794 -0.168576 0
M  V30 7016 O 673.208 -2.37213 -0.865244 0
M  V30 7017 C 674.521 -1.89441 2.33522 0
M  V30 7018 C 676.069 -2.02251 2.3888 0
M  V30 7019 C 676.544 -2.77378 3.64452 0
M  V30 7020 N 678.035 -2.8493 3.65198 0
M  V30 7021 C 678.77 -3.43606 4.59045 0
M  V30 7022 N 678.266 -4.03417 5.63228 0
M  V30 7023 N 680.059 -3.41317 4.46608 0
M  V30 7024 H 672.21 -0.341652 2.09634 0
M  V30 7025 H 674.473 -0.213865 0.923561 0
M  V30 7026 H 674.179 -1.35842 3.24407 0
M  V30 7027 H 674.053 -2.89893 2.41334 0
M  V30 7028 H 676.44 -2.55025 1.4848 0
M  V30 7029 H 676.521 -1.0092 2.3505 0
M  V30 7030 H 676.165 -2.25279 4.55205 0
M  V30 7031 H 676.095 -3.79062 3.65541 0
M  V30 7032 H 678.586 -2.42453 2.89871 0
M  V30 7033 H 678.899 -4.46224 6.30955 0
M  V30 7034 H 677.244 -4.01868 5.67033 0
M  V30 7035 H 680.435 -2.93812 3.64407 0
M  V30 7036 H 680.608 -3.86751 5.1993 0
M  V30 7037 N 674.014 -1.12206 -1.10668 0
M  V30 7038 C 675.262 -0.874144 -1.82217 0
M  V30 7039 C 675.583 0.601736 -1.85484 0
M  V30 7040 O 674.853 1.43725 -1.33116 0
M  V30 7041 H 673.433 -0.320404 -0.674797 0
M  V30 7042 H 676.095 -1.41606 -1.33917 0
M  V30 7043 H 675.191 -1.25349 -2.85822 0
M  V30 7044 N 675.492 1.28418 -0.913599 0
M  V30 7045 C 676.72 1.99106 -0.562536 0
M  V30 7046 C 677.135 1.68273 0.856137 0
M  V30 7047 O 676.492 0.935401 1.56705 0
M  V30 7048 C 676.543 3.5338 -0.761903 0
M  V30 7049 O 676.264 3.83127 -2.12475 0
M  V30 7050 C 677.765 4.41328 -0.417651 0
M  V30 7051 H 674.985 0.635798 -0.214481 0
M  V30 7052 H 677.529 1.63618 -1.22676 0
M  V30 7053 H 675.684 3.8713 -0.144676 0
M  V30 7054 H 676.098 4.77763 -2.16431 0
M  V30 7055 H 677.572 5.48642 -0.607919 0
M  V30 7056 H 678.049 4.34422 0.646108 0
M  V30 7057 H 678.655 4.13074 -1.01241 0
M  V30 7058 N 676.97 0.677563 1.42291 0
M  V30 7059 C 678.381 0.277912 1.8462 0
M  V30 7060 C 678.732 -1.18048 1.56714 0
M  V30 7061 O 677.857 -1.90404 1.02836 0
M  V30 7062 C 678.452 0.497619 3.35126 0
M  V30 7063 C 677.011 0.152063 3.76093 0
M  V30 7064 C 676.158 0.78872 2.65847 0
M  V30 7065 H 679.109 0.879527 1.32098 0
M  V30 7066 H 679.13 -0.24939 3.79682 0
M  V30 7067 H 678.642 1.55913 3.55405 0
M  V30 7068 H 676.743 -0.905896 3.6142 0
M  V30 7069 H 676.856 0.594514 4.75397 0
M  V30 7070 H 675.22 0.219813 2.5375 0
M  V30 7071 H 676.003 1.85374 2.88949 0
M  V30 7072 N 678.448 -1.51871 0.421078 0
M  V30 7073 C 679.411 -2.25914 -0.386712 0
M  V30 7074 C 680.411 -1.28733 -0.963555 0
M  V30 7075 O 681.601 -1.52579 -0.840556 0
M  V30 7076 C 678.733 -3.03853 -1.54551 0
M  V30 7077 H 679.926 -2.98754 0.261978 0
M  V30 7078 H 677.479 -1.5533 0.173862 0
M  V30 7079 H 678.214 -2.35392 -2.23072 0
M  V30 7080 H 677.999 -3.75215 -1.13824 0
M  V30 7081 H 679.489 -3.59984 -2.11663 0
M  V30 7082 N 679.926 -0.151884 -1.56866 0
M  V30 7083 C 681.342 0.204486 -1.58285 0
M  V30 7084 C 681.542 1.6431 -1.16639 0
M  V30 7085 O 680.598 2.37077 -0.868946 0
M  V30 7086 C 681.911 -0.0587019 -3.00643 0
M  V30 7087 C 683.459 0.00462303 -3.13 0
M  V30 7088 C 683.934 -0.231297 -4.57416 0
M  V30 7089 N 685.425 -0.178394 -4.62856 0
M  V30 7090 C 686.16 -0.335379 -5.72418 0
M  V30 7091 N 685.656 -0.550355 -6.90611 0
M  V30 7092 N 687.449 -0.272641 -5.61438 0
M  V30 7093 H 679.6 -1.09116 -1.82229 0
M  V30 7094 H 681.863 -0.432311 -0.843689 0
M  V30 7095 H 681.569 -1.05453 -3.35518 0
M  V30 7096 H 681.443 0.658508 -3.71407 0
M  V30 7097 H 683.83 0.991009 -2.77962 0
M  V30 7098 H 683.911 -0.744992 -2.44711 0
M  V30 7099 H 683.555 -1.2148 -4.93158 0
M  V30 7100 H 683.485 0.5387 -5.23837 0
M  V30 7101 H 685.976 -0.0170923 -3.77896 0
M  V30 7102 H 686.289 -0.660116 -7.69976 0
M  V30 7103 H 684.634 -0.586736 -6.92519 0
M  V30 7104 H 687.825 -0.105421 -4.67981 0
M  V30 7105 H 687.998 -0.398418 -6.46774 0
M  V30 7106 N 681.404 1.57128 0.121893 0
M  V30 7107 C 682.652 1.84335 0.828548 0
M  V30 7108 C 682.973 0.736632 1.80551 0
M  V30 7109 O 682.243 -0.23962 1.94429 0
M  V30 7110 H 680.823 0.680108 0.30897 0
M  V30 7111 H 683.485 1.9459 0.109906 0
M  V30 7112 H 682.581 2.80152 1.37554 0
M  V30 7113 N 682.882 -0.391992 1.52647 0
M  V30 7114 C 684.159 -1.15136 1.58123 0
M  V30 7115 C 684.539 -2.07786 0.372597 0
M  V30 7116 O 683.887 -2.19374 -0.639304 0
M  V30 7117 C 684.097 -1.91367 2.91856 0
M  V30 7118 C 685.445 -2.46833 3.45483 0
M  V30 7119 O 686.469 -2.01527 2.9371 0
M  V30 7120 O 685.328 -3.29587 4.3593 0
M  V30 7121 H 682.422 -0.526649 0.637629 0
M  V30 7122 H 684.968 -0.397386 1.64982 0
M  V30 7123 H 683.74 -1.23597 3.71268 0
M  V30 7124 H 683.363 -2.73732 2.88369 0
M  V30 7125 N 684.36 -1.4356 -0.65026 0
M  V30 7126 C 685.292 -1.44918 -1.77571 0
M  V30 7127 C 686.305 -0.344925 -1.59104 0
M  V30 7128 O 687.494 -0.609537 -1.6777 0
M  V30 7129 C 684.594 -1.24914 -3.15039 0
M  V30 7130 C 683.767 -2.48232 -3.60138 0
M  V30 7131 C 682.826 -2.23409 -4.76419 0
M  V30 7132 O 681.852 -2.9678 -4.85706 0
M  V30 7133 N 683.054 -1.25259 -5.66825 0
M  V30 7134 H 685.819 -2.41935 -1.76883 0
M  V30 7135 H 683.38 -1.38754 -0.834202 0
M  V30 7136 H 685.372 -1.06185 -3.90521 0
M  V30 7137 H 683.942 -0.363319 -3.10481 0
M  V30 7138 H 683.162 -2.82366 -2.75069 0
M  V30 7139 H 684.45 -3.30296 -3.87017 0
M  V30 7140 H 683.848 -0.646246 -5.61997 0
M  V30 7141 H 682.405 -1.12513 -6.42016 0
M  V30 7142 N 685.838 0.888903 -1.30139 0
M  V30 7143 C 686.788 1.9814 -1.12803 0
M  V30 7144 C 687.772 1.60839 -0.0443137 0
M  V30 7145 O 688.964 1.74971 -0.267208 0
M  V30 7146 C 686.093 3.33416 -0.817849 0
M  V30 7147 C 685.179 3.77043 -1.94163 0
M  V30 7148 N 685.57 3.92805 -3.18651 0
M  V30 7149 C 683.868 4.06407 -1.8371 0
M  V30 7150 C 684.569 4.29746 -3.92038 0
M  V30 7151 N 683.545 4.3939 -3.20059 0
M  V30 7152 H 687.347 2.08411 -2.07225 0
M  V30 7153 H 684.861 1.07845 -1.21421 0
M  V30 7154 H 686.858 4.11405 -0.674668 0
M  V30 7155 H 685.518 3.24484 0.118344 0
M  V30 7156 H 686.529 3.78042 -3.53984 0
M  V30 7157 H 683.206 4.05972 -0.974331 0
M  V30 7158 H 684.596 4.49695 -4.99223 0
M  V30 7159 N 687.317 1.12792 1.10072 0
M  V30 7160 C 688.728 0.899346 1.63611 0
M  V30 7161 C 689.079 -0.565547 1.87872 0
M  V30 7162 O 688.204 -1.43081 1.62348 0
M  V30 7163 C 688.799 1.62608 2.97227 0
M  V30 7164 C 687.358 1.44356 3.47618 0
M  V30 7165 C 686.505 1.65958 2.22156 0
M  V30 7166 H 689.456 1.28216 0.935223 0
M  V30 7167 H 689.477 1.0793 3.64872 0
M  V30 7168 H 688.989 2.69221 2.79538 0
M  V30 7169 H 687.09 0.400148 3.70445 0
M  V30 7170 H 687.203 2.20218 4.25489 0
M  V30 7171 H 685.567 1.08395 2.30484 0
M  V30 7172 H 686.35 2.73877 2.06993 0
M  V30 7173 N 688.795 -1.27931 0.920396 0
M  V30 7174 C 690.043 -1.94304 0.555906 0
M  V30 7175 C 690.364 -1.72753 -0.904519 0
M  V30 7176 O 689.634 -1.07104 -1.64029 0
M  V30 7177 H 688.214 -0.719001 0.202599 0
M  V30 7178 H 690.876 -1.55785 1.1712 0
M  V30 7179 H 689.972 -3.02806 0.755981 0
M  V30 7180 N 690.273 -0.685099 -1.4193 0
M  V30 7181 C 691.498 -0.218842 -2.06242 0
M  V30 7182 C 691.923 1.11923 -1.51178 0
M  V30 7183 O 691.281 1.69837 -0.634446 0
M  V30 7184 C 691.329 -0.175592 -3.60172 0
M  V30 7185 O 690.433 0.852776 -4.03487 0
M  V30 7186 H 689.774 -0.109531 -0.654904 0
M  V30 7187 H 692.304 -0.937013 -1.81882 0
M  V30 7188 H 692.314 -0.00291151 -4.08 0
M  V30 7189 H 690.989 -1.15222 -3.99621 0
M  V30 7190 H 689.566 0.650301 -3.67186 0
M  V30 7191 N 691.751 1.51645 -0.429126 0
M  V30 7192 C 693 2.01203 0.141538 0
M  V30 7193 C 693.313 1.31828 1.44502 0
M  V30 7194 O 694.519 1.7231 2.09813 0
M  V30 7195 C 692.975 3.58624 0.302786 0
M  V30 7196 C 692.583 4.3693 -0.989775 0
M  V30 7197 C 694.327 4.16353 0.827661 0
M  V30 7198 C 692.234 5.86037 -0.794619 0
M  V30 7199 H 691.164 0.751867 0.05667 0
M  V30 7200 H 693.815 1.74822 -0.557633 0
M  V30 7201 H 692.197 3.81417 1.06476 0
M  V30 7202 H 693.371 4.25887 -1.75945 0
M  V30 7203 H 691.686 3.90614 -1.44256 0
M  V30 7204 H 694.283 5.25455 0.990026 0
M  V30 7205 H 694.626 3.74995 1.80787 0
M  V30 7206 H 695.159 3.97606 0.124213 0
M  V30 7207 H 691.898 6.31792 -1.74697 0
M  V30 7208 H 691.418 5.99765 -0.0645968 0
M  V30 7209 H 693.097 6.45471 -0.444591 0
M  V30 7210 N 693.229 0.160201 1.56784 0
M  V30 7211 C 694.506 -0.533355 1.88188 0
M  V30 7212 C 694.886 -1.82072 1.06831 0
M  V30 7213 O 694.234 -2.27946 0.158959 0
M  V30 7214 C 694.444 -0.786034 3.40033 0
M  V30 7215 C 695.792 -1.12097 4.09536 0
M  V30 7216 O 696.816 -0.874949 3.45287 0
M  V30 7217 O 695.675 -1.58457 5.23023 0
M  V30 7218 H 692.769 -0.273589 0.780434 0
M  V30 7219 H 695.315 0.197803 1.68543 0
M  V30 7220 H 694.087 0.124515 3.91102 0
M  V30 7221 H 693.71 -1.57091 3.65251 0
M  V30 7222 N 694.707 -1.5719 -0.113559 0
M  V30 7223 C 695.955 -1.84772 -0.818761 0
M  V30 7224 C 696.276 -0.746196 -1.80158 0
M  V30 7225 O 695.546 0.229305 -1.94553 0
M  V30 7226 H 694.126 -0.681737 -0.305359 0
M  V30 7227 H 696.788 -1.94645 -0.0995845 0
M  V30 7228 H 695.884 -2.80878 -1.36067 0
M  V30 7229 N 696.185 0.383891 -1.52853 0
M  V30 7230 C 697.462 1.14296 -1.58732 0
M  V30 7231 C 697.842 2.07585 -0.383611 0
M  V30 7232 O 697.19 2.1971 0.627661 0
M  V30 7233 C 697.4 1.89816 -2.92867 0
M  V30 7234 C 698.748 2.44998 -3.46787 0
M  V30 7235 O 699.772 1.99966 -2.94774 0
M  V30 7236 O 698.631 3.2727 -4.37672 0
M  V30 7237 H 695.725 0.52326 -0.640413 0
M  V30 7238 H 698.271 0.388631 -1.6519 0
M  V30 7239 H 697.043 1.21626 -3.71918 0
M  V30 7240 H 696.666 2.72199 -2.89816 0
M  V30 7241 N 697.663 1.43903 0.642637 0
M  V30 7242 C 699.079 1.27536 0.959519 0
M  V30 7243 C 699.279 0.202751 2.00477 0
M  V30 7244 O 698.335 -0.415256 2.49062 0
M  V30 7245 C 699.648 2.6432 1.43372 0
M  V30 7246 C 701.196 2.71937 1.54981 0
M  V30 7247 C 701.671 4.09164 2.05789 0
M  V30 7248 N 703.162 4.11282 2.13076 0
M  V30 7249 C 703.897 5.14303 2.53534 0
M  V30 7250 N 703.393 6.27693 2.93212 0
M  V30 7251 N 705.186 5.01657 2.53567 0
M  V30 7252 H 697.337 2.12344 -0.0488376 0
M  V30 7253 H 699.6 0.947124 0.0407559 0
M  V30 7254 H 699.306 3.43826 0.740048 0
M  V30 7255 H 699.18 2.90432 2.40685 0
M  V30 7256 H 701.567 1.92757 2.23448 0
M  V30 7257 H 701.648 2.49578 0.560739 0
M  V30 7258 H 701.292 4.88815 1.37921 0
M  V30 7259 H 701.222 4.28893 3.05546 0
M  V30 7260 H 703.713 3.2944 1.85143 0
M  V30 7261 H 704.026 7.02125 3.22863 0
M  V30 7262 H 702.371 6.31149 2.90991 0
M  V30 7263 H 705.562 4.12134 2.21952 0
M  V30 7264 H 705.735 5.82072 2.84774 0
M  V30 7265 N 699.141 -0.881989 1.30609 0
M  V30 7266 C 700.088 -1.98803 1.17244 0
M  V30 7267 C 701.058 -1.65987 0.0611905 0
M  V30 7268 O 702.243 -1.89385 0.231911 0
M  V30 7269 C 699.383 -3.33867 0.87333 0
M  V30 7270 C 698.496 -3.79354 2.06675 0
M  V30 7271 C 697.631 -5.03078 1.70547 0
M  V30 7272 C 696.67 -5.40981 2.86366 0
M  V30 7273 N 695.807 -6.55886 2.50514 0
M  V30 7274 H 700.647 -2.09566 2.11863 0
M  V30 7275 H 698.184 -1.02607 1.05405 0
M  V30 7276 H 700.142 -4.11612 0.680519 0
M  V30 7277 H 698.772 -3.2278 -0.0359983 0
M  V30 7278 H 697.824 -2.97492 2.37071 0
M  V30 7279 H 699.136 -4.03382 2.93401 0
M  V30 7280 H 698.29 -5.88457 1.47658 0
M  V30 7281 H 697.029 -4.80927 0.809947 0
M  V30 7282 H 696.034 -4.54127 3.09917 0
M  V30 7283 H 697.259 -5.65104 3.76609 0
M  V30 7284 H 695.205 -6.35306 1.63471 0
M  V30 7285 H 695.122 -6.79799 3.30771 0
M  V30 7286 H 696.39 -7.44489 2.30989 0
M  V30 7287 N 700.619 -1.13374 -1.09472 0
M  V30 7288 C 701.566 -0.810682 -2.16094 0
M  V30 7289 C 702.536 0.227003 -1.64541 0
M  V30 7290 O 703.721 0.0993538 -1.90541 0
M  V30 7291 C 700.861 -0.282336 -3.43943 0
M  V30 7292 C 699.974 -1.37902 -4.09398 0
M  V30 7293 C 699.109 -0.809066 -5.25002 0
M  V30 7294 C 698.148 -1.88419 -5.82379 0
M  V30 7295 N 697.285 -1.33221 -6.89345 0
M  V30 7296 H 702.125 -1.72397 -2.43071 0
M  V30 7297 H 699.662 -0.860564 -1.19301 0
M  V30 7298 H 701.62 0.0421189 -4.17179 0
M  V30 7299 H 700.25 0.594083 -3.17286 0
M  V30 7300 H 699.302 -1.82008 -3.34032 0
M  V30 7301 H 700.614 -2.19161 -4.48074 0
M  V30 7302 H 699.768 -0.435867 -6.05132 0
M  V30 7303 H 698.507 0.0346058 -4.87688 0
M  V30 7304 H 697.512 -2.26646 -5.00911 0
M  V30 7305 H 698.737 -2.73125 -6.21755 0
M  V30 7306 H 696.683 -0.510535 -6.5401 0
M  V30 7307 H 696.6 -2.08129 -7.26786 0
M  V30 7308 H 697.868 -0.986565 -7.73232 0
M  V30 7309 N 702.098 1.27442 -0.927168 0
M  V30 7310 C 703.061 2.2512 -0.430525 0
M  V30 7311 C 704.061 1.54357 0.450619 0
M  V30 7312 O 705.251 1.72371 0.251774 0
M  V30 7313 C 702.383 3.38763 0.381144 0
M  V30 7314 H 703.576 2.70569 -1.29354 0
M  V30 7315 H 701.129 1.39355 -0.707806 0
M  V30 7316 H 701.864 2.98695 1.263 0
M  V30 7317 H 701.649 3.91298 -0.250618 0
M  V30 7318 H 703.139 4.11364 0.719012 0
M  V30 7319 N 703.576 0.692616 1.41565 0
M  V30 7320 C 704.524 0.0139952 2.32596 0
M  V30 7321 C 705.518 -0.771691 1.50802 0
M  V30 7322 O 706.724 -0.677646 1.66757 0
M  V30 7323 H 703.099 -0.0142745 0.751865 0
M  V30 7324 H 705.07 0.798851 2.87508 0
M  V30 7325 C 703.819 -0.910602 3.35564 0
M  V30 7326 H 703.142 -0.315446 3.98554 0
M  V30 7327 H 704.582 -1.3538 4.01806 0
M  V30 7328 C 703.041 -2.02539 2.6922 0
M  V30 7329 O 703.571 -3.11386 2.53775 0
M  V30 7330 N 701.777 -1.80227 2.27962 0
M  V30 7331 H 701.324 -0.917054 2.40724 0
M  V30 7332 H 701.282 -2.55001 1.83907 0
M  V30 7333 N 705.054 -1.51416 0.437162 0
M  V30 7334 C 705.984 -2.30631 -0.364922 0
M  V30 7335 C 706.965 -1.36037 -1.02118 0
M  V30 7336 O 708.15 -1.64956 -1.02485 0
M  V30 7337 C 705.28 -3.1482 -1.46648 0
M  V30 7338 C 704.234 -4.17691 -0.933717 0
M  V30 7339 C 703.56 -4.904 -2.13101 0
M  V30 7340 C 704.86 -5.2229 0.0317201 0
M  V30 7341 H 706.554 -2.97932 0.29614 0
M  V30 7342 H 704.1 -1.4328 0.143865 0
M  V30 7343 H 706.053 -3.69017 -2.03481 0
M  V30 7344 H 704.777 -2.4534 -2.15583 0
M  V30 7345 H 703.436 -3.64545 -0.387602 0
M  V30 7346 H 703.084 -4.17423 -2.80654 0
M  V30 7347 H 702.784 -5.59962 -1.78092 0
M  V30 7348 H 704.308 -5.4742 -2.70487 0
M  V30 7349 H 705.722 -5.7156 -0.446302 0
M  V30 7350 H 704.119 -5.99378 0.29437 0
M  V30 7351 H 705.189 -4.75131 0.968447 0
M  V30 7352 N 706.532 -0.168513 -1.56696 0
M  V30 7353 C 707.778 0.471368 -1.97863 0
M  V30 7354 C 708.133 1.61049 -1.05267 0
M  V30 7355 O 707.426 1.9138 -0.0917908 0
M  V30 7356 C 707.62 1.00441 -3.42996 0
M  V30 7357 C 707.449 -0.081524 -4.49626 0
M  V30 7358 C 706.219 -0.530242 -5.0251 0
M  V30 7359 C 708.417 -0.880897 -5.067 0
M  V30 7360 N 706.399 -1.59678 -5.9277 0
M  V30 7361 C 707.77 -1.79742 -5.93374 0
M  V30 7362 C 709.825 -0.92629 -4.89208 0
M  V30 7363 C 708.528 -2.7555 -6.64428 0
M  V30 7364 C 710.554 -1.8723 -5.6098 0
M  V30 7365 C 709.916 -2.77631 -6.4738 0
M  V30 7366 H 706.015 0.140671 -0.769244 0
M  V30 7367 H 708.599 -0.268084 -1.92846 0
M  V30 7368 H 706.77 1.71339 -3.48565 0
M  V30 7369 H 708.502 1.61269 -3.7118 0
M  V30 7370 H 705.257 -0.12847 -4.73426 0
M  V30 7371 H 705.681 -2.13045 -6.42605 0
M  V30 7372 H 710.323 -0.241412 -4.2211 0
M  V30 7373 H 708.041 -3.45027 -7.30741 0
M  V30 7374 H 711.627 -1.91349 -5.49433 0
M  V30 7375 H 710.507 -3.4964 -7.01941 0
M  V30 7376 N 708.01 1.57248 0.105221 0
M  V30 7377 C 709.287 1.76566 0.841647 0
M  V30 7378 C 709.667 0.747566 1.9742 0
M  V30 7379 O 709.015 -0.225886 2.27381 0
M  V30 7380 C 709.225 3.22016 1.3456 0
M  V30 7381 C 710.573 3.84911 1.79244 0
M  V30 7382 O 711.597 3.25703 1.44207 0
M  V30 7383 O 710.456 4.89008 2.43995 0
M  V30 7384 H 707.55 0.723443 0.400698 0
M  V30 7385 H 710.096 1.69472 0.0878893 0
M  V30 7386 H 708.868 3.87644 0.533685 0
M  V30 7387 H 708.491 3.33703 2.16167 0
M  V30 7388 N 709.488 -0.375779 1.53054 0
M  V30 7389 C 710.451 -1.44254 1.7811 0
M  V30 7390 C 711.451 -1.47018 0.651328 0
M  V30 7391 O 712.641 -1.47957 0.919472 0
M  V30 7392 C 709.773 -2.8345 1.89391 0
M  V30 7393 H 710.966 -1.23316 2.73374 0
M  V30 7394 H 708.519 -0.608312 1.43977 0
M  V30 7395 H 709.254 -3.09716 0.961589 0
M  V30 7396 H 709.039 -2.82844 2.71555 0
M  V30 7397 H 710.529 -3.60722 2.10404 0
M  V30 7398 N 710.966 -1.44241 -0.634997 0
M  V30 7399 C 712.377 -1.41622 -1.21655 0
M  V30 7400 C 712.728 -0.129584 -1.95772 0
M  V30 7401 O 711.853 0.770225 -2.02229 0
M  V30 7402 C 712.448 -2.56557 -2.21278 0
M  V30 7403 C 711.007 -2.57145 -2.7487 0
M  V30 7404 C 710.154 -2.33354 -1.49804 0
M  V30 7405 H 713.105 -1.52878 -0.425905 0
M  V30 7406 H 713.126 -2.29089 -3.03807 0
M  V30 7407 H 712.638 -3.50186 -1.67306 0
M  V30 7408 H 710.739 -1.67447 -3.32855 0
M  V30 7409 H 710.852 -3.55507 -3.21172 0
M  V30 7410 H 709.216 -1.82372 -1.77799 0
M  V30 7411 H 709.999 -3.29092 -0.977402 0
M  V30 7412 N 712.444 0.87505 -1.31075 0
M  V30 7413 C 713.855 1.4433 -1.18431 0
M  V30 7414 C 714.206 1.9506 0.211189 0
M  V30 7415 O 713.331 1.85847 1.10859 0
M  V30 7416 C 713.926 2.62341 -2.14389 0
M  V30 7417 C 712.485 3.15225 -2.05694 0
M  V30 7418 C 711.632 1.87929 -2.03907 0
M  V30 7419 H 714.583 0.684061 -1.432 0
M  V30 7420 H 714.604 3.3887 -1.73053 0
M  V30 7421 H 714.116 2.25388 -3.15946 0
M  V30 7422 H 712.217 3.56812 -1.07314 0
M  V30 7423 H 712.33 3.77853 -2.94558 0
M  V30 7424 H 710.694 2.06679 -1.48849 0
M  V30 7425 H 711.477 1.53221 -3.07211 0
M  V30 7426 N 713.922 1.13953 1.08869 0
M  V30 7427 C 714.885 0.824991 2.13838 0
M  V30 7428 C 715.885 -0.168198 1.59918 0
M  V30 7429 O 717.075 0.0595778 1.74098 0
M  V30 7430 C 714.207 0.228938 3.4013 0
M  V30 7431 H 715.4 1.75521 2.43171 0
M  V30 7432 H 712.953 0.94492 1.24503 0
M  V30 7433 H 713.688 -0.710227 3.16427 0
M  V30 7434 H 713.473 0.944243 3.80561 0
M  V30 7435 H 714.963 0.0259223 4.17592 0
M  V30 7436 N 715.4 -1.26948 0.933913 0
M  V30 7437 C 716.816 -1.46419 0.635103 0
M  V30 7438 C 717.016 -1.84336 -0.813785 0
M  V30 7439 O 716.072 -1.96061 -1.59111 0
M  V30 7440 C 717.385 -2.55206 1.5903 0
M  V30 7441 C 718.933 -2.69062 1.5992 0
M  V30 7442 C 719.408 -3.81013 2.54152 0
M  V30 7443 N 720.899 -3.88395 2.52395 0
M  V30 7444 C 721.634 -4.74454 3.21996 0
M  V30 7445 N 721.13 -5.64954 4.00997 0
M  V30 7446 N 722.923 -4.68237 3.10983 0
M  V30 7447 H 715.074 -1.00622 1.87053 0
M  V30 7448 H 717.337 -0.503189 0.803433 0
M  V30 7449 H 717.043 -2.34153 2.62422 0
M  V30 7450 H 716.917 -3.52719 1.33677 0
M  V30 7451 H 719.304 -2.89492 0.572569 0
M  V30 7452 H 719.385 -1.72016 1.89325 0
M  V30 7453 H 719.029 -3.61336 3.5693 0
M  V30 7454 H 718.959 -4.77499 2.22041 0
M  V30 7455 H 721.45 -3.23687 1.95025 0
M  V30 7456 H 721.763 -6.27496 4.51074 0
M  V30 7457 H 720.108 -5.6473 4.05099 0
M  V30 7458 H 723.299 -3.96535 2.48753 0
M  V30 7459 H 723.472 -5.35087 3.65494 0
M  V30 7460 N 716.879 -0.700114 -1.41195 0
M  V30 7461 C 718.127 -0.232546 -2.00758 0
M  V30 7462 C 718.448 1.1734 -1.55745 0
M  V30 7463 O 717.718 1.79262 -0.790058 0
M  V30 7464 H 716.298 -0.0829845 -0.742376 0
M  V30 7465 H 718.96 -0.902289 -1.72756 0
M  V30 7466 H 718.056 -0.253521 -3.11069 0
M  V30 7467 N 718.357 1.51182 -0.445186 0
M  V30 7468 C 719.289 2.25714 0.398206 0
M  V30 7469 C 720.302 1.30032 0.979562 0
M  V30 7470 O 721.491 1.55731 0.872368 0
M  V30 7471 C 718.591 3.00348 1.56985 0
M  V30 7472 C 717.764 4.23187 1.10596 0
M  V30 7473 C 716.823 4.80334 2.14863 0
M  V30 7474 O 715.849 5.4196 1.73977 0
M  V30 7475 N 717.051 4.65053 3.47427 0
M  V30 7476 H 719.816 2.98732 -0.240629 0
M  V30 7477 H 717.377 1.59556 -0.274507 0
M  V30 7478 H 719.369 3.35464 2.26376 0
M  V30 7479 H 717.939 2.30291 2.11387 0
M  V30 7480 H 717.159 3.93476 0.238832 0
M  V30 7481 H 718.447 5.02886 0.773537 0
M  V30 7482 H 717.845 4.15984 3.83372 0
M  V30 7483 H 716.402 5.04509 4.12691 0
M  V30 7484 N 719.835 0.176821 1.56605 0
M  V30 7485 C 721.251 -0.179278 1.5859 0
M  V30 7486 C 721.451 -1.62433 1.19238 0
M  V30 7487 O 720.507 -2.35665 0.906552 0
M  V30 7488 C 721.82 0.106524 3.00511 0
M  V30 7489 C 723.368 0.0451731 3.12967 0
M  V30 7490 C 723.843 0.304038 4.5699 0
M  V30 7491 N 725.334 0.252008 4.62514 0
M  V30 7492 C 726.069 0.426404 5.71812 0
M  V30 7493 N 725.565 0.660155 6.89648 0
M  V30 7494 N 727.358 0.361926 5.60934 0
M  V30 7495 H 719.509 1.12001 1.8047 0
M  V30 7496 H 721.772 0.445679 0.836704 0
M  V30 7497 H 721.478 1.10778 3.33798 0
M  V30 7498 H 721.352 -0.599337 3.72408 0
M  V30 7499 H 723.739 -0.946662 2.79504 0
M  V30 7500 H 723.82 0.78383 2.43495 0
M  V30 7501 H 723.464 1.29311 4.91163 0
M  V30 7502 H 723.394 -0.455294 5.24628 0
M  V30 7503 H 725.885 0.0772102 3.77821 0
M  V30 7504 H 726.198 0.782529 7.68828 0
M  V30 7505 H 724.543 0.696835 6.91498 0
M  V30 7506 H 727.734 0.17986 4.67754 0
M  V30 7507 H 727.907 0.501263 6.46058 0
M  V30 7508 N 721.313 -1.57302 -0.09688 0
M  V30 7509 C 722.729 -1.53094 -0.451041 0
M  V30 7510 C 722.929 -0.893265 -1.80618 0
M  V30 7511 O 721.985 -0.485013 -2.47798 0
M  V30 7512 C 723.298 -2.9782 -0.415172 0
M  V30 7513 C 724.846 -3.09026 -0.497155 0
M  V30 7514 C 725.321 -4.55356 -0.491452 0
M  V30 7515 N 726.812 -4.59896 -0.552258 0
M  V30 7516 C 727.547 -5.70563 -0.569654 0
M  V30 7517 N 727.043 -6.90666 -0.543365 0
M  V30 7518 N 728.836 -5.58733 -0.614331 0
M  V30 7519 H 720.987 -1.97131 0.790771 0
M  V30 7520 H 723.25 -0.901211 0.294147 0
M  V30 7521 H 722.956 -3.47933 0.513362 0
M  V30 7522 H 722.83 -3.56416 -1.23481 0
M  V30 7523 H 725.217 -2.58902 -1.41611 0
M  V30 7524 H 725.298 -2.53386 0.35059 0
M  V30 7525 H 724.942 -5.06131 0.423549 0
M  V30 7526 H 724.872 -5.08832 -1.35639 0
M  V30 7527 H 727.363 -3.73456 -0.577842 0
M  V30 7528 H 727.676 -7.70769 -0.559873 0
M  V30 7529 H 726.021 -6.93123 -0.510441 0
M  V30 7530 H 729.212 -4.63809 -0.632387 0
M  V30 7531 H 729.385 -6.44984 -0.62442 0
M  V30 7532 N 722.791 0.367657 -1.53252 0
M  V30 7533 C 723.739 1.47061 -1.8021 0
M  V30 7534 C 724.733 1.55539 -0.671112 0
M  V30 7535 O 725.939 1.58451 -0.854014 0
M  V30 7536 H 722.314 0.489868 -0.570555 0
M  V30 7537 H 724.285 1.21527 -2.72532 0
M  V30 7538 C 723.034 2.83924 -2.00706 0
M  V30 7539 H 722.357 2.78158 -2.87172 0
M  V30 7540 H 723.797 3.60281 -2.23547 0
M  V30 7541 C 722.256 3.27613 -0.785568 0
M  V30 7542 O 722.786 4.01691 0.0267459 0
M  V30 7543 N 720.992 2.84134 -0.609597 0
M  V30 7544 H 720.539 2.24017 -1.27178 0
M  V30 7545 H 720.497 3.13723 0.206281 0
M  V30 7546 N 724.269 1.44576 0.627338 0
M  V30 7547 C 725.202 1.46206 1.75212 0
M  V30 7548 C 726.18 0.320483 1.5941 0
M  V30 7549 O 727.364 0.518028 1.81242 0
M  V30 7550 C 724.491 1.29834 3.12827 0
M  V30 7551 C 723.537 2.47603 3.47268 0
M  V30 7552 S 724.37 4.10125 3.44322 0
M  V30 7553 C 725.526 3.96183 4.84551 0
M  V30 7554 H 725.759 2.41378 1.73563 0
M  V30 7555 H 723.292 1.3192 0.802283 0
M  V30 7556 H 725.25 1.21075 3.92239 0
M  V30 7557 H 723.911 0.361662 3.12011 0
M  V30 7558 H 723.104 2.3202 4.47418 0
M  V30 7559 H 722.706 2.53121 2.75329 0
M  V30 7560 H 724.998 3.60107 5.73872 0
M  V30 7561 H 725.941 4.96176 5.05188 0
M  V30 7562 H 726.349 3.28177 4.59304 0
M  V30 7563 N 725.747 -0.868086 1.31537 0
M  V30 7564 C 727.158 -1.437 1.19195 0
M  V30 7565 C 727.509 -1.95169 -0.200842 0
M  V30 7566 O 726.634 -1.86432 -1.09872 0
M  V30 7567 C 727.229 -2.612 2.15778 0
M  V30 7568 C 725.788 -3.1413 2.07363 0
M  V30 7569 C 724.935 -1.86845 2.049 0
M  V30 7570 H 727.886 -0.676457 1.43561 0
M  V30 7571 H 727.907 -3.37948 1.74847 0
M  V30 7572 H 727.419 -2.23709 3.17137 0
M  V30 7573 H 725.52 -3.56238 1.09204 0
M  V30 7574 H 725.633 -3.76285 2.96557 0
M  V30 7575 H 723.997 -2.05886 1.49943 0
M  V30 7576 H 724.78 -1.51589 3.08019 0
M  V30 7577 N 727.225 -1.14528 -1.08264 0
M  V30 7578 C 728.155 -0.856356 -2.1723 0
M  V30 7579 C 729.136 0.189251 -1.69044 0
M  V30 7580 O 730.321 0.0456119 -1.94146 0
M  V30 7581 C 727.451 -0.334662 -3.45684 0
M  V30 7582 C 726.405 -1.31588 -4.0727 0
M  V30 7583 C 725.731 -0.653428 -5.30692 0
M  V30 7584 C 727.031 -2.67866 -4.48381 0
M  V30 7585 H 728.725 -1.76755 -2.41657 0
M  V30 7586 H 726.271 -0.851287 -1.16143 0
M  V30 7587 H 728.224 -0.120128 -4.21229 0
M  V30 7588 H 726.948 0.611967 -3.20815 0
M  V30 7589 H 725.607 -1.51661 -3.33758 0
M  V30 7590 H 725.255 0.299054 -5.0211 0
M  V30 7591 H 724.955 -1.30817 -5.72853 0
M  V30 7592 H 726.479 -0.448453 -6.08951 0
M  V30 7593 H 727.893 -2.51692 -5.15096 0
M  V30 7594 H 726.29 -3.29627 -5.01464 0
M  V30 7595 H 727.36 -3.24632 -3.60198 0
M  V30 7596 N 728.703 1.26451 -0.940633 0
M  V30 7597 C 729.613 2.30128 -0.455881 0
M  V30 7598 C 730.629 1.67536 0.469867 0
M  V30 7599 O 731.805 1.98344 0.349529 0
M  V30 7600 C 728.87 3.45634 0.271648 0
M  V30 7601 C 727.931 4.23709 -0.690594 0
M  V30 7602 C 727.164 5.337 0.00231047 0
M  V30 7603 O 727.387 5.57215 1.21935 0
M  V30 7604 O 726.321 5.98091 -0.676111 0
M  V30 7605 H 730.147 2.73655 -1.31707 0
M  V30 7606 H 727.732 1.3164 -0.706497 0
M  V30 7607 H 729.614 4.15853 0.681486 0
M  V30 7608 H 728.289 3.04138 1.10824 0
M  V30 7609 H 727.196 3.55974 -1.15037 0
M  V30 7610 H 728.529 4.68953 -1.49478 0
M  V30 7611 N 730.181 0.707592 1.40822 0
M  V30 7612 C 731.597 0.38034 1.55002 0
M  V30 7613 C 731.797 -1.11163 1.68062 0
M  V30 7614 O 730.853 -1.89761 1.66574 0
M  V30 7615 C 732.166 1.1394 2.78277 0
M  V30 7616 C 733.714 1.12492 2.92087 0
M  V30 7617 C 734.189 1.86597 4.18265 0
M  V30 7618 N 735.68 1.83626 4.25248 0
M  V30 7619 C 736.415 2.37794 5.21768 0
M  V30 7620 N 735.911 3.00485 6.24244 0
M  V30 7621 N 737.704 2.27982 5.13791 0
M  V30 7622 H 729.855 1.67511 1.3059 0
M  V30 7623 H 732.118 0.707579 0.630901 0
M  V30 7624 H 731.824 2.19398 2.74877 0
M  V30 7625 H 731.698 0.725793 3.70151 0
M  V30 7626 H 734.085 0.0785564 2.94995 0
M  V30 7627 H 734.166 1.57768 2.01353 0
M  V30 7628 H 733.81 2.91219 4.16118 0
M  V30 7629 H 733.74 1.38746 5.07993 0
M  V30 7630 H 736.231 1.3793 3.51829 0
M  V30 7631 H 736.544 3.39355 6.94304 0
M  V30 7632 H 734.889 3.04567 6.24711 0
M  V30 7633 H 738.08 1.78669 4.3266 0
M  V30 7634 H 738.253 2.70499 5.88841 0
M  V30 7635 N 731.66 -1.50943 0.453197 0
M  V30 7636 C 732.593 -2.24742 -0.395787 0
M  V30 7637 C 733.571 -1.27316 -1.01141 0
M  V30 7638 O 734.755 -1.56494 -1.05081 0
M  V30 7639 C 731.882 -3.00999 -1.55298 0
M  V30 7640 C 730.928 -4.13207 -1.0565 0
M  V30 7641 S 731.761 -5.35498 0.01435 0
M  V30 7642 C 732.917 -6.15298 -1.14714 0
M  V30 7643 H 733.15 -2.96403 0.23071 0
M  V30 7644 H 730.683 -1.52557 0.237874 0
M  V30 7645 H 732.641 -3.45529 -2.2163 0
M  V30 7646 H 731.302 -2.28896 -2.15094 0
M  V30 7647 H 730.495 -4.65901 -1.9223 0
M  V30 7648 H 730.097 -3.7102 -0.471182 0
M  V30 7649 H 732.389 -6.45346 -2.06239 0
M  V30 7650 H 733.332 -7.05019 -0.659842 0
M  V30 7651 H 733.74 -5.47046 -1.39288 0
M  V30 7652 N 733.138 -0.185124 -1.56509 0
M  V30 7653 C 734.085 0.739729 -2.18624 0
M  V30 7654 C 735.055 1.217 -1.13042 0
M  V30 7655 O 736.24 1.28268 -1.41251 0
M  V30 7656 C 733.38 1.95787 -2.84186 0
M  V30 7657 C 732.493 1.52289 -4.04267 0
M  V30 7658 C 731.628 2.69576 -4.57714 0
M  V30 7659 C 730.667 2.22636 -5.70175 0
M  V30 7660 N 729.804 3.33065 -6.18071 0
M  V30 7661 H 734.644 0.203269 -2.97306 0
M  V30 7662 H 732.181 0.0885946 -1.46833 0
M  V30 7663 H 734.139 2.67253 -3.20361 0
M  V30 7664 H 732.769 2.4678 -2.08085 0
M  V30 7665 H 731.821 0.704458 -3.7382 0
M  V30 7666 H 733.133 1.13843 -4.85635 0
M  V30 7667 H 732.287 3.4918 -4.96143 0
M  V30 7668 H 731.026 3.1129 -3.75433 0
M  V30 7669 H 730.031 1.41483 -5.31284 0
M  V30 7670 H 731.256 1.81964 -6.54267 0
M  V30 7671 H 729.202 3.74328 -5.38715 0
M  V30 7672 H 729.119 2.98756 -6.94464 0
M  V30 7673 H 730.387 4.12912 -6.61153 0
M  V30 7674 N 734.616 1.57351 0.0885366 0
M  V30 7675 C 735.864 1.86051 0.789262 0
M  V30 7676 C 736.185 0.774763 1.78948 0
M  V30 7677 O 735.455 -0.198324 1.94894 0
M  V30 7678 H 734.035 0.686508 0.294475 0
M  V30 7679 H 736.697 1.94779 0.0686055 0
M  V30 7680 H 735.793 2.83007 1.31581 0
M  V30 7681 N 736.094 -0.359525 1.53444 0
M  V30 7682 C 737.343 -1.09886 1.69139 0
M  V30 7683 C 737.656 -1.90285 0.452863 0
M  V30 7684 O 738.862 -2.67033 0.490459 0
M  V30 7685 C 737.318 -2.0028 2.99025 0
M  V30 7686 C 736.926 -1.25164 4.30161 0
M  V30 7687 C 738.67 -2.74168 3.24086 0
M  V30 7688 C 736.577 -2.14494 5.51132 0
M  V30 7689 H 735.507 -0.413936 0.630217 0
M  V30 7690 H 738.158 -0.359434 1.79945 0
M  V30 7691 H 736.54 -2.77978 2.82036 0
M  V30 7692 H 737.714 -0.524867 4.57801 0
M  V30 7693 H 736.029 -0.631116 4.11589 0
M  V30 7694 H 738.626 -3.41243 4.11652 0
M  V30 7695 H 738.969 -3.39868 2.40407 0
M  V30 7696 H 739.502 -2.0355 3.41778 0
M  V30 7697 H 736.241 -1.53362 6.37307 0
M  V30 7698 H 735.761 -2.85004 5.27762 0
M  V30 7699 H 737.44 -2.73914 5.86157 0
M  V30 7700 N 737.572 -1.44907 -0.619662 0
M  V30 7701 C 738.797 -1.52021 -1.41083 0
M  V30 7702 C 739.222 -0.14976 -1.87503 0
M  V30 7703 O 738.58 0.863303 -1.59426 0
M  V30 7704 C 738.628 -2.49911 -2.59955 0
M  V30 7705 O 737.732 -2.00857 -3.60181 0
M  V30 7706 H 737.073 -0.512912 -0.421684 0
M  V30 7707 H 739.603 -1.90149 -0.755282 0
M  V30 7708 H 739.613 -2.68323 -3.07354 0
M  V30 7709 H 738.288 -3.4945 -2.25516 0
M  V30 7710 H 736.865 -1.92265 -3.19513 0
M  V30 7711 N 739.05 0.861098 -1.31996 0
M  V30 7712 C 740.466 1.14827 -1.10846 0
M  V30 7713 C 740.666 2.0117 0.11528 0
M  V30 7714 O 739.722 2.39423 0.802048 0
M  V30 7715 C 741.035 1.83183 -2.38462 0
M  V30 7716 C 742.583 1.95847 -2.44158 0
M  V30 7717 C 743.058 2.67617 -3.71679 0
M  V30 7718 N 744.549 2.75147 -3.72624 0
M  V30 7719 C 745.284 3.31314 -4.67994 0
M  V30 7720 N 744.78 3.88343 -5.73726 0
M  V30 7721 N 746.573 3.29356 -4.55501 0
M  V30 7722 H 738.724 0.285951 -2.10466 0
M  V30 7723 H 740.987 0.189303 -0.928907 0
M  V30 7724 H 740.693 1.27193 -3.27895 0
M  V30 7725 H 740.567 2.83393 -2.48935 0
M  V30 7726 H 742.954 2.50999 -1.55189 0
M  V30 7727 H 743.035 0.94653 -2.37644 0
M  V30 7728 H 742.679 2.13131 -4.61018 0
M  V30 7729 H 742.609 3.69237 -3.75462 0
M  V30 7730 H 745.1 2.34682 -2.96197 0
M  V30 7731 H 745.413 4.29338 -6.42564 0
M  V30 7732 H 743.758 3.86693 -5.77489 0
M  V30 7733 H 746.949 2.84047 -3.72069 0
M  V30 7734 H 747.122 3.7283 -5.30001 0
M  V30 7735 N 740.528 1.15101 1.07655 0
M  V30 7736 C 741.753 0.948177 1.84457 0
M  V30 7737 C 742.178 -0.498432 1.81376 0
M  V30 7738 O 741.536 -1.35509 1.20445 0
M  V30 7739 C 741.584 1.46318 3.29581 0
M  V30 7740 O 740.688 0.660342 4.07079 0
M  V30 7741 H 740.029 0.338428 0.571281 0
M  V30 7742 H 742.559 1.5301 1.35828 0
M  V30 7743 H 742.569 1.47468 3.80417 0
M  V30 7744 H 741.244 2.51635 3.31138 0
M  V30 7745 H 739.821 0.718216 3.65918 0
M  V30 7746 N 742.006 -1.2595 0.947325 0
M  V30 7747 C 742.936 -2.28521 0.479604 0
M  V30 7748 C 743.917 -1.63469 -0.470293 0
M  V30 7749 O 745.102 -1.90627 -0.370824 0
M  V30 7750 C 742.232 -3.46397 -0.250289 0
M  V30 7751 C 741.186 -4.23578 0.613643 0
M  V30 7752 C 740.512 -5.34131 -0.246568 0
M  V30 7753 C 741.812 -4.86979 1.88809 0
M  V30 7754 H 743.506 -2.67895 1.33688 0
M  V30 7755 H 741.052 -1.28783 0.644274 0
M  V30 7756 H 743.005 -4.17269 -0.588576 0
M  V30 7757 H 741.729 -3.05993 -1.14175 0
M  V30 7758 H 740.388 -3.54478 0.93491 0
M  V30 7759 H 740.036 -4.89968 -1.13756 0
M  V30 7760 H 739.736 -5.86683 0.328123 0
M  V30 7761 H 741.26 -6.07839 -0.579986 0
M  V30 7762 H 742.674 -5.50034 1.61666 0
M  V30 7763 H 741.071 -5.49675 2.40784 0
M  V30 7764 H 742.141 -4.09575 2.5957 0
M  V30 7765 N 743.484 -0.715051 -1.40445 0
M  V30 7766 C 744.394 -0.0631624 -2.34515 0
M  V30 7767 C 745.41 0.744397 -1.57273 0
M  V30 7768 O 746.586 0.677475 -1.89663 0
M  V30 7769 C 743.651 0.847915 -3.36172 0
M  V30 7770 C 742.712 0.0303655 -4.29289 0
M  V30 7771 C 741.945 0.898051 -5.2609 0
M  V30 7772 O 742.168 2.13729 -5.28844 0
M  V30 7773 O 741.102 0.337328 -6.00954 0
M  V30 7774 H 744.928 -0.839078 -2.91879 0
M  V30 7775 H 742.513 -0.475527 -1.4163 0
M  V30 7776 H 744.395 1.3698 -3.98515 0
M  V30 7777 H 743.07 1.60299 -2.81222 0
M  V30 7778 H 741.977 -0.536573 -3.70232 0
M  V30 7779 H 743.31 -0.686474 -4.87389 0
M  V30 7780 N 744.962 1.50701 -0.461195 0
M  V30 7781 C 746.187 2.07171 0.0974773 0
M  V30 7782 C 746.612 1.32391 1.3362 0
M  V30 7783 O 745.97 0.368676 1.77512 0
M  V30 7784 C 746.018 3.58651 0.374409 0
M  V30 7785 O 745.122 3.85816 1.4567 0
M  V30 7786 H 744.463 0.663944 -0.00862047 0
M  V30 7787 H 746.993 1.94021 -0.649394 0
M  V30 7788 H 747.003 4.03295 0.617843 0
M  V30 7789 H 745.678 4.12498 -0.530829 0
M  V30 7790 H 744.255 3.53018 1.20136 0
M  V30 7791 N 746.441 0.193421 1.56409 0
M  V30 7792 C 747.687 -0.446449 1.97825 0
M  V30 7793 C 748.02 -1.61386 1.08019 0
M  V30 7794 O 747.295 -1.94053 0.131839 0
M  V30 7795 C 747.578 -0.908199 3.48459 0
M  V30 7796 C 747.431 0.260914 4.49043 0
M  V30 7797 C 748.75 -1.77428 4.0275 0
M  V30 7798 H 745.869 -0.160807 0.719243 0
M  V30 7799 H 748.511 0.284006 1.87865 0
M  V30 7800 H 746.661 -1.53062 3.57077 0
M  V30 7801 H 748.333 0.898548 4.52464 0
M  V30 7802 H 746.576 0.912949 4.24085 0
M  V30 7803 H 747.247 -0.104657 5.51901 0
M  V30 7804 H 749.723 -1.24936 3.96901 0
M  V30 7805 H 748.599 -2.06633 5.08521 0
M  V30 7806 H 748.86 -2.72788 3.47907 0
M  V30 7807 N 747.919 -1.57396 -0.0801906 0
M  V30 7808 C 748.849 -2.06145 -1.09665 0
M  V30 7809 C 749.83 -0.953273 -1.40878 0
M  V30 7810 O 751.015 -1.22548 -1.50651 0
M  V30 7811 C 748.145 -2.49836 -2.41245 0
M  V30 7812 C 747.099 -3.64454 -2.24405 0
M  V30 7813 C 746.425 -3.94172 -3.61293 0
M  V30 7814 C 747.725 -4.94807 -1.67223 0
M  V30 7815 H 749.419 -2.91316 -0.691028 0
M  V30 7816 H 746.965 -1.40145 -0.330957 0
M  V30 7817 H 748.918 -2.82552 -3.12638 0
M  V30 7818 H 747.642 -1.61683 -2.83771 0
M  V30 7819 H 746.301 -3.32008 -1.55454 0
M  V30 7820 H 745.949 -3.03163 -4.01374 0
M  V30 7821 H 745.649 -4.71345 -3.50867 0
M  V30 7822 H 747.173 -4.29376 -4.3413 0
M  V30 7823 H 748.587 -5.25807 -2.28472 0
M  V30 7824 H 746.984 -5.76245 -1.67515 0
M  V30 7825 H 748.054 -4.80751 -0.632944 0
M  V30 7826 N 749.397 0.351382 -1.53633 0
M  V30 7827 C 750.622 1.11718 -1.74739 0
M  V30 7828 C 751.047 1.81829 -0.481657 0
M  V30 7829 O 750.405 1.72264 0.565233 0
M  V30 7830 C 750.453 2.11234 -2.92254 0
M  V30 7831 O 749.557 3.186 -2.61855 0
M  V30 7832 H 748.898 0.323482 -0.579875 0
M  V30 7833 H 751.428 0.404167 -2.00568 0
M  V30 7834 H 751.438 2.54591 -3.18822 0
M  V30 7835 H 750.113 1.59599 -3.84058 0
M  V30 7836 H 748.69 2.80115 -2.4615 0
M  V30 7837 N 750.875 1.45233 0.611969 0
M  V30 7838 C 751.805 1.5641 1.73373 0
M  V30 7839 C 752.786 0.415896 1.64937 0
M  V30 7840 O 753.971 0.638478 1.83404 0
M  V30 7841 C 751.101 1.52627 3.11965 0
M  V30 7842 C 750.055 2.66119 3.35208 0
M  V30 7843 C 749.381 2.4739 4.74028 0
M  V30 7844 C 750.681 4.08157 3.25891 0
M  V30 7845 H 752.375 2.50307 1.64277 0
M  V30 7846 H 749.921 1.20467 0.788904 0
M  V30 7847 H 751.874 1.59043 3.90235 0
M  V30 7848 H 750.598 0.552564 3.21892 0
M  V30 7849 H 749.257 2.59123 2.59327 0
M  V30 7850 H 748.905 1.48168 4.80682 0
M  V30 7851 H 748.605 3.23494 4.90536 0
M  V30 7852 H 750.129 2.55653 5.54503 0
M  V30 7853 H 751.543 4.1642 3.9404 0
M  V30 7854 H 749.94 4.84617 3.5393 0
M  V30 7855 H 751.01 4.30374 2.23397 0
M  V30 7856 N 752.353 -0.854086 1.3245 0
M  V30 7857 C 753.601 -1.60513 1.228 0
M  V30 7858 C 753.922 -1.93865 -0.210073 0
M  V30 7859 O 753.192 -1.59673 -1.13496 0
M  V30 7860 H 751.772 -0.595099 0.451516 0
M  V30 7861 H 754.434 -1.0216 1.6598 0
M  V30 7862 H 753.53 -2.54182 1.81102 0
M  V30 7863 N 753.831 -1.1567 -1.07043 0
M  V30 7864 C 755.242 -0.942408 -1.61169 0
M  V30 7865 C 755.593 0.515537 -1.89306 0
M  V30 7866 O 754.718 1.38726 -1.66084 0
M  V30 7867 C 755.313 -1.70431 -2.92812 0
M  V30 7868 C 753.872 -1.53521 -3.43669 0
M  V30 7869 C 753.019 -1.7179 -2.17678 0
M  V30 7870 H 755.97 -1.3065 -0.9009 0
M  V30 7871 H 755.991 -1.17566 -3.61882 0
M  V30 7872 H 755.503 -2.76538 -2.72302 0
M  V30 7873 H 753.604 -0.498224 -3.69254 0
M  V30 7874 H 753.717 -2.31422 -4.19501 0
M  V30 7875 H 752.081 -1.14468 -2.27529 0
M  V30 7876 H 752.864 -2.79269 -1.99659 0
M  V30 7877 N 755.309 1.25446 -0.953992 0
M  V30 7878 C 756.725 1.4539 -0.658316 0
M  V30 7879 C 756.925 1.85607 0.784356 0
M  V30 7880 O 755.981 1.98568 1.55972 0
M  V30 7881 C 757.294 2.52643 -1.6307 0
M  V30 7882 C 758.842 2.66484 -1.64181 0
M  V30 7883 C 759.317 3.76921 -2.60182 0
M  V30 7884 N 760.808 3.84331 -2.58542 0
M  V30 7885 C 761.543 4.69271 -3.29503 0
M  V30 7886 N 761.039 5.58503 -4.09934 0
M  V30 7887 N 762.832 4.6323 -3.18393 0
M  V30 7888 H 754.983 0.976337 -1.8863 0
M  V30 7889 H 757.246 0.490343 -0.811337 0
M  V30 7890 H 756.952 2.29949 -2.66114 0
M  V30 7891 H 756.826 3.50547 -1.39271 0
M  V30 7892 H 759.213 2.88545 -0.618552 0
M  V30 7893 H 759.294 1.68982 -1.92038 0
M  V30 7894 H 758.938 3.55612 -3.62633 0
M  V30 7895 H 758.868 4.73906 -2.29609 0
M  V30 7896 H 761.359 3.20544 -2.0015 0
M  V30 7897 H 761.672 6.20241 -4.61 0
M  V30 7898 H 760.017 5.58214 -4.14032 0
M  V30 7899 H 763.208 3.92527 -2.5503 0
M  V30 7900 H 763.381 5.29204 -3.73961 0
M  V30 7901 N 756.787 0.722489 1.40064 0
M  V30 7902 C 758.198 0.336507 1.83642 0
M  V30 7903 C 758.549 -1.13002 1.6039 0
M  V30 7904 O 757.674 -1.87036 1.08842 0
M  V30 7905 C 758.269 0.603985 3.33373 0
M  V30 7906 C 756.828 0.271637 3.75419 0
M  V30 7907 C 755.975 0.872898 2.63203 0
M  V30 7908 H 758.926 0.921108 1.29233 0
M  V30 7909 H 758.947 -0.128471 3.80283 0
M  V30 7910 H 758.459 1.67141 3.50265 0
M  V30 7911 H 756.56 -0.790455 3.64119 0
M  V30 7912 H 756.673 0.745457 4.73265 0
M  V30 7913 H 755.037 0.300431 2.52922 0
M  V30 7914 H 755.82 1.94473 2.82905 0
M  V30 7915 N 758.265 -1.50454 0.469181 0
M  V30 7916 C 759.493 -2.06729 -0.0842134 0
M  V30 7917 C 759.908 -1.33326 -1.33677 0
M  V30 7918 O 759.265 -0.401977 -1.78018 0
M  V30 7919 C 759.316 -3.59557 -0.374253 0
M  V30 7920 O 759.037 -4.30192 0.828622 0
M  V30 7921 C 760.538 -4.32449 -0.974824 0
M  V30 7922 H 757.758 -0.670971 0.006231 0
M  V30 7923 H 760.302 -1.93645 0.657415 0
M  V30 7924 H 758.457 -3.7245 -1.06581 0
M  V30 7925 H 758.871 -5.21371 0.572066 0
M  V30 7926 H 760.345 -5.40361 -1.12755 0
M  V30 7927 H 760.822 -3.92819 -1.96442 0
M  V30 7928 H 761.428 -4.24082 -0.321703 0
M  V30 7929 N 759.743 -0.201713 -1.56304 0
M  V30 7930 C 760.991 0.434447 -1.97375 0
M  V30 7931 C 761.312 1.61692 -1.08998 0
M  V30 7932 O 760.582 1.95223 -0.162682 0
M  V30 7933 H 759.162 0.163497 -0.728888 0
M  V30 7934 H 761.824 -0.289988 -1.92731 0
M  V30 7935 H 760.92 0.774136 -3.02347 0
M  V30 7936 N 761.222 1.57436 0.0718424 0
M  V30 7937 C 762.47 1.86878 0.769484 0
M  V30 7938 C 762.791 0.7937 1.78116 0
M  V30 7939 O 762.061 -0.177642 1.95093 0
M  V30 7940 H 760.641 0.689593 0.287177 0
M  V30 7941 H 763.303 1.94841 0.0479427 0
M  V30 7942 H 762.399 2.84387 1.28572 0
M  V30 7943 N 762.7 -0.34323 1.53817 0
M  V30 7944 C 763.948 -1.0813 1.70741 0
M  V30 7945 C 764.269 -1.89165 0.473461 0
M  V30 7946 O 763.539 -1.89075 -0.512605 0
M  V30 7947 H 762.119 -0.40219 0.629486 0
M  V30 7948 H 764.781 -0.384426 1.91071 0
M  V30 7949 H 763.877 -1.7585 2.57843 0
M  V30 7950 N 764.178 -1.45556 -0.604258 0
M  V30 7951 C 765.403 -1.53509 -1.39462 0
M  V30 7952 C 765.828 -0.169638 -1.87333 0
M  V30 7953 O 765.186 0.846346 -1.60333 0
M  V30 7954 C 765.234 -2.52654 -2.5729 0
M  V30 7955 O 764.338 -2.04666 -3.5803 0
M  V30 7956 H 763.679 -0.517355 -0.416221 0
M  V30 7957 H 766.209 -1.90939 -0.735072 0
M  V30 7958 H 766.219 -2.71568 -3.04491 0
M  V30 7959 H 764.894 -3.51823 -2.21797 0
M  V30 7960 H 763.471 -1.95643 -3.17456 0
M  V30 7961 N 765.656 0.84705 -1.32902 0
M  V30 7962 C 766.881 1.63925 -1.27056 0
M  V30 7963 C 767.306 1.87443 0.157136 0
M  V30 7964 O 766.664 1.43266 1.11106 0
M  V30 7965 C 766.712 2.97134 -2.04313 0
M  V30 7966 O 765.816 3.88049 -1.39614 0
M  V30 7967 H 765.157 0.499477 -0.437514 0
M  V30 7968 H 767.687 1.05443 -1.75336 0
M  V30 7969 H 767.697 3.46896 -2.14772 0
M  V30 7970 H 766.372 2.79339 -3.08128 0
M  V30 7971 H 764.949 3.46525 -1.3775 0
M  V30 7972 N 767.134 1.16236 1.06428 0
M  V30 7973 C 768.545 0.950942 1.60667 0
M  V30 7974 C 768.896 -0.505491 1.89576 0
M  V30 7975 O 768.021 -1.37843 1.66818 0
M  V30 7976 C 768.616 1.71982 2.91904 0
M  V30 7977 C 767.175 1.55342 3.4285 0
M  V30 7978 C 766.322 1.72942 2.16763 0
M  V30 7979 H 769.273 1.31126 0.893959 0
M  V30 7980 H 769.294 1.19483 3.61253 0
M  V30 7981 H 768.806 2.77978 2.70831 0
M  V30 7982 H 766.907 0.5178 3.68985 0
M  V30 7983 H 767.02 2.33643 4.18267 0
M  V30 7984 H 765.384 1.15673 2.26918 0
M  V30 7985 H 766.167 2.80324 1.98175 0
M  V30 7986 N 768.612 -1.24939 0.960631 0
M  V30 7987 C 770.023 -1.74701 0.658529 0
M  V30 7988 C 770.374 -1.77967 -0.825959 0
M  V30 7989 O 769.499 -1.40444 -1.64634 0
M  V30 7990 C 770.094 -3.17263 1.18867 0
M  V30 7991 C 768.653 -3.64561 0.936614 0
M  V30 7992 C 767.8 -2.43423 1.32817 0
M  V30 7993 H 770.751 -1.10741 1.13676 0
M  V30 7994 H 770.772 -3.76481 0.551589 0
M  V30 7995 H 770.284 -3.14854 2.26912 0
M  V30 7996 H 768.385 -3.72378 -0.128608 0
M  V30 7997 H 768.498 -4.52392 1.57729 0
M  V30 7998 H 766.862 -2.43513 0.746548 0
M  V30 7999 H 767.645 -2.437 2.41796 0
M  V30 8000 N 770.09 -0.729906 -1.39679 0
M  V30 8001 C 771 -0.0880322 -2.34435 0
M  V30 8002 C 772.016 0.727674 -1.58053 0
M  V30 8003 O 773.192 0.657321 -1.90371 0
M  V30 8004 C 770.257 0.812211 -3.37052 0
M  V30 8005 C 769.318 -0.0151681 -4.29297 0
M  V30 8006 C 768.551 0.842202 -5.27013 0
M  V30 8007 O 768.774 2.08108 -5.31081 0
M  V30 8008 O 767.708 0.27357 -6.01278 0
M  V30 8009 H 771.534 -0.869989 -2.90972 0
M  V30 8010 H 769.119 -0.490522 -1.41118 0
M  V30 8011 H 771.001 1.32745 -3.99946 0
M  V30 8012 H 769.676 1.57307 -2.82907 0
M  V30 8013 H 768.583 -0.575811 -3.69642 0
M  V30 8014 H 769.916 -0.738129 -4.86634 0
M  V30 8015 N 771.568 1.50203 -0.477153 0
M  V30 8016 C 772.817 2.01551 0.0774548 0
M  V30 8017 C 773.13 1.36359 1.40234 0
M  V30 8018 O 774.336 1.78898 2.04225 0
M  V30 8019 C 772.792 3.59406 0.188539 0
M  V30 8020 C 772.4 4.3356 -1.12828 0
M  V30 8021 C 774.144 4.18776 0.694782 0
M  V30 8022 C 772.051 5.83213 -0.98066 0
M  V30 8023 H 770.981 0.75329 0.0327212 0
M  V30 8024 H 773.632 1.72959 -0.612969 0
M  V30 8025 H 772.014 3.84611 0.942881 0
M  V30 8026 H 773.188 4.20074 -1.89405 0
M  V30 8027 H 771.503 3.85827 -1.5661 0
M  V30 8028 H 774.1 5.28338 0.822356 0
M  V30 8029 H 774.443 3.80557 1.68766 0
M  V30 8030 H 774.976 3.978 -0.00234519 0
M  V30 8031 H 771.715 6.25914 -1.94709 0
M  V30 8032 H 771.235 5.99256 -0.255375 0
M  V30 8033 H 772.914 6.4373 -0.649717 0
M  V30 8034 N 773.046 0.209999 1.56195 0
M  V30 8035 C 774.462 -0.145598 1.58934 0
M  V30 8036 C 774.662 -1.59868 1.22656 0
M  V30 8037 O 773.718 -2.33689 0.956336 0
M  V30 8038 C 775.031 0.170243 3.00218 0
M  V30 8039 C 776.579 0.111548 3.12801 0
M  V30 8040 C 777.054 0.400904 4.56242 0
M  V30 8041 N 778.545 0.350058 4.61875 0
M  V30 8042 C 779.28 0.547598 5.70779 0
M  V30 8043 N 778.776 0.806291 6.88092 0
M  V30 8044 N 780.569 0.480827 5.6004 0
M  V30 8045 H 772.72 1.15804 1.78054 0
M  V30 8046 H 774.983 0.463326 0.827063 0
M  V30 8047 H 774.689 1.17833 3.31373 0
M  V30 8048 H 774.563 -0.520208 3.73596 0
M  V30 8049 H 776.95 -0.887162 2.81449 0
M  V30 8050 H 777.031 0.835302 2.41777 0
M  V30 8051 H 776.675 1.397 4.8831 0
M  V30 8052 H 776.605 -0.34391 5.25476 0
M  V30 8053 H 779.096 0.157334 3.77572 0
M  V30 8054 H 779.409 0.945433 7.66995 0
M  V30 8055 H 777.754 0.843355 6.89864 0
M  V30 8056 H 780.945 0.279037 4.67268 0
M  V30 8057 H 781.118 0.638189 6.4485 0
M  V30 8058 N 774.524 -1.57472 -0.0634922 0
M  V30 8059 C 775.456 -2.00999 -1.10145 0
M  V30 8060 C 776.469 -0.917219 -1.34503 0
M  V30 8061 O 777.658 -1.19501 -1.32596 0
M  V30 8062 C 774.758 -2.34089 -2.45063 0
M  V30 8063 C 773.931 -3.65317 -2.40546 0
M  V30 8064 C 772.99 -3.85982 -3.57637 0
M  V30 8065 O 772.016 -4.5747 -3.38689 0
M  V30 8066 N 773.218 -3.28971 -4.78287 0
M  V30 8067 H 775.983 -2.90656 -0.730714 0
M  V30 8068 H 773.544 -1.59926 -0.252017 0
M  V30 8069 H 775.536 -2.4508 -3.22053 0
M  V30 8070 H 774.106 -1.50279 -2.74107 0
M  V30 8071 H 773.326 -3.65003 -1.48885 0
M  V30 8072 H 774.614 -4.51468 -2.34636 0
M  V30 8073 H 774.012 -2.70962 -4.96584 0
M  V30 8074 H 772.569 -3.45398 -5.5276 0
M  V30 8075 N 776.003 0.335068 -1.53997 0
M  V30 8076 C 776.966 1.39481 -1.81872 0
M  V30 8077 C 777.966 1.4524 -0.690078 0
M  V30 8078 O 779.156 1.45467 -0.958377 0
M  V30 8079 C 776.288 2.78329 -1.9684 0
M  V30 8080 H 777.481 1.16024 -2.76547 0
M  V30 8081 H 775.034 0.569926 -1.45539 0
M  V30 8082 H 775.769 3.07058 -1.04337 0
M  V30 8083 H 775.554 2.75544 -2.78958 0
M  V30 8084 H 777.044 3.55016 -2.19894 0
M  V30 8085 N 777.481 1.45874 0.596531 0
M  V30 8086 C 778.897 1.30524 0.918459 0
M  V30 8087 C 779.097 0.266429 1.99731 0
M  V30 8088 O 778.153 -0.335809 2.50257 0
M  V30 8089 C 779.466 2.68747 1.3489 0
M  V30 8090 C 781.014 2.7673 1.46251 0
M  V30 8091 C 781.489 4.15504 1.92667 0
M  V30 8092 N 782.98 4.17853 1.99883 0
M  V30 8093 C 783.715 5.22109 2.37044 0
M  V30 8094 N 783.211 6.36704 2.73094 0
M  V30 8095 N 785.004 5.09471 2.37479 0
M  V30 8096 H 777.155 2.12081 -0.116368 0
M  V30 8097 H 779.418 0.947941 0.0106033 0
M  V30 8098 H 779.124 3.46006 0.630288 0
M  V30 8099 H 778.998 2.97942 2.31323 0
M  V30 8100 H 781.385 1.99768 2.17202 0
M  V30 8101 H 781.466 2.51236 0.481054 0
M  V30 8102 H 781.11 4.92956 1.223 0
M  V30 8103 H 781.04 4.38396 2.91747 0
M  V30 8104 H 783.531 3.35163 1.74568 0
M  V30 8105 H 783.844 7.12041 3.00362 0
M  V30 8106 H 782.189 6.40087 2.70764 0
M  V30 8107 H 785.38 4.18987 2.08728 0
M  V30 8108 H 785.553 5.90837 2.66112 0
M  V30 8109 N 778.959 -0.83999 1.33349 0
M  V30 8110 C 779.922 -1.93128 1.23426 0
M  V30 8111 C 780.922 -1.60065 0.153599 0
M  V30 8112 O 782.112 -1.69425 0.405049 0
M  V30 8113 C 779.244 -3.28761 0.901622 0
M  V30 8114 H 780.437 -2.03352 2.20427 0
M  V30 8115 H 777.99 -1.03194 1.17391 0
M  V30 8116 H 778.725 -3.24233 -0.0659337 0
M  V30 8117 H 778.51 -3.54138 1.68311 0
M  V30 8118 H 780 -4.08714 0.856913 0
M  V30 8119 N 780.437 -1.16799 -1.0581 0
M  V30 8120 C 781.683 -0.953935 -1.78963 0
M  V30 8121 C 782.016 0.516638 -1.87202 0
M  V30 8122 O 781.291 1.38338 -1.36721 0
M  V30 8123 C 781.574 -1.58808 -3.23191 0
M  V30 8124 C 781.427 -3.13032 -3.23003 0
M  V30 8125 C 782.746 -1.2868 -4.20867 0
M  V30 8126 H 779.865 -0.347972 -0.64968 0
M  V30 8127 H 782.507 -1.44204 -1.23715 0
M  V30 8128 H 780.657 -1.17303 -3.70368 0
M  V30 8129 H 782.329 -3.63553 -2.83949 0
M  V30 8130 H 780.572 -3.46108 -2.61518 0
M  V30 8131 H 781.243 -3.52527 -4.24769 0
M  V30 8132 H 783.719 -1.6461 -3.82155 0
M  V30 8133 H 782.595 -1.75645 -5.20038 0
M  V30 8134 H 782.856 -0.206491 -4.41618 0
M  V30 8135 N 781.915 1.24427 -0.967243 0
M  V30 8136 C 783.326 1.74349 -0.667785 0
M  V30 8137 C 783.677 1.78403 0.816509 0
M  V30 8138 O 782.802 1.41315 1.63887 0
M  V30 8139 C 783.397 3.16628 -1.20548 0
M  V30 8140 C 781.956 3.64059 -0.955934 0
M  V30 8141 C 781.103 2.42715 -1.34106 0
M  V30 8142 H 784.054 1.10136 -1.14262 0
M  V30 8143 H 784.075 3.76183 -0.571547 0
M  V30 8144 H 783.587 3.13646 -2.28578 0
M  V30 8145 H 781.688 3.72441 0.108858 0
M  V30 8146 H 781.801 4.51549 -1.60126 0
M  V30 8147 H 780.165 2.43114 -0.759452 0
M  V30 8148 H 780.948 2.42414 -2.43085 0
M  V30 8149 N 783.393 0.737304 1.3929 0
M  V30 8150 C 784.325 0.0592106 2.29124 0
M  V30 8151 C 785.338 -0.701026 1.46934 0
M  V30 8152 O 786.527 -0.544808 1.69983 0
M  V30 8153 C 783.627 -0.940358 3.25592 0
M  V30 8154 C 782.8 -0.241163 4.36735 0
M  V30 8155 C 781.859 -1.14916 5.13498 0
M  V30 8156 O 780.885 -0.625783 5.6575 0
M  V30 8157 N 782.087 -2.47869 5.2492 0
M  V30 8158 H 784.852 0.830647 2.87959 0
M  V30 8159 H 782.413 0.586718 1.50895 0
M  V30 8160 H 784.405 -1.55046 3.73822 0
M  V30 8161 H 782.975 -1.61299 2.67771 0
M  V30 8162 H 782.195 0.549441 3.90352 0
M  V30 8163 H 783.483 0.243299 5.08218 0
M  V30 8164 H 782.881 -2.92864 4.83991 0
M  V30 8165 H 781.438 -3.03969 5.76581 0
M  V30 8166 N 784.871 -1.49948 0.485112 0
M  V30 8167 C 786.119 -2.01996 -0.0648775 0
M  V30 8168 C 786.44 -1.36819 -1.38945 0
M  V30 8169 O 785.71 -0.518163 -1.88923 0
M  V30 8170 H 784.29 -0.746513 -0.0269662 0
M  V30 8171 H 786.952 -1.84136 0.638733 0
M  V30 8172 H 786.048 -3.11418 -0.20617 0
M  V30 8173 N 786.349 -0.21828 -1.56081 0
M  V30 8174 C 787.76 0.290166 -1.84431 0
M  V30 8175 C 788.111 1.59712 -1.13958 0
M  V30 8176 O 787.236 2.12516 -0.40815 0
M  V30 8177 C 787.831 0.53325 -3.34577 0
M  V30 8178 C 786.39 0.986011 -3.63256 0
M  V30 8179 C 785.537 0.0472798 -2.7726 0
M  V30 8180 H 788.488 -0.441548 -1.52434 0
M  V30 8181 H 788.509 1.37967 -3.54606 0
M  V30 8182 H 788.021 -0.418137 -3.85841 0
M  V30 8183 H 786.122 1.95087 -3.17446 0
M  V30 8184 H 786.235 0.862684 -4.71269 0
M  V30 8185 H 784.599 0.553471 -2.48614 0
M  V30 8186 H 785.382 -0.898966 -3.31321 0
M  V30 8187 N 787.827 1.57504 0.0551401 0
M  V30 8188 C 789.238 1.76626 0.604979 0
M  V30 8189 C 789.589 0.845978 1.77024 0
M  V30 8190 O 788.714 0.0341936 2.16373 0
M  V30 8191 C 789.309 3.203 1.10425 0
M  V30 8192 C 787.868 3.4071 1.59981 0
M  V30 8193 C 787.015 2.72258 0.526414 0
M  V30 8194 H 789.966 1.57775 -0.171072 0
M  V30 8195 H 789.987 3.25377 1.97256 0
M  V30 8196 H 789.499 3.87255 0.255939 0
M  V30 8197 H 787.6 2.78892 2.47083 0
M  V30 8198 H 787.713 4.49227 1.66528 0
M  V30 8199 H 786.077 2.35283 0.97539 0
M  V30 8200 H 786.86 3.41879 -0.311991 0
M  V30 8201 N 789.305 -0.326896 1.54172 0
M  V30 8202 C 790.553 -1.06313 1.71878 0
M  V30 8203 C 790.874 -1.88652 0.493498 0
M  V30 8204 O 790.144 -1.89608 -0.492522 0
M  V30 8205 H 788.724 -0.39549 0.633716 0
M  V30 8206 H 791.386 -0.364139 1.91468 0
M  V30 8207 H 790.482 -1.73105 2.59694 0
M  V30 8208 N 790.784 -1.46188 -0.588786 0
M  V30 8209 C 791.714 -1.59148 -1.70863 0
M  V30 8210 C 792.695 -0.442083 -1.64255 0
M  V30 8211 O 793.88 -0.667575 -1.82365 0
M  V30 8212 C 791.01 -1.5757 -3.09498 0
M  V30 8213 C 789.964 -2.71418 -3.30932 0
M  V30 8214 C 789.29 -2.549 -4.70032 0
M  V30 8215 C 790.59 -4.1329 -3.19356 0
M  V30 8216 H 792.284 -2.52889 -1.60274 0
M  V30 8217 H 789.83 -1.21707 -0.769638 0
M  V30 8218 H 791.783 -1.65231 -3.87655 0
M  V30 8219 H 790.507 -0.603705 -3.20972 0
M  V30 8220 H 789.166 -2.63216 -2.55172 0
M  V30 8221 H 788.814 -1.55797 -4.78264 0
M  V30 8222 H 788.514 -3.31257 -4.85327 0
M  V30 8223 H 790.038 -2.64443 -5.50366 0
M  V30 8224 H 791.452 -4.22636 -3.87365 0
M  V30 8225 H 789.849 -4.90187 -3.46175 0
M  V30 8226 H 790.919 -4.33874 -2.16522 0
M  V30 8227 N 792.262 0.832906 -1.33792 0
M  V30 8228 C 793.673 1.40489 -1.22963 0
M  V30 8229 C 794.024 1.95633 0.149026 0
M  V30 8230 O 793.149 1.8928 1.04891 0
M  V30 8231 C 793.744 2.55387 -2.22627 0
M  V30 8232 C 792.303 3.08522 -2.15618 0
M  V30 8233 C 791.45 1.81347 -2.09782 0
M  V30 8234 H 794.401 0.638156 -1.45304 0
M  V30 8235 H 794.422 3.33193 -1.83746 0
M  V30 8236 H 793.934 2.15222 -3.22957 0
M  V30 8237 H 792.035 3.53217 -1.18611 0
M  V30 8238 H 792.148 3.6829 -3.0643 0
M  V30 8239 H 790.512 2.01839 -1.55349 0
M  V30 8240 H 791.295 1.43369 -3.1193 0
M  V30 8241 N 793.74 1.17359 1.05189 0
M  V30 8242 C 795.151 0.96793 1.5965 0
M  V30 8243 C 795.502 -0.485355 1.90102 0
M  V30 8244 O 794.627 -1.36066 1.6827 0
M  V30 8245 C 795.222 1.75068 2.90063 0
M  V30 8246 C 793.781 1.58969 3.41183 0
M  V30 8247 C 792.928 1.75231 2.14917 0
M  V30 8248 H 795.879 1.32067 0.880001 0
M  V30 8249 H 795.9 1.23308 3.59966 0
M  V30 8250 H 795.412 2.80835 2.67868 0
M  V30 8251 H 793.513 0.556906 3.68415 0
M  V30 8252 H 793.626 2.38067 4.15766 0
M  V30 8253 H 791.99 1.18073 2.25679 0
M  V30 8254 H 792.773 2.8241 1.95191 0
M  V30 8255 N 795.218 -1.23913 0.973828 0
M  V30 8256 C 796.634 -1.44325 0.681363 0
M  V30 8257 C 796.834 -1.86832 -0.754728 0
M  V30 8258 O 795.89 -2.01024 -1.52793 0
M  V30 8259 C 797.203 -2.50017 1.67069 0
M  V30 8260 C 798.751 -2.63838 1.68399 0
M  V30 8261 C 799.226 -3.72734 2.66145 0
M  V30 8262 N 800.717 -3.80169 2.64624 0
M  V30 8263 C 801.452 -4.6397 3.36927 0
M  V30 8264 N 800.948 -5.51911 4.18767 0
M  V30 8265 N 802.741 -4.58106 3.25722 0
M  V30 8266 H 794.892 -0.946204 1.9016 0
M  V30 8267 H 797.155 -0.477374 0.819035 0
M  V30 8268 H 796.861 -2.25686 2.69738 0
M  V30 8269 H 796.735 -3.48287 1.4483 0
M  V30 8270 H 799.122 -2.87524 0.664379 0
M  V30 8271 H 799.203 -1.65906 1.94702 0
M  V30 8272 H 798.847 -3.49797 3.68245 0
M  V30 8273 H 798.777 -4.70193 2.3712 0
M  V30 8274 H 801.268 -3.17319 2.05224 0
M  V30 8275 H 801.581 -6.12828 4.70809 0
M  V30 8276 H 799.926 -5.51556 4.2286 0
M  V30 8277 H 803.117 -3.8842 2.61242 0
M  V30 8278 H 803.29 -5.23188 3.82333 0
M  V30 8279 N 796.696 -0.74468 -1.38897 0
M  V30 8280 C 798.107 -0.36568 -1.83084 0
M  V30 8281 C 798.458 1.10436 -1.62168 0
M  V30 8282 O 797.583 1.85281 -1.11804 0
M  V30 8283 C 798.178 -0.656946 -3.3237 0
M  V30 8284 C 796.737 -0.331329 -3.74939 0
M  V30 8285 C 795.884 -0.914661 -2.61781 0
M  V30 8286 H 798.835 -0.941551 -1.27752 0
M  V30 8287 H 798.856 0.0679546 -3.80439 0
M  V30 8288 H 798.368 -1.72693 -3.47561 0
M  V30 8289 H 796.469 0.732426 -3.6533 0
M  V30 8290 H 796.582 -0.820655 -4.72019 0
M  V30 8291 H 794.946 -0.34063 -2.52412 0
M  V30 8292 H 795.729 -1.98949 -2.79775 0
M  V30 8293 N 798.174 1.49689 -0.493057 0
M  V30 8294 C 799.585 1.8665 -0.0433032 0
M  V30 8295 C 799.936 1.40607 1.36836 0
M  V30 8296 O 799.061 0.780503 2.01834 0
M  V30 8297 C 799.656 3.38724 -0.0718069 0
M  V30 8298 C 798.215 3.75015 0.32257 0
M  V30 8299 C 797.362 2.7366 -0.4478 0
M  V30 8300 H 800.313 1.42119 -0.706246 0
M  V30 8301 H 800.334 3.73522 0.725347 0
M  V30 8302 H 799.846 3.72204 -1.09935 0
M  V30 8303 H 797.947 3.47142 1.35364 0
M  V30 8304 H 798.06 4.79099 0.00864259 0
M  V30 8305 H 796.424 2.54498 0.101354 0
M  V30 8306 H 797.207 3.09985 -1.47527 0
M  V30 8307 N 799.652 0.226554 1.55963 0
M  V30 8308 C 800.582 -0.676079 2.23498 0
M  V30 8309 C 801.563 -1.19718 1.20837 0
M  V30 8310 O 802.748 -1.24027 1.49436 0
M  V30 8311 C 799.878 -1.88217 2.91876 0
M  V30 8312 C 798.832 -1.4947 4.01052 0
M  V30 8313 C 798.158 -2.77997 4.56751 0
M  V30 8314 C 799.458 -0.680951 5.17842 0
M  V30 8315 H 801.152 -0.112989 2.99187 0
M  V30 8316 H 798.698 -0.0529046 1.43903 0
M  V30 8317 H 800.651 -2.51911 3.37815 0
M  V30 8318 H 799.375 -2.47031 2.13643 0
M  V30 8319 H 798.034 -0.881199 3.55852 0
M  V30 8320 H 797.682 -3.34966 3.75243 0
M  V30 8321 H 797.382 -2.52803 5.30438 0
M  V30 8322 H 798.906 -3.42625 5.05411 0
M  V30 8323 H 800.32 -1.22171 5.60131 0
M  V30 8324 H 798.717 -0.525898 5.97791 0
M  V30 8325 H 799.787 0.311346 4.83899 0
M  V30 8326 N 801.13 -1.57531 -0.0467866 0
M  V30 8327 C 802.355 -1.93087 -0.757123 0
M  V30 8328 C 802.78 -0.825116 -1.69037 0
M  V30 8329 O 802.138 0.220449 -1.79955 0
M  V30 8330 C 802.186 -3.27669 -1.5055 0
M  V30 8331 O 801.29 -3.18667 -2.61773 0
M  V30 8332 H 800.631 -0.631597 -0.204892 0
M  V30 8333 H 803.161 -2.04599 -0.00755232 0
M  V30 8334 H 803.171 -3.6214 -1.87932 0
M  V30 8335 H 801.846 -4.07717 -0.820931 0
M  V30 8336 H 800.423 -2.95798 -2.27064 0
M  V30 8337 N 802.608 0.318715 -1.54344 0
M  V30 8338 C 803.833 1.07987 -1.77069 0
M  V30 8339 C 804.258 1.80766 -0.520117 0
M  V30 8340 O 803.616 1.73424 0.528566 0
M  V30 8341 C 803.664 2.04987 -2.96669 0
M  V30 8342 O 802.768 3.12974 -2.68554 0
M  V30 8343 H 802.109 0.311109 -0.586606 0
M  V30 8344 H 804.639 0.361533 -2.0138 0
M  V30 8345 H 804.649 2.47771 -3.2415 0
M  V30 8346 H 803.324 1.51417 -3.87357 0
M  V30 8347 H 801.901 2.74831 -2.52037 0
M  V30 8348 N 804.086 1.46499 0.581025 0
M  V30 8349 C 805.311 1.55708 1.37002 0
M  V30 8350 C 805.736 0.19942 1.8704 0
M  V30 8351 O 805.094 -0.820731 1.61659 0
M  V30 8352 C 805.142 2.56716 2.53238 0
M  V30 8353 O 804.246 2.10336 3.54729 0
M  V30 8354 H 803.587 0.523912 0.407937 0
M  V30 8355 H 806.117 1.92085 0.704602 0
M  V30 8356 H 806.127 2.76378 3.00132 0
M  V30 8357 H 804.802 3.55307 2.16171 0
M  V30 8358 H 803.379 2.00669 3.14303 0
M  V30 8359 N 805.565 -0.825799 1.34232 0
M  V30 8360 C 806.79 -1.61883 1.29648 0
M  V30 8361 C 807.215 -1.87669 -0.127295 0
M  V30 8362 O 806.573 -1.45016 -1.08813 0
M  V30 8363 C 806.621 -2.93846 2.09014 0
M  V30 8364 O 805.725 -3.85778 1.4577 0
M  V30 8365 H 805.066 -0.492454 0.445405 0
M  V30 8366 H 807.596 -1.02641 1.76992 0
M  V30 8367 H 807.606 -3.43435 2.20264 0
M  V30 8368 H 806.281 -2.74401 3.12533 0
M  V30 8369 H 804.858 -3.4429 1.43245 0
M  V30 8370 N 807.043 -1.17915 -1.04565 0
M  V30 8371 C 808.454 -0.976383 -1.59134 0
M  V30 8372 C 808.805 0.475267 -1.90357 0
M  V30 8373 O 807.93 1.35172 -1.6899 0
M  V30 8374 C 808.525 -1.76604 -2.89131 0
M  V30 8375 C 807.084 -1.60777 -3.40335 0
M  V30 8376 C 806.231 -1.76369 -2.13985 0
M  V30 8377 H 809.182 -1.32532 -0.872985 0
M  V30 8378 H 809.203 -1.25215 -3.59307 0
M  V30 8379 H 808.715 -2.82252 -2.66375 0
M  V30 8380 H 806.816 -0.576436 -3.68114 0
M  V30 8381 H 806.929 -2.40268 -4.14497 0
M  V30 8382 H 805.293 -1.19268 -2.25049 0
M  V30 8383 H 806.076 -2.83441 -1.9369 0
M  V30 8384 N 808.521 1.23394 -0.980386 0
M  V30 8385 C 809.453 2.24146 -0.478657 0
M  V30 8386 C 810.466 1.57303 0.419492 0
M  V30 8387 O 811.655 1.77094 0.223631 0
M  V30 8388 C 808.755 3.3732 0.326913 0
M  V30 8389 C 807.928 4.33744 -0.56436 0
M  V30 8390 C 806.987 5.25866 0.187358 0
M  V30 8391 O 806.013 5.67626 -0.423019 0
M  V30 8392 N 807.215 5.61492 1.47335 0
M  V30 8393 H 809.98 2.67826 -1.34496 0
M  V30 8394 H 807.541 1.37566 -0.853653 0
M  V30 8395 H 809.533 3.95926 0.838148 0
M  V30 8396 H 808.103 2.92823 1.09422 0
M  V30 8397 H 807.323 3.73641 -1.25642 0
M  V30 8398 H 808.611 4.95123 -1.17177 0
M  V30 8399 H 808.009 5.29514 1.99077 0
M  V30 8400 H 806.566 6.2257 1.93002 0
M  V30 8401 N 809.999 0.752036 1.385 0
M  V30 8402 C 811.41 0.375385 1.82887 0
M  V30 8403 C 811.761 -1.09575 1.62751 0
M  V30 8404 O 810.886 -1.84685 1.12785 0
M  V30 8405 C 811.481 0.674563 3.32017 0
M  V30 8406 C 810.04 0.351208 3.74758 0
M  V30 8407 C 809.187 0.928531 2.61292 0
M  V30 8408 H 812.138 0.948313 1.27251 0
M  V30 8409 H 812.159 -0.0477781 3.8047 0
M  V30 8410 H 811.671 1.74533 3.46641 0
M  V30 8411 H 809.772 -0.713042 3.65714 0
M  V30 8412 H 809.885 0.845675 4.71577 0
M  V30 8413 H 808.249 0.354012 2.52228 0
M  V30 8414 H 809.032 2.0043 2.78716 0
M  V30 8415 N 811.477 -1.49425 0.500989 0
M  V30 8416 C 812.702 -2.07356 -0.0425154 0
M  V30 8417 C 813.127 -1.35887 -1.30063 0
M  V30 8418 O 812.485 -0.41561 -1.76472 0
M  V30 8419 C 812.533 -3.59518 -0.279188 0
M  V30 8420 O 811.637 -3.89542 -1.3539 0
M  V30 8421 H 810.978 -0.663482 0.0262207 0
M  V30 8422 H 813.508 -1.92231 0.700607 0
M  V30 8423 H 813.518 -4.04791 -0.5107 0
M  V30 8424 H 812.193 -4.10946 0.640009 0
M  V30 8425 H 810.77 -3.56079 -1.10734 0
M  V30 8426 N 812.955 -0.234822 -1.55841 0
M  V30 8427 C 813.887 0.702346 -2.18174 0
M  V30 8428 C 814.9 1.14776 -1.15457 0
M  V30 8429 O 816.089 1.07662 -1.42377 0
M  V30 8430 C 813.189 1.96483 -2.76129 0
M  V30 8431 C 812.362 1.67283 -4.04148 0
M  V30 8432 C 811.421 2.7837 -4.46539 0
M  V30 8433 O 810.447 2.46272 -5.13166 0
M  V30 8434 N 811.649 4.07611 -4.1332 0
M  V30 8435 H 814.414 0.169074 -2.99223 0
M  V30 8436 H 811.975 -0.0543164 -1.61809 0
M  V30 8437 H 813.967 2.70016 -3.01452 0
M  V30 8438 H 812.537 2.40822 -1.99307 0
M  V30 8439 H 811.757 0.773278 -3.86541 0
M  V30 8440 H 813.045 1.45222 -4.87635 0
M  V30 8441 H 812.443 4.36527 -3.59806 0
M  V30 8442 H 811 4.77646 -4.43506 0
M  V30 8443 N 814.433 1.57553 0.0384317 0
M  V30 8444 C 815.844 1.77258 0.586211 0
M  V30 8445 C 816.195 0.864706 1.76117 0
M  V30 8446 O 815.32 0.057141 2.16325 0
M  V30 8447 C 815.915 3.21453 1.07021 0
M  V30 8448 C 814.474 3.42387 1.56358 0
M  V30 8449 C 813.621 2.72801 0.497508 0
M  V30 8450 H 816.572 1.57585 -0.187796 0
M  V30 8451 H 816.593 3.27451 1.93794 0
M  V30 8452 H 816.105 3.87505 0.214851 0
M  V30 8453 H 814.206 2.81497 2.44111 0
M  V30 8454 H 814.319 4.50968 1.61754 0
M  V30 8455 H 812.683 2.36305 0.95038 0
M  V30 8456 H 813.466 3.41529 -0.348234 0
M  V30 8457 N 815.911 -0.310526 1.54511 0
M  V30 8458 C 817.136 -1.07046 1.7764 0
M  V30 8459 C 817.561 -1.80488 0.529696 0
M  V30 8460 O 816.919 -1.73702 -0.519361 0
M  V30 8461 C 816.967 -2.03411 2.97752 0
M  V30 8462 O 816.071 -3.11545 2.7021 0
M  V30 8463 H 815.412 -0.307994 0.588248 0
M  V30 8464 H 817.942 -0.350848 2.01569 0
M  V30 8465 H 817.952 -2.46048 3.2546 0
M  V30 8466 H 816.627 -1.49361 3.88155 0
M  V30 8467 H 815.204 -2.7349 2.53491 0
M  V30 8468 N 817.389 -1.46805 -0.573248 0
M  V30 8469 C 818.805 -1.31969 -0.897577 0
M  V30 8470 C 819.005 -0.298171 -1.99282 0
M  V30 8471 O 818.061 0.295953 -2.5076 0
M  V30 8472 C 819.374 -2.70859 -1.30598 0
M  V30 8473 C 820.922 -2.79022 -1.4183 0
M  V30 8474 C 821.397 -4.18516 -1.86033 0
M  V30 8475 N 822.888 -4.2098 -1.9321 0
M  V30 8476 C 823.623 -5.25814 -2.28707 0
M  V30 8477 N 823.119 -6.40968 -2.6293 0
M  V30 8478 N 824.912 -5.13184 -2.29343 0
M  V30 8479 H 817.063 -2.11869 0.150094 0
M  V30 8480 H 819.326 -0.947989 0.00447895 0
M  V30 8481 H 819.032 -3.46965 -0.575161 0
M  V30 8482 H 818.906 -3.01585 -2.26554 0
M  V30 8483 H 821.293 -2.03198 -2.13996 0
M  V30 8484 H 821.374 -2.51969 -0.441024 0
M  V30 8485 H 821.018 -4.94839 -1.14442 0
M  V30 8486 H 820.948 -4.42982 -2.84735 0
M  V30 8487 H 823.439 -3.37898 -1.69214 0
M  V30 8488 H 823.752 -7.16729 -2.88996 0
M  V30 8489 H 822.097 -6.44314 -2.60547 0
M  V30 8490 H 825.288 -4.22255 -2.02036 0
M  V30 8491 H 825.461 -5.94996 -2.56679 0
M  V30 8492 N 818.867 0.818669 -1.34668 0
M  V30 8493 C 819.777 1.9616 -1.2868 0
M  V30 8494 C 820.793 1.72918 -0.193742 0
M  V30 8495 O 821.969 1.96951 -0.420975 0
M  V30 8496 C 819.034 3.30534 -1.04633 0
M  V30 8497 C 818.095 3.66755 -2.23136 0
M  V30 8498 C 817.328 4.94717 -2.00227 0
M  V30 8499 O 817.551 5.62218 -0.96264 0
M  V30 8500 O 816.485 5.28915 -2.87286 0
M  V30 8501 H 820.311 2.04157 -2.24842 0
M  V30 8502 H 817.896 0.954691 -1.14917 0
M  V30 8503 H 819.778 4.11005 -0.930216 0
M  V30 8504 H 818.453 3.23495 -0.115139 0
M  V30 8505 H 817.36 2.8671 -2.40308 0
M  V30 8506 H 818.693 3.78484 -3.1466 0
M  V30 8507 N 820.346 1.18468 1.03938 0
M  V30 8508 C 821.762 0.934635 1.29371 0
M  V30 8509 C 821.962 -0.399067 1.97509 0
M  V30 8510 O 821.018 -1.13309 2.25648 0
M  V30 8511 C 822.331 2.10111 2.15114 0
M  V30 8512 C 823.879 2.13955 2.28456 0
M  V30 8513 C 824.354 3.30024 3.17566 0
M  V30 8514 N 825.845 3.29893 3.25153 0
M  V30 8515 C 826.58 4.16346 3.94263 0
M  V30 8516 N 826.076 5.12934 4.65693 0
M  V30 8517 N 827.869 4.04256 3.90556 0
M  V30 8518 H 820.02 2.04294 0.581185 0
M  V30 8519 H 822.283 0.892727 0.318971 0
M  V30 8520 H 821.989 3.06572 1.72355 0
M  V30 8521 H 821.863 2.06283 3.15796 0
M  V30 8522 H 824.25 1.18072 2.7045 0
M  V30 8523 H 824.331 2.2184 1.2736 0
M  V30 8524 H 823.975 4.26181 2.76283 0
M  V30 8525 H 823.905 3.19376 4.18697 0
M  V30 8526 H 826.396 2.59969 2.74271 0
M  V30 8527 H 826.709 5.75271 5.16026 0
M  V30 8528 H 825.054 5.16893 4.64593 0
M  V30 8529 H 828.245 3.28083 3.33885 0
M  V30 8530 H 828.418 4.71848 4.44144 0
M  V30 8531 N 821.824 -1.22873 0.986916 0
M  V30 8532 C 822.754 -2.2688 0.552064 0
M  V30 8533 C 823.735 -1.64883 -0.418048 0
M  V30 8534 O 824.92 -1.9171 -0.30999 0
M  V30 8535 C 822.05 -3.47018 -0.139959 0
M  V30 8536 C 821.004 -4.21411 0.748091 0
M  V30 8537 C 820.33 -5.34645 -0.0765132 0
M  V30 8538 C 821.63 -4.80726 2.04206 0
M  V30 8539 H 823.324 -2.63507 1.42143 0
M  V30 8540 H 820.87 -1.26668 0.68492 0
M  V30 8541 H 822.823 -4.18931 -0.455527 0
M  V30 8542 H 821.547 -3.0947 -1.04382 0
M  V30 8543 H 820.206 -3.51325 1.04721 0
M  V30 8544 H 819.854 -4.93339 -0.981109 0
M  V30 8545 H 819.554 -5.85342 0.514606 0
M  V30 8546 H 821.078 -6.09377 -0.386313 0
M  V30 8547 H 822.492 -5.44612 1.79083 0
M  V30 8548 H 820.889 -5.41737 2.5815 0
M  V30 8549 H 821.959 -4.01109 2.72469 0
M  V30 8550 N 823.302 -0.75937 -1.38099 0
M  V30 8551 C 824.713 -0.385078 -1.82686 0
M  V30 8552 C 825.064 1.0871 -1.6333 0
M  V30 8553 O 824.189 1.84084 -1.13762 0
M  V30 8554 C 824.784 -0.692161 -3.31654 0
M  V30 8555 C 823.343 -0.371077 -3.74566 0
M  V30 8556 C 822.49 -0.942375 -2.60796 0
M  V30 8557 H 825.441 -0.955048 -1.26746 0
M  V30 8558 H 825.462 0.0276001 -3.8049 0
M  V30 8559 H 824.974 -1.76369 -3.4571 0
M  V30 8560 H 823.075 0.693637 -3.66087 0
M  V30 8561 H 823.188 -0.870672 -4.71122 0
M  V30 8562 H 821.552 -0.367383 -2.52036 0
M  V30 8563 H 822.335 -2.01905 -2.77649 0
M  V30 8564 N 824.78 1.49157 -0.508906 0
M  V30 8565 C 826.026 2.03385 0.0248089 0
M  V30 8566 C 826.381 1.381 1.33964 0
M  V30 8567 O 825.674 0.510317 1.84679 0
M  V30 8568 C 825.868 3.56687 0.225717 0
M  V30 8569 C 825.697 4.36832 -1.06809 0
M  V30 8570 C 824.467 4.78556 -1.6221 0
M  V30 8571 C 826.665 4.74934 -1.97338 0
M  V30 8572 N 824.647 5.43158 -2.86098 0
M  V30 8573 C 826.018 5.39336 -3.05805 0
M  V30 8574 C 828.073 4.56872 -1.97921 0
M  V30 8575 C 826.776 5.87587 -4.1489 0
M  V30 8576 C 828.802 5.06089 -3.05987 0
M  V30 8577 C 828.164 5.70499 -4.13172 0
M  V30 8578 H 824.263 0.781349 -0.0318988 0
M  V30 8579 H 826.847 1.82233 -0.685518 0
M  V30 8580 H 825.018 3.77707 0.905108 0
M  V30 8581 H 826.75 3.97554 0.757147 0
M  V30 8582 H 823.505 4.59017 -1.16621 0
M  V30 8583 H 823.929 5.8004 -3.49116 0
M  V30 8584 H 828.571 4.06474 -1.16357 0
M  V30 8585 H 826.289 6.37002 -4.97247 0
M  V30 8586 H 829.875 4.93919 -3.07466 0
M  V30 8587 H 828.755 6.07893 -4.95415 0
M  V30 8588 N 826.258 0.243083 1.55714 0
M  V30 8589 C 827.669 -0.260788 1.8487 0
M  V30 8590 C 828.02 -1.57879 1.16485 0
M  V30 8591 O 827.145 -2.1184 0.441908 0
M  V30 8592 C 827.74 -0.479954 3.35383 0
M  V30 8593 C 826.299 -0.928096 3.64778 0
M  V30 8594 C 825.446 -0.00316416 2.773 0
M  V30 8595 H 828.397 0.465743 1.51712 0
M  V30 8596 H 828.418 -1.32308 3.56756 0
M  V30 8597 H 827.93 0.479468 3.85127 0
M  V30 8598 H 826.031 -1.90012 3.20509 0
M  V30 8599 H 826.144 -0.7876 4.72582 0
M  V30 8600 H 824.508 -0.513849 2.49463 0
M  V30 8601 H 825.291 0.951562 3.29849 0
M  V30 8602 N 827.736 -1.57571 -0.0300757 0
M  V30 8603 C 828.683 -2.06492 -1.03101 0
M  V30 8604 C 829.653 -0.953862 -1.3598 0
M  V30 8605 O 830.838 -1.22436 -1.46335 0
M  V30 8606 C 827.978 -2.54826 -2.32718 0
M  V30 8607 C 827.091 -3.79718 -2.06006 0
M  V30 8608 C 826.226 -4.16668 -3.29487 0
M  V30 8609 C 825.265 -5.3448 -2.98324 0
M  V30 8610 N 824.402 -5.66867 -4.14254 0
M  V30 8611 H 829.242 -2.91755 -0.606877 0
M  V30 8612 H 826.779 -1.44252 -0.288038 0
M  V30 8613 H 828.737 -2.80916 -3.08451 0
M  V30 8614 H 827.367 -1.72481 -2.72856 0
M  V30 8615 H 826.419 -3.60718 -1.20774 0
M  V30 8616 H 827.731 -4.65569 -1.79017 0
M  V30 8617 H 826.885 -4.43881 -4.13588 0
M  V30 8618 H 825.624 -3.29466 -3.59588 0
M  V30 8619 H 824.629 -5.07021 -2.12625 0
M  V30 8620 H 825.854 -6.23334 -2.69502 0
M  V30 8621 H 823.8 -4.82625 -4.44308 0
M  V30 8622 H 823.717 -6.47226 -3.90685 0
M  V30 8623 H 824.985 -5.98656 -4.99231 0
M  V30 8624 N 829.214 0.302327 -1.54673 0
M  V30 8625 C 830.63 0.647911 -1.45857 0
M  V30 8626 C 830.83 1.90773 -0.64869 0
M  V30 8627 O 829.886 2.52018 -0.155865 0
M  V30 8628 C 831.199 0.802144 -2.89804 0
M  V30 8629 C 832.747 0.898114 -2.99838 0
M  V30 8630 C 833.222 1.08436 -4.44978 0
M  V30 8631 N 834.713 1.15059 -4.48682 0
M  V30 8632 C 835.448 1.31296 -5.58166 0
M  V30 8633 N 834.944 1.4444 -6.77576 0
M  V30 8634 N 836.737 1.34174 -5.45851 0
M  V30 8635 H 828.888 -0.525428 -2.05798 0
M  V30 8636 H 831.151 -0.173423 -0.932002 0
M  V30 8637 H 830.857 -0.0526531 -3.51661 0
M  V30 8638 H 830.731 1.69155 -3.37145 0
M  V30 8639 H 833.118 1.7434 -2.38096 0
M  V30 8640 H 833.199 -0.0152752 -2.55795 0
M  V30 8641 H 832.843 0.243843 -5.07314 0
M  V30 8642 H 832.773 2.01195 -4.8665 0
M  V30 8643 H 835.264 1.0626 -3.62653 0
M  V30 8644 H 835.577 1.56582 -7.56771 0
M  V30 8645 H 833.922 1.41499 -6.80443 0
M  V30 8646 H 837.113 1.23516 -4.5151 0
M  V30 8647 H 837.286 1.46485 -6.31226 0
M  V30 8648 N 830.692 1.47107 0.565454 0
M  V30 8649 C 831.639 1.58974 1.6732 0
M  V30 8650 C 832.609 0.433146 1.60353 0
M  V30 8651 O 833.794 0.652141 1.79309 0
M  V30 8652 C 830.934 1.60224 3.05651 0
M  V30 8653 C 830.047 2.86741 3.23116 0
M  V30 8654 C 829.182 2.79381 4.51796 0
M  V30 8655 C 828.221 4.0076 4.62664 0
M  V30 8656 N 827.358 3.91685 5.8269 0
M  V30 8657 H 832.198 2.53588 1.56515 0
M  V30 8658 H 829.735 1.25791 0.762558 0
M  V30 8659 H 831.693 1.58933 3.85741 0
M  V30 8660 H 830.323 0.691285 3.15311 0
M  V30 8661 H 829.375 2.97936 2.36513 0
M  V30 8662 H 830.687 3.7665 3.27011 0
M  V30 8663 H 829.841 2.76293 5.40136 0
M  V30 8664 H 828.58 1.87142 4.50366 0
M  V30 8665 H 827.585 4.04162 3.72738 0
M  V30 8666 H 828.81 4.94117 4.6586 0
M  V30 8667 H 826.756 3.02243 5.82224 0
M  V30 8668 H 826.673 4.75264 5.87929 0
M  V30 8669 H 827.941 3.92599 6.73414 0
M  V30 8670 N 832.17 -0.811516 1.35101 0
M  V30 8671 C 833.581 -1.38515 1.25182 0
M  V30 8672 C 833.932 -1.95846 -0.117883 0
M  V30 8673 O 833.057 -1.90925 -1.01866 0
M  V30 8674 C 833.652 -2.51813 2.26662 0
M  V30 8675 C 832.211 -3.05052 2.20499 0
M  V30 8676 C 831.358 -1.77987 2.12641 0
M  V30 8677 H 834.309 -0.614959 1.46301 0
M  V30 8678 H 834.33 -3.30228 1.89023 0
M  V30 8679 H 833.842 -2.10057 3.2634 0
M  V30 8680 H 831.943 -3.51285 1.24215 0
M  V30 8681 H 832.056 -3.63368 3.1225 0
M  V30 8682 H 830.42 -1.99342 1.5854 0
M  V30 8683 H 831.203 -1.38389 3.14171 0
M  V30 8684 N 833.648 -1.19017 -1.03309 0
M  V30 8685 C 835.059 -0.993206 -1.5809 0
M  V30 8686 C 835.41 0.45505 -1.9085 0
M  V30 8687 O 834.535 1.33372 -1.70414 0
M  V30 8688 C 835.13 -1.79661 -2.87241 0
M  V30 8689 C 833.689 -1.64377 -3.38611 0
M  V30 8690 C 832.836 -1.78628 -2.12102 0
M  V30 8691 H 835.787 -1.3345 -0.858879 0
M  V30 8692 H 835.808 -1.29019 -3.57958 0
M  V30 8693 H 835.32 -2.85061 -2.63366 0
M  V30 8694 H 833.421 -0.615447 -3.67482 0
M  V30 8695 H 833.534 -2.44651 -4.11926 0
M  V30 8696 H 831.898 -1.21648 -2.23772 0
M  V30 8697 H 832.681 -2.8548 -1.90673 0
M  V30 8698 N 835.127 1.22348 -0.993418 0
M  V30 8699 C 836.077 2.221 -0.515333 0
M  V30 8700 C 837.061 1.55409 0.416762 0
M  V30 8701 O 838.253 1.75317 0.243497 0
M  V30 8702 C 835.382 3.42888 0.168173 0
M  V30 8703 C 834.468 4.16786 -0.784257 0
M  V30 8704 N 834.859 4.67435 -1.93231 0
M  V30 8705 C 833.157 4.41942 -0.600243 0
M  V30 8706 C 833.858 5.23792 -2.53016 0
M  V30 8707 N 832.834 5.12483 -1.8128 0
M  V30 8708 H 836.636 2.58902 -1.39093 0
M  V30 8709 H 834.15 1.38024 -0.855747 0
M  V30 8710 H 836.147 4.13542 0.528069 0
M  V30 8711 H 834.807 3.07598 1.03989 0
M  V30 8712 H 835.818 4.63375 -2.31309 0
M  V30 8713 H 832.495 4.16891 0.225369 0
M  V30 8714 H 833.885 5.73515 -3.50043 0
M  V30 8715 N 836.605 0.766683 1.37694 0
M  V30 8716 C 837.553 0.137269 2.32195 0
M  V30 8717 C 838.547 -0.69067 1.54681 0
M  V30 8718 O 839.753 -0.588299 1.70115 0
M  V30 8719 H 836.128 0.0256003 0.751564 0
M  V30 8720 H 838.099 0.950129 2.82869 0
M  V30 8721 C 836.848 -0.731446 3.39919 0
M  V30 8722 H 836.171 -0.103738 3.99665 0
M  V30 8723 H 837.611 -1.13891 4.08417 0
M  V30 8724 C 836.07 -1.87984 2.79578 0
M  V30 8725 O 836.6 -2.97496 2.69924 0
M  V30 8726 N 834.806 -1.6789 2.37195 0
M  V30 8727 H 834.353 -0.788162 2.45246 0
M  V30 8728 H 834.311 -2.44894 1.97165 0
M  V30 8729 N 838.083 -1.48885 0.516809 0
M  V30 8730 C 839.033 -2.26363 -0.272704 0
M  V30 8731 C 840.017 -1.31891 -0.921604 0
M  V30 8732 O 841.209 -1.56514 -0.826589 0
M  V30 8733 C 838.338 -3.16614 -1.32705 0
M  V30 8734 C 837.424 -4.18554 -0.683598 0
M  V30 8735 N 837.815 -5.05308 0.223015 0
M  V30 8736 C 836.113 -4.35931 -0.942351 0
M  V30 8737 C 836.814 -5.7867 0.592918 0
M  V30 8738 N 835.79 -5.43583 -0.042912 0
M  V30 8739 H 839.592 -2.90811 0.424971 0
M  V30 8740 H 837.106 -1.5893 0.333941 0
M  V30 8741 H 839.103 -3.70766 -1.90625 0
M  V30 8742 H 837.763 -2.5372 -2.02624 0
M  V30 8743 H 838.774 -5.14473 0.594818 0
M  V30 8744 H 835.451 -3.84234 -1.6331 0
M  V30 8745 H 836.841 -6.58493 1.33556 0
M  V30 8746 N 839.561 -0.251338 -1.55583 0
M  V30 8747 C 840.972 0.25098 -1.85005 0
M  V30 8748 C 841.323 1.57259 -1.17321 0
M  V30 8749 O 840.448 2.11603 -0.453136 0
M  V30 8750 C 841.043 0.462161 -3.35633 0
M  V30 8751 C 839.602 0.908737 -3.65266 0
M  V30 8752 C 838.749 -0.0115418 -2.77298 0
M  V30 8753 H 841.7 -0.473782 -1.51463 0
M  V30 8754 H 841.721 1.30415 -3.57452 0
M  V30 8755 H 841.233 -0.499886 -3.84867 0
M  V30 8756 H 839.334 1.8831 -3.21512 0
M  V30 8757 H 839.447 0.762526 -4.72993 0
M  V30 8758 H 837.811 0.500612 -2.49732 0
M  V30 8759 H 838.594 -0.969042 -3.29339 0
M  V30 8760 N 841.039 1.57585 0.0217189 0
M  V30 8761 C 841.972 2.02435 1.05334 0
M  V30 8762 C 842.95 0.91006 1.34747 0
M  V30 8763 O 844.134 1.17648 1.47279 0
M  V30 8764 C 841.261 2.40362 2.38629 0
M  V30 8765 C 840.307 3.62307 2.25025 0
M  V30 8766 S 841.14 5.11141 1.59673 0
M  V30 8767 C 842.296 5.52316 2.94444 0
M  V30 8768 H 842.529 2.89621 0.671354 0
M  V30 8769 H 840.062 1.52648 0.231925 0
M  V30 8770 H 842.02 2.62883 3.15282 0
M  V30 8771 H 840.681 1.53615 2.73973 0
M  V30 8772 H 839.874 3.86523 3.23443 0
M  V30 8773 H 839.476 3.39675 1.56515 0
M  V30 8774 H 841.768 5.53449 3.90768 0
M  V30 8775 H 842.711 6.52539 2.74952 0
M  V30 8776 H 843.119 4.79834 2.97355 0
M  V30 8777 N 842.517 -0.29412 1.54831 0
M  V30 8778 C 843.765 -1.02643 1.74094 0
M  V30 8779 C 844.086 -1.87563 0.533402 0
M  V30 8780 O 843.356 -1.9061 -0.452192 0
M  V30 8781 H 841.936 -0.381959 0.641963 0
M  V30 8782 H 844.598 -0.323444 1.92197 0
M  V30 8783 H 843.694 -1.67558 2.63307 0
M  V30 8784 N 843.995 -1.47404 -0.557645 0
M  V30 8785 C 844.928 -1.54399 -1.68036 0
M  V30 8786 C 845.906 -0.396175 -1.577 0
M  V30 8787 O 847.09 -0.603911 -1.78564 0
M  V30 8788 C 844.217 -1.44611 -3.06277 0
M  V30 8789 C 843.263 -2.63889 -3.35059 0
M  V30 8790 S 844.096 -4.26086 -3.24362 0
M  V30 8791 C 845.252 -4.1885 -4.65097 0
M  V30 8792 H 845.485 -2.49384 -1.61849 0
M  V30 8793 H 843.018 -1.35597 -0.738429 0
M  V30 8794 H 844.976 -1.39651 -3.86015 0
M  V30 8795 H 843.637 -0.510114 -3.0993 0
M  V30 8796 H 842.83 -2.53103 -4.35838 0
M  V30 8797 H 842.432 -2.65969 -2.62938 0
M  V30 8798 H 844.724 -3.87077 -5.56037 0
M  V30 8799 H 845.667 -5.19714 -4.8094 0
M  V30 8800 H 846.075 -3.49717 -4.43123 0
M  V30 8801 N 845.473 0.80434 -1.35529 0
M  V30 8802 C 846.884 1.37849 -1.25915 0
M  V30 8803 C 847.235 1.95905 0.107495 0
M  V30 8804 O 846.36 1.91462 1.00852 0
M  V30 8805 C 846.955 2.50608 -2.27994 0
M  V30 8806 C 845.514 3.03879 -2.22114 0
M  V30 8807 C 844.661 1.76856 -2.13582 0
M  V30 8808 H 847.612 0.607192 -1.46625 0
M  V30 8809 H 847.633 3.29221 -1.90772 0
M  V30 8810 H 847.145 2.08323 -3.27449 0
M  V30 8811 H 845.246 3.50622 -1.26077 0
M  V30 8812 H 845.359 3.61707 -3.14173 0
M  V30 8813 H 843.723 1.98498 -1.59595 0
M  V30 8814 H 844.506 1.36721 -3.14901 0
M  V30 8815 N 846.951 1.19563 1.02676 0
M  V30 8816 C 848.199 0.997593 1.75763 0
M  V30 8817 C 848.52 -0.47253 1.89188 0
M  V30 8818 O 847.79 -1.34214 1.42701 0
M  V30 8819 H 846.37 0.366128 0.651122 0
M  V30 8820 H 849.032 1.50495 1.23844 0
M  V30 8821 H 848.128 1.44741 2.76508 0
M  V30 8822 N 848.429 -1.21819 0.999893 0
M  V30 8823 C 849.392 -2.22227 0.561044 0
M  V30 8824 C 850.392 -1.56722 -0.359858 0
M  V30 8825 O 851.582 -1.73546 -0.150848 0
M  V30 8826 C 848.714 -3.40409 -0.182987 0
M  V30 8827 H 849.907 -2.62567 1.44909 0
M  V30 8828 H 847.46 -1.34991 0.78785 0
M  V30 8829 H 848.195 -3.05551 -1.08671 0
M  V30 8830 H 847.98 -3.89171 0.47833 0
M  V30 8831 H 849.47 -4.14856 -0.477952 0
M  V30 8832 N 849.908 -0.773975 -1.37286 0
M  V30 8833 C 851.324 -0.45386 -1.53011 0
M  V30 8834 C 851.524 1.03018 -1.73175 0
M  V30 8835 O 850.58 1.81597 -1.75438 0
M  V30 8836 C 851.893 -1.27087 -2.72524 0
M  V30 8837 C 853.441 -1.26299 -2.86387 0
M  V30 8838 C 853.916 -2.0634 -4.08886 0
M  V30 8839 N 855.407 -2.03706 -4.16003 0
M  V30 8840 C 856.142 -2.62418 -5.09828 0
M  V30 8841 N 855.638 -3.29926 -6.09197 0
M  V30 8842 N 857.431 -2.52236 -5.02328 0
M  V30 8843 H 849.582 -1.73551 -1.22449 0
M  V30 8844 H 851.845 -0.736874 -0.596423 0
M  V30 8845 H 851.551 -2.32263 -2.64096 0
M  V30 8846 H 851.425 -0.90157 -3.66267 0
M  V30 8847 H 853.812 -0.219213 -2.94285 0
M  V30 8848 H 853.893 -1.67195 -1.93596 0
M  V30 8849 H 853.537 -3.10741 -4.01749 0
M  V30 8850 H 853.467 -1.62825 -5.00795 0
M  V30 8851 H 855.958 -1.54559 -3.44848 0
M  V30 8852 H 856.271 -3.72095 -6.77322 0
M  V30 8853 H 854.616 -3.34026 -6.09469 0
M  V30 8854 H 857.807 -1.99108 -4.23643 0
M  V30 8855 H 857.98 -2.98286 -5.75265 0
M  V30 8856 N 851.386 1.48609 -0.524698 0
M  V30 8857 C 852.333 2.29539 0.240956 0
M  V30 8858 C 853.303 1.37033 0.938681 0
M  V30 8859 O 854.488 1.65996 0.940737 0
M  V30 8860 C 851.628 3.20278 1.28514 0
M  V30 8861 C 850.741 4.27858 0.596798 0
M  V30 8862 C 849.876 5.05784 1.62346 0
M  V30 8863 C 848.915 6.05173 0.918287 0
M  V30 8864 N 848.052 6.76176 1.89025 0
M  V30 8865 H 852.892 2.945 -0.455368 0
M  V30 8866 H 850.429 1.45188 -0.236403 0
M  V30 8867 H 852.387 3.71281 1.90279 0
M  V30 8868 H 851.017 2.57251 1.94992 0
M  V30 8869 H 850.069 3.80162 -0.134668 0
M  V30 8870 H 851.381 4.98782 0.0428506 0
M  V30 8871 H 850.535 5.60775 2.31553 0
M  V30 8872 H 849.274 4.34687 2.2113 0
M  V30 8873 H 848.279 5.49391 0.21212 0
M  V30 8874 H 849.504 6.78265 0.336633 0
M  V30 8875 H 847.45 6.07834 2.46726 0
M  V30 8876 H 847.367 7.43157 1.3876 0
M  V30 8877 H 848.635 7.35759 2.57446 0
M  V30 8878 N 852.864 0.259585 1.55447 0
M  V30 8879 C 853.827 -0.621359 2.20617 0
M  V30 8880 C 854.827 -1.09317 1.17925 0
M  V30 8881 O 856.017 -0.995842 1.42929 0
M  V30 8882 C 853.149 -1.85546 2.85982 0
M  V30 8883 H 854.342 -0.0525833 2.99854 0
M  V30 8884 H 851.895 0.0101055 1.56297 0
M  V30 8885 H 852.63 -2.46515 2.10715 0
M  V30 8886 H 852.415 -1.52523 3.61219 0
M  V30 8887 H 853.905 -2.48227 3.35817 0
M  V30 8888 N 854.342 -1.57594 -0.0133615 0
M  V30 8889 C 855.305 -2.06534 -0.993799 0
M  V30 8890 C 856.305 -0.972267 -1.28077 0
M  V30 8891 O 857.495 -1.23537 -1.22818 0
M  V30 8892 C 854.627 -2.49554 -2.3224 0
M  V30 8893 H 855.82 -2.94419 -0.570741 0
M  V30 8894 H 853.373 -1.54113 -0.260546 0
M  V30 8895 H 854.108 -1.64872 -2.79263 0
M  V30 8896 H 853.893 -3.29371 -2.12737 0
M  V30 8897 H 855.383 -2.8779 -3.026 0
M  V30 8898 N 855.82 0.285905 -1.54985 0
M  V30 8899 C 856.783 1.33625 -1.86218 0
M  V30 8900 C 857.783 1.42971 -0.735936 0
M  V30 8901 O 858.973 1.42345 -1.00417 0
M  V30 8902 C 856.105 2.71926 -2.05595 0
M  V30 8903 H 857.298 1.07167 -2.80099 0
M  V30 8904 H 854.851 0.523335 -1.47278 0
M  V30 8905 H 855.586 3.03583 -1.14053 0
M  V30 8906 H 855.371 2.6653 -2.87583 0
M  V30 8907 H 856.861 3.47841 -2.31077 0
M  V30 8908 N 857.298 1.47698 0.54982 0
M  V30 8909 C 858.228 1.63622 1.66583 0
M  V30 8910 C 859.209 0.485477 1.63025 0
M  V30 8911 O 860.394 0.715692 1.80531 0
M  V30 8912 C 857.524 1.65721 3.05211 0
M  V30 8913 C 856.478 2.80097 3.2362 0
M  V30 8914 C 855.804 2.67272 4.63109 0
M  V30 8915 C 857.104 4.21612 3.08286 0
M  V30 8916 H 858.798 2.57049 1.53512 0
M  V30 8917 H 856.344 1.23705 0.737099 0
M  V30 8918 H 858.297 1.75451 3.83138 0
M  V30 8919 H 857.021 0.688593 3.19258 0
M  V30 8920 H 855.68 2.69889 2.48104 0
M  V30 8921 H 855.328 1.68422 4.73965 0
M  V30 8922 H 855.028 3.44008 4.76374 0
M  V30 8923 H 856.552 2.78942 5.43161 0
M  V30 8924 H 857.966 4.32758 3.76024 0
M  V30 8925 H 856.363 4.99193 3.33057 0
M  V30 8926 H 857.433 4.39462 2.04942 0
M  V30 8927 N 858.776 -0.797141 1.35954 0
M  V30 8928 C 860.001 -1.59097 1.33053 0
M  V30 8929 C 860.426 -1.87897 -0.0874592 0
M  V30 8930 O 859.784 -1.47291 -1.05712 0
M  V30 8931 C 859.832 -2.89346 2.152 0
M  V30 8932 O 858.936 -3.826 1.5392 0
M  V30 8933 H 858.277 -0.482895 0.45575 0
M  V30 8934 H 860.807 -0.988633 1.79129 0
M  V30 8935 H 860.817 -3.38686 2.27499 0
M  V30 8936 H 859.492 -2.6771 3.18283 0
M  V30 8937 H 858.069 -3.41174 1.50516 0
M  V30 8938 N 860.254 -1.20106 -1.0204 0
M  V30 8939 C 861.502 -1.0069 -1.75231 0
M  V30 8940 C 861.823 0.462491 -1.89436 0
M  V30 8941 O 861.093 1.33455 -1.4341 0
M  V30 8942 H 859.673 -0.369576 -0.649171 0
M  V30 8943 H 862.335 -1.51149 -1.23044 0
M  V30 8944 H 861.431 -1.46205 -2.75736 0
M  V30 8945 N 861.732 1.21287 -1.00634 0
M  V30 8946 C 862.98 1.90013 -0.688438 0
M  V30 8947 C 863.301 1.78573 0.783365 0
M  V30 8948 O 862.571 1.1815 1.56261 0
M  V30 8949 H 861.151 0.703336 -0.251648 0
M  V30 8950 H 863.813 1.47346 -1.27574 0
M  V30 8951 H 862.909 2.96879 -0.962781 0
M  V30 8952 N 863.21 0.781244 1.36873 0
M  V30 8953 C 864.14 0.188128 2.32741 0
M  V30 8954 C 865.121 -0.672326 1.56249 0
M  V30 8955 O 866.306 -0.607835 1.84442 0
M  V30 8956 C 863.436 -0.684341 3.40491 0
M  V30 8957 C 862.39 0.0755641 4.27933 0
M  V30 8958 C 861.716 -0.916968 5.26779 0
M  V30 8959 C 863.016 1.26006 5.06873 0
M  V30 8960 H 864.71 0.989016 2.82593 0
M  V30 8961 H 862.256 0.477038 1.35869 0
M  V30 8962 H 864.209 -1.10915 4.06541 0
M  V30 8963 H 862.933 -1.51785 2.89187 0
M  V30 8964 H 861.592 0.481258 3.63427 0
M  V30 8965 H 861.24 -1.74528 4.71751 0
M  V30 8966 H 860.94 -0.413 5.86147 0
M  V30 8967 H 862.464 -1.34052 5.95703 0
M  V30 8968 H 863.878 0.911425 5.66009 0
M  V30 8969 H 862.275 1.69676 5.75613 0
M  V30 8970 H 863.345 2.05948 4.38991 0
M  V30 8971 N 864.689 -1.48329 0.532571 0
M  V30 8972 C 865.619 -2.32485 -0.217511 0
M  V30 8973 C 866.6 -1.42255 -0.932598 0
M  V30 8974 O 867.785 -1.7114 -0.917873 0
M  V30 8975 C 864.915 -3.23509 -1.26329 0
M  V30 8976 C 863.869 -4.22784 -0.666191 0
M  V30 8977 C 863.195 -5.0296 -1.81482 0
M  V30 8978 C 864.495 -5.21031 0.363813 0
M  V30 8979 H 866.189 -2.95445 0.485014 0
M  V30 8980 H 863.735 -1.42075 0.234694 0
M  V30 8981 H 865.688 -3.81211 -1.79601 0
M  V30 8982 H 864.412 -2.58554 -1.99543 0
M  V30 8983 H 863.071 -3.66272 -0.15498 0
M  V30 8984 H 862.719 -4.34427 -2.5354 0
M  V30 8985 H 862.419 -5.70154 -1.4212 0
M  V30 8986 H 863.943 -5.63514 -2.35126 0
M  V30 8987 H 865.357 -5.73241 -0.0819079 0
M  V30 8988 H 863.754 -5.96292 0.674956 0
M  V30 8989 H 864.824 -4.6801 1.26865 0
M  V30 8990 N 866.167 -0.267825 -1.55308 0
M  V30 8991 C 867.392 0.357487 -2.04296 0
M  V30 8992 C 867.817 1.49222 -1.14518 0
M  V30 8993 O 867.175 1.80741 -0.142292 0
M  V30 8994 C 867.223 0.822899 -3.51085 0
M  V30 8995 O 866.327 1.93078 -3.6441 0
M  V30 8996 H 865.668 0.075025 -0.659748 0
M  V30 8997 H 868.198 -0.399996 -2.00652 0
M  V30 8998 H 868.208 1.12059 -3.92309 0
M  V30 8999 H 866.883 -0.0073562 -4.15899 0
M  V30 9000 H 865.46 1.63618 -3.35087 0
M  V30 9001 N 867.645 1.57599 0.00500368 0
M  V30 9002 C 868.922 1.81561 0.727654 0
M  V30 9003 C 869.302 0.871604 1.92266 0
M  V30 9004 O 868.65 -0.0808232 2.28357 0
M  V30 9005 C 868.86 3.29922 1.13809 0
M  V30 9006 C 870.208 3.95531 1.54403 0
M  V30 9007 O 871.232 3.34215 1.23202 0
M  V30 9008 O 870.091 5.03535 2.12402 0
M  V30 9009 H 867.185 0.747462 0.353878 0
M  V30 9010 H 869.731 1.69688 -0.0200667 0
M  V30 9011 H 868.503 3.90253 0.286078 0
M  V30 9012 H 868.126 3.46775 1.94507 0
M  V30 9013 N 869.123 -0.277682 1.55134 0
M  V30 9014 C 870.534 -0.849063 1.66276 0
M  V30 9015 C 870.885 -1.87223 0.5867 0
M  V30 9016 O 870.01 -2.14676 -0.272635 0
M  V30 9017 C 870.605 -1.54681 3.01429 0
M  V30 9018 C 869.164 -2.06628 3.14614 0
M  V30 9019 C 868.311 -0.906748 2.62056 0
M  V30 9020 H 871.262 -0.0541357 1.58608 0
M  V30 9021 H 871.283 -2.41356 2.94156 0
M  V30 9022 H 870.795 -0.80189 3.79725 0
M  V30 9023 H 868.896 -2.84095 2.41082 0
M  V30 9024 H 869.009 -2.2848 4.2111 0
M  V30 9025 H 867.373 -1.29882 2.19095 0
M  V30 9026 H 868.156 -0.175414 3.42852 0
M  V30 9027 N 870.601 -1.47988 -0.541979 0
M  V30 9028 C 871.511 -1.64276 -1.67483 0
M  V30 9029 C 872.527 -0.525387 -1.65879 0
M  V30 9030 O 873.703 -0.794912 -1.85049 0
M  V30 9031 C 870.768 -1.66744 -3.03969 0
M  V30 9032 C 869.829 -2.90021 -3.16522 0
M  V30 9033 C 869.062 -2.92362 -4.46498 0
M  V30 9034 O 869.285 -2.03462 -5.32878 0
M  V30 9035 O 868.219 -3.84399 -4.63164 0
M  V30 9036 H 872.045 -2.60164 -1.5668 0
M  V30 9037 H 869.63 -1.31249 -0.71372 0
M  V30 9038 H 871.512 -1.70958 -3.85164 0
M  V30 9039 H 870.187 -0.740277 -3.15122 0
M  V30 9040 H 869.094 -2.91345 -2.34667 0
M  V30 9041 H 870.427 -3.82082 -3.10281 0
M  V30 9042 N 872.079 0.78992 -1.36375 0
M  V30 9043 C 873.009 1.91683 -1.33341 0
M  V30 9044 C 873.99 1.68861 -0.204965 0
M  V30 9045 O 875.175 1.89982 -0.402531 0
M  V30 9046 C 872.305 3.28696 -1.12143 0
M  V30 9047 C 871.259 3.66041 -2.21806 0
M  V30 9048 C 870.585 5.01399 -1.85751 0
M  V30 9049 C 871.885 3.74677 -3.63888 0
M  V30 9050 H 873.579 1.94478 -2.27637 0
M  V30 9051 H 871.125 0.934271 -1.09578 0
M  V30 9052 H 873.078 4.07151 -1.08656 0
M  V30 9053 H 871.802 3.26287 -0.142974 0
M  V30 9054 H 870.461 2.89883 -2.24418 0
M  V30 9055 H 870.109 4.9551 -0.864817 0
M  V30 9056 H 869.809 5.27355 -2.59173 0
M  V30 9057 H 871.333 5.82274 -1.83819 0
M  V30 9058 H 872.747 4.43324 -3.63506 0
M  V30 9059 H 871.144 4.12118 -4.3621 0
M  V30 9060 H 872.214 2.75795 -3.9883 0
M  V30 9061 N 873.557 1.20646 1.01402 0
M  V30 9062 C 874.489 0.915392 2.10127 0
M  V30 9063 C 875.502 -0.0978705 1.62506 0
M  V30 9064 O 876.691 0.133477 1.78 0
M  V30 9065 C 873.791 0.351304 3.37074 0
M  V30 9066 C 872.964 1.41673 4.13821 0
M  V30 9067 C 872.023 0.8635 5.19067 0
M  V30 9068 O 871.049 1.54481 5.47836 0
M  V30 9069 N 872.251 -0.325799 5.79585 0
M  V30 9070 H 875.016 1.85132 2.35682 0
M  V30 9071 H 872.577 1.11048 1.17813 0
M  V30 9072 H 874.569 -0.032996 4.04687 0
M  V30 9073 H 873.139 -0.489242 3.08748 0
M  V30 9074 H 872.359 1.97526 3.41141 0
M  V30 9075 H 873.647 2.1342 4.61876 0
M  V30 9076 H 873.045 -0.896534 5.58551 0
M  V30 9077 H 871.602 -0.651708 6.48534 0
M  V30 9078 N 875.035 -1.20752 1.01276 0
M  V30 9079 C 876.451 -1.42084 0.726934 0
M  V30 9080 C 876.651 -1.89138 -0.694907 0
M  V30 9081 O 875.707 -2.05783 -1.4632 0
M  V30 9082 C 877.02 -2.44575 1.74938 0
M  V30 9083 C 878.568 -2.58347 1.76708 0
M  V30 9084 C 879.043 -3.64078 2.77869 0
M  V30 9085 N 880.534 -3.71558 2.76585 0
M  V30 9086 C 881.269 -4.53016 3.51517 0
M  V30 9087 N 880.765 -5.38309 4.36114 0
M  V30 9088 N 882.558 -4.47512 3.40132 0
M  V30 9089 H 874.709 -0.885228 1.93074 0
M  V30 9090 H 876.972 -0.451075 0.833808 0
M  V30 9091 H 876.678 -2.1699 2.76782 0
M  V30 9092 H 876.552 -3.43503 1.55838 0
M  V30 9093 H 878.939 -2.85265 0.755516 0
M  V30 9094 H 879.02 -1.59628 1.99882 0
M  V30 9095 H 878.664 -3.37905 3.79187 0
M  V30 9096 H 878.594 -4.62412 2.51958 0
M  V30 9097 H 881.085 -3.10629 2.15216 0
M  V30 9098 H 881.398 -5.9754 4.90068 0
M  V30 9099 H 879.743 -5.37824 4.40194 0
M  V30 9100 H 882.934 -3.79912 2.73467 0
M  V30 9101 H 883.107 -5.10759 3.98784 0
M  V30 9102 N 876.513 -0.788492 -1.36457 0
M  V30 9103 C 877.46 -0.18435 -2.30063 0
M  V30 9104 C 878.43 0.67128 -1.51931 0
M  V30 9105 O 879.615 0.620152 -1.8044 0
M  V30 9106 C 876.755 0.675596 -3.38422 0
M  V30 9107 C 875.868 -0.198475 -4.31544 0
M  V30 9108 C 875.003 0.667757 -5.26986 0
M  V30 9109 C 874.042 -0.207825 -6.11747 0
M  V30 9110 N 873.179 0.617335 -6.99381 0
M  V30 9111 H 878.019 -0.988056 -2.81143 0
M  V30 9112 H 875.556 -0.498815 -1.38384 0
M  V30 9113 H 877.514 1.18916 -3.99894 0
M  V30 9114 H 876.144 1.44474 -2.88664 0
M  V30 9115 H 875.196 -0.829995 -3.71235 0
M  V30 9116 H 876.508 -0.873163 -4.91098 0
M  V30 9117 H 875.662 1.24716 -5.93743 0
M  V30 9118 H 874.401 1.37607 -4.67884 0
M  V30 9119 H 873.406 -0.799638 -5.43954 0
M  V30 9120 H 874.631 -0.913729 -6.72925 0
M  V30 9121 H 872.577 1.30996 -6.42788 0
M  V30 9122 H 872.494 0.000307255 -7.56 0
M  V30 9123 H 873.762 1.1806 -7.70508 0
M  V30 9124 N 877.991 1.48044 -0.54043 0
M  V30 9125 C 879.24 2.01698 -0.00809961 0
M  V30 9126 C 879.553 1.42184 1.34325 0
M  V30 9127 O 880.759 1.87398 1.96454 0
M  V30 9128 C 879.215 3.59882 0.035933 0
M  V30 9129 C 878.823 4.28384 -1.31115 0
M  V30 9130 C 880.567 4.21346 0.51654 0
M  V30 9131 C 878.474 5.78529 -1.22714 0
M  V30 9132 H 877.404 0.754 0.000742174 0
M  V30 9133 H 880.055 1.70204 -0.685775 0
M  V30 9134 H 878.437 3.88264 0.778906 0
M  V30 9135 H 879.611 4.11663 -2.07051 0
M  V30 9136 H 877.926 3.78837 -1.72834 0
M  V30 9137 H 880.523 5.31351 0.597529 0
M  V30 9138 H 880.866 3.87373 1.52473 0
M  V30 9139 H 881.399 3.97432 -0.171064 0
M  V30 9140 H 878.138 6.17093 -2.21081 0
M  V30 9141 H 877.658 5.97634 -0.50931 0
M  V30 9142 H 879.337 6.40395 -0.92216 0
M  V30 9143 N 879.47 0.276058 1.55163 0
M  V30 9144 C 880.403 -0.652386 2.18676 0
M  V30 9145 C 881.381 -1.15151 1.148 0
M  V30 9146 O 882.565 -1.22431 1.43328 0
M  V30 9147 C 879.692 -1.88982 2.81076 0
M  V30 9148 C 878.738 -1.52609 3.98262 0
M  V30 9149 S 879.571 -0.603445 5.32089 0
M  V30 9150 C 880.727 -1.84923 5.97958 0
M  V30 9151 H 880.96 -0.112733 2.97086 0
M  V30 9152 H 878.493 0.0603118 1.54282 0
M  V30 9153 H 880.451 -2.60007 3.17658 0
M  V30 9154 H 879.112 -2.40061 2.02557 0
M  V30 9155 H 878.305 -2.44689 4.40617 0
M  V30 9156 H 877.907 -0.89601 3.63108 0
M  V30 9157 H 880.199 -2.79303 6.17249 0
M  V30 9158 H 881.142 -1.46868 6.92702 0
M  V30 9159 H 881.55 -2.0146 5.27327 0
M  V30 9160 N 880.948 -1.576 0.00335426 0
M  V30 9161 C 881.858 -2.12067 -1.00322 0
M  V30 9162 C 882.874 -1.06672 -1.37467 0
M  V30 9163 O 884.05 -1.38592 -1.46131 0
M  V30 9164 C 881.115 -2.61593 -2.27531 0
M  V30 9165 C 880.176 -3.81602 -1.96668 0
M  V30 9166 C 879.409 -4.28756 -3.17811 0
M  V30 9167 O 879.632 -3.75222 -4.2961 0
M  V30 9168 O 878.566 -5.20877 -3.01613 0
M  V30 9169 H 882.392 -2.98299 -0.570199 0
M  V30 9170 H 879.977 -1.47835 -0.215682 0
M  V30 9171 H 881.859 -2.93631 -3.02256 0
M  V30 9172 H 880.534 -1.78457 -2.70065 0
M  V30 9173 H 879.441 -3.54531 -1.19408 0
M  V30 9174 H 880.774 -4.65822 -1.58968 0
M  V30 9175 N 882.426 0.269451 -1.5528 0
M  V30 9176 C 883.672 1.00206 -1.76314 0
M  V30 9177 C 884.005 1.85812 -0.564581 0
M  V30 9178 O 883.28 1.89509 0.437769 0
M  V30 9179 C 883.563 1.88163 -3.07029 0
M  V30 9180 C 883.416 1.05527 -4.37246 0
M  V30 9181 C 884.735 2.8681 -3.33808 0
M  V30 9182 H 881.854 0.36288 -0.641473 0
M  V30 9183 H 884.496 0.274188 -1.88011 0
M  V30 9184 H 882.646 2.50224 -2.97187 0
M  V30 9185 H 884.318 0.455094 -4.5905 0
M  V30 9186 H 882.561 0.358842 -4.32313 0
M  V30 9187 H 883.232 1.70397 -5.25042 0
M  V30 9188 H 885.708 2.34884 -3.43466 0
M  V30 9189 H 884.584 3.45492 -4.26528 0
M  V30 9190 H 884.845 3.62118 -2.5362 0
M  V30 9191 N 883.904 1.48273 0.534124 0
M  V30 9192 C 884.814 1.65162 1.66609 0
M  V30 9193 C 885.83 0.534177 1.65598 0
M  V30 9194 O 887.006 0.804715 1.84625 0
M  V30 9195 C 884.071 1.68354 3.03081 0
M  V30 9196 C 883.132 2.91696 3.1498 0
M  V30 9197 C 882.365 2.94725 4.44941 0
M  V30 9198 O 882.588 2.06285 5.31792 0
M  V30 9199 O 881.522 3.8685 4.61119 0
M  V30 9200 H 885.348 2.60991 1.55298 0
M  V30 9201 H 882.933 1.31626 0.706749 0
M  V30 9202 H 884.815 1.72998 3.84252 0
M  V30 9203 H 883.49 0.756978 3.14725 0
M  V30 9204 H 882.397 2.92586 2.33119 0
M  V30 9205 H 883.73 3.83722 3.0825 0
M  V30 9206 N 885.382 -0.782676 1.36792 0
M  V30 9207 C 886.312 -1.90973 1.34356 0
M  V30 9208 C 887.293 -1.6875 0.213917 0
M  V30 9209 O 888.478 -1.89766 0.412601 0
M  V30 9210 C 885.608 -3.28097 1.13884 0
M  V30 9211 C 884.562 -3.6486 2.23744 0
M  V30 9212 C 883.888 -5.00406 1.88408 0
M  V30 9213 C 885.188 -3.72742 3.6587 0
M  V30 9214 H 886.882 -1.93268 2.28665 0
M  V30 9215 H 884.428 -0.928447 1.10072 0
M  V30 9216 H 886.381 -4.06569 1.10813 0
M  V30 9217 H 885.105 -3.26206 0.160275 0
M  V30 9218 H 883.764 -2.88689 2.25952 0
M  V30 9219 H 883.412 -4.95044 0.891083 0
M  V30 9220 H 883.112 -5.25973 2.61966 0
M  V30 9221 H 884.636 -5.81291 1.86905 0
M  V30 9222 H 886.05 -4.4139 3.65852 0
M  V30 9223 H 884.447 -4.09798 4.38389 0
M  V30 9224 H 885.517 -2.73676 4.00287 0
M  V30 9225 N 886.86 -1.21182 -1.00761 0
M  V30 9226 C 888.085 -1.05411 -1.78615 0
M  V30 9227 C 888.51 0.391837 -1.83973 0
M  V30 9228 O 887.868 1.28256 -1.28141 0
M  V30 9229 C 887.916 -1.65285 -3.20489 0
M  V30 9230 O 887.02 -0.896558 -4.02536 0
M  V30 9231 H 886.361 -0.37116 -0.550578 0
M  V30 9232 H 888.891 -1.60669 -1.26676 0
M  V30 9233 H 888.901 -1.69397 -3.71172 0
M  V30 9234 H 887.576 -2.70514 -3.15904 0
M  V30 9235 H 886.153 -0.930335 -3.61108 0
M  V30 9236 N 888.338 1.20213 -1.01915 0
M  V30 9237 C 889.584 1.89928 -0.711007 0
M  V30 9238 C 889.917 1.7881 0.75767 0
M  V30 9239 O 889.192 1.17399 1.55073 0
M  V30 9240 C 889.475 3.41225 -1.15053 0
M  V30 9241 C 889.328 3.61264 -2.67971 0
M  V30 9242 C 890.647 4.34108 -0.72377 0
M  V30 9243 H 887.766 0.689702 -0.259768 0
M  V30 9244 H 890.408 1.41557 -1.26734 0
M  V30 9245 H 888.558 3.82552 -0.677199 0
M  V30 9246 H 890.23 3.29173 -3.23176 0
M  V30 9247 H 888.473 3.04647 -3.08824 0
M  V30 9248 H 889.144 4.67331 -2.93779 0
M  V30 9249 H 891.62 4.00442 -1.13073 0
M  V30 9250 H 890.496 5.38581 -1.05931 0
M  V30 9251 H 890.757 4.40512 0.374424 0
M  V30 9252 N 889.816 0.795718 1.36037 0
M  V30 9253 C 890.766 0.171437 2.27355 0
M  V30 9254 C 891.75 -0.648346 1.47259 0
M  V30 9255 O 892.942 -0.507386 1.69572 0
M  V30 9256 C 890.071 -0.687876 3.36338 0
M  V30 9257 C 889.157 0.141041 4.23865 0
M  V30 9258 N 889.548 1.19868 4.91391 0
M  V30 9259 C 887.846 -0.0791045 4.4593 0
M  V30 9260 C 888.547 1.70382 5.56188 0
M  V30 9261 N 887.523 1.01202 5.34097 0
M  V30 9262 H 891.325 0.980846 2.7705 0
M  V30 9263 H 888.839 0.635798 1.49437 0
M  V30 9264 H 890.836 -1.15107 4.00694 0
M  V30 9265 H 889.496 -1.49576 2.88196 0
M  V30 9266 H 890.507 1.58119 4.93172 0
M  V30 9267 H 887.184 -0.856993 4.0861 0
M  V30 9268 H 888.574 2.58715 6.20093 0
M  V30 9269 N 891.294 -1.47756 0.548274 0
M  V30 9270 C 892.542 -2.02089 0.0208542 0
M  V30 9271 C 892.863 -1.42589 -1.33017 0
M  V30 9272 O 892.133 -0.597825 -1.86555 0
M  V30 9273 H 890.713 -0.746985 0.00472023 0
M  V30 9274 H 893.375 -1.81262 0.716257 0
M  V30 9275 H 892.471 -3.12012 -0.0739016 0
M  V30 9276 N 892.772 -0.284283 -1.55015 0
M  V30 9277 C 894.018 0.330352 -2.00091 0
M  V30 9278 C 894.351 1.54814 -1.17244 0
M  V30 9279 O 893.626 1.92954 -0.244753 0
M  V30 9280 C 893.909 0.703492 -3.53161 0
M  V30 9281 C 893.762 -0.522275 -4.46758 0
M  V30 9282 C 895.081 1.53645 -4.12409 0
M  V30 9283 H 892.2 0.118599 -0.727395 0
M  V30 9284 H 894.842 -0.393054 -1.8589 0
M  V30 9285 H 892.992 1.31983 -3.65394 0
M  V30 9286 H 894.664 -1.16082 -4.46456 0
M  V30 9287 H 892.907 -1.15865 -4.1804 0
M  V30 9288 H 893.578 -0.217295 -5.51572 0
M  V30 9289 H 896.054 1.01583 -4.0351 0
M  V30 9290 H 894.93 1.76633 -5.19704 0
M  V30 9291 H 895.191 2.5204 -3.63219 0
M  V30 9292 N 894.251 1.57596 -0.0117121 0
M  V30 9293 C 895.479 1.9536 0.681334 0
M  V30 9294 C 895.894 0.887255 1.66653 0
M  V30 9295 O 895.251 -0.132692 1.82017 0
M  V30 9296 C 895.302 3.33165 1.40298 0
M  V30 9297 O 895.023 4.35707 0.45728 0
M  V30 9298 C 896.524 3.85458 2.18946 0
M  V30 9299 H 893.744 0.643826 0.189023 0
M  V30 9300 H 896.288 2.04392 -0.066311 0
M  V30 9301 H 894.443 3.25404 2.10216 0
M  V30 9302 H 894.857 5.15495 0.96773 0
M  V30 9303 H 896.331 4.84275 2.64918 0
M  V30 9304 H 896.808 3.18781 3.02118 0
M  V30 9305 H 897.414 3.96431 1.5402 0
M  V30 9306 N 895.729 -0.261212 1.5542 0
M  V30 9307 C 896.679 -1.32571 1.85496 0
M  V30 9308 C 897.663 -1.44155 0.714722 0
M  V30 9309 O 898.855 -1.47637 0.976336 0
M  V30 9310 C 895.984 -2.68384 2.14067 0
M  V30 9311 C 895.07 -2.60864 3.34381 0
M  V30 9312 N 895.461 -2.22967 4.54004 0
M  V30 9313 C 893.759 -2.91904 3.37206 0
M  V30 9314 C 894.46 -2.25727 5.36118 0
M  V30 9315 N 893.436 -2.64667 4.74818 0
M  V30 9316 H 897.238 -1.02298 2.75522 0
M  V30 9317 H 894.752 -0.469849 1.55455 0
M  V30 9318 H 896.749 -3.45189 2.33774 0
M  V30 9319 H 895.409 -2.99536 1.25332 0
M  V30 9320 H 896.42 -1.94748 4.79889 0
M  V30 9321 H 893.097 -3.2769 2.587 0
M  V30 9322 H 894.487 -1.98889 6.41789 0
M  V30 9323 N 897.207 -1.48554 -0.526253 0
M  V30 9324 C 898.139 -1.59446 -1.6465 0
M  V30 9325 C 899.152 -0.478525 -1.55608 0
M  V30 9326 O 900.341 -0.74953 -1.62001 0
M  V30 9327 C 897.441 -1.51164 -3.03319 0
M  V30 9328 C 896.614 -2.77861 -3.37805 0
M  V30 9329 C 895.673 -2.62982 -4.5577 0
M  V30 9330 O 894.699 -3.36876 -4.58806 0
M  V30 9331 N 895.901 -1.72847 -5.5417 0
M  V30 9332 H 898.666 -2.56055 -1.55743 0
M  V30 9333 H 896.227 -1.45325 -0.713606 0
M  V30 9334 H 898.219 -1.389 -3.80117 0
M  V30 9335 H 896.789 -0.625147 -3.06285 0
M  V30 9336 H 896.009 -3.04663 -2.50149 0
M  V30 9337 H 897.297 -3.61908 -3.57632 0
M  V30 9338 H 896.695 -1.12022 -5.54498 0
M  V30 9339 H 895.252 -1.6652 -6.3017 0
M  V30 9340 N 898.685 0.775411 -1.37205 0
M  V30 9341 C 899.595 1.91967 -1.34855 0
M  V30 9342 C 900.611 1.72214 -0.248656 0
M  V30 9343 O 901.787 1.95512 -0.483421 0
M  V30 9344 C 898.852 3.27038 -1.15096 0
M  V30 9345 C 897.913 3.5947 -2.34691 0
M  V30 9346 C 897.146 4.88097 -2.15865 0
M  V30 9347 O 897.369 5.58871 -1.14102 0
M  V30 9348 O 896.303 5.19507 -3.03967 0
M  V30 9349 H 900.129 1.969 -2.31223 0
M  V30 9350 H 897.714 0.917647 -1.17897 0
M  V30 9351 H 899.596 4.07837 -1.0605 0
M  V30 9352 H 898.271 3.22965 -0.217999 0
M  V30 9353 H 897.178 2.7892 -2.49308 0
M  V30 9354 H 898.511 3.68282 -3.26541 0
M  V30 9355 N 900.163 1.21714 1.00117 0
M  V30 9356 C 901.403 1.04818 1.75478 0
M  V30 9357 C 901.767 -0.410653 1.87557 0
M  V30 9358 O 902.968 -0.700241 2.59519 0
M  V30 9359 C 901.239 1.73055 3.12709 0
M  V30 9360 S 902.798 1.71464 4.03913 0
M  V30 9361 H 899.616 0.375534 0.603734 0
M  V30 9362 H 902.218 1.54522 1.19763 0
M  V30 9363 H 900.922 2.78376 3.01554 0
M  V30 9364 H 900.453 1.23546 3.73497 0
M  V30 9365 H 902.468 0.75845 4.90369 0
M  V30 9366 N 901.641 -1.19671 1.02551 0
M  V30 9367 C 902.573 -2.22215 0.561517 0
M  V30 9368 C 903.586 -1.58751 -0.360821 0
M  V30 9369 O 904.775 -1.77802 -0.157749 0
M  V30 9370 C 901.875 -3.383 -0.201494 0
M  V30 9371 C 901.048 -4.3135 0.724952 0
M  V30 9372 C 900.107 -5.26199 0.00794334 0
M  V30 9373 O 899.133 -5.65665 0.633398 0
M  V30 9374 N 900.335 -5.66573 -1.26394 0
M  V30 9375 H 903.1 -2.6265 1.44343 0
M  V30 9376 H 900.661 -1.34303 0.904122 0
M  V30 9377 H 902.653 -3.98764 -0.690625 0
M  V30 9378 H 901.223 -2.96683 -0.98479 0
M  V30 9379 H 900.443 -3.6872 1.39423 0
M  V30 9380 H 901.731 -4.90433 1.35472 0
M  V30 9381 H 901.129 -5.36538 -1.79287 0
M  V30 9382 H 899.686 -6.29304 -1.69763 0
M  V30 9383 N 903.119 -0.802921 -1.35613 0
M  V30 9384 C 904.347 -0.39393 -2.03115 0
M  V30 9385 C 904.762 0.993961 -1.60517 0
M  V30 9386 O 904.119 1.63984 -0.800973 0
M  V30 9387 C 904.17 -0.463486 -3.58516 0
M  V30 9388 O 903.891 -1.79666 -3.99565 0
M  V30 9389 C 905.392 -0.0468377 -4.43275 0
M  V30 9390 H 902.612 -0.160519 -0.651517 0
M  V30 9391 H 905.156 -1.08552 -1.73311 0
M  V30 9392 H 903.311 0.179821 -3.86982 0
M  V30 9393 H 903.725 -1.75688 -4.942 0
M  V30 9394 H 905.199 -0.146626 -5.51805 0
M  V30 9395 H 905.676 1.00741 -4.2749 0
M  V30 9396 H 906.282 -0.663158 -4.20098 0
M  V30 9397 N 904.597 1.47463 -0.556102 0
M  V30 9398 C 905.56 2.28478 0.181743 0
M  V30 9399 C 906.56 1.36886 0.843738 0
M  V30 9400 O 907.75 1.59527 0.69977 0
M  V30 9401 C 904.882 3.16534 1.26566 0
M  V30 9402 H 906.075 2.95182 -0.529892 0
M  V30 9403 H 903.628 1.53134 -0.313005 0
M  V30 9404 H 904.363 2.5452 2.00973 0
M  V30 9405 H 904.148 3.83939 0.795798 0
M  V30 9406 H 905.638 3.77579 1.78393 0
M  V30 9407 N 906.075 0.2925 1.54862 0
M  V30 9408 C 907.005 -0.580677 2.26165 0
M  V30 9409 C 907.986 -1.14485 1.25806 0
M  V30 9410 O 909.171 -1.17577 1.54562 0
M  V30 9411 C 906.301 -1.75668 2.99596 0
M  V30 9412 C 905.255 -1.32325 4.07031 0
M  V30 9413 C 904.581 -2.58374 4.68131 0
M  V30 9414 C 905.881 -0.460703 5.20264 0
M  V30 9415 H 907.575 0.0140075 2.99397 0
M  V30 9416 H 905.121 0.00817706 1.43998 0
M  V30 9417 H 907.074 -2.37356 3.48195 0
M  V30 9418 H 905.798 -2.37747 2.23928 0
M  V30 9419 H 904.457 -0.729477 3.59269 0
M  V30 9420 H 904.105 -3.18749 3.89112 0
M  V30 9421 H 903.805 -2.30078 5.40683 0
M  V30 9422 H 905.329 -3.2088 5.19489 0
M  V30 9423 H 906.743 -0.983037 5.64809 0
M  V30 9424 H 905.14 -0.271881 5.99484 0
M  V30 9425 H 906.21 0.516304 4.82143 0
M  V30 9426 N 907.553 -1.57587 0.0200696 0
M  V30 9427 C 908.801 -1.91046 -0.65922 0
M  V30 9428 C 909.122 -0.896197 -1.73186 0
M  V30 9429 O 908.392 0.0635952 -1.95797 0
M  V30 9430 H 906.972 -0.705163 -0.246483 0
M  V30 9431 H 909.634 -1.94789 0.0657368 0
M  V30 9432 H 908.73 -2.91399 -1.11773 0
M  V30 9433 N 909.032 0.252966 -1.55557 0
M  V30 9434 C 909.995 1.29645 -1.8901 0
M  V30 9435 C 910.995 1.41378 -0.766096 0
M  V30 9436 O 912.185 1.40183 -1.03414 0
M  V30 9437 C 909.317 2.67504 -2.11316 0
M  V30 9438 H 910.51 1.01202 -2.82309 0
M  V30 9439 H 908.063 0.491977 -1.48355 0
M  V30 9440 H 908.798 3.01095 -1.20466 0
M  V30 9441 H 908.583 2.6037 -2.93172 0
M  V30 9442 H 910.073 3.42861 -2.38403 0
M  V30 9443 N 910.51 1.48831 0.518367 0
M  V30 9444 C 911.738 1.6112 1.298 0
M  V30 9445 C 912.153 0.275872 1.86774 0
M  V30 9446 O 911.51 -0.736416 1.66983 0
M  V30 9447 C 911.561 2.66675 2.44063 0
M  V30 9448 O 911.282 3.95027 1.89434 0
M  V30 9449 C 912.783 2.8951 3.35706 0
M  V30 9450 H 910.003 0.542916 0.394314 0
M  V30 9451 H 912.547 1.94743 0.624142 0
M  V30 9452 H 910.702 2.35879 3.07311 0
M  V30 9453 H 911.116 4.53031 2.64316 0
M  V30 9454 H 912.59 3.67142 4.12202 0
M  V30 9455 H 913.067 1.98768 3.91648 0
M  V30 9456 H 913.673 3.21656 2.7824 0
M  V30 9457 N 911.988 -0.768124 1.37614 0
M  V30 9458 C 913.236 -1.52379 1.3276 0
M  V30 9459 C 913.557 -1.94809 -0.0863564 0
M  V30 9460 O 912.827 -1.66568 -1.03112 0
M  V30 9461 H 911.407 -0.565179 0.488448 0
M  V30 9462 H 914.069 -0.913974 1.72141 0
M  V30 9463 H 913.165 -2.4215 1.96901 0
M  V30 9464 N 913.466 -1.22244 -0.994698 0
M  V30 9465 C 914.714 -1.04384 -1.73056 0
M  V30 9466 C 915.035 0.422204 -1.90374 0
M  V30 9467 O 914.305 1.30383 -1.46209 0
M  V30 9468 H 912.885 -0.383263 -0.641185 0
M  V30 9469 H 915.547 -1.53725 -1.1981 0
M  V30 9470 H 914.643 -1.52021 -2.72573 0
M  V30 9471 N 914.944 1.19125 -1.03184 0
M  V30 9472 C 916.221 1.84674 -0.644574 0
M  V30 9473 C 916.601 1.92042 0.876534 0
M  V30 9474 O 915.949 1.43965 1.77444 0
M  V30 9475 C 916.159 3.23477 -1.3101 0
M  V30 9476 C 917.507 3.99608 -1.43524 0
M  V30 9477 O 918.531 3.32886 -1.2675 0
M  V30 9478 O 917.39 5.19132 -1.70776 0
M  V30 9479 H 914.484 0.795968 -0.22442 0
M  V30 9480 H 917.03 1.2659 -1.13018 0
M  V30 9481 H 915.802 3.12967 -2.34878 0
M  V30 9482 H 915.425 3.89209 -0.812547 0
M  V30 9483 N 916.422 0.810101 1.35185 0
M  V30 9484 C 917.668 0.392698 1.98962 0
M  V30 9485 C 918.001 -1.03835 1.64109 0
M  V30 9486 O 917.276 -1.721 0.9062 0
M  V30 9487 C 917.559 0.580349 3.55393 0
M  V30 9488 C 917.412 2.05658 4.00031 0
M  V30 9489 C 918.731 0.00822618 4.40099 0
M  V30 9490 H 915.85 0.144157 0.722764 0
M  V30 9491 H 918.492 1.02029 1.60281 0
M  V30 9492 H 916.642 0.0461106 3.88473 0
M  V30 9493 H 918.314 2.65348 3.77344 0
M  V30 9494 H 916.557 2.55174 3.50811 0
M  V30 9495 H 917.228 2.13875 5.08883 0
M  V30 9496 H 919.704 0.464517 4.13499 0
M  V30 9497 H 918.58 0.169414 5.48638 0
M  V30 9498 H 918.841 -1.08576 4.2856 0
M  V30 9499 N 917.9 -1.47166 0.563914 0
M  V30 9500 C 919.146 -2.02756 0.0424338 0
M  V30 9501 C 919.479 -1.43662 -1.3067 0
M  V30 9502 O 918.754 -0.594676 -1.85186 0
M  V30 9503 C 919.037 -3.60074 -0.0434793 0
M  V30 9504 C 918.89 -4.29587 1.33323 0
M  V30 9505 C 920.209 -4.336 -0.753568 0
M  V30 9506 H 917.328 -0.736806 0.0168946 0
M  V30 9507 H 919.97 -1.75521 0.727496 0
M  V30 9508 H 918.12 -3.83409 -0.626906 0
M  V30 9509 H 919.792 -4.17573 1.96037 0
M  V30 9510 H 918.035 -3.8968 1.9061 0
M  V30 9511 H 918.706 -5.38218 1.22576 0
M  V30 9512 H 921.182 -4.15299 -0.258126 0
M  V30 9513 H 920.058 -5.43291 -0.782659 0
M  V30 9514 H 920.319 -4.03302 -1.81108 0
M  V30 9515 N 919.378 -0.300708 -1.54705 0
M  V30 9516 C 920.603 0.314073 -2.05008 0
M  V30 9517 C 921.028 1.46759 -1.17657 0
M  V30 9518 O 920.386 1.80398 -0.180598 0
M  V30 9519 C 920.434 0.748243 -3.52752 0
M  V30 9520 O 919.538 1.85305 -3.68424 0
M  V30 9521 H 918.879 0.0610139 -0.661191 0
M  V30 9522 H 921.409 -0.442467 -1.99758 0
M  V30 9523 H 921.419 1.03713 -3.94598 0
M  V30 9524 H 920.094 -0.095573 -4.1579 0
M  V30 9525 H 918.671 1.56473 -3.38483 0
M  V30 9526 N 920.856 1.57574 -0.0284266 0
M  V30 9527 C 921.819 2.09096 0.938691 0
M  V30 9528 C 922.819 1.00588 1.25454 0
M  V30 9529 O 924.009 1.2675 1.19499 0
M  V30 9530 C 921.141 2.55624 2.25542 0
M  V30 9531 H 922.334 2.95829 0.49248 0
M  V30 9532 H 919.887 1.5475 0.219594 0
M  V30 9533 H 920.622 1.72218 2.74793 0
M  V30 9534 H 920.407 3.34896 2.03929 0
M  V30 9535 H 921.897 2.95712 2.94863 0
M  V30 9536 N 922.334 -0.244713 1.55689 0
M  V30 9537 C 923.583 -0.970373 1.76824 0
M  V30 9538 C 923.896 -1.86402 0.592764 0
M  V30 9539 O 925.102 -2.62659 0.687186 0
M  V30 9540 C 923.558 -1.77547 3.13058 0
M  V30 9541 C 923.166 -0.929104 4.3826 0
M  V30 9542 C 924.91 -2.49373 3.43531 0
M  V30 9543 C 922.817 -1.73021 5.65524 0
M  V30 9544 H 921.747 -0.366048 0.659185 0
M  V30 9545 H 924.398 -0.224964 1.82116 0
M  V30 9546 H 922.78 -2.56291 3.01879 0
M  V30 9547 H 923.954 -0.183836 4.60433 0
M  V30 9548 H 922.269 -0.324071 4.15137 0
M  V30 9549 H 924.866 -3.09767 4.35831 0
M  V30 9550 H 925.209 -3.21099 2.64955 0
M  V30 9551 H 925.742 -1.77637 3.55935 0
M  V30 9552 H 922.481 -1.05666 6.46927 0
M  V30 9553 H 922.001 -2.45071 5.47449 0
M  V30 9554 H 923.68 -2.2968 6.0486 0
M  V30 9555 N 923.813 -1.49104 -0.510467 0
M  V30 9556 C 925.229 -1.35657 -0.840797 0
M  V30 9557 C 925.429 -0.382425 -1.97838 0
M  V30 9558 O 924.485 0.189331 -2.51789 0
M  V30 9559 C 925.798 -2.76155 -1.18992 0
M  V30 9560 C 927.346 -2.84786 -1.29868 0
M  V30 9561 C 927.821 -4.2603 -1.68115 0
M  V30 9562 N 929.312 -4.28796 -1.75181 0
M  V30 9563 C 930.047 -5.35041 -2.062 0
M  V30 9564 N 929.543 -6.51543 -2.35508 0
M  V30 9565 N 931.336 -5.2245 -2.07371 0
M  V30 9566 H 923.487 -2.11042 0.23982 0
M  V30 9567 H 925.75 -0.946946 0.0446824 0
M  V30 9568 H 925.456 -3.49092 -0.427484 0
M  V30 9569 H 925.33 -3.10922 -2.13558 0
M  V30 9570 H 927.717 -2.12092 -2.05186 0
M  V30 9571 H 927.798 -2.53613 -0.333758 0
M  V30 9572 H 927.442 -4.99247 -0.933512 0
M  V30 9573 H 927.372 -4.5466 -2.65691 0
M  V30 9574 H 929.863 -3.44771 -1.5473 0
M  V30 9575 H 930.176 -7.28342 -2.58337 0
M  V30 9576 H 928.521 -6.54785 -2.32985 0
M  V30 9577 H 931.712 -4.30444 -1.83945 0
M  V30 9578 H 931.885 -6.05347 -2.31212 0
M  V30 9579 N 925.291 0.760815 -1.38019 0
M  V30 9580 C 926.239 1.89578 -1.34771 0
M  V30 9581 C 927.233 1.67766 -0.234714 0
M  V30 9582 O 928.439 1.75423 -0.403352 0
M  V30 9583 H 924.814 0.623608 -0.420258 0
M  V30 9584 H 926.785 1.89434 -2.30558 0
M  V30 9585 C 925.534 3.26976 -1.18246 0
M  V30 9586 H 924.857 3.44342 -2.03147 0
M  V30 9587 H 926.297 4.06657 -1.20026 0
M  V30 9588 C 924.756 3.36717 0.111145 0
M  V30 9589 O 925.286 3.86607 1.09079 0
M  V30 9590 N 923.492 2.90128 0.165542 0
M  V30 9591 H 923.039 2.49719 -0.632328 0
M  V30 9592 H 922.997 2.97026 1.03067 0
M  V30 9593 N 926.769 1.22769 0.988202 0
M  V30 9594 C 927.699 1.02627 2.09738 0
M  V30 9595 C 928.68 -0.0543211 1.70013 0
M  V30 9596 O 929.865 0.108811 1.93895 0
M  V30 9597 C 926.995 0.608302 3.41931 0
M  V30 9598 C 925.949 1.63536 3.95525 0
M  V30 9599 C 925.275 1.07308 5.23822 0
M  V30 9600 C 926.575 3.02649 4.25677 0
M  V30 9601 H 928.269 1.954 2.26847 0
M  V30 9602 H 925.815 0.940888 1.09011 0
M  V30 9603 H 927.768 0.454478 4.18942 0
M  V30 9604 H 926.492 -0.355095 3.24664 0
M  V30 9605 H 925.151 1.77704 3.20651 0
M  V30 9606 H 924.799 0.100894 5.02899 0
M  V30 9607 H 924.499 1.75925 5.60646 0
M  V30 9608 H 926.023 0.930938 6.03462 0
M  V30 9609 H 927.437 2.91828 4.93467 0
M  V30 9610 H 925.834 3.68434 4.73684 0
M  V30 9611 H 926.904 3.52228 3.33262 0
M  V30 9612 N 928.247 -1.18576 1.03814 0
M  V30 9613 C 929.194 -2.2212 0.626988 0
M  V30 9614 C 930.164 -1.62064 -0.363912 0
M  V30 9615 O 931.349 -1.89041 -0.258469 0
M  V30 9616 C 928.489 -3.45099 -0.00650133 0
M  V30 9617 C 927.602 -4.19503 1.03156 0
M  V30 9618 C 926.737 -5.29932 0.366852 0
M  V30 9619 C 925.776 -5.96104 1.39018 0
M  V30 9620 N 924.913 -6.98076 0.750625 0
M  V30 9621 H 929.753 -2.56646 1.51449 0
M  V30 9622 H 927.29 -1.26084 0.757702 0
M  V30 9623 H 929.248 -4.15363 -0.391108 0
M  V30 9624 H 927.878 -3.11201 -0.857536 0
M  V30 9625 H 926.93 -3.48092 1.53414 0
M  V30 9626 H 928.242 -4.64843 1.80893 0
M  V30 9627 H 927.396 -6.06657 -0.0720979 0
M  V30 9628 H 926.135 -4.85687 -0.442631 0
M  V30 9629 H 925.14 -5.18122 1.8393 0
M  V30 9630 H 926.365 -6.42432 2.20132 0
M  V30 9631 H 924.311 -6.55989 -0.0385981 0
M  V30 9632 H 924.228 -7.41655 1.46574 0
M  V30 9633 H 925.496 -7.78776 0.335986 0
M  V30 9634 N 929.725 -0.817259 -1.34754 0
M  V30 9635 C 930.971 -0.403244 -1.98751 0
M  V30 9636 C 931.304 1.02963 -1.64658 0
M  V30 9637 O 930.579 1.71617 -0.915314 0
M  V30 9638 C 930.862 -0.599188 -3.5508 0
M  V30 9639 C 930.715 -2.07777 -3.98934 0
M  V30 9640 C 932.034 -0.0315656 -4.40089 0
M  V30 9641 H 929.153 -0.147988 -0.721989 0
M  V30 9642 H 931.795 -1.02877 -1.59738 0
M  V30 9643 H 929.945 -0.0667116 -3.88443 0
M  V30 9644 H 931.617 -2.67345 -3.75931 0
M  V30 9645 H 929.86 -2.57031 -3.49453 0
M  V30 9646 H 930.531 -2.16571 -5.07741 0
M  V30 9647 H 933.007 -0.48644 -4.13247 0
M  V30 9648 H 931.883 -0.198507 -5.48541 0
M  V30 9649 H 932.144 1.06302 -4.2913 0
M  V30 9650 N 931.203 1.46865 -0.571711 0
M  V30 9651 C 932.48 1.95596 0.0132445 0
M  V30 9652 C 932.86 1.51438 1.47071 0
M  V30 9653 O 932.208 0.759917 2.15494 0
M  V30 9654 C 932.418 3.48689 -0.147335 0
M  V30 9655 C 933.766 4.24599 -0.00946329 0
M  V30 9656 O 934.79 3.5612 -0.0756112 0
M  V30 9657 O 933.649 5.46332 0.135361 0
M  V30 9658 H 930.743 0.825102 0.0560039 0
M  V30 9659 H 933.289 1.57199 -0.639256 0
M  V30 9660 H 932.061 3.73681 -1.16096 0
M  V30 9661 H 931.684 3.93887 0.542109 0
M  V30 9662 N 932.681 0.308908 1.54543 0
M  V30 9663 C 933.613 -0.597453 2.21276 0
M  V30 9664 C 934.626 -1.09137 1.20801 0
M  V30 9665 O 935.815 -1.00747 1.47351 0
M  V30 9666 C 932.915 -1.83085 2.85189 0
M  V30 9667 C 932.088 -1.4781 4.11669 0
M  V30 9668 C 931.147 -2.56748 4.59311 0
M  V30 9669 O 930.173 -2.21507 5.24331 0
M  V30 9670 N 931.375 -3.87427 4.32297 0
M  V30 9671 H 934.14 -0.0261183 2.99689 0
M  V30 9672 H 931.701 0.131456 1.61365 0
M  V30 9673 H 933.693 -2.55326 3.13992 0
M  V30 9674 H 932.263 -2.31039 2.1057 0
M  V30 9675 H 931.483 -0.587974 3.8979 0
M  V30 9676 H 932.771 -1.2179 4.94009 0
M  V30 9677 H 932.169 -4.18863 3.80224 0
M  V30 9678 H 930.726 -4.55942 4.6579 0
M  V30 9679 N 934.159 -1.57557 0.0367827 0
M  V30 9680 C 935.089 -2.13712 -0.940719 0
M  V30 9681 C 936.07 -1.05515 -1.33419 0
M  V30 9682 O 937.255 -1.33385 -1.41146 0
M  V30 9683 C 934.385 -2.67043 -2.22048 0
M  V30 9684 C 933.339 -3.80096 -1.96752 0
M  V30 9685 C 932.665 -4.19886 -3.31059 0
M  V30 9686 C 933.965 -5.05848 -1.30058 0
M  V30 9687 H 935.659 -2.9564 -0.473033 0
M  V30 9688 H 933.205 -1.42214 -0.226089 0
M  V30 9689 H 935.158 -3.04964 -2.90818 0
M  V30 9690 H 933.882 -1.82287 -2.70996 0
M  V30 9691 H 932.541 -3.42625 -1.30398 0
M  V30 9692 H 932.189 -3.32101 -3.77781 0
M  V30 9693 H 931.889 -4.96073 -3.14937 0
M  V30 9694 H 933.413 -4.60395 -4.01084 0
M  V30 9695 H 934.827 -5.41306 -1.8884 0
M  V30 9696 H 933.224 -5.87084 -1.24309 0
M  V30 9697 H 934.294 -4.84122 -0.274591 0
M  V30 9698 N 935.637 0.236453 -1.55816 0
M  V30 9699 C 936.884 0.963012 -1.78136 0
M  V30 9700 C 937.212 1.84918 -0.602952 0
M  V30 9701 O 936.467 1.91285 0.413325 0
M  V30 9702 C 936.766 1.84549 -3.06066 0
M  V30 9703 C 936.432 1.11381 -4.36927 0
M  V30 9704 C 935.094 0.911635 -4.72486 0
M  V30 9705 C 937.446 0.596 -5.17781 0
M  V30 9706 C 934.774 0.179515 -5.86425 0
M  V30 9707 C 937.126 -0.122702 -6.32481 0
M  V30 9708 C 935.79 -0.336263 -6.66652 0
M  V30 9709 H 935.06 0.352391 -0.651845 0
M  V30 9710 H 937.707 0.232295 -1.90086 0
M  V30 9711 H 936.012 2.6436 -2.89173 0
M  V30 9712 H 937.709 2.40953 -3.20535 0
M  V30 9713 H 934.299 1.28134 -4.08998 0
M  V30 9714 H 938.483 0.73971 -4.90757 0
M  V30 9715 H 933.739 0.00368224 -6.114 0
M  V30 9716 H 937.913 -0.531516 -6.94369 0
M  V30 9717 H 935.54 -0.905507 -7.54788 0
M  V30 9718 N 937.115 1.49373 0.502552 0
M  V30 9719 C 938.065 1.62321 1.60112 0
M  V30 9720 C 939.049 0.47895 1.53606 0
M  V30 9721 O 940.241 0.731824 1.61162 0
M  V30 9722 C 937.37 1.69162 2.98729 0
M  V30 9723 C 936.456 2.89161 3.10237 0
M  V30 9724 N 936.847 4.13256 2.91638 0
M  V30 9725 C 935.145 2.87065 3.41335 0
M  V30 9726 C 935.846 4.93913 3.07287 0
M  V30 9727 N 934.822 4.27249 3.36094 0
M  V30 9728 H 938.624 2.55989 1.44384 0
M  V30 9729 H 936.138 1.46123 0.708644 0
M  V30 9730 H 938.135 1.76536 3.77678 0
M  V30 9731 H 936.795 0.766301 3.15528 0
M  V30 9732 H 937.806 4.4326 2.67844 0
M  V30 9733 H 934.483 2.03905 3.6432 0
M  V30 9734 H 935.873 6.02491 2.97413 0
M  V30 9735 N 938.594 -0.753485 1.38421 0
M  V30 9736 C 939.524 -1.8808 1.38377 0
M  V30 9737 C 940.505 -1.68258 0.249664 0
M  V30 9738 O 941.69 -1.88848 0.45276 0
M  V30 9739 C 938.82 -3.25608 1.20818 0
M  V30 9740 C 937.774 -3.60032 2.31433 0
M  V30 9741 C 937.1 -4.96297 1.9898 0
M  V30 9742 C 938.4 -3.64898 3.73694 0
M  V30 9743 H 940.094 -1.88375 2.32713 0
M  V30 9744 H 937.64 -0.90489 1.12017 0
M  V30 9745 H 939.593 -4.04127 1.19412 0
M  V30 9746 H 938.317 -3.25793 0.229433 0
M  V30 9747 H 936.976 -2.83831 2.32025 0
M  V30 9748 H 936.624 -4.93043 0.995889 0
M  V30 9749 H 936.324 -5.20298 2.73063 0
M  V30 9750 H 937.848 -5.77196 1.99193 0
M  V30 9751 H 939.262 -4.33531 3.75132 0
M  V30 9752 H 937.659 -4.00407 4.46983 0
M  V30 9753 H 938.729 -2.65124 4.06002 0
M  V30 9754 N 940.072 -1.23292 -0.981677 0
M  V30 9755 C 941.297 -1.09176 -1.76339 0
M  V30 9756 C 941.722 0.352726 -1.84763 0
M  V30 9757 O 941.08 1.25509 -1.30832 0
M  V30 9758 C 941.128 -1.72046 -3.16911 0
M  V30 9759 O 940.232 -0.98174 -4.00544 0
M  V30 9760 H 939.573 -0.382755 -0.542581 0
M  V30 9761 H 942.103 -1.63319 -1.23239 0
M  V30 9762 H 942.113 -1.77232 -3.67495 0
M  V30 9763 H 940.788 -2.77154 -3.10095 0
M  V30 9764 H 939.365 -1.00672 -3.59054 0
M  V30 9765 N 941.55 1.18024 -1.04442 0
M  V30 9766 C 942.775 1.92573 -0.770097 0
M  V30 9767 C 943.2 1.75871 0.667169 0
M  V30 9768 O 942.558 1.07136 1.46258 0
M  V30 9769 C 942.606 3.41904 -1.14602 0
M  V30 9770 O 941.71 4.11491 -0.273712 0
M  V30 9771 H 941.051 0.600636 -0.283076 0
M  V30 9772 H 943.581 1.49645 -1.39526 0
M  V30 9773 H 943.591 3.92623 -1.10956 0
M  V30 9774 H 942.266 3.53382 -2.19304 0
M  V30 9775 H 940.843 3.71059 -0.370124 0
M  V30 9776 N 943.028 0.824394 1.34319 0
M  V30 9777 C 944.444 0.510336 1.51221 0
M  V30 9778 C 944.644 -0.965201 1.76879 0
M  V30 9779 O 943.7 -1.74961 1.82057 0
M  V30 9780 C 945.013 1.37114 2.6762 0
M  V30 9781 C 946.561 1.36842 2.81502 0
M  V30 9782 C 947.036 2.21374 4.00946 0
M  V30 9783 N 948.527 2.19005 4.08156 0
M  V30 9784 C 949.262 2.81159 4.99737 0
M  V30 9785 N 948.758 3.52309 5.96532 0
M  V30 9786 N 950.551 2.70706 4.9262 0
M  V30 9787 H 942.702 1.77976 1.15924 0
M  V30 9788 H 944.965 0.758503 0.568663 0
M  V30 9789 H 944.671 2.41905 2.55294 0
M  V30 9790 H 944.545 1.03689 3.62669 0
M  V30 9791 H 946.932 0.328284 2.93268 0
M  V30 9792 H 947.013 1.74265 1.87257 0
M  V30 9793 H 946.657 3.25437 3.8994 0
M  V30 9794 H 946.587 1.813 4.94407 0
M  V30 9795 H 949.078 1.67252 3.38874 0
M  V30 9796 H 949.391 3.96977 6.63045 0
M  V30 9797 H 947.736 3.56415 5.96652 0
M  V30 9798 H 950.927 2.14694 4.15962 0
M  V30 9799 H 951.1 3.19431 5.63798 0
M  V30 9800 N 944.506 -1.46559 0.579492 0
M  V30 9801 C 945.731 -2.0729 0.0674595 0
M  V30 9802 C 946.156 -1.4259 -1.22677 0
M  V30 9803 O 945.514 -0.50857 -1.74021 0
M  V30 9804 C 945.562 -3.60492 -0.0882227 0
M  V30 9805 O 944.666 -3.96172 -1.14551 0
M  V30 9806 H 944.007 -0.661159 0.0613536 0
M  V30 9807 H 946.537 -1.88247 0.801519 0
M  V30 9808 H 946.547 -4.06929 -0.295411 0
M  V30 9809 H 945.222 -4.06976 0.856943 0
M  V30 9810 H 943.799 -3.61448 -0.917033 0
M  V30 9811 N 945.984 -0.3171 -1.54377 0
M  V30 9812 C 947.4 0.035766 -1.5956 0
M  V30 9813 C 947.6 1.51038 -1.33378 0
M  V30 9814 O 946.656 2.26546 -1.11505 0
M  V30 9815 C 947.969 -0.376652 -2.98332 0
M  V30 9816 C 949.517 -0.326765 -3.1129 0
M  V30 9817 C 949.992 -0.714247 -4.52396 0
M  V30 9818 N 951.483 -0.667402 -4.58367 0
M  V30 9819 C 952.218 -0.939494 -5.65651 0
M  V30 9820 N 951.714 -1.27839 -6.80903 0
M  V30 9821 N 953.507 -0.865484 -5.55397 0
M  V30 9822 H 945.658 -1.27794 -1.69654 0
M  V30 9823 H 947.921 -0.5192 -0.79318 0
M  V30 9824 H 947.627 -1.40381 -3.22469 0
M  V30 9825 H 947.501 0.261611 -3.76292 0
M  V30 9826 H 949.888 0.69117 -2.86892 0
M  V30 9827 H 949.969 -0.999873 -2.35449 0
M  V30 9828 H 949.613 -1.73007 -4.77526 0
M  V30 9829 H 949.543 -0.0188962 -5.26597 0
M  V30 9830 H 952.034 -0.417062 -3.75592 0
M  V30 9831 H 952.347 -1.47155 -7.5866 0
M  V30 9832 H 950.692 -1.31658 -6.82416 0
M  V30 9833 H 953.883 -0.600265 -4.64235 0
M  V30 9834 H 954.056 -1.0809 -6.38921 0
M  V30 9835 N 947.462 1.57535 -0.0451378 0
M  V30 9836 C 948.425 2.1008 0.916461 0
M  V30 9837 C 949.425 1.01913 1.2438 0
M  V30 9838 O 950.615 1.2801 1.18148 0
M  V30 9839 C 947.747 2.58001 2.22818 0
M  V30 9840 H 948.94 2.96334 0.461076 0
M  V30 9841 H 946.493 1.54974 0.203169 0
M  V30 9842 H 947.228 1.75123 2.72951 0
M  V30 9843 H 947.013 3.3704 2.00366 0
M  V30 9844 H 948.503 2.98822 2.9171 0
M  V30 9845 N 948.94 -0.228186 1.55939 0
M  V30 9846 C 950.217 -0.977492 1.69424 0
M  V30 9847 C 950.597 -2.02674 0.590479 0
M  V30 9848 O 949.945 -2.2491 -0.403467 0
M  V30 9849 C 950.155 -1.59394 3.10475 0
M  V30 9850 C 951.503 -2.08871 3.69673 0
M  V30 9851 O 952.527 -1.693 3.13394 0
M  V30 9852 O 951.386 -2.81584 4.68372 0
M  V30 9853 H 948.48 -0.456185 0.6898 0
M  V30 9854 H 951.026 -0.220492 1.68261 0
M  V30 9855 H 949.798 -0.835971 3.82266 0
M  V30 9856 H 949.421 -2.41665 3.15727 0
M  V30 9857 N 950.418 -1.49637 -0.494624 0
M  V30 9858 C 951.658 -1.61067 -1.25844 0
M  V30 9859 C 952.022 -0.293666 -1.89741 0
M  V30 9860 O 953.223 -0.283202 -2.67304 0
M  V30 9861 C 951.494 -2.74218 -2.29215 0
M  V30 9862 S 953.053 -3.05639 -3.1485 0
M  V30 9863 H 949.871 -0.568056 -0.42759 0
M  V30 9864 H 952.473 -1.87323 -0.559491 0
M  V30 9865 H 951.177 -3.68422 -1.80813 0
M  V30 9866 H 950.708 -2.49975 -3.0377 0
M  V30 9867 H 952.723 -2.47651 -4.29981 0
M  V30 9868 N 951.896 0.746133 -1.38819 0
M  V30 9869 C 953.142 1.50669 -1.3664 0
M  V30 9870 C 953.497 1.92356 0.0411513 0
M  V30 9871 O 952.79 1.63104 1.00537 0
M  V30 9872 C 952.984 2.76639 -2.26286 0
M  V30 9873 C 952.813 2.47268 -3.75618 0
M  V30 9874 C 951.583 2.40116 -4.44603 0
M  V30 9875 C 953.781 2.13548 -4.67869 0
M  V30 9876 N 951.763 2.03098 -5.79331 0
M  V30 9877 C 953.134 1.86883 -5.91164 0
M  V30 9878 C 955.189 1.99922 -4.56 0
M  V30 9879 C 953.892 1.47965 -7.03917 0
M  V30 9880 C 955.918 1.62406 -5.68664 0
M  V30 9881 C 955.28 1.36618 -6.91025 0
M  V30 9882 H 951.379 0.550624 -0.555282 0
M  V30 9883 H 953.963 0.868179 -1.74272 0
M  V30 9884 H 952.134 3.38287 -1.9083 0
M  V30 9885 H 953.866 3.42753 -2.1518 0
M  V30 9886 H 950.621 2.56839 -3.97908 0
M  V30 9887 H 951.045 1.87214 -6.506 0
M  V30 9888 H 955.687 2.18531 -3.61945 0
M  V30 9889 H 953.405 1.28096 -7.97883 0
M  V30 9890 H 956.991 1.52483 -5.61462 0
M  V30 9891 H 955.871 1.08021 -7.76725 0
M  V30 9892 N 953.375 1.23811 0.975125 0
M  V30 9893 C 954.791 1.0019 1.24234 0
M  V30 9894 C 954.991 -0.293811 1.99346 0
M  V30 9895 O 954.047 -1.01189 2.31337 0
M  V30 9896 C 955.36 2.21218 2.03674 0
M  V30 9897 C 956.908 2.25764 2.16793 0
M  V30 9898 C 957.383 3.46394 2.99626 0
M  V30 9899 N 958.874 3.46665 3.07209 0
M  V30 9900 C 959.609 4.3666 3.71639 0
M  V30 9901 N 959.105 5.36899 4.37849 0
M  V30 9902 N 960.898 4.2439 3.68578 0
M  V30 9903 H 953.049 2.07087 0.472076 0
M  V30 9904 H 955.312 0.90838 0.271201 0
M  V30 9905 H 955.018 3.15277 1.55862 0
M  V30 9906 H 954.892 2.22733 3.04417 0
M  V30 9907 H 957.279 1.32242 2.63811 0
M  V30 9908 H 957.36 2.28279 1.15422 0
M  V30 9909 H 957.004 4.40227 2.53304 0
M  V30 9910 H 956.934 3.41121 4.01178 0
M  V30 9911 H 959.425 2.74142 2.60105 0
M  V30 9912 H 959.738 6.01816 4.84807 0
M  V30 9913 H 958.083 5.40793 4.36541 0
M  V30 9914 H 961.274 3.4532 3.16025 0
M  V30 9915 H 961.447 4.94727 4.18508 0
M  V30 9916 N 954.853 -1.17469 1.05066 0
M  V30 9917 C 956.102 -1.87032 0.755114 0
M  V30 9918 C 956.415 -1.81844 -0.720572 0
M  V30 9919 O 957.621 -2.46866 -1.13002 0
M  V30 9920 C 956.077 -3.35581 1.30052 0
M  V30 9921 C 955.685 -3.49274 2.80556 0
M  V30 9922 C 957.429 -4.1048 1.08196 0
M  V30 9923 C 955.336 -4.91838 3.28404 0
M  V30 9924 H 954.266 -0.70057 0.278779 0
M  V30 9925 H 956.917 -1.32663 1.26779 0
M  V30 9926 H 955.299 -3.89479 0.715667 0
M  V30 9927 H 956.473 -3.05598 3.44886 0
M  V30 9928 H 954.788 -2.87793 3.00939 0
M  V30 9929 H 957.385 -5.15652 1.41447 0
M  V30 9930 H 957.728 -4.16295 0.0196603 0
M  V30 9931 H 958.261 -3.62784 1.63195 0
M  V30 9932 H 955 -4.91196 4.34058 0
M  V30 9933 H 954.52 -5.36189 2.68815 0
M  V30 9934 H 956.199 -5.60602 3.23009 0
M  V30 9935 N 956.331 -0.831506 -1.3388 0
M  V30 9936 C 957.261 -0.274378 -2.31882 0
M  V30 9937 C 958.242 0.613872 -1.58637 0
M  V30 9938 O 959.427 0.538961 -1.86571 0
M  V30 9939 C 956.557 0.557498 -3.42796 0
M  V30 9940 C 955.511 -0.234337 -4.27358 0
M  V30 9941 C 954.837 0.720825 -5.29819 0
M  V30 9942 C 956.137 -1.44732 -5.01847 0
M  V30 9943 H 957.831 -1.09322 -2.78728 0
M  V30 9944 H 955.377 -0.527136 -1.34005 0
M  V30 9945 H 957.33 0.957501 -4.10378 0
M  V30 9946 H 956.054 1.40947 -2.94621 0
M  V30 9947 H 954.713 -0.61581 -3.61391 0
M  V30 9948 H 954.361 1.569 -4.77903 0
M  V30 9949 H 954.061 0.195171 -5.87276 0
M  V30 9950 H 955.585 1.1185 -6.00268 0
M  V30 9951 H 956.999 -1.12087 -5.62236 0
M  V30 9952 H 955.396 -1.90923 -5.68919 0
M  V30 9953 H 956.466 -2.22099 -4.31045 0
M  V30 9954 N 957.809 1.4625 -0.587256 0
M  V30 9955 C 958.719 2.34147 0.145744 0
M  V30 9956 C 959.735 1.50026 0.881376 0
M  V30 9957 O 960.911 1.82884 0.843539 0
M  V30 9958 C 957.976 3.27294 1.14366 0
M  V30 9959 C 957.037 4.27317 0.412199 0
M  V30 9960 C 956.27 5.16013 1.36257 0
M  V30 9961 O 956.493 5.0773 2.59934 0
M  V30 9962 O 955.427 5.95569 0.870681 0
M  V30 9963 H 959.253 2.98187 -0.576055 0
M  V30 9964 H 956.838 1.45299 -0.347628 0
M  V30 9965 H 958.72 3.84747 1.71894 0
M  V30 9966 H 957.395 2.65845 1.84684 0
M  V30 9967 H 956.302 3.73538 -0.205036 0
M  V30 9968 H 957.635 4.91564 -0.250104 0
M  V30 9969 N 959.287 0.325282 1.54207 0
M  V30 9970 C 960.237 -0.55548 2.2113 0
M  V30 9971 C 961.221 -1.0803 1.19241 0
M  V30 9972 O 962.413 -1.01703 1.44864 0
M  V30 9973 C 959.542 -1.71504 2.97391 0
M  V30 9974 C 958.628 -1.20503 4.0662 0
M  V30 9975 N 959.019 -0.414838 5.04096 0
M  V30 9976 C 957.317 -1.4836 4.20601 0
M  V30 9977 C 958.018 -0.140225 5.81531 0
M  V30 9978 N 956.994 -0.72683 5.38719 0
M  V30 9979 H 960.796 0.0555192 2.93848 0
M  V30 9980 H 958.31 0.131225 1.61869 0
M  V30 9981 H 960.307 -2.35781 3.43821 0
M  V30 9982 H 958.967 -2.3295 2.26195 0
M  V30 9983 H 959.978 -0.0575291 5.17868 0
M  V30 9984 H 956.655 -2.10378 3.60621 0
M  V30 9985 H 958.045 0.496026 6.70067 0
M  V30 9986 N 960.765 -1.57509 0.0534917 0
M  V30 9987 C 961.995 -1.96812 -0.628386 0
M  V30 9988 C 962.403 -0.929808 -1.64776 0
M  V30 9989 O 961.746 0.0941155 -1.83459 0
M  V30 9990 C 961.808 -3.32361 -1.37027 0
M  V30 9991 C 961.472 -4.54185 -0.506465 0
M  V30 9992 C 962.469 -5.19398 0.228412 0
M  V30 9993 C 960.154 -5.00398 -0.43671 0
M  V30 9994 C 962.148 -6.29162 1.02146 0
M  V30 9995 C 959.835 -6.10039 0.360022 0
M  V30 9996 C 960.833 -6.74282 1.08779 0
M  V30 9997 O 960.521 -7.81814 1.87142 0
M  V30 9998 H 960.253 -0.65257 -0.176432 0
M  V30 9999 H 962.807 -2.05067 0.116908 0
M  V30 10000 H 961.037 -3.20667 -2.16125 0
M  V30 10001 H 962.726 -3.56395 -1.94261 0
M  V30 10002 H 963.492 -4.84651 0.184003 0
M  V30 10003 H 959.371 -4.50183 -0.992772 0
M  V30 10004 H 962.915 -6.79238 1.59002 0
M  V30 10005 H 958.812 -6.44222 0.406061 0
M  V30 10006 H 959.58 -7.98602 1.79378 0
M  V30 10007 N 962.243 0.219913 -1.56058 0
M  V30 10008 C 963.175 1.29604 -1.89038 0
M  V30 10009 C 964.188 1.42964 -0.778791 0
M  V30 10010 O 965.377 1.43832 -1.0571 0
M  V30 10011 C 962.477 2.67145 -2.08534 0
M  V30 10012 C 961.65 2.75712 -3.39561 0
M  V30 10013 C 960.709 3.94279 -3.48469 0
M  V30 10014 O 959.735 3.8254 -4.21487 0
M  V30 10015 N 960.937 5.08655 -2.79732 0
M  V30 10016 H 963.702 1.01638 -2.81939 0
M  V30 10017 H 961.263 0.409945 -1.56624 0
M  V30 10018 H 963.255 3.44847 -2.11808 0
M  V30 10019 H 961.825 2.87704 -1.2225 0
M  V30 10020 H 961.045 1.84475 -3.48371 0
M  V30 10021 H 962.333 2.78407 -4.25872 0
M  V30 10022 H 961.731 5.21088 -2.2019 0
M  V30 10023 H 960.288 5.84394 -2.88665 0
M  V30 10024 N 963.721 1.49897 0.486681 0
M  V30 10025 C 964.967 1.61313 1.23893 0
M  V30 10026 C 965.322 0.302457 1.90008 0
M  V30 10027 O 964.615 -0.698466 1.78415 0
M  V30 10028 C 964.809 2.71982 2.31863 0
M  V30 10029 C 964.638 4.13685 1.76338 0
M  V30 10030 C 963.408 4.8029 1.57002 0
M  V30 10031 C 965.606 4.98446 1.26711 0
M  V30 10032 N 963.588 6.06259 0.965564 0
M  V30 10033 C 964.959 6.15011 0.784912 0
M  V30 10034 C 967.014 4.84338 1.15419 0
M  V30 10035 C 965.717 7.19019 0.200942 0
M  V30 10036 C 967.743 5.88508 0.584173 0
M  V30 10037 C 967.105 7.04311 0.112272 0
M  V30 10038 H 963.204 0.644555 0.442801 0
M  V30 10039 H 965.788 1.86959 0.543562 0
M  V30 10040 H 963.959 2.48086 2.98844 0
M  V30 10041 H 965.691 2.72842 2.98897 0
M  V30 10042 H 962.446 4.37324 1.81781 0
M  V30 10043 H 962.87 6.73554 0.6822 0
M  V30 10044 H 967.512 3.95107 1.50499 0
M  V30 10045 H 965.23 8.07937 -0.162099 0
M  V30 10046 H 968.816 5.79653 0.49938 0
M  V30 10047 H 967.696 7.83539 -0.321907 0
M  V30 10048 N 965.199 -0.738761 1.39212 0
M  V30 10049 C 966.476 -1.48982 1.26742 0
M  V30 10050 C 966.856 -2.10732 -0.12466 0
M  V30 10051 O 966.204 -1.98287 -1.13554 0
M  V30 10052 C 966.414 -2.54427 2.38889 0
M  V30 10053 C 967.762 -3.20915 2.78027 0
M  V30 10054 O 968.786 -2.64738 2.38311 0
M  V30 10055 O 967.645 -4.22558 3.46565 0
M  V30 10056 H 964.739 -0.661395 0.496473 0
M  V30 10057 H 967.285 -0.772907 1.51077 0
M  V30 10058 H 966.057 -2.07151 3.3197 0
M  V30 10059 H 965.68 -3.33682 2.162 0
M  V30 10060 N 966.677 -1.24326 -0.968545 0
M  V30 10061 C 967.607 -1.05951 -2.08079 0
M  V30 10062 C 968.588 0.0272666 -1.70078 0
M  V30 10063 O 969.773 -0.139644 -1.93697 0
M  V30 10064 C 966.903 -0.662623 -3.4092 0
M  V30 10065 C 965.857 -1.69807 -3.92873 0
M  V30 10066 C 965.183 -1.15628 -5.22048 0
M  V30 10067 C 966.483 -3.09383 -4.20808 0
M  V30 10068 H 968.177 -1.98984 -2.23709 0
M  V30 10069 H 965.723 -0.958112 -1.075 0
M  V30 10070 H 967.676 -0.521071 -4.18166 0
M  V30 10071 H 966.4 0.303399 -3.25188 0
M  V30 10072 H 965.059 -1.82783 -3.17783 0
M  V30 10073 H 964.707 -0.180888 -5.02675 0
M  V30 10074 H 964.407 -1.84822 -5.57776 0
M  V30 10075 H 965.931 -1.02683 -6.01904 0
M  V30 10076 H 967.345 -2.99642 -4.88761 0
M  V30 10077 H 965.742 -3.75923 -4.67763 0
M  V30 10078 H 966.812 -3.57486 -3.27616 0
M  V30 10079 N 968.156 1.1691 -1.05688 0
M  V30 10080 C 969.381 1.91745 -0.790478 0
M  V30 10081 C 969.806 1.76568 0.648478 0
M  V30 10082 O 969.164 1.08682 1.45114 0
M  V30 10083 C 969.212 3.4067 -1.18222 0
M  V30 10084 O 968.316 4.11177 -0.317341 0
M  V30 10085 H 967.657 0.5976 -0.28943 0
M  V30 10086 H 970.187 1.48157 -1.41105 0
M  V30 10087 H 970.197 3.91424 -1.15114 0
M  V30 10088 H 968.872 3.51036 -2.2304 0
M  V30 10089 H 967.449 3.70645 -0.409459 0
M  V30 10090 N 969.634 0.838594 1.33437 0
M  V30 10091 C 970.597 0.276843 2.27522 0
M  V30 10092 C 971.597 -0.554275 1.50945 0
M  V30 10093 O 972.787 -0.368107 1.70266 0
M  V30 10094 C 969.919 -0.610036 3.35397 0
M  V30 10095 H 971.112 1.10705 2.78719 0
M  V30 10096 H 968.665 0.611657 1.43835 0
M  V30 10097 H 969.4 -1.46269 2.89441 0
M  V30 10098 H 969.185 -0.0153615 3.92097 0
M  V30 10099 H 970.675 -0.996368 4.05539 0
M  V30 10100 N 971.112 -1.45937 0.595003 0
M  V30 10101 C 972.075 -2.2888 -0.121102 0
M  V30 10102 C 973.075 -1.39075 -0.807149 0
M  V30 10103 O 974.265 -1.61326 -0.657228 0
M  V30 10104 C 971.397 -3.19778 -1.1813 0
M  V30 10105 H 972.59 -2.93673 0.607968 0
M  V30 10106 H 970.143 -1.5225 0.353495 0
M  V30 10107 H 970.878 -2.59759 -1.94154 0
M  V30 10108 H 970.663 -3.85914 -0.693724 0
M  V30 10109 H 972.153 -3.82176 -1.68319 0
M  V30 10110 N 972.59 -0.333456 -1.54032 0
M  V30 10111 C 973.815 0.270517 -2.05628 0
M  V30 10112 C 974.24 1.44231 -1.20744 0
M  V30 10113 O 973.598 1.79975 -0.218822 0
M  V30 10114 C 973.646 0.673251 -3.54259 0
M  V30 10115 O 972.75 1.77448 -3.72271 0
M  V30 10116 H 972.091 0.0469753 -0.662336 0
M  V30 10117 H 974.621 -0.484739 -1.98775 0
M  V30 10118 H 974.631 0.953194 -3.96709 0
M  V30 10119 H 973.306 -0.183747 -4.15494 0
M  V30 10120 H 971.883 1.49259 -3.41725 0
M  V30 10121 N 974.068 1.57479 -0.061844 0
M  V30 10122 C 975.484 1.56855 0.294753 0
M  V30 10123 C 975.684 1.07042 1.70717 0
M  V30 10124 O 974.74 0.731817 2.41662 0
M  V30 10125 C 976.053 3.00486 0.113484 0
M  V30 10126 C 977.601 3.1246 0.183778 0
M  V30 10127 C 978.076 4.5799 0.0309092 0
M  V30 10128 N 979.567 4.63119 0.0868393 0
M  V30 10129 C 980.302 5.734 -0.00717446 0
M  V30 10130 N 979.798 6.92628 -0.154144 0
M  V30 10131 N 981.591 5.62078 0.0491763 0
M  V30 10132 H 973.742 1.88176 -0.985058 0
M  V30 10133 H 976.005 0.867051 -0.383309 0
M  V30 10134 H 975.711 3.41004 -0.86075 0
M  V30 10135 H 975.585 3.67029 0.870023 0
M  V30 10136 H 977.972 2.71834 1.14849 0
M  V30 10137 H 978.053 2.48574 -0.603697 0
M  V30 10138 H 977.697 4.99303 -0.930526 0
M  V30 10139 H 977.627 5.19895 0.837664 0
M  V30 10140 H 980.118 3.77374 0.199245 0
M  V30 10141 H 980.431 7.72492 -0.218296 0
M  V30 10142 H 978.776 6.94742 -0.189372 0
M  V30 10143 H 981.967 4.67817 0.162626 0
M  V30 10144 H 982.14 6.47994 -0.0275478 0
M  V30 10145 N 975.546 -0.211634 1.56173 0
M  V30 10146 C 976.776 -0.949805 1.83473 0
M  V30 10147 C 977.184 -1.78045 0.640053 0
M  V30 10148 O 976.527 -1.79277 -0.400702 0
M  V30 10149 C 976.589 -1.90868 3.04647 0
M  V30 10150 C 976.253 -1.26159 4.39241 0
M  V30 10151 C 977.25 -0.646597 5.15863 0
M  V30 10152 C 974.935 -1.27039 4.85969 0
M  V30 10153 C 976.929 -0.0490313 6.37381 0
M  V30 10154 C 974.616 -0.668987 6.07427 0
M  V30 10155 C 975.614 -0.0593687 6.82974 0
M  V30 10156 O 975.302 0.532656 8.02133 0
M  V30 10157 H 975.034 -0.283458 0.6137 0
M  V30 10158 H 977.588 -0.22894 2.0412 0
M  V30 10159 H 975.818 -2.6688 2.79843 0
M  V30 10160 H 977.507 -2.51323 3.18734 0
M  V30 10161 H 978.273 -0.632056 4.80864 0
M  V30 10162 H 974.152 -1.73429 4.27134 0
M  V30 10163 H 977.696 0.427414 6.96289 0
M  V30 10164 H 973.593 -0.680975 6.41898 0
M  V30 10165 H 974.361 0.427942 8.17381 0
M  V30 10166 N 977.024 -1.50153 -0.478725 0
M  V30 10167 C 978.27 -1.60998 -1.23318 0
M  V30 10168 C 978.603 -0.305868 -1.91776 0
M  V30 10169 O 977.878 0.692158 -1.81767 0
M  V30 10170 C 978.161 -2.78495 -2.28282 0
M  V30 10171 C 978.014 -4.18767 -1.64178 0
M  V30 10172 C 979.333 -2.91569 -3.2966 0
M  V30 10173 H 976.452 -0.585983 -0.446982 0
M  V30 10174 H 979.094 -1.82514 -0.528063 0
M  V30 10175 H 977.244 -2.60281 -2.8842 0
M  V30 10176 H 978.916 -4.48552 -1.07696 0
M  V30 10177 H 977.159 -4.23379 -0.94514 0
M  V30 10178 H 977.83 -4.96894 -2.40417 0
M  V30 10179 H 980.306 -3.08219 -2.79536 0
M  V30 10180 H 979.182 -3.75419 -4.0044 0
M  V30 10181 H 979.443 -2.01859 -3.93326 0
M  V30 10182 N 978.502 0.731368 -1.39602 0
M  V30 10183 C 979.432 1.85855 -1.41351 0
M  V30 10184 C 980.413 1.67839 -0.2764 0
M  V30 10185 O 981.598 1.88104 -0.482747 0
M  V30 10186 C 978.728 3.23644 -1.25983 0
M  V30 10187 C 977.682 3.56304 -2.37132 0
M  V30 10188 C 977.008 4.93069 -2.0685 0
M  V30 10189 C 978.308 3.58906 -3.79452 0
M  V30 10190 H 980.002 1.84648 -2.3568 0
M  V30 10191 H 977.548 0.886955 -1.13442 0
M  V30 10192 H 979.501 4.02176 -1.25826 0
M  V30 10193 H 978.225 3.25387 -0.281234 0
M  V30 10194 H 976.884 2.80104 -2.36511 0
M  V30 10195 H 976.532 4.91396 -1.0742 0
M  V30 10196 H 976.232 5.15888 -2.81306 0
M  V30 10197 H 977.756 5.73953 -2.0835 0
M  V30 10198 H 979.17 4.27508 -3.81982 0
M  V30 10199 H 977.567 3.93246 -4.53297 0
M  V30 10200 H 978.637 2.58631 -4.10168 0
M  V30 10201 N 979.98 1.24838 0.961938 0
M  V30 10202 C 980.943 1.04674 2.03902 0
M  V30 10203 C 981.943 0.00204674 1.608 0
M  V30 10204 O 983.133 0.243555 1.72489 0
M  V30 10205 C 980.265 0.587736 3.35795 0
M  V30 10206 H 981.458 2.00278 2.23223 0
M  V30 10207 H 979.011 1.07142 1.138 0
M  V30 10208 H 979.746 -0.371244 3.22168 0
M  V30 10209 H 979.531 1.34182 3.68426 0
M  V30 10210 H 981.021 0.467867 4.14971 0
M  V30 10211 N 981.458 -1.16348 1.06306 0
M  V30 10212 C 982.874 -1.38873 0.786543 0
M  V30 10213 C 983.074 -1.91915 -0.614061 0
M  V30 10214 O 982.13 -2.11804 -1.3746 0
M  V30 10215 C 983.443 -2.36936 1.85154 0
M  V30 10216 C 984.991 -2.5062 1.87506 0
M  V30 10217 C 985.466 -3.51965 2.9306 0
M  V30 10218 N 986.957 -3.59492 2.92095 0
M  V30 10219 C 987.692 -4.37699 3.70415 0
M  V30 10220 N 987.188 -5.19327 4.58553 0
M  V30 10221 N 988.981 -4.32683 3.58806 0
M  V30 10222 H 981.132 -0.802542 1.96655 0
M  V30 10223 H 983.395 -0.415304 0.852189 0
M  V30 10224 H 983.101 -2.05056 2.85736 0
M  V30 10225 H 982.975 -3.36585 1.70267 0
M  V30 10226 H 985.362 -2.81804 0.875827 0
M  V30 10227 H 985.443 -1.51006 2.06472 0
M  V30 10228 H 985.087 -3.21518 3.93177 0
M  V30 10229 H 985.017 -4.51309 2.71344 0
M  V30 10230 H 987.508 -3.01222 2.28197 0
M  V30 10231 H 987.821 -5.76216 5.1497 0
M  V30 10232 H 986.166 -5.1867 4.62608 0
M  V30 10233 H 989.357 -3.67971 2.89335 0
M  V30 10234 H 989.53 -4.93386 4.20088 0
M  V30 10235 N 982.937 -0.845659 -1.3299 0
M  V30 10236 C 984.348 -0.50048 -1.79867 0
M  V30 10237 C 984.699 0.981027 -1.69913 0
M  V30 10238 O 983.824 1.76477 -1.25239 0
M  V30 10239 C 984.419 -0.901679 -3.26581 0
M  V30 10240 C 982.978 -0.608536 -3.71448 0
M  V30 10241 C 982.125 -1.10632 -2.54275 0
M  V30 10242 H 985.076 -1.03372 -1.20416 0
M  V30 10243 H 985.097 -0.214433 -3.79895 0
M  V30 10244 H 984.609 -1.97998 -3.33794 0
M  V30 10245 H 982.71 0.459416 -3.69757 0
M  V30 10246 H 982.823 -1.16853 -4.64631 0
M  V30 10247 H 981.187 -0.526925 -2.4919 0
M  V30 10248 H 981.97 -2.19154 -2.64247 0
M  V30 10249 O 984.454 1.43385 -0.743168 0
M  V30 10250 H 985.145 1.91402 -0.297468 0
M  V30 END ATOM
M  V30 BEGIN BOND
M  V30 END BOND
M  V30 END CTAB
M  END
$$$$
