drugbank_target|Q9UJ68 Mitochondrial peptide methionine sulfoxide reductase (DB04447)
 OpenBabel12092119253D

  0  0  0     0  0            999 V3000
M  V30 BEGIN CTAB
M  V30 COUNTS 3610 3660 0 0 0
M  V30 BEGIN ATOM
M  V30 1 H -0.908 1.98254 -0.117106 0
M  V30 2 N 0 1.576 0 0
M  V30 3 C 0.933 2.03868 1.02534 0
M  V30 4 C 1.911 0.928543 1.3348 0
M  V30 5 O 3.095 1.19667 1.45644 0
M  V30 6 C 0.222 2.43627 2.35294 0
M  V30 7 C -0.732 3.65373 2.2001 0
M  V30 8 S 0.101 5.13292 1.52614 0
M  V30 9 C 1.257 5.56322 2.86805 0
M  V30 10 H 1.49 2.90518 0.631377 0
M  V30 11 H -0.977 1.52953 0.210867 0
M  V30 12 H 0.981 2.67203 3.11629 0
M  V30 13 H -0.358 1.57376 2.7183 0
M  V30 14 H -1.165 3.90944 3.18086 0
M  V30 15 H -1.563 3.418 1.51819 0
M  V30 16 H 0.729 5.58782 3.83104 0
M  V30 17 H 1.672 6.56266 2.65933 0
M  V30 18 H 2.08 4.83886 2.90714 0
M  V30 19 N 1.4781 -0.272755 1.55222 0
M  V30 20 C 2.4081 -1.34136 1.91127 0
M  V30 21 C 3.3891 -1.51513 0.773168 0
M  V30 22 O 4.5741 -1.64552 1.03132 0
M  V30 23 C 1.7041 -2.70083 2.1834 0
M  V30 24 C 0.6581 -2.67437 3.34158 0
M  V30 25 C -0.0159 -4.06938 3.46851 0
M  V30 26 C 1.2841 -2.26686 4.70543 0
M  V30 27 H 2.9781 -1.04333 2.80633 0
M  V30 28 H 0.5241 -0.500454 1.35024 0
M  V30 29 H 2.4771 -3.44952 2.42046 0
M  V30 30 H 1.2011 -3.01469 1.25634 0
M  V30 31 H -0.1399 -1.95026 3.1042 0
M  V30 32 H -0.4919 -4.35547 2.51611 0
M  V30 33 H -0.7919 -4.06062 4.2472 0
M  V30 34 H 0.7321 -4.83545 3.72849 0
M  V30 35 H 2.1461 -2.91277 4.93792 0
M  V30 36 H 0.5431 -2.36971 5.5133 0
M  V30 37 H 1.6131 -1.21818 4.69349 0
M  V30 38 N 2.9562 -1.48159 -0.537278 0
M  V30 39 C 4.1812 -1.59707 -1.32319 0
M  V30 40 C 4.6062 -0.254859 -1.86365 0
M  V30 41 O 3.9642 0.772378 -1.64024 0
M  V30 42 C 4.0122 -2.6412 -2.45505 0
M  V30 43 O 3.1162 -2.20774 -3.48328 0
M  V30 44 H 2.4572 -0.535791 -0.392204 0
M  V30 45 H 4.9872 -1.94092 -0.647268 0
M  V30 46 H 4.9972 -2.85166 -2.91795 0
M  V30 47 H 3.6722 -3.61567 -2.05528 0
M  V30 48 H 2.2492 -2.09911 -3.08207 0
M  V30 49 N 4.4343 0.785586 -1.36625 0
M  V30 50 C 5.3973 1.87999 -1.31107 0
M  V30 51 C 6.3973 1.59316 -0.217959 0
M  V30 52 O 7.5873 1.67656 -0.472977 0
M  V30 53 C 4.7193 3.24861 -1.03334 0
M  V30 54 H 5.9123 1.94307 -2.2844 0
M  V30 55 H 3.4653 0.983813 -1.21453 0
M  V30 56 H 4.2003 3.24235 -0.0647432 0
M  V30 57 H 3.9853 3.4707 -1.82441 0
M  V30 58 H 5.4753 4.04929 -1.02088 0
M  V30 59 N 5.9124 1.20967 1.01018 0
M  V30 60 C 7.1404 1.04956 1.78303 0
M  V30 61 C 7.5554 -0.400915 1.84494 0
M  V30 62 O 6.9124 -1.27826 1.30257 0
M  V30 63 C 6.9634 1.63403 3.22462 0
M  V30 64 O 6.6844 3.02775 3.16637 0
M  V30 65 C 8.1854 1.52432 4.16268 0
M  V30 66 H 5.4054 0.368858 0.560522 0
M  V30 67 H 7.9494 1.60193 1.27116 0
M  V30 68 H 6.1044 1.1227 3.70775 0
M  V30 69 H 6.5184 3.30626 4.07169 0
M  V30 70 H 7.9924 1.98078 5.15237 0
M  V30 71 H 8.4694 0.477875 4.36592 0
M  V30 72 H 9.0754 2.02787 3.73841 0
M  V30 73 N 7.3905 -1.2043 1.01659 0
M  V30 74 C 8.8065 -1.41852 0.731442 0
M  V30 75 C 9.0065 -1.89358 -0.688898 0
M  V30 76 O 8.0625 -2.06247 -1.45666 0
M  V30 77 C 9.3755 -2.44019 1.75714 0
M  V30 78 C 10.9235 -2.57785 1.77527 0
M  V30 79 C 11.3985 -3.63194 2.79023 0
M  V30 80 N 12.8895 -3.70678 2.77763 0
M  V30 81 C 13.6245 -4.51897 3.52954 0
M  V30 82 N 13.1205 -5.36921 4.37821 0
M  V30 83 N 14.9135 -4.4643 3.41551 0
M  V30 84 H 7.0645 -0.879093 1.93354 0
M  V30 85 H 9.3275 -0.448425 0.835236 0
M  V30 86 H 9.0335 -2.1611 2.77469 0
M  V30 87 H 8.9075 -3.43007 1.56927 0
M  V30 88 H 11.2945 -2.85023 0.764569 0
M  V30 89 H 11.3755 -1.58992 2.00387 0
M  V30 90 H 11.0195 -3.36699 3.80258 0
M  V30 91 H 10.9495 -4.61609 2.53425 0
M  V30 92 H 13.4405 -3.09944 2.16201 0
M  V30 93 H 13.7535 -5.95981 4.91962 0
M  V30 94 H 12.0985 -5.36424 4.41899 0
M  V30 95 H 15.2895 -3.79042 2.74672 0
M  V30 96 H 15.4625 -5.09491 4.00404 0
M  V30 97 N 8.8686 -0.792821 -1.36206 0
M  V30 98 C 10.2846 -0.474903 -1.52371 0
M  V30 99 C 10.4846 1.00622 -1.74578 0
M  V30 100 O 9.5406 1.79162 -1.77924 0
M  V30 101 C 10.8536 -1.3083 -2.70747 0
M  V30 102 C 12.4016 -1.30234 -2.84619 0
M  V30 103 C 12.8766 -2.11956 -4.06004 0
M  V30 104 N 14.3676 -2.09419 -4.13156 0
M  V30 105 C 15.1026 -2.69419 -5.06163 0
M  V30 106 N 14.5986 -3.3829 -6.04592 0
M  V30 107 N 16.3916 -2.59134 -4.98804 0
M  V30 108 H 8.5426 -1.75222 -1.20046 0
M  V30 109 H 10.8056 -0.745024 -0.586211 0
M  V30 110 H 10.5116 -2.35881 -2.6087 0
M  V30 111 H 10.3856 -0.95196 -3.6499 0
M  V30 112 H 12.7726 -0.259748 -2.93955 0
M  V30 113 H 12.8536 -1.69847 -1.91274 0
M  V30 114 H 12.4976 -3.16248 -3.97429 0
M  V30 115 H 12.4276 -1.69711 -4.98503 0
M  V30 116 H 14.9186 -1.59297 -3.42685 0
M  V30 117 H 15.2316 -3.81394 -6.7213 0
M  V30 118 H 13.5766 -3.42393 -6.04807 0
M  V30 119 H 16.7676 -2.04927 -4.20859 0
M  V30 120 H 16.9406 -3.06185 -5.711 0
M  V30 121 N 10.3467 1.47872 -0.545128 0
M  V30 122 C 11.3097 2.28337 0.198717 0
M  V30 123 C 12.3097 1.36255 0.853888 0
M  V30 124 O 13.4997 1.59003 0.711606 0
M  V30 125 C 10.6317 3.15585 1.28915 0
M  V30 126 H 11.8247 2.95567 -0.507941 0
M  V30 127 H 9.3777 1.53362 -0.301616 0
M  V30 128 H 10.1127 2.53019 2.02859 0
M  V30 129 H 9.8977 3.83337 0.824309 0
M  V30 130 H 11.3877 3.76243 1.81194 0
M  V30 131 N 11.8248 0.280983 1.55075 0
M  V30 132 C 13.0648 -0.335234 2.01632 0
M  V30 133 C 13.4288 -1.5261 1.16508 0
M  V30 134 O 14.6298 -2.21235 1.52672 0
M  V30 135 C 12.9008 -0.702172 3.50434 0
M  V30 136 S 14.4598 -1.30409 4.18974 0
M  V30 137 H 11.2778 -0.103967 0.703358 0
M  V30 138 H 13.8798 0.404187 1.91276 0
M  V30 139 H 12.5838 0.17333 4.10034 0
M  V30 140 H 12.1148 -1.4729 3.64786 0
M  V30 141 H 14.1298 -2.59253 4.23087 0
M  V30 142 N 13.3029 -1.57598 0.00835791 0
M  V30 143 C 14.2349 -2.05811 -1.00868 0
M  V30 144 C 15.2479 -0.977579 -1.30182 0
M  V30 145 O 16.4369 -1.25421 -1.27011 0
M  V30 146 C 13.5369 -2.45016 -2.34137 0
M  V30 147 C 12.7099 -3.75903 -2.23643 0
M  V30 148 C 11.7689 -4.01884 -3.3967 0
M  V30 149 O 10.7949 -4.72433 -3.17483 0
M  V30 150 N 11.9969 -3.50432 -4.62793 0
M  V30 151 H 14.7619 -2.93684 -0.597458 0
M  V30 152 H 12.3229 -1.60909 -0.178852 0
M  V30 153 H 14.3149 -2.59506 -3.10546 0
M  V30 154 H 12.8849 -1.62618 -2.66972 0
M  V30 155 H 12.1049 -3.7141 -1.32091 0
M  V30 156 H 13.3929 -4.61695 -2.13812 0
M  V30 157 H 12.7909 -2.93317 -4.83716 0
M  V30 158 H 11.3479 -3.70236 -5.3644 0
M  V30 159 N 14.781 0.264519 -1.55364 0
M  V30 160 C 15.711 1.33121 -1.91836 0
M  V30 161 C 16.692 1.51101 -0.781192 0
M  V30 162 O 17.877 1.64003 -1.04003 0
M  V30 163 C 15.007 2.68921 -2.19769 0
M  V30 164 C 13.961 2.65661 -3.35571 0
M  V30 165 C 13.287 4.05093 -3.49004 0
M  V30 166 C 14.587 2.24187 -4.71739 0
M  V30 167 H 16.281 1.02844 -2.81182 0
M  V30 168 H 13.827 0.493286 -1.35287 0
M  V30 169 H 15.78 3.43663 -2.43872 0
M  V30 170 H 14.504 3.00799 -1.27231 0
M  V30 171 H 13.163 1.93377 -3.1145 0
M  V30 172 H 12.811 4.34206 -2.53917 0
M  V30 173 H 12.511 4.03804 -4.26868 0
M  V30 174 H 14.035 4.81561 -3.75408 0
M  V30 175 H 15.449 2.88654 -4.9533 0
M  V30 176 H 13.846 2.34044 -5.52579 0
M  V30 177 H 14.916 1.19327 -4.69988 0
M  V30 178 N 16.2591 1.48442 0.529413 0
M  V30 179 C 17.1891 1.65902 1.64313 0
M  V30 180 C 18.1701 0.507897 1.6234 0
M  V30 181 O 19.3551 0.740503 1.79528 0
M  V30 182 C 16.4851 1.69911 3.02898 0
M  V30 183 C 15.4391 2.8453 3.19729 0
M  V30 184 C 14.7651 2.73629 4.59381 0
M  V30 185 C 16.0651 4.25821 3.02447 0
M  V30 186 H 17.7591 2.5914 1.49955 0
M  V30 187 H 15.3051 1.24709 0.719982 0
M  V30 188 H 17.2581 1.80715 3.80684 0
M  V30 189 H 15.9821 0.732524 3.18279 0
M  V30 190 H 14.6411 2.73283 2.44361 0
M  V30 191 H 14.2891 1.74938 4.71599 0
M  V30 192 H 13.9891 3.50541 4.71588 0
M  V30 193 H 15.5131 2.86401 5.39265 0
M  V30 194 H 16.9271 4.37898 3.70024 0
M  V30 195 H 15.3241 5.03735 3.26146 0
M  V30 196 H 16.3941 4.42244 1.98867 0
M  V30 197 N 17.7372 -0.778329 1.37039 0
M  V30 198 C 18.6672 -1.90546 1.34962 0
M  V30 199 C 19.6482 -1.68681 0.219274 0
M  V30 200 O 20.8332 -1.89634 0.418624 0
M  V30 201 C 17.9632 -3.27734 1.14925 0
M  V30 202 C 16.9172 -3.64147 2.24902 0
M  V30 203 C 16.2432 -4.99806 1.89996 0
M  V30 204 C 17.5432 -3.71579 3.67051 0
M  V30 205 H 19.2372 -1.92541 2.29277 0
M  V30 206 H 16.7832 -0.924948 1.10366 0
M  V30 207 H 18.7362 -4.06215 1.12104 0
M  V30 208 H 17.4602 -3.26154 0.170631 0
M  V30 209 H 16.1192 -2.8797 2.26868 0
M  V30 210 H 15.7672 -4.94759 0.906796 0
M  V30 211 H 15.4672 -5.25139 2.63634 0
M  V30 212 H 16.9912 -5.80694 1.88749 0
M  V30 213 H 18.4052 -4.40227 3.67251 0
M  V30 214 H 16.8022 -4.08405 4.39688 0
M  V30 215 H 17.8722 -2.72404 4.01154 0
M  V30 216 N 19.2153 -1.21501 -1.00376 0
M  V30 217 C 20.1453 -0.999478 -2.11028 0
M  V30 218 C 21.1263 0.0759671 -1.6993 0
M  V30 219 O 22.3113 -0.0841106 -1.94018 0
M  V30 220 C 19.4413 -0.564709 -3.42678 0
M  V30 221 C 18.3953 -1.58486 -3.97576 0
M  V30 222 C 17.7213 -1.00628 -5.25146 0
M  V30 223 C 19.0213 -2.97204 -4.29496 0
M  V30 224 H 20.7153 -1.92495 -2.29317 0
M  V30 225 H 18.2613 -0.92693 -1.102 0
M  V30 226 H 20.2143 -0.401091 -4.19487 0
M  V30 227 H 18.9383 0.396411 -3.24185 0
M  V30 228 H 17.5973 -1.73606 -3.22888 0
M  V30 229 H 17.2453 -0.0368439 -5.02987 0
M  V30 230 H 16.9453 -1.68771 -5.62841 0
M  V30 231 H 18.4693 -0.854015 -6.04598 0
M  V30 232 H 19.8833 -2.8552 -4.97143 0
M  V30 233 H 18.2803 -3.62372 -4.78338 0
M  V30 234 H 19.3503 -3.47956 -3.3772 0
M  V30 235 N 20.6934 1.19889 -1.02296 0
M  V30 236 C 21.6434 2.20777 -0.56934 0
M  V30 237 C 22.6274 1.56379 0.378741 0
M  V30 238 O 23.8194 1.75859 0.200673 0
M  V30 239 C 20.9484 3.43196 0.0845077 0
M  V30 240 C 20.0344 4.14749 -0.88566 0
M  V30 241 N 20.4254 4.62584 -2.04573 0
M  V30 242 C 18.7234 4.40347 -0.707835 0
M  V30 243 C 19.4244 5.17466 -2.65714 0
M  V30 244 N 18.4004 5.0791 -1.93723 0
M  V30 245 H 22.2024 2.55434 -1.45365 0
M  V30 246 H 19.7164 1.35897 -0.88915 0
M  V30 247 H 21.7134 4.14707 0.427067 0
M  V30 248 H 20.3734 3.10042 0.964574 0
M  V30 249 H 21.3844 4.57597 -2.4254 0
M  V30 250 H 18.0614 4.17317 0.12364 0
M  V30 251 H 19.4514 5.64808 -3.63925 0
M  V30 252 N 22.1715 0.800033 1.35784 0
M  V30 253 C 23.3965 0.388511 2.03729 0
M  V30 254 C 23.8215 -0.990481 1.5991 0
M  V30 255 O 23.1795 -1.64013 0.772612 0
M  V30 256 C 23.2275 0.4726 3.5749 0
M  V30 257 O 22.3315 -0.51646 4.09153 0
M  V30 258 H 21.6725 0.163271 0.643614 0
M  V30 259 H 24.2025 1.0841 1.73518 0
M  V30 260 H 24.2125 0.34003 4.06581 0
M  V30 261 H 22.8875 1.47848 3.88734 0
M  V30 262 H 21.4645 -0.344673 3.71304 0
M  V30 263 N 23.6496 -1.47581 0.552962 0
M  V30 264 C 24.5796 -2.32762 -0.185451 0
M  V30 265 C 25.5606 -1.43527 -0.912905 0
M  V30 266 O 26.7456 -1.72388 -0.894201 0
M  V30 267 C 23.8756 -3.25219 -1.21859 0
M  V30 268 C 22.8296 -4.23661 -0.607864 0
M  V30 269 C 22.1556 -5.05413 -1.74533 0
M  V30 270 C 23.4556 -5.20481 0.435582 0
M  V30 271 H 25.1496 -2.94749 0.525684 0
M  V30 272 H 22.6956 -1.41738 0.254251 0
M  V30 273 H 24.6486 -3.8365 -1.7433 0
M  V30 274 H 23.3726 -2.61279 -1.95961 0
M  V30 275 H 22.0316 -3.66451 -0.104489 0
M  V30 276 H 21.6796 -4.3788 -2.47529 0
M  V30 277 H 21.3796 -5.72059 -1.34249 0
M  V30 278 H 22.9036 -5.66701 -2.27338 0
M  V30 279 H 24.3176 -5.733 -0.00290157 0
M  V30 280 H 22.7146 -5.95305 0.757067 0
M  V30 281 H 23.7846 -4.66217 1.33303 0
M  V30 282 N 25.1277 -0.289203 -1.54924 0
M  V30 283 C 26.3747 0.323519 -1.99899 0
M  V30 284 C 26.7027 1.54797 -1.17762 0
M  V30 285 O 25.9577 1.94237 -0.238835 0
M  V30 286 C 26.2567 0.736119 -3.49737 0
M  V30 287 C 25.9227 -0.385276 -4.49251 0
M  V30 288 C 24.5847 -0.693156 -4.76181 0
M  V30 289 C 26.9367 -1.14021 -5.08575 0
M  V30 290 C 24.2647 -1.7593 -5.59701 0
M  V30 291 C 26.6167 -2.19619 -5.93254 0
M  V30 292 C 25.2807 -2.51026 -6.185 0
M  V30 293 H 24.5507 0.118384 -0.731482 0
M  V30 294 H 27.1977 -0.405847 -1.8715 0
M  V30 295 H 25.5027 1.54539 -3.60035 0
M  V30 296 H 27.1997 1.22118 -3.81953 0
M  V30 297 H 23.7897 -0.135202 -4.28387 0
M  V30 298 H 27.9737 -0.915611 -4.87781 0
M  V30 299 H 23.2297 -2.0075 -5.77503 0
M  V30 300 H 27.4037 -2.78581 -6.38252 0
M  V30 301 H 25.0307 -3.33772 -6.83008 0
M  V30 302 N 26.6058 1.57591 -0.0167156 0
M  V30 303 C 28.0168 1.79201 0.523834 0
M  V30 304 C 28.3678 0.925796 1.72984 0
M  V30 305 O 27.4928 0.132792 2.15992 0
M  V30 306 C 28.0878 3.25 0.957091 0
M  V30 307 C 26.6468 3.47648 1.44283 0
M  V30 308 C 25.7938 2.74374 0.401757 0
M  V30 309 H 28.7448 1.56831 -0.242816 0
M  V30 310 H 28.7658 3.34031 1.82219 0
M  V30 311 H 28.2778 3.88019 0.0791415 0
M  V30 312 H 26.3788 2.89866 2.34113 0
M  V30 313 H 26.4918 4.56352 1.45877 0
M  V30 314 H 24.8558 2.39485 0.867121 0
M  V30 315 H 25.6388 3.40102 -0.467513 0
M  V30 316 N 28.0839 -0.256276 1.55502 0
M  V30 317 C 29.3299 -0.987079 1.77157 0
M  V30 318 C 29.6629 -1.85327 0.580315 0
M  V30 319 O 28.9379 -1.89874 -0.421686 0
M  V30 320 C 29.2209 -1.85553 3.08613 0
M  V30 321 C 29.0739 -1.01816 4.38125 0
M  V30 322 C 30.3929 -2.8397 3.36228 0
M  V30 323 H 27.5119 -0.357428 0.644526 0
M  V30 324 H 30.1539 -0.258239 1.88237 0
M  V30 325 H 28.3039 -2.47695 2.99298 0
M  V30 326 H 29.9759 -0.416159 4.59419 0
M  V30 327 H 28.2189 -0.322178 4.32602 0
M  V30 328 H 28.8899 -1.65939 5.26468 0
M  V30 329 H 31.3659 -2.31964 3.45445 0
M  V30 330 H 30.2419 -3.41864 4.29442 0
M  V30 331 H 30.5029 -3.59955 2.56681 0
M  V30 332 N 29.562 -1.4872 -0.521534 0
M  V30 333 C 30.973 -1.50607 -1.10337 0
M  V30 334 C 31.324 -0.280612 -1.94183 0
M  V30 335 O 30.449 0.611507 -2.0758 0
M  V30 336 C 31.044 -2.72903 -2.00772 0
M  V30 337 C 29.603 -2.77634 -2.54158 0
M  V30 338 C 28.75 -2.44241 -1.31307 0
M  V30 339 H 31.701 -1.55714 -0.306388 0
M  V30 340 H 31.722 -2.519 -2.85178 0
M  V30 341 H 31.234 -3.62077 -1.39721 0
M  V30 342 H 29.335 -1.92689 -3.18907 0
M  V30 343 H 29.448 -3.79283 -2.92714 0
M  V30 344 H 27.812 -1.95577 -1.63161 0
M  V30 345 H 28.595 -3.35666 -0.719943 0
M  V30 346 N 31.0401 0.771051 -1.3745 0
M  V30 347 C 32.4561 1.07171 -1.18265 0
M  V30 348 C 32.6561 2.01491 -0.019287 0
M  V30 349 O 31.7121 2.44244 0.640408 0
M  V30 350 C 33.0251 1.66854 -2.50161 0
M  V30 351 C 34.5731 1.79109 -2.56689 0
M  V30 352 C 35.0481 2.42205 -3.88717 0
M  V30 353 N 36.5391 2.49655 -3.90162 0
M  V30 354 C 37.2741 2.9933 -4.8907 0
M  V30 355 N 36.7701 3.49172 -5.98374 0
M  V30 356 N 38.5631 2.9821 -4.76474 0
M  V30 357 H 30.7141 0.144796 -2.11906 0
M  V30 358 H 32.9771 0.126863 -0.939473 0
M  V30 359 H 32.6831 1.05017 -3.35655 0
M  V30 360 H 32.5571 2.6614 -2.673 0
M  V30 361 H 34.9441 2.40077 -1.71601 0
M  V30 362 H 35.0251 0.785757 -2.43433 0
M  V30 363 H 34.6691 1.81875 -4.74219 0
M  V30 364 H 34.5991 3.43345 -3.99276 0
M  V30 365 H 37.0901 2.14383 -3.11205 0
M  V30 366 H 37.4031 3.8548 -6.69795 0
M  V30 367 H 35.7481 3.47275 -6.02018 0
M  V30 368 H 38.9391 2.58572 -3.90203 0
M  V30 369 H 39.1121 3.36613 -5.53711 0
M  V30 370 N 32.5182 1.22032 0.997298 0
M  V30 371 C 33.4512 0.929735 2.08401 0
M  V30 372 C 34.4292 -0.125681 1.62114 0
M  V30 373 O 35.6132 0.00495409 1.88499 0
M  V30 374 C 32.7402 0.397488 3.3636 0
M  V30 375 C 31.7862 1.4369 4.01566 0
M  V30 376 S 32.6192 3.00874 4.42984 0
M  V30 377 C 33.7752 2.49276 5.74119 0
M  V30 378 H 34.0082 1.84998 2.32729 0
M  V30 379 H 31.5412 1.0509 1.13117 0
M  V30 380 H 33.4992 0.0969846 4.10385 0
M  V30 381 H 32.1602 -0.501571 3.10069 0
M  V30 382 H 31.3532 1.01427 4.93689 0
M  V30 383 H 30.9552 1.68588 3.33847 0
M  V30 384 H 33.2472 1.90242 6.50242 0
M  V30 385 H 34.1902 3.39872 6.21203 0
M  V30 386 H 34.5982 1.90714 5.31308 0
M  V30 387 N 33.9963 -1.19345 1.0293 0
M  V30 388 C 35.2443 -1.88665 0.724574 0
M  V30 389 C 35.5653 -1.80036 -0.749144 0
M  V30 390 O 34.8353 -1.2111 -1.53978 0
M  V30 391 H 33.4153 -0.698406 0.265025 0
M  V30 392 H 36.0773 -1.44885 1.30362 0
M  V30 393 H 35.1733 -2.94987 1.01926 0
M  V30 394 N 35.4744 -0.807222 -1.35358 0
M  V30 395 C 36.4224 -0.20614 -2.31685 0
M  V30 396 C 37.4164 0.644445 -1.56663 0
M  V30 397 O 38.6224 0.537538 -1.71786 0
M  V30 398 H 34.9974 -0.0479006 -0.750473 0
M  V30 399 H 36.9684 -1.03369 -2.79924 0
M  V30 400 C 35.7174 0.630212 -3.41941 0
M  V30 401 H 35.0404 -0.0149558 -3.99797 0
M  V30 402 H 36.4804 1.01716 -4.11619 0
M  V30 403 C 34.9394 1.79601 -2.85035 0
M  V30 404 O 35.4694 2.89351 -2.78637 0
M  V30 405 N 33.6754 1.60774 -2.42074 0
M  V30 406 H 33.2224 0.715009 -2.47478 0
M  V30 407 H 33.1804 2.38933 -2.04349 0
M  V30 408 N 36.9525 1.47285 -0.560781 0
M  V30 409 C 38.1775 2.07359 -0.0410566 0
M  V30 410 C 38.6025 1.41017 1.24483 0
M  V30 411 O 37.9605 0.486368 1.74654 0
M  V30 412 C 38.0085 3.6035 0.134123 0
M  V30 413 O 37.1125 3.94681 1.19587 0
M  V30 414 H 36.4535 0.661887 -0.0529291 0
M  V30 415 H 38.9835 1.89252 -0.777482 0
M  V30 416 H 38.9935 4.0652 0.347207 0
M  V30 417 H 37.6685 4.08034 -0.805047 0
M  V30 418 H 36.2455 3.60251 0.962987 0
M  V30 419 N 38.4306 0.297415 1.54768 0
M  V30 420 C 39.3936 -0.567375 2.22066 0
M  V30 421 C 40.3936 -1.06409 1.20556 0
M  V30 422 O 41.5836 -0.960691 1.45315 0
M  V30 423 C 38.7156 -1.78517 2.90421 0
M  V30 424 H 39.9086 0.0205534 2.99893 0
M  V30 425 H 37.4616 0.0482163 1.56226 0
M  V30 426 H 38.1966 -2.41303 2.16664 0
M  V30 427 H 37.9816 -1.43669 3.64831 0
M  V30 428 H 39.4716 -2.39964 3.41771 0
M  V30 429 N 39.9087 -1.5758 0.0250728 0
M  V30 430 C 41.1337 -1.96337 -0.668317 0
M  V30 431 C 41.5587 -0.901314 -1.651 0
M  V30 432 O 40.9167 0.138187 -1.80773 0
M  V30 433 C 40.9647 -3.34191 -1.35457 0
M  V30 434 O 40.0687 -3.30269 -2.46974 0
M  V30 435 H 39.4097 -0.640281 -0.175887 0
M  V30 436 H 41.9397 -2.0442 0.0857224 0
M  V30 437 H 41.9497 -3.70331 -1.71228 0
M  V30 438 H 40.6247 -4.11036 -0.634218 0
M  V30 439 H 39.2017 -3.05841 -2.13344 0
M  V30 440 N 41.3868 0.248026 -1.55636 0
M  V30 441 C 42.3348 1.32683 -1.91045 0
M  V30 442 C 43.3288 1.49883 -0.789401 0
M  V30 443 O 44.5348 1.51371 -0.974007 0
M  V30 444 H 40.9098 0.444272 -0.606734 0
M  V30 445 H 42.8808 1.00085 -2.81115 0
M  V30 446 C 41.6298 2.6755 -2.22064 0
M  V30 447 H 40.9528 2.55114 -3.07826 0
M  V30 448 H 42.3928 3.41912 -2.50743 0
M  V30 449 C 40.8518 3.20556 -1.0366 0
M  V30 450 O 41.3818 4.00695 -0.284016 0
M  V30 451 N 39.5878 2.78568 -0.82753 0
M  V30 452 H 39.1348 2.1351 -1.44123 0
M  V30 453 H 39.0928 3.14378 -0.0369803 0
M  V30 454 N 42.8649 1.48995 0.513639 0
M  V30 455 C 44.1139 1.57093 1.2651 0
M  V30 456 C 44.4269 0.257091 1.93903 0
M  V30 457 O 45.6329 0.216478 2.70636 0
M  V30 458 C 44.0889 2.77118 2.29638 0
M  V30 459 C 43.6969 4.15209 1.68241 0
M  V30 460 C 45.4409 2.94538 3.05692 0
M  V30 461 C 43.3479 5.26474 2.69406 0
M  V30 462 H 42.2779 0.584876 0.475854 0
M  V30 463 H 44.9289 1.7536 0.540487 0
M  V30 464 H 43.3109 2.52319 3.05207 0
M  V30 465 H 44.4849 4.50094 0.987505 0
M  V30 466 H 42.7999 4.03042 1.04623 0
M  V30 467 H 45.3969 3.74832 3.8132 0
M  V30 468 H 45.7399 2.04614 3.62545 0
M  V30 469 H 46.2729 3.19316 2.37238 0
M  V30 470 H 43.0119 6.18417 2.17351 0
M  V30 471 H 42.5319 4.96058 3.37175 0
M  V30 472 H 44.2109 5.55277 3.32078 0
M  V30 473 N 44.343 -0.763751 1.37857 0
M  V30 474 C 45.589 -1.52483 1.33704 0
M  V30 475 C 45.922 -1.94051 -0.0759612 0
M  V30 476 O 45.197 -1.64675 -1.03501 0
M  V30 477 C 45.48 -2.78441 2.28348 0
M  V30 478 C 45.333 -2.43075 3.78463 0
M  V30 479 C 46.652 -3.80415 2.21298 0
M  V30 480 H 43.771 -0.553169 0.487005 0
M  V30 481 H 46.413 -0.875562 1.68624 0
M  V30 482 H 44.563 -3.33842 1.987 0
M  V30 483 H 46.235 -1.93527 4.18742 0
M  V30 484 H 44.478 -1.75666 3.96641 0
M  V30 485 H 45.149 -3.33149 4.40132 0
M  V30 486 H 47.625 -3.34527 2.47449 0
M  V30 487 H 46.501 -4.66257 2.89647 0
M  V30 488 H 46.762 -4.25262 1.20849 0
M  V30 489 N 45.8211 -1.22559 -0.990812 0
M  V30 490 C 47.0461 -1.07862 -1.77145 0
M  V30 491 C 47.4711 0.366447 -1.84496 0
M  V30 492 O 46.8291 1.26478 -1.29896 0
M  V30 493 C 46.8771 -1.69686 -3.18181 0
M  V30 494 O 45.9811 -0.951946 -4.01263 0
M  V30 495 H 45.3221 -0.378712 -0.545411 0
M  V30 496 H 47.8521 -1.62399 -1.2445 0
M  V30 497 H 47.8621 -1.74496 -3.68802 0
M  V30 498 H 46.5371 -2.74841 -3.12146 0
M  V30 499 H 45.1141 -0.980011 -3.59792 0
M  V30 500 N 47.2992 1.18797 -1.03562 0
M  V30 501 C 48.7102 1.70322 -0.764676 0
M  V30 502 C 49.0612 1.82708 0.714996 0
M  V30 503 O 48.1862 1.50299 1.55689 0
M  V30 504 C 48.7812 3.09356 -1.38145 0
M  V30 505 C 47.3402 3.58114 -1.15895 0
M  V30 506 C 46.4872 2.34798 -1.4753 0
M  V30 507 H 49.4382 1.03543 -1.20268 0
M  V30 508 H 49.4592 3.72378 -0.781977 0
M  V30 509 H 48.9712 3.00309 -2.45837 0
M  V30 510 H 47.0722 3.72464 -0.100544 0
M  V30 511 H 47.1852 4.4184 -1.8524 0
M  V30 512 H 45.5492 2.38464 -0.894829 0
M  V30 513 H 46.3322 2.28375 -2.56319 0
M  V30 514 N 48.7773 0.814389 1.34928 0
M  V30 515 C 49.7093 0.187834 2.28429 0
M  V30 516 C 50.7223 -0.617374 1.5064 0
M  V30 517 O 51.9113 -0.448454 1.72775 0
M  V30 518 C 49.0113 -0.755962 3.30361 0
M  V30 519 C 48.1843 0.00456686 4.374 0
M  V30 520 C 47.2433 -0.858876 5.19143 0
M  V30 521 O 46.2693 -0.306968 5.68372 0
M  V30 522 N 47.4713 -2.17988 5.38016 0
M  V30 523 H 50.2363 0.991105 2.82838 0
M  V30 524 H 47.7973 0.670561 1.4736 0
M  V30 525 H 49.7893 -1.338 3.81942 0
M  V30 526 H 48.3593 -1.46001 2.7641 0
M  V30 527 H 47.5793 0.767865 3.86649 0
M  V30 528 H 48.8673 0.528422 5.06049 0
M  V30 529 H 48.2653 -2.65212 4.99679 0
M  V30 530 H 46.8223 -2.71098 5.92747 0
M  V30 531 N 50.2554 -1.46986 0.568584 0
M  V30 532 C 51.1654 -2.33942 -0.17555 0
M  V30 533 C 52.1814 -1.48891 -0.90041 0
M  V30 534 O 53.3574 -1.81794 -0.86676 0
M  V30 535 C 50.4224 -3.25811 -1.18524 0
M  V30 536 C 49.4834 -4.26757 -0.466582 0
M  V30 537 C 48.7164 -5.14236 -1.42817 0
M  V30 538 O 48.9394 -5.04379 -2.66379 0
M  V30 539 O 47.8734 -5.94412 -0.946453 0
M  V30 540 H 51.6994 -2.98896 0.538036 0
M  V30 541 H 49.2844 -1.4573 0.329097 0
M  V30 542 H 51.1664 -3.82527 -1.76779 0
M  V30 543 H 49.8414 -2.63471 -1.88055 0
M  V30 544 H 48.7484 -3.73769 0.157451 0
M  V30 545 H 50.0814 -4.91843 0.187485 0
M  V30 546 N 51.7335 -0.305618 -1.54608 0
M  V30 547 C 52.6965 0.555591 -2.22364 0
M  V30 548 C 53.6965 1.05768 -1.21119 0
M  V30 549 O 54.8865 0.952972 -1.45822 0
M  V30 550 C 52.0185 1.76974 -2.91364 0
M  V30 551 H 53.2115 -0.0364572 -2.99878 0
M  V30 552 H 50.7645 -0.0565007 -1.56198 0
M  V30 553 H 51.4995 2.40151 -2.17941 0
M  V30 554 H 51.2845 1.41732 -3.65588 0
M  V30 555 H 52.7745 2.38148 -3.43038 0
M  V30 556 N 53.2116 1.57565 -0.0334293 0
M  V30 557 C 54.1416 2.13511 0.945265 0
M  V30 558 C 55.1226 1.05231 1.33643 0
M  V30 559 O 56.3076 1.33084 1.41429 0
M  V30 560 C 53.4376 2.6657 2.22616 0
M  V30 561 C 52.3916 3.79676 1.97561 0
M  V30 562 C 51.7176 4.1918 3.31952 0
M  V30 563 C 53.0176 5.0557 1.31135 0
M  V30 564 H 54.7116 2.95538 0.479325 0
M  V30 565 H 52.2576 1.42166 0.229115 0
M  V30 566 H 54.2106 3.04344 2.91466 0
M  V30 567 H 52.9346 1.8171 2.71384 0
M  V30 568 H 51.5936 3.42347 1.31127 0
M  V30 569 H 51.2416 3.31296 3.78487 0
M  V30 570 H 50.9416 4.95402 3.15992 0
M  V30 571 H 52.4656 4.59541 4.02063 0
M  V30 572 H 53.8796 5.40903 1.89992 0
M  V30 573 H 52.2766 5.86818 1.25559 0
M  V30 574 H 53.3466 4.84062 0.284894 0
M  V30 575 N 54.6897 -0.239769 1.55765 0
M  V30 576 C 56.1007 -0.808263 1.68297 0
M  V30 577 C 56.4517 -1.85736 0.632181 0
M  V30 578 O 55.5767 -2.15277 -0.220204 0
M  V30 579 C 56.1717 -1.47284 3.05111 0
M  V30 580 C 54.7307 -1.98895 3.19559 0
M  V30 581 C 53.8777 -0.842575 2.64189 0
M  V30 582 H 56.8287 -0.0154422 1.58692 0
M  V30 583 H 56.8497 -2.34111 2.99954 0
M  V30 584 H 56.3617 -0.709053 3.81568 0
M  V30 585 H 54.4627 -2.78132 2.47938 0
M  V30 586 H 54.5757 -2.18143 4.26556 0
M  V30 587 H 52.9397 -1.24501 2.22197 0
M  V30 588 H 53.7227 -0.0917552 3.43177 0
M  V30 589 N 56.1678 -1.49265 -0.50573 0
M  V30 590 C 57.4158 -1.582 -1.25766 0
M  V30 591 C 57.7368 -0.268482 -1.93143 0
M  V30 592 O 57.0068 0.711833 -1.8251 0
M  V30 593 H 55.5868 -0.582873 -0.467191 0
M  V30 594 H 58.2488 -1.85865 -0.586525 0
M  V30 595 H 57.3448 -2.37563 -2.02412 0
M  V30 596 N 57.6459 0.756429 -1.3826 0
M  V30 597 C 59.0619 1.0591 -1.19395 0
M  V30 598 C 59.2619 2.01459 -0.0406567 0
M  V30 599 O 58.3179 2.44909 0.614467 0
M  V30 600 C 59.6309 1.64191 -2.51916 0
M  V30 601 C 61.1789 1.76376 -2.58574 0
M  V30 602 C 61.6539 2.38069 -3.91264 0
M  V30 603 N 63.1449 2.45503 -3.92788 0
M  V30 604 C 63.8799 2.94126 -4.92217 0
M  V30 605 N 63.3759 3.42805 -6.02043 0
M  V30 606 N 65.1689 2.9314 -4.7961 0
M  V30 607 H 57.3199 0.122313 -2.12048 0
M  V30 608 H 59.5829 0.116892 -0.940766 0
M  V30 609 H 59.2889 1.01451 -3.3675 0
M  V30 610 H 59.1629 2.6329 -2.70108 0
M  V30 611 H 61.5499 2.38244 -1.74137 0
M  V30 612 H 61.6309 0.759894 -2.44252 0
M  V30 613 H 61.2749 1.76835 -4.76121 0
M  V30 614 H 61.2049 3.39091 -4.02895 0
M  V30 615 H 63.6959 2.1107 -3.13461 0
M  V30 616 H 64.0089 3.78354 -6.73846 0
M  V30 617 H 62.3539 3.4087 -6.05667 0
M  V30 618 H 65.5449 2.54419 -3.92923 0
M  V30 619 H 65.7179 3.30721 -5.5725 0
M  V30 620 N 59.124 1.23083 0.984299 0
M  V30 621 C 60.071 1.00854 2.07598 0
M  V30 622 C 61.041 -0.0726709 1.65941 0
M  V30 623 O 62.226 0.0786535 1.90638 0
M  V30 624 C 59.366 0.601645 3.39815 0
M  V30 625 C 58.479 1.75456 3.94765 0
M  V30 626 C 57.614 1.29482 5.15177 0
M  V30 627 C 56.653 2.41873 5.62284 0
M  V30 628 N 55.79 1.96885 6.73929 0
M  V30 629 H 60.63 1.943 2.25946 0
M  V30 630 H 58.167 0.968001 1.10762 0
M  V30 631 H 60.125 0.346854 4.15756 0
M  V30 632 H 58.755 -0.295803 3.21442 0
M  V30 633 H 57.807 2.12346 3.15616 0
M  V30 634 H 59.119 2.59965 4.25699 0
M  V30 635 H 58.273 0.997923 5.98437 0
M  V30 636 H 57.012 0.420046 4.85888 0
M  V30 637 H 56.017 2.72342 4.77608 0
M  V30 638 H 57.242 3.29881 5.93595 0
M  V30 639 H 55.188 1.11782 6.46406 0
M  V30 640 H 55.105 2.74956 7.04227 0
M  V30 641 H 56.373 1.70289 7.60672 0
M  V30 642 N 60.6021 -1.18246 1.0419 0
M  V30 643 C 61.5121 -2.25574 0.644476 0
M  V30 644 C 62.5281 -1.70845 -0.329826 0
M  V30 645 O 63.7041 -2.00554 -0.184443 0
M  V30 646 C 60.7691 -3.46697 0.014877 0
M  V30 647 C 59.8301 -4.16554 1.03834 0
M  V30 648 C 59.0631 -5.31894 0.438692 0
M  V30 649 O 59.2861 -5.65385 -0.754752 0
M  V30 650 O 58.2201 -5.90459 1.168 0
M  V30 651 H 62.0461 -2.61836 1.53869 0
M  V30 652 H 59.6311 -1.25352 0.812854 0
M  V30 653 H 61.5131 -4.20062 -0.335538 0
M  V30 654 H 60.1881 -3.12255 -0.853138 0
M  V30 655 H 59.0951 -3.45251 1.44057 0
M  V30 656 H 60.4281 -4.54998 1.87716 0
M  V30 657 N 62.0802 -0.821533 -1.34494 0
M  V30 658 C 63.0122 -0.199946 -2.28326 0
M  V30 659 C 64.0252 0.609377 -1.50965 0
M  V30 660 O 65.2142 0.439285 -1.7301 0
M  V30 661 C 62.3142 0.738431 -3.30757 0
M  V30 662 C 61.4872 -0.0277632 -4.37391 0
M  V30 663 C 60.5462 0.831332 -5.19591 0
M  V30 664 O 59.5722 0.276822 -5.68526 0
M  V30 665 N 60.7742 2.15132 -5.39165 0
M  V30 666 H 63.5392 -1.00609 -2.82308 0
M  V30 667 H 61.1002 -0.678366 -1.47003 0
M  V30 668 H 63.0922 1.31773 -3.82646 0
M  V30 669 H 61.6622 1.44533 -2.7718 0
M  V30 670 H 60.8822 -0.788359 -3.86236 0
M  V30 671 H 62.1702 -0.555251 -5.05761 0
M  V30 672 H 61.5682 2.62559 -5.01078 0
M  V30 673 H 60.1252 2.6795 -5.94177 0
M  V30 674 N 63.5583 1.46682 -0.576371 0
M  V30 675 C 64.7863 2.06798 -0.0649635 0
M  V30 676 C 65.2013 1.42612 1.23723 0
M  V30 677 O 64.5583 0.529203 1.74659 0
M  V30 678 C 64.6093 3.6132 0.114202 0
M  V30 679 O 64.3303 4.23104 -1.13644 0
M  V30 680 C 65.8313 4.38349 0.66069 0
M  V30 681 H 63.0513 0.668778 -0.0545616 0
M  V30 682 H 65.5953 1.88404 -0.795237 0
M  V30 683 H 63.7503 3.79162 0.794673 0
M  V30 684 H 64.1643 5.15894 -0.946253 0
M  V30 685 H 65.6383 5.47081 0.73526 0
M  V30 686 H 66.1153 4.05953 1.67627 0
M  V30 687 H 66.7213 4.25297 0.0152951 0
M  V30 688 N 65.0364 0.313813 1.54444 0
M  V30 689 C 66.4474 -0.176243 1.85866 0
M  V30 690 C 66.7984 -1.52405 1.23561 0
M  V30 691 O 65.9234 -2.09605 0.538016 0
M  V30 692 C 66.5184 -0.32657 3.37222 0
M  V30 693 C 65.0774 -0.760846 3.6863 0
M  V30 694 C 64.2244 0.123247 2.77026 0
M  V30 695 H 67.1754 0.534418 1.49431 0
M  V30 696 H 67.1964 -1.15908 3.62416 0
M  V30 697 H 66.7084 0.654531 3.82541 0
M  V30 698 H 64.8094 -1.75204 3.28838 0
M  V30 699 H 64.9224 -0.571353 4.75681 0
M  V30 700 H 63.2864 -0.399597 2.51546 0
M  V30 701 H 64.0694 1.10094 3.25168 0
M  V30 702 N 66.5145 -1.57545 0.0417849 0
M  V30 703 C 67.7605 -1.92601 -0.635021 0
M  V30 704 C 68.0935 -0.919627 -1.71045 0
M  V30 705 O 67.3685 0.0557892 -1.9442 0
M  V30 706 C 67.6515 -3.38085 -1.23979 0
M  V30 707 C 67.5045 -4.49467 -0.173057 0
M  V30 708 C 68.8235 -3.83776 -2.15416 0
M  V30 709 H 65.9425 -0.700397 -0.229374 0
M  V30 710 H 68.5845 -1.89728 0.101633 0
M  V30 711 H 66.7345 -3.40664 -1.86762 0
M  V30 712 H 68.4065 -4.59018 0.458312 0
M  V30 713 H 66.6495 -4.30909 0.499996 0
M  V30 714 H 67.3205 -5.48323 -0.636054 0
M  V30 715 H 69.7965 -3.83013 -1.62605 0
M  V30 716 H 68.6725 -4.8624 -2.54679 0
M  V30 717 H 68.9335 -3.19998 -3.05047 0
M  V30 718 N 67.9926 0.231505 -1.5589 0
M  V30 719 C 68.9556 1.27028 -1.90779 0
M  V30 720 C 69.9556 1.40308 -0.785507 0
M  V30 721 O 71.1456 1.38744 -1.05336 0
M  V30 722 C 68.2776 2.64566 -2.14983 0
M  V30 723 H 69.4706 0.973017 -2.83677 0
M  V30 724 H 67.0236 0.471486 -1.49019 0
M  V30 725 H 67.7586 2.99406 -1.24604 0
M  V30 726 H 67.5436 2.56305 -2.96732 0
M  V30 727 H 69.0336 3.39543 -2.43105 0
M  V30 728 N 69.4707 1.49531 0.497807 0
M  V30 729 C 70.4337 1.65916 1.58128 0
M  V30 730 C 71.4337 0.530825 1.51786 0
M  V30 731 O 72.6237 0.797342 1.54881 0
M  V30 732 C 69.7557 1.65951 2.9778 0
M  V30 733 H 70.9487 2.62556 1.44929 0
M  V30 734 H 68.5017 1.38611 0.722275 0
M  V30 735 H 69.2367 0.709065 3.16453 0
M  V30 736 H 69.0217 2.47897 3.03792 0
M  V30 737 H 70.5117 1.80673 3.76493 0
M  V30 738 N 70.9488 -0.749086 1.3866 0
M  V30 739 C 71.8958 -1.86291 1.36251 0
M  V30 740 C 72.8658 -1.64578 0.224347 0
M  V30 741 O 74.0508 -1.86181 0.417279 0
M  V30 742 C 71.1908 -3.23644 1.19786 0
M  V30 743 C 70.3038 -3.57158 2.43027 0
M  V30 744 C 69.4388 -4.83838 2.19258 0
M  V30 745 C 68.4778 -5.10152 3.38247 0
M  V30 746 N 67.6148 -6.28029 3.13884 0
M  V30 747 H 72.4548 -1.87685 2.3147 0
M  V30 748 H 69.9918 -0.917287 1.14997 0
M  V30 749 H 71.9498 -4.0291 1.08254 0
M  V30 750 H 70.5798 -3.21566 0.282031 0
M  V30 751 H 69.6318 -2.72701 2.65214 0
M  V30 752 H 70.9438 -3.7253 3.31697 0
M  V30 753 H 70.0978 -5.71057 2.04888 0
M  V30 754 H 68.8368 -4.70614 1.2796 0
M  V30 755 H 67.8418 -4.21401 3.53131 0
M  V30 756 H 69.0668 -5.25271 4.30427 0
M  V30 757 H 67.0128 -6.1612 2.25238 0
M  V30 758 H 66.9298 -6.43922 3.96106 0
M  V30 759 H 68.1978 -7.18124 3.03179 0
M  V30 760 N 72.4269 -1.23603 -0.977757 0
M  V30 761 C 73.3769 -0.986664 -2.05545 0
M  V30 762 C 74.3609 0.0683009 -1.60755 0
M  V30 763 O 75.5529 -0.144162 -1.76412 0
M  V30 764 C 72.6819 -0.582623 -3.3832 0
M  V30 765 C 71.7679 -1.67313 -3.89701 0
M  V30 766 N 72.1589 -2.90394 -4.14132 0
M  V30 767 C 70.4569 -1.54832 -4.18262 0
M  V30 768 C 71.1579 -3.61017 -4.56116 0
M  V30 769 N 70.1339 -2.8854 -4.60701 0
M  V30 770 H 73.9359 -1.92139 -2.22396 0
M  V30 771 H 71.4499 -1.1358 -1.16074 0
M  V30 772 H 73.4469 -0.38524 -4.15116 0
M  V30 773 H 72.1069 0.34503 -3.22862 0
M  V30 774 H 73.1179 -3.26673 -4.01877 0
M  V30 775 H 69.7949 -0.687969 -4.11793 0
M  V30 776 H 71.1849 -4.66544 -4.83514 0
M  V30 777 N 73.905 1.17692 -1.04816 0
M  V30 778 C 74.855 2.1952 -0.616042 0
M  V30 779 C 75.839 1.57147 0.345485 0
M  V30 780 O 77.031 1.76245 0.163325 0
M  V30 781 C 74.16 3.43298 0.0116917 0
M  V30 782 C 73.246 4.12777 -0.973435 0
M  V30 783 N 73.637 4.5814 -2.14339 0
M  V30 784 C 71.935 4.38747 -0.80108 0
M  V30 785 C 72.636 5.11713 -2.7663 0
M  V30 786 N 71.612 5.03686 -2.04453 0
M  V30 787 H 75.414 2.52293 -1.5075 0
M  V30 788 H 72.928 1.3398 -0.917776 0
M  V30 789 H 74.925 4.15519 0.339006 0
M  V30 790 H 73.585 3.12018 0.898593 0
M  V30 791 H 74.596 4.52349 -2.52191 0
M  V30 792 H 71.273 4.17485 0.0350934 0
M  V30 793 H 72.663 5.56962 -3.75823 0
M  V30 794 N 75.3831 0.828654 1.34056 0
M  V30 795 C 76.6291 0.42008 1.98402 0
M  V30 796 C 76.9621 -1.01564 1.65525 0
M  V30 797 O 76.2371 -1.70834 0.929831 0
M  V30 798 C 76.5201 0.62927 3.54559 0
M  V30 799 C 76.3731 2.11152 3.97159 0
M  V30 800 C 77.6921 0.0688756 4.40046 0
M  V30 801 H 74.8111 0.154104 0.720709 0
M  V30 802 H 77.4531 1.04228 1.5886 0
M  V30 803 H 75.6031 0.0996418 3.88372 0
M  V30 804 H 77.2751 2.70522 3.73651 0
M  V30 805 H 75.5181 2.59985 3.47261 0
M  V30 806 H 76.1891 2.20868 5.05887 0
M  V30 807 H 78.6651 0.521458 4.1282 0
M  V30 808 H 77.5411 0.245006 5.48353 0
M  V30 809 H 77.8021 -1.0266 4.30015 0
M  V30 810 N 76.8612 -1.46375 0.584142 0
M  V30 811 C 77.8092 -2.32042 -0.161047 0
M  V30 812 C 78.8032 -1.44569 -0.882966 0
M  V30 813 O 80.0092 -1.61186 -0.801191 0
M  V30 814 H 76.3842 -0.748659 -0.0708033 0
M  V30 815 H 78.3552 -2.92704 0.580269 0
M  V30 816 C 77.1042 -3.27762 -1.1605 0
M  V30 817 H 76.4272 -3.95051 -0.614419 0
M  V30 818 H 77.8672 -3.90481 -1.65228 0
M  V30 819 C 76.3262 -2.53218 -2.22221 0
M  V30 820 O 76.8562 -2.29628 -3.29597 0
M  V30 821 N 75.0622 -2.13756 -1.96868 0
M  V30 822 H 74.6092 -2.33142 -1.09557 0
M  V30 823 H 74.5672 -1.642 -2.68115 0
M  V30 824 N 78.3393 -0.321999 -1.54275 0
M  V30 825 C 79.5873 0.280489 -2.00144 0
M  V30 826 C 79.9083 1.52777 -1.21178 0
M  V30 827 O 79.1783 1.9338 -0.313187 0
M  V30 828 H 77.7583 0.106632 -0.73935 0
M  V30 829 H 80.4203 -0.438184 -1.8991 0
M  V30 830 H 79.5163 0.537972 -3.07428 0
M  V30 831 N 79.8174 1.5752 -0.0501392 0
M  V30 832 C 80.7654 2.12651 0.942459 0
M  V30 833 C 81.7594 1.05807 1.32292 0
M  V30 834 O 82.9654 1.24217 1.3027 0
M  V30 835 H 79.3404 0.679673 0.321789 0
M  V30 836 H 81.3114 2.94951 0.452356 0
M  V30 837 C 80.0604 2.68565 2.20836 0
M  V30 838 H 79.3834 3.50439 1.92439 0
M  V30 839 H 80.8234 3.10761 2.8845 0
M  V30 840 C 79.2824 1.62291 2.95234 0
M  V30 841 O 79.8124 1.03508 3.88135 0
M  V30 842 N 78.0184 1.33836 2.57946 0
M  V30 843 H 77.5654 1.81826 1.82475 0
M  V30 844 H 77.5234 0.629595 3.08032 0
M  V30 845 N 81.2955 -0.223234 1.56011 0
M  V30 846 C 82.7115 -0.572856 1.48965 0
M  V30 847 C 82.9115 -1.87225 0.74492 0
M  V30 848 O 81.9675 -2.50899 0.283896 0
M  V30 849 C 83.2805 -0.653646 2.9351 0
M  V30 850 C 84.8285 -0.744386 3.0402 0
M  V30 851 C 85.3035 -0.856535 4.49919 0
M  V30 852 N 86.7945 -0.9208 4.53955 0
M  V30 853 C 87.5295 -1.02726 5.64123 0
M  V30 854 N 87.0255 -1.09777 6.84047 0
M  V30 855 N 88.8185 -1.06226 5.51971 0
M  V30 856 H 80.9695 0.629462 2.02858 0
M  V30 857 H 83.2325 0.220621 0.921971 0
M  V30 858 H 82.9385 0.231518 3.50937 0
M  V30 859 H 82.8125 -1.51781 3.45315 0
M  V30 860 H 85.1995 -1.61999 2.46658 0
M  V30 861 H 85.2805 0.14541 2.55386 0
M  V30 862 H 84.9245 0.0146069 5.07898 0
M  V30 863 H 84.8545 -1.76172 4.96257 0
M  V30 864 H 87.3455 -0.876694 3.6759 0
M  V30 865 H 87.6585 -1.17872 7.63758 0
M  V30 866 H 86.0035 -1.06693 6.86762 0
M  V30 867 H 89.1945 -1.00382 4.5721 0
M  V30 868 H 89.3675 -1.14177 6.37862 0
M  V30 869 N 82.7736 -1.49793 -0.48987 0
M  V30 870 C 84.0016 -1.63568 -1.26701 0
M  V30 871 C 84.4166 -0.311465 -1.86213 0
M  V30 872 O 83.7736 0.704416 -1.68357 0
M  V30 873 C 83.8246 -2.71284 -2.38929 0
M  V30 874 O 83.5456 -3.9857 -1.81861 0
M  V30 875 C 85.0466 -2.95864 -3.3012 0
M  V30 876 H 82.2666 -0.550342 -0.383881 0
M  V30 877 H 84.8106 -1.95898 -0.586864 0
M  V30 878 H 82.9656 -2.417 -3.02753 0
M  V30 879 H 83.3796 -4.57993 -2.55622 0
M  V30 880 H 84.8536 -3.74941 -4.05121 0
M  V30 881 H 85.3306 -2.06206 -3.87783 0
M  V30 882 H 85.9366 -3.26907 -2.72051 0
M  V30 883 N 84.2517 0.741722 -1.39055 0
M  V30 884 C 85.4977 1.50336 -1.36113 0
M  V30 885 C 85.8307 1.94148 0.0450796 0
M  V30 886 O 85.1057 1.66301 1.00868 0
M  V30 887 C 85.3887 2.74773 -2.32749 0
M  V30 888 C 85.2417 2.37023 -3.82283 0
M  V30 889 C 86.5607 3.76846 -2.27322 0
M  V30 890 H 83.6797 0.545351 -0.495743 0
M  V30 891 H 86.3217 0.848624 -1.69995 0
M  V30 892 H 84.4717 3.30639 -2.03986 0
M  V30 893 H 86.1437 1.8684 -4.21768 0
M  V30 894 H 84.3867 1.69334 -3.99385 0
M  V30 895 H 85.0577 3.26104 -4.45376 0
M  V30 896 H 87.5337 3.30548 -2.5274 0
M  V30 897 H 86.4097 4.6159 -2.97028 0
M  V30 898 H 86.6707 4.23286 -1.27599 0
M  V30 899 N 85.7298 1.2412 0.971189 0
M  V30 900 C 86.6398 1.04747 2.09917 0
M  V30 901 C 87.6558 -0.0107162 1.73997 0
M  V30 902 O 88.8318 0.186714 2.00533 0
M  V30 903 C 85.8968 0.650828 3.40537 0
M  V30 904 C 84.9578 1.7851 3.90426 0
M  V30 905 C 84.1908 1.40729 5.14812 0
M  V30 906 O 84.4138 0.29557 5.69634 0
M  V30 907 O 83.3478 2.23168 5.58999 0
M  V30 908 H 87.1738 1.99304 2.29154 0
M  V30 909 H 84.7588 1.02908 1.08307 0
M  V30 910 H 86.6408 0.440992 4.19086 0
M  V30 911 H 85.3158 -0.265649 3.22608 0
M  V30 912 H 84.2228 2.04966 3.12953 0
M  V30 913 H 85.5558 2.68023 4.12825 0
M  V30 914 N 87.2079 -1.17134 1.05439 0
M  V30 915 C 88.6189 -1.69084 0.791676 0
M  V30 916 C 88.9699 -1.83822 -0.685839 0
M  V30 917 O 88.0949 -1.52757 -1.53278 0
M  V30 918 C 88.6899 -3.07119 1.4305 0
M  V30 919 C 87.2489 -3.56225 1.21577 0
M  V30 920 C 86.3959 -2.32421 1.51247 0
M  V30 921 H 89.3469 -1.01617 1.219 0
M  V30 922 H 89.3679 -3.71087 0.84112 0
M  V30 923 H 88.8799 -2.9636 2.50584 0
M  V30 924 H 86.9809 -3.72257 0.159787 0
M  V30 925 H 87.0939 -4.38837 1.92246 0
M  V30 926 H 85.4579 -2.3701 0.932653 0
M  V30 927 H 86.2409 -2.24268 2.5992 0
M  V30 928 N 88.686 -0.835752 -1.33615 0
M  V30 929 C 89.933 -0.429959 -1.97883 0
M  V30 930 C 90.261 1.01006 -1.66217 0
M  V30 931 O 89.516 1.72047 -0.93265 0
M  V30 932 C 89.815 -0.593925 -3.52431 0
M  V30 933 C 89.481 -2.00158 -4.04039 0
M  V30 934 C 88.143 -2.38662 -4.17844 0
M  V30 935 C 90.495 -2.92117 -4.31644 0
M  V30 936 C 87.823 -3.68435 -4.56588 0
M  V30 937 C 90.175 -4.21368 -4.71838 0
M  V30 938 C 88.839 -4.59833 -4.83849 0
M  V30 939 H 88.109 -0.157333 -0.724104 0
M  V30 940 H 90.756 -1.06217 -1.59343 0
M  V30 941 H 89.061 0.121619 -3.91611 0
M  V30 942 H 90.758 -0.260282 -4.00154 0
M  V30 943 H 87.348 -1.69252 -3.93766 0
M  V30 944 H 91.532 -2.63608 -4.20505 0
M  V30 945 H 86.788 -3.98046 -4.64079 0
M  V30 946 H 90.962 -4.92703 -4.92155 0
M  V30 947 H 88.589 -5.60438 -5.13627 0
M  V30 948 N 90.1641 1.46063 -0.591896 0
M  V30 949 C 91.5751 1.85944 -0.167822 0
M  V30 950 C 91.9261 1.49429 1.27143 0
M  V30 951 O 91.0511 0.913515 1.96173 0
M  V30 952 C 91.6461 3.37489 -0.297794 0
M  V30 953 C 90.2051 3.76332 0.0714732 0
M  V30 954 C 89.3521 2.7006 -0.629509 0
M  V30 955 H 92.3031 1.37087 -0.799555 0
M  V30 956 H 92.3241 3.77532 0.474349 0
M  V30 957 H 91.8361 3.64034 -1.3454 0
M  V30 958 H 89.9371 3.55405 1.11886 0
M  V30 959 H 90.0501 4.78088 -0.311245 0
M  V30 960 H 88.4141 2.54607 -0.0687867 0
M  V30 961 H 89.1971 2.99444 -1.67894 0
M  V30 962 N 91.6422 0.330177 1.54103 0
M  V30 963 C 92.5522 -0.541534 2.28264 0
M  V30 964 C 93.5682 -1.12351 1.32866 0
M  V30 965 O 94.7442 -1.14206 1.65888 0
M  V30 966 C 91.8092 -1.68322 3.03098 0
M  V30 967 C 90.8702 -1.13238 4.14096 0
M  V30 968 C 90.1032 -2.21966 4.85352 0
M  V30 969 O 90.3262 -3.42437 4.56172 0
M  V30 970 O 89.2602 -1.87013 5.7211 0
M  V30 971 H 93.0862 0.060938 3.03639 0
M  V30 972 H 90.6712 0.09565 1.49093 0
M  V30 973 H 92.5532 -2.34777 3.49939 0
M  V30 974 H 91.2282 -2.27176 2.30593 0
M  V30 975 H 90.1352 -0.432736 3.71589 0
M  V30 976 H 91.4682 -0.588898 4.88664 0
M  V30 977 N 93.1203 -1.57491 0.0584922 0
M  V30 978 C 94.3683 -1.92597 -0.612436 0
M  V30 979 C 94.6893 -0.938162 -1.70949 0
M  V30 980 O 93.9593 0.0158301 -1.95894 0
M  V30 981 H 92.5393 -0.710964 -0.229214 0
M  V30 982 H 95.2013 -1.94571 0.113218 0
M  V30 983 H 94.2973 -2.94038 -1.04633 0
M  V30 984 N 94.5984 0.214957 -1.56127 0
M  V30 985 C 95.8264 0.955092 -1.83536 0
M  V30 986 C 96.2414 1.77677 -0.638472 0
M  V30 987 O 95.5984 1.78219 0.392968 0
M  V30 988 C 95.6494 1.86734 -3.09536 0
M  V30 989 O 95.3704 1.07887 -4.24608 0
M  V30 990 C 96.8714 2.72082 -3.4998 0
M  V30 991 H 94.0914 0.279611 -0.609966 0
M  V30 992 H 96.6354 0.228197 -2.03223 0
M  V30 993 H 94.7904 2.5481 -2.91806 0
M  V30 994 H 95.2044 1.69872 -4.9623 0
M  V30 995 H 96.6784 3.31782 -4.41163 0
M  V30 996 H 97.1554 3.44806 -2.7204 0
M  V30 997 H 97.7614 2.09409 -3.70173 0
M  V30 998 N 96.0765 1.50051 0.48192 0
M  V30 999 C 97.0085 1.64263 1.59844 0
M  V30 1000 C 98.0215 0.52451 1.54119 0
M  V30 1001 O 99.2105 0.797293 1.59704 0
M  V30 1002 C 96.3105 1.60102 2.98698 0
M  V30 1003 C 95.4835 2.87767 3.29407 0
M  V30 1004 C 94.5425 2.76397 4.47762 0
M  V30 1005 O 93.5685 3.50348 4.48603 0
M  V30 1006 N 94.7705 1.89222 5.48794 0
M  V30 1007 H 97.5355 2.60566 1.48073 0
M  V30 1008 H 95.0965 1.47379 0.670149 0
M  V30 1009 H 97.0885 1.50123 3.75826 0
M  V30 1010 H 95.6585 0.715798 3.04294 0
M  V30 1011 H 94.8785 3.11954 2.40994 0
M  V30 1012 H 96.1665 3.72365 3.4673 0
M  V30 1013 H 95.5645 1.28434 5.50928 0
M  V30 1014 H 94.1215 1.85154 6.24949 0
M  V30 1015 N 97.5546 -0.734337 1.39446 0
M  V30 1016 C 98.4876 -1.85715 1.32609 0
M  V30 1017 C 99.4656 -1.6137 0.199636 0
M  V30 1018 O 100.65 -1.84626 0.380195 0
M  V30 1019 C 97.7766 -3.21709 1.05929 0
M  V30 1020 C 96.8226 -3.64913 2.20773 0
M  V30 1021 S 97.6556 -3.74203 3.83056 0
M  V30 1022 C 98.8116 -5.12986 3.58603 0
M  V30 1023 H 99.0446 -1.91232 2.27635 0
M  V30 1024 H 96.5776 -0.899263 1.25509 0
M  V30 1025 H 98.5356 -4.00236 0.912203 0
M  V30 1026 H 97.1966 -3.13848 0.125883 0
M  V30 1027 H 96.3896 -4.63606 1.97699 0
M  V30 1028 H 95.9916 -2.93593 2.31688 0
M  V30 1029 H 98.2836 -5.99339 3.15909 0
M  V30 1030 H 99.2266 -5.41088 4.5676 0
M  V30 1031 H 99.6346 -4.82694 2.9269 0
M  V30 1032 N 99.0327 -1.24633 -0.964593 0
M  V30 1033 C 99.9957 -1.0424 -2.04124 0
M  V30 1034 C 100.996 0.00137563 -1.608 0
M  V30 1035 O 102.186 -0.239883 -1.7254 0
M  V30 1036 C 99.3177 -0.580588 -3.3592 0
M  V30 1037 H 100.511 -1.99803 -2.23649 0
M  V30 1038 H 98.0637 -1.06899 -1.14027 0
M  V30 1039 H 98.7987 0.3781 -3.22088 0
M  V30 1040 H 98.5837 -1.33398 -3.6871 0
M  V30 1041 H 100.074 -0.459034 -4.15069 0
M  V30 1042 N 100.511 1.16574 -1.06058 0
M  V30 1043 C 101.757 1.87324 -0.777022 0
M  V30 1044 C 102.09 1.81351 0.694645 0
M  V30 1045 O 101.365 1.22753 1.50871 0
M  V30 1046 C 101.648 3.36991 -1.26922 0
M  V30 1047 C 101.501 3.51667 -2.80447 0
M  V30 1048 C 102.82 4.3131 -0.87521 0
M  V30 1049 H 99.9388 0.680191 -0.28374 0
M  V30 1050 H 102.581 1.37036 -1.3161 0
M  V30 1051 H 100.731 3.79949 -0.81063 0
M  V30 1052 H 102.403 3.17664 -3.34495 0
M  V30 1053 H 100.646 2.93656 -3.19294 0
M  V30 1054 H 101.317 4.56766 -3.0995 0
M  V30 1055 H 103.793 3.9624 -1.27014 0
M  V30 1056 H 102.669 5.34545 -1.2471 0
M  V30 1057 H 102.93 4.41552 0.220071 0
M  V30 1058 N 101.989 0.842826 1.3317 0
M  V30 1059 C 103.236 0.440447 1.97652 0
M  V30 1060 C 103.564 -1.00123 1.6675 0
M  V30 1061 O 102.819 -1.7155 0.941761 0
M  V30 1062 C 103.118 0.612607 3.52111 0
M  V30 1063 C 102.784 2.02297 4.02972 0
M  V30 1064 C 101.446 2.40874 4.16573 0
M  V30 1065 C 103.798 2.94402 4.30089 0
M  V30 1066 C 101.126 3.70852 4.54627 0
M  V30 1067 C 103.478 4.23865 4.69597 0
M  V30 1068 C 102.142 4.62392 4.81404 0
M  V30 1069 H 101.412 0.161171 0.72326 0
M  V30 1070 H 104.059 1.07061 1.58777 0
M  V30 1071 H 102.364 -0.100849 3.9167 0
M  V30 1072 H 104.061 0.2815 4.00011 0
M  V30 1073 H 100.651 1.71338 3.92863 0
M  V30 1074 H 104.835 2.65835 4.19101 0
M  V30 1075 H 100.091 4.00501 4.61962 0
M  V30 1076 H 104.265 4.95306 4.89536 0
M  V30 1077 H 101.892 5.63154 5.10648 0
M  V30 1078 N 103.467 -1.45747 0.599634 0
M  V30 1079 C 104.715 -2.01893 0.0915472 0
M  V30 1080 C 105.036 -1.47155 -1.27946 0
M  V30 1081 O 104.306 -0.66273 -1.84349 0
M  V30 1082 H 102.886 -0.746363 0.0308524 0
M  V30 1083 H 105.548 -1.78645 0.779237 0
M  V30 1084 H 104.644 -3.1208 0.0353086 0
M  V30 1085 N 104.945 -0.338344 -1.53925 0
M  V30 1086 C 105.878 0.563758 -2.21127 0
M  V30 1087 C 106.856 1.10433 -1.19345 0
M  V30 1088 O 108.04 1.16557 -1.48144 0
M  V30 1089 C 105.167 1.77505 -2.88461 0
M  V30 1090 C 104.213 1.3644 -4.04087 0
M  V30 1091 S 105.046 0.388593 -5.34088 0
M  V30 1092 C 106.202 1.60683 -6.04923 0
M  V30 1093 H 106.435 -0.00704546 -2.97299 0
M  V30 1094 H 103.968 -0.122418 -1.53914 0
M  V30 1095 H 105.926 2.46999 -3.27875 0
M  V30 1096 H 104.587 2.31706 -2.12064 0
M  V30 1097 H 103.78 2.26739 -4.50117 0
M  V30 1098 H 103.382 0.748998 -3.66423 0
M  V30 1099 H 105.674 2.54209 -6.28 0
M  V30 1100 H 106.617 1.18842 -6.98056 0
M  V30 1101 H 107.025 1.80052 -5.35015 0
M  V30 1102 N 106.423 1.57458 -0.0668435 0
M  V30 1103 C 107.671 1.92919 0.602214 0
M  V30 1104 C 107.992 0.947215 1.70449 0
M  V30 1105 O 107.262 -0.00544117 1.95899 0
M  V30 1106 H 105.842 0.71217 0.22544 0
M  V30 1107 H 108.504 1.94508 -0.123535 0
M  V30 1108 H 107.6 2.94589 1.03073 0
M  V30 1109 N 107.901 -0.206675 1.56239 0
M  V30 1110 C 109.141 -0.93574 1.81723 0
M  V30 1111 C 109.505 -1.80927 0.642609 0
M  V30 1112 O 110.706 -2.57323 0.777081 0
M  V30 1113 C 108.977 -1.74012 3.12177 0
M  V30 1114 S 110.536 -2.52279 3.59028 0
M  V30 1115 H 107.354 -0.314065 0.637875 0
M  V30 1116 H 109.956 -0.200071 1.94474 0
M  V30 1117 H 108.66 -1.0888 3.95693 0
M  V30 1118 H 108.191 -2.51782 3.02274 0
M  V30 1119 H 110.206 -3.76209 3.23545 0
M  V30 1120 N 109.379 -1.50304 -0.473955 0
M  V30 1121 C 110.626 -1.6115 -1.22625 0
M  V30 1122 C 110.954 -0.310517 -1.92005 0
M  V30 1123 O 110.209 0.703419 -1.82621 0
M  V30 1124 C 110.508 -2.73938 -2.29549 0
M  V30 1125 C 110.174 -4.14519 -1.7744 0
M  V30 1126 C 108.836 -4.5277 -1.62949 0
M  V30 1127 C 111.188 -5.02392 -1.3875 0
M  V30 1128 C 108.516 -5.76639 -1.08187 0
M  V30 1129 C 110.868 -6.26805 -0.854309 0
M  V30 1130 C 109.532 -6.63861 -0.696011 0
M  V30 1131 H 108.802 -0.589691 -0.448715 0
M  V30 1132 H 111.449 -1.84228 -0.522705 0
M  V30 1133 H 109.754 -2.44937 -3.05799 0
M  V30 1134 H 111.451 -2.79534 -2.87509 0
M  V30 1135 H 108.041 -3.8434 -1.89685 0
M  V30 1136 H 112.225 -4.73474 -1.4878 0
M  V30 1137 H 107.481 -6.04027 -0.946666 0
M  V30 1138 H 111.655 -6.94258 -0.545843 0
M  V30 1139 H 109.282 -7.59722 -0.26952 0
M  V30 1140 N 110.857 0.726932 -1.39834 0
M  V30 1141 C 112.103 1.48771 -1.38704 0
M  V30 1142 C 112.458 1.92394 0.0146387 0
M  V30 1143 O 111.751 1.64474 0.982797 0
M  V30 1144 C 111.945 2.73495 -2.30077 0
M  V30 1145 C 111.774 2.42068 -3.78989 0
M  V30 1146 C 110.544 2.33966 -4.4787 0
M  V30 1147 C 112.742 2.0708 -4.70768 0
M  V30 1148 N 110.724 1.95095 -5.82075 0
M  V30 1149 C 112.095 1.78719 -5.93683 0
M  V30 1150 C 114.15 1.93618 -4.58712 0
M  V30 1151 C 112.853 1.3825 -7.05889 0
M  V30 1152 C 114.879 1.54553 -5.70848 0
M  V30 1153 C 114.241 1.27082 -6.92842 0
M  V30 1154 H 110.34 0.542919 -0.562817 0
M  V30 1155 H 112.924 0.84408 -1.75452 0
M  V30 1156 H 111.095 3.35625 -1.95474 0
M  V30 1157 H 112.827 3.39755 -2.19883 0
M  V30 1158 H 109.582 2.51331 -4.0141 0
M  V30 1159 H 110.006 1.7823 -6.53118 0
M  V30 1160 H 114.648 2.13522 -3.64922 0
M  V30 1161 H 112.366 1.17088 -7.99572 0
M  V30 1162 H 115.952 1.44731 -5.6351 0
M  V30 1163 H 114.832 0.973069 -7.78139 0
M  V30 1164 N 112.336 1.25143 0.95797 0
M  V30 1165 C 113.584 1.09476 1.69881 0
M  V30 1166 C 113.905 -0.365502 1.91544 0
M  V30 1167 O 113.175 -1.25985 1.50015 0
M  V30 1168 H 111.755 0.402128 0.629525 0
M  V30 1169 H 114.417 1.57214 1.15194 0
M  V30 1170 H 113.513 1.60046 2.6794 0
M  V30 1171 N 113.814 -1.1601 1.06675 0
M  V30 1172 C 114.777 -2.18724 0.685001 0
M  V30 1173 C 115.777 -1.58496 -0.271246 0
M  V30 1174 O 116.967 -1.74119 -0.0531156 0
M  V30 1175 C 114.099 -3.40899 0.00853648 0
M  V30 1176 H 115.292 -2.54011 1.59431 0
M  V30 1177 H 112.845 -1.30352 0.862441 0
M  V30 1178 H 113.58 -3.11173 -0.913337 0
M  V30 1179 H 113.365 -3.8587 0.696204 0
M  V30 1180 H 114.855 -4.16886 -0.24414 0
M  V30 1181 N 115.292 -0.849877 -1.32721 0
M  V30 1182 C 116.202 -0.293791 -2.32753 0
M  V30 1183 C 117.218 0.585906 -1.63839 0
M  V30 1184 O 118.394 0.487413 -1.95413 0
M  V30 1185 C 115.459 0.512752 -3.42887 0
M  V30 1186 C 114.52 -0.39252 -4.27502 0
M  V30 1187 C 113.753 0.375625 -5.32377 0
M  V30 1188 O 113.976 1.60613 -5.4732 0
M  V30 1189 O 112.91 -0.256094 -6.01355 0
M  V30 1190 H 116.736 -1.12242 -2.82197 0
M  V30 1191 H 114.321 -0.612685 -1.36259 0
M  V30 1192 H 116.203 0.970704 -4.10067 0
M  V30 1193 H 114.878 1.31826 -2.95641 0
M  V30 1194 H 113.785 -0.898547 -3.63149 0
M  V30 1195 H 115.118 -1.16309 -4.7826 0
M  V30 1196 N 116.77 1.45427 -0.607355 0
M  V30 1197 C 118.186 1.57283 -0.270985 0
M  V30 1198 C 118.386 1.59875 1.22647 0
M  V30 1199 O 117.442 1.52893 2.00948 0
M  V30 1200 C 118.755 2.85566 -0.941952 0
M  V30 1201 C 120.303 2.9924 -0.917849 0
M  V30 1202 C 120.778 4.30293 -1.56882 0
M  V30 1203 N 122.269 4.37051 -1.5343 0
M  V30 1204 C 123.004 5.37123 -2.00715 0
M  V30 1205 N 122.5 6.43734 -2.56084 0
M  V30 1206 N 124.293 5.28479 -1.91484 0
M  V30 1207 H 116.444 1.41988 -1.57966 0
M  V30 1208 H 118.707 0.67885 -0.661715 0
M  V30 1209 H 118.413 2.8955 -1.99633 0
M  V30 1210 H 118.287 3.74322 -0.465096 0
M  V30 1211 H 120.674 2.94822 0.127984 0
M  V30 1212 H 120.755 2.11895 -1.43297 0
M  V30 1213 H 120.399 4.35469 -2.61398 0
M  V30 1214 H 120.329 5.16454 -1.02873 0
M  V30 1215 H 122.82 3.60615 -1.12982 0
M  V30 1216 H 123.133 7.16341 -2.89958 0
M  V30 1217 H 121.478 6.44485 -2.60122 0
M  V30 1218 H 124.669 4.44098 -1.47967 0
M  V30 1219 H 124.842 6.0632 -2.28648 0
M  V30 1220 N 118.248 0.346503 1.53744 0
M  V30 1221 C 119.195 -0.508914 2.25119 0
M  V30 1222 C 120.165 -1.09315 1.25058 0
M  V30 1223 O 121.35 -1.12921 1.53797 0
M  V30 1224 C 118.49 -1.65246 3.02965 0
M  V30 1225 C 117.603 -1.09525 4.17886 0
M  V30 1226 C 116.738 -2.20634 4.83212 0
M  V30 1227 C 115.777 -1.62279 5.90196 0
M  V30 1228 N 114.914 -2.67143 6.49291 0
M  V30 1229 H 119.754 0.106283 2.9781 0
M  V30 1230 H 117.291 0.0642227 1.4696 0
M  V30 1231 H 119.249 -2.32574 3.4636 0
M  V30 1232 H 117.879 -2.2386 2.32565 0
M  V30 1233 H 116.931 -0.312818 3.79112 0
M  V30 1234 H 118.243 -0.628444 4.94825 0
M  V30 1235 H 117.397 -2.95821 5.29693 0
M  V30 1236 H 116.136 -2.70659 4.05703 0
M  V30 1237 H 115.141 -0.855989 5.43096 0
M  V30 1238 H 116.366 -1.13102 6.69615 0
M  V30 1239 H 114.312 -3.16417 5.74645 0
M  V30 1240 H 114.229 -2.25093 7.21713 0
M  V30 1241 H 115.497 -3.4209 7.00425 0
M  V30 1242 N 119.726 -1.57421 0.075193 0
M  V30 1243 C 120.973 -1.93618 -0.593146 0
M  V30 1244 C 121.301 -0.955484 -1.69413 0
M  V30 1245 O 120.556 0.0283251 -1.9568 0
M  V30 1246 C 120.855 -3.36428 -1.20626 0
M  V30 1247 C 120.521 -4.50307 -0.231078 0
M  V30 1248 C 119.183 -4.81186 0.0371936 0
M  V30 1249 C 121.535 -5.19374 0.435888 0
M  V30 1250 C 118.863 -5.78466 0.979461 0
M  V30 1251 C 121.215 -6.17665 1.3665 0
M  V30 1252 C 119.879 -6.46958 1.6432 0
M  V30 1253 H 119.149 -0.708499 -0.217047 0
M  V30 1254 H 121.796 -1.90937 0.146793 0
M  V30 1255 H 120.101 -3.35592 -2.02201 0
M  V30 1256 H 121.798 -3.61727 -1.73073 0
M  V30 1257 H 118.388 -4.26227 -0.450357 0
M  V30 1258 H 122.572 -4.95711 0.241748 0
M  V30 1259 H 117.828 -5.99487 1.20106 0
M  V30 1260 H 122.002 -6.70284 1.88924 0
M  V30 1261 H 119.629 -7.2215 2.37494 0
M  V30 1262 N 121.204 0.198386 -1.56346 0
M  V30 1263 C 122.45 0.916115 -1.81601 0
M  V30 1264 C 122.805 1.81025 -0.651744 0
M  V30 1265 O 122.098 1.88316 0.353229 0
M  V30 1266 C 122.292 1.77031 -3.10475 0
M  V30 1267 C 122.121 0.960365 -4.39326 0
M  V30 1268 C 120.891 0.646093 -5.01152 0
M  V30 1269 C 123.089 0.314628 -5.13337 0
M  V30 1270 N 121.071 -0.182828 -6.13628 0
M  V30 1271 C 122.442 -0.37664 -6.18855 0
M  V30 1272 C 124.497 0.230019 -4.97368 0
M  V30 1273 C 123.2 -1.14445 -7.10137 0
M  V30 1274 C 125.226 -0.524389 -5.89071 0
M  V30 1275 C 124.588 -1.20412 -6.94032 0
M  V30 1276 H 120.687 0.314732 -0.715868 0
M  V30 1277 H 123.271 0.185102 -1.93818 0
M  V30 1278 H 121.442 2.47295 -2.99499 0
M  V30 1279 H 123.174 2.42727 -3.2383 0
M  V30 1280 H 119.929 0.969724 -4.63566 0
M  V30 1281 H 120.353 -0.586802 -6.74452 0
M  V30 1282 H 124.995 0.741184 -4.16253 0
M  V30 1283 H 122.713 -1.66706 -7.90718 0
M  V30 1284 H 126.299 -0.591167 -5.78789 0
M  V30 1285 H 125.179 -1.77853 -7.63766 0
M  V30 1286 N 122.682 1.50554 0.465978 0
M  V30 1287 C 123.928 1.62038 1.21949 0
M  V30 1288 C 124.261 0.322116 1.9151 0
M  V30 1289 O 123.536 -0.676723 1.82348 0
M  V30 1290 C 123.819 2.80421 2.25912 0
M  V30 1291 C 123.672 4.20144 1.60622 0
M  V30 1292 C 124.991 2.94354 3.27176 0
M  V30 1293 H 122.11 0.589752 0.441998 0
M  V30 1294 H 124.752 1.82956 0.51257 0
M  V30 1295 H 122.902 2.62717 2.86203 0
M  V30 1296 H 124.574 4.49449 1.03889 0
M  V30 1297 H 122.817 4.24165 0.909211 0
M  V30 1298 H 123.488 4.98914 2.36196 0
M  V30 1299 H 125.964 3.10578 2.76913 0
M  V30 1300 H 124.84 3.788 3.97242 0
M  V30 1301 H 125.101 2.05186 3.916 0
M  V30 1302 N 124.16 -0.719506 1.40217 0
M  V30 1303 C 125.09 -1.8465 1.42922 0
M  V30 1304 C 126.071 -1.67599 0.29062 0
M  V30 1305 O 127.256 -1.87688 0.498677 0
M  V30 1306 C 124.386 -3.22565 1.28722 0
M  V30 1307 C 123.34 -3.54281 2.40144 0
M  V30 1308 C 122.666 -4.91298 2.11023 0
M  V30 1309 C 123.966 -3.55676 3.82481 0
M  V30 1310 H 125.66 -1.82644 2.37237 0
M  V30 1311 H 123.206 -0.877305 1.1419 0
M  V30 1312 H 125.159 -4.01095 1.29232 0
M  V30 1313 H 123.883 -3.25137 0.308811 0
M  V30 1314 H 122.542 -2.78088 2.38877 0
M  V30 1315 H 122.19 -4.90468 1.11582 0
M  V30 1316 H 121.89 -5.13485 2.8567 0
M  V30 1317 H 123.414 -5.72166 2.13209 0
M  V30 1318 H 124.828 -4.24254 3.85592 0
M  V30 1319 H 123.225 -3.89388 4.56614 0
M  V30 1320 H 124.295 -2.55144 4.12346 0
M  V30 1321 N 125.638 -1.25649 -0.95132 0
M  V30 1322 C 126.585 -1.06323 -2.04851 0
M  V30 1323 C 127.555 0.0286491 -1.66075 0
M  V30 1324 O 128.74 -0.12917 -1.90362 0
M  V30 1325 C 125.88 -0.691529 -3.381 0
M  V30 1326 C 124.993 -1.85861 -3.89974 0
M  V30 1327 C 124.128 -1.43096 -5.11563 0
M  V30 1328 C 123.167 -2.56696 -5.55674 0
M  V30 1329 N 122.304 -2.14684 -6.68472 0
M  V30 1330 H 127.144 -2.00222 -2.20715 0
M  V30 1331 H 124.681 -0.997027 -1.08156 0
M  V30 1332 H 126.639 -0.456963 -4.1469 0
M  V30 1333 H 125.269 0.210474 -3.22113 0
M  V30 1334 H 124.321 -2.20639 -3.09875 0
M  V30 1335 H 125.633 -2.71161 -4.18657 0
M  V30 1336 H 124.787 -1.15624 -5.9558 0
M  V30 1337 H 123.526 -0.548722 -4.84603 0
M  V30 1338 H 122.531 -2.84909 -4.7022 0
M  V30 1339 H 123.756 -3.45503 -5.8464 0
M  V30 1340 H 121.702 -1.28881 -6.43215 0
M  V30 1341 H 121.619 -2.9353 -6.96689 0
M  V30 1342 H 122.887 -1.90397 -7.5589 0
M  V30 1343 N 127.117 1.15442 -1.07289 0
M  V30 1344 C 128.365 1.85845 -0.794096 0
M  V30 1345 C 128.686 1.82692 0.681809 0
M  V30 1346 O 127.956 1.26741 1.49377 0
M  V30 1347 H 126.536 0.688089 -0.290763 0
M  V30 1348 H 129.198 1.39947 -1.3565 0
M  V30 1349 H 128.294 2.91001 -1.12804 0
M  V30 1350 N 128.595 0.856903 1.32268 0
M  V30 1351 C 129.841 0.462069 1.97466 0
M  V30 1352 C 130.174 -0.980298 1.67642 0
M  V30 1353 O 129.449 -1.68824 0.965858 0
M  V30 1354 C 129.732 0.704336 3.53145 0
M  V30 1355 C 129.585 2.19529 3.9259 0
M  V30 1356 C 130.904 0.1622 4.39801 0
M  V30 1357 H 128.023 0.169357 0.717278 0
M  V30 1358 H 130.665 1.07574 1.56614 0
M  V30 1359 H 128.815 0.181999 3.88073 0
M  V30 1360 H 130.487 2.78387 3.67829 0
M  V30 1361 H 128.73 2.67292 3.41668 0
M  V30 1362 H 129.401 2.31549 5.01088 0
M  V30 1363 H 131.877 0.608905 4.11621 0
M  V30 1364 H 130.753 0.361265 5.4771 0
M  V30 1365 H 131.014 -0.935158 4.32096 0
M  V30 1366 N 130.073 -1.45103 0.615059 0
M  V30 1367 C 131.303 -2.06254 0.119596 0
M  V30 1368 C 131.711 -1.4591 -1.20445 0
M  V30 1369 O 131.054 -0.570384 -1.7462 0
M  V30 1370 C 131.116 -3.59396 -0.0865591 0
M  V30 1371 C 130.78 -4.42116 1.15683 0
M  V30 1372 C 131.777 -4.7662 2.07676 0
M  V30 1373 C 129.462 -4.82749 1.38775 0
M  V30 1374 C 131.456 -5.50622 3.21082 0
M  V30 1375 C 129.143 -5.56504 2.52481 0
M  V30 1376 C 130.141 -5.90358 3.43463 0
M  V30 1377 O 129.829 -6.62615 4.55189 0
M  V30 1378 H 129.561 -0.672423 0.0694512 0
M  V30 1379 H 132.115 -1.87219 0.844885 0
M  V30 1380 H 130.345 -3.76859 -0.866823 0
M  V30 1381 H 132.034 -4.02365 -0.534555 0
M  V30 1382 H 132.8 -4.4578 1.91063 0
M  V30 1383 H 128.679 -4.55829 0.688545 0
M  V30 1384 H 132.223 -5.76965 3.92119 0
M  V30 1385 H 128.12 -5.86759 2.69043 0
M  V30 1386 H 128.888 -6.81071 4.53966 0
M  V30 1387 N 131.551 -0.354651 -1.53558 0
M  V30 1388 C 132.776 0.242153 -2.05981 0
M  V30 1389 C 133.201 1.42553 -1.2272 0
M  V30 1390 O 132.559 1.79656 -0.243604 0
M  V30 1391 C 132.607 0.624367 -3.55154 0
M  V30 1392 O 131.711 1.72301 -3.74681 0
M  V30 1393 H 131.052 0.0378432 -0.662921 0
M  V30 1394 H 133.582 -0.512087 -1.98088 0
M  V30 1395 H 133.592 0.898433 -3.97985 0
M  V30 1396 H 132.267 -0.240989 -4.15201 0
M  V30 1397 H 130.844 1.44535 -3.4375 0
M  V30 1398 N 133.029 1.57378 -0.0835403 0
M  V30 1399 C 134.257 1.98263 0.59157 0
M  V30 1400 C 134.672 0.962302 1.62435 0
M  V30 1401 O 134.029 -0.049581 1.82433 0
M  V30 1402 C 134.08 3.39214 1.24965 0
M  V30 1403 O 133.801 4.37339 0.258186 0
M  V30 1404 C 135.302 3.95038 2.01147 0
M  V30 1405 H 132.522 0.651773 0.159477 0
M  V30 1406 H 135.066 2.03878 -0.159415 0
M  V30 1407 H 133.221 3.34649 1.95164 0
M  V30 1408 H 133.635 5.19371 0.731734 0
M  V30 1409 H 135.109 4.95848 2.42567 0
M  V30 1410 H 135.586 3.32222 2.87272 0
M  V30 1411 H 136.192 4.0304 1.35789 0
M  V30 1412 N 134.507 -0.190092 1.56449 0
M  V30 1413 C 135.439 -1.25973 1.91477 0
M  V30 1414 C 136.452 -1.41452 0.805931 0
M  V30 1415 O 137.641 -1.41789 1.08435 0
M  V30 1416 C 134.741 -2.63117 2.13594 0
M  V30 1417 C 133.914 -2.69182 3.4476 0
M  V30 1418 C 132.973 -3.87557 3.5593 0
M  V30 1419 O 131.999 -3.74427 4.28711 0
M  V30 1420 N 133.201 -5.03224 2.89388 0
M  V30 1421 H 135.966 -0.962394 2.83828 0
M  V30 1422 H 133.527 -0.379981 1.57378 0
M  V30 1423 H 135.519 -3.40742 2.1835 0
M  V30 1424 H 134.089 -2.85319 1.27719 0
M  V30 1425 H 133.309 -1.77793 3.51828 0
M  V30 1426 H 134.597 -2.70229 4.31107 0
M  V30 1427 H 133.995 -5.16791 2.30094 0
M  V30 1428 H 132.552 -5.78778 2.99764 0
M  V30 1429 N 135.985 -1.50799 -0.457987 0
M  V30 1430 C 137.231 -1.62683 -1.21088 0
M  V30 1431 C 137.564 -0.332268 -1.91336 0
M  V30 1432 O 136.839 0.667043 -1.82704 0
M  V30 1433 C 137.122 -2.81615 -2.24422 0
M  V30 1434 C 136.975 -4.20989 -1.58392 0
M  V30 1435 C 138.294 -2.96085 -3.2561 0
M  V30 1436 H 135.413 -0.592087 -0.438864 0
M  V30 1437 H 138.055 -1.83225 -0.50286 0
M  V30 1438 H 136.205 -2.64231 -2.84806 0
M  V30 1439 H 137.877 -4.49994 -1.01504 0
M  V30 1440 H 136.12 -4.24641 -0.886704 0
M  V30 1441 H 136.791 -5.0016 -2.33547 0
M  V30 1442 H 139.267 -3.12042 -2.75262 0
M  V30 1443 H 138.143 -3.80902 -3.95228 0
M  V30 1444 H 138.404 -2.0726 -3.90507 0
M  V30 1445 N 137.463 0.71206 -1.40597 0
M  V30 1446 C 138.711 1.46907 -1.38791 0
M  V30 1447 C 139.032 1.94998 0.00780391 0
M  V30 1448 O 138.302 1.70587 0.963174 0
M  V30 1449 H 136.882 0.545043 -0.51082 0
M  V30 1450 H 139.544 0.843882 -1.75683 0
M  V30 1451 H 138.64 2.34021 -2.06496 0
M  V30 1452 N 138.941 1.26152 0.944643 0
M  V30 1453 C 140.188 1.11492 1.69044 0
M  V30 1454 C 140.516 -0.342366 1.91463 0
M  V30 1455 O 139.771 -1.26812 1.49054 0
M  V30 1456 C 140.07 1.82541 3.07268 0
M  V30 1457 C 139.736 3.32445 3.04616 0
M  V30 1458 C 138.398 3.73337 3.036 0
M  V30 1459 C 140.75 4.28171 2.97185 0
M  V30 1460 C 138.078 5.08348 2.92915 0
M  V30 1461 C 140.43 5.63218 2.88041 0
M  V30 1462 C 139.094 6.03426 2.85366 0
M  V30 1463 H 138.364 0.407977 0.618576 0
M  V30 1464 H 141.011 1.56551 1.10291 0
M  V30 1465 H 139.316 1.29941 3.69625 0
M  V30 1466 H 141.013 1.68642 3.63815 0
M  V30 1467 H 137.603 2.99915 3.06185 0
M  V30 1468 H 141.787 3.97563 2.97081 0
M  V30 1469 H 137.043 5.38667 2.89219 0
M  V30 1470 H 141.217 6.37078 2.81254 0
M  V30 1471 H 138.844 7.07999 2.76842 0
M  V30 1472 N 140.419 -1.14872 1.07899 0
M  V30 1473 C 141.382 -2.17986 0.708161 0
M  V30 1474 C 142.382 -1.58775 -0.25442 0
M  V30 1475 O 143.572 -1.74166 -0.034645 0
M  V30 1476 C 140.704 -3.40871 0.0446929 0
M  V30 1477 H 141.897 -2.52306 1.62116 0
M  V30 1478 H 139.45 -1.2943 0.876218 0
M  V30 1479 H 140.185 -3.12124 -0.880281 0
M  V30 1480 H 139.97 -3.8511 0.737091 0
M  V30 1481 H 141.46 -4.17121 -0.19991 0
M  V30 1482 N 141.898 -0.863906 -1.31812 0
M  V30 1483 C 143.146 -0.470904 -1.96537 0
M  V30 1484 C 143.467 0.978771 -1.68657 0
M  V30 1485 O 142.737 1.6853 -0.998717 0
M  V30 1486 H 141.317 -0.171148 -0.72713 0
M  V30 1487 H 143.979 -1.10236 -1.60729 0
M  V30 1488 H 143.075 -0.623616 -3.05806 0
M  V30 1489 N 143.376 1.44774 -0.622745 0
M  V30 1490 C 144.624 2.01721 -0.123655 0
M  V30 1491 C 144.945 1.49172 1.25589 0
M  V30 1492 O 144.215 0.691974 1.83272 0
M  V30 1493 H 142.795 0.745777 -0.0427225 0
M  V30 1494 H 145.457 1.77382 -0.807559 0
M  V30 1495 H 144.553 3.11984 -0.0849534 0
M  V30 1496 N 144.854 0.36279 1.53368 0
M  V30 1497 C 146.084 -0.228281 2.05335 0
M  V30 1498 C 146.492 -1.43226 1.23625 0
M  V30 1499 O 145.835 -1.81717 0.269206 0
M  V30 1500 C 145.897 -0.688549 3.52845 0
M  V30 1501 C 145.561 0.398362 4.5526 0
M  V30 1502 C 146.558 1.24732 5.04716 0
M  V30 1503 C 144.243 0.557805 4.99193 0
M  V30 1504 C 146.237 2.2411 5.96702 0
M  V30 1505 C 143.924 1.55495 5.90986 0
M  V30 1506 C 144.922 2.39503 6.39631 0
M  V30 1507 O 144.61 3.37517 7.29615 0
M  V30 1508 H 144.342 -0.044395 0.674541 0
M  V30 1509 H 146.896 0.518668 1.98744 0
M  V30 1510 H 145.126 -1.48706 3.56964 0
M  V30 1511 H 146.815 -1.20231 3.87685 0
M  V30 1512 H 147.581 1.13532 4.71525 0
M  V30 1513 H 143.46 -0.0862959 4.60919 0
M  V30 1514 H 147.004 2.89718 6.34594 0
M  V30 1515 H 142.901 1.66744 6.23592 0
M  V30 1516 H 143.669 3.33213 7.47604 0
M  V30 1517 N 146.332 -1.57332 0.0918853 0
M  V30 1518 C 147.56 -1.98574 -0.581048 0
M  V30 1519 C 147.975 -0.970903 -1.61923 0
M  V30 1520 O 147.332 0.0399054 -1.82456 0
M  V30 1521 C 147.383 -3.39872 -1.23164 0
M  V30 1522 O 147.104 -4.37469 -0.234989 0
M  V30 1523 C 148.605 -3.96099 -1.99049 0
M  V30 1524 H 145.825 -0.65261 -0.156018 0
M  V30 1525 H 148.369 -2.0379 0.170225 0
M  V30 1526 H 146.524 -3.35679 -1.93386 0
M  V30 1527 H 146.938 -5.19751 -0.70418 0
M  V30 1528 H 148.412 -4.97127 -2.39934 0
M  V30 1529 H 148.889 -3.3374 -2.85507 0
M  V30 1530 H 149.495 -4.03755 -1.3365 0
M  V30 1531 N 147.81 0.181792 -1.56548 0
M  V30 1532 C 149.035 0.920019 -1.85877 0
M  V30 1533 C 149.46 1.75494 -0.677021 0
M  V30 1534 O 148.818 1.77399 0.374056 0
M  V30 1535 C 148.866 1.78112 -3.13542 0
M  V30 1536 O 147.97 2.88152 -2.95029 0
M  V30 1537 H 147.311 0.258334 -0.611686 0
M  V30 1538 H 149.841 0.183092 -2.03779 0
M  V30 1539 H 149.851 2.18314 -3.44678 0
M  V30 1540 H 148.526 1.16777 -3.99169 0
M  V30 1541 H 147.103 2.51609 -2.75222 0
M  V30 1542 N 149.288 1.51039 0.449983 0
M  V30 1543 C 150.236 1.71995 1.5659 0
M  V30 1544 C 151.23 0.586029 1.5894 0
M  V30 1545 O 152.436 0.76709 1.62837 0
M  V30 1546 H 148.811 0.543233 0.520001 0
M  V30 1547 H 150.782 2.65562 1.36085 0
M  V30 1548 C 149.531 1.8506 2.9436 0
M  V30 1549 H 148.854 2.71712 2.93279 0
M  V30 1550 H 150.294 2.0374 3.71842 0
M  V30 1551 C 148.753 0.607277 3.31382 0
M  V30 1552 O 149.283 -0.243903 4.00959 0
M  V30 1553 N 147.489 0.455073 2.87015 0
M  V30 1554 H 147.036 1.14879 2.30566 0
M  V30 1555 H 146.994 -0.375611 3.12148 0
M  V30 1556 N 150.766 -0.704594 1.40972 0
M  V30 1557 C 152.177 -1.28418 1.3552 0
M  V30 1558 C 152.528 -1.96171 0.0339434 0
M  V30 1559 O 151.653 -1.98231 -0.867944 0
M  V30 1560 C 152.248 -2.33528 2.45459 0
M  V30 1561 C 150.807 -2.87085 2.43433 0
M  V30 1562 C 149.954 -1.61007 2.2577 0
M  V30 1563 H 152.905 -0.499963 1.50619 0
M  V30 1564 H 152.926 -3.14619 2.13998 0
M  V30 1565 H 152.438 -1.84187 3.41609 0
M  V30 1566 H 150.539 -3.40626 1.51013 0
M  V30 1567 H 150.652 -3.3813 3.39419 0
M  V30 1568 H 149.016 -1.86482 1.73483 0
M  V30 1569 H 149.799 -1.13675 3.23933 0
M  V30 1570 N 152.244 -1.26651 -0.937939 0
M  V30 1571 C 153.472 -1.15173 -1.7188 0
M  V30 1572 C 153.887 0.292668 -1.86518 0
M  V30 1573 O 153.244 1.20014 -1.37488 0
M  V30 1574 C 153.295 -1.81925 -3.12387 0
M  V30 1575 O 153.016 -3.2072 -2.98446 0
M  V30 1576 C 154.517 -1.76442 -4.06673 0
M  V30 1577 H 151.737 -0.400911 -0.538063 0
M  V30 1578 H 154.281 -1.67332 -1.1756 0
M  V30 1579 H 152.436 -1.33696 -3.63599 0
M  V30 1580 H 152.85 -3.53802 -3.872 0
M  V30 1581 H 154.324 -2.27781 -5.02812 0
M  V30 1582 H 154.801 -0.731608 -4.33064 0
M  V30 1583 H 155.407 -2.24238 -3.61382 0
M  V30 1584 N 153.722 1.14298 -1.08507 0
M  V30 1585 C 154.952 1.88945 -0.835663 0
M  V30 1586 C 155.36 1.78894 0.615928 0
M  V30 1587 O 154.703 1.1468 1.43506 0
M  V30 1588 C 154.765 3.39585 -1.17994 0
M  V30 1589 C 154.429 3.7342 -2.63451 0
M  V30 1590 C 155.426 3.73454 -3.61702 0
M  V30 1591 C 153.111 4.03368 -2.99332 0
M  V30 1592 C 155.105 4.02961 -4.93864 0
M  V30 1593 C 152.792 4.32538 -4.31687 0
M  V30 1594 C 153.79 4.32318 -5.28763 0
M  V30 1595 O 153.478 4.6078 -6.58739 0
M  V30 1596 H 153.21 0.605307 -0.300965 0
M  V30 1597 H 155.764 1.45673 -1.44806 0
M  V30 1598 H 153.994 3.83315 -0.51055 0
M  V30 1599 H 155.683 3.9554 -0.911182 0
M  V30 1600 H 156.449 3.50403 -3.35325 0
M  V30 1601 H 152.328 4.02692 -2.24411 0
M  V30 1602 H 155.872 4.02704 -5.69627 0
M  V30 1603 H 151.769 4.55059 -4.57812 0
M  V30 1604 H 152.537 4.78492 -6.64069 0
M  V30 1605 N 155.201 0.870884 1.31352 0
M  V30 1606 C 156.148 0.325425 2.28494 0
M  V30 1607 C 157.118 -0.576615 1.5577 0
M  V30 1608 O 158.303 -0.508059 1.83911 0
M  V30 1609 C 155.443 -0.466283 3.41935 0
M  V30 1610 C 154.556 0.463378 4.29508 0
M  V30 1611 C 153.691 -0.342544 5.30094 0
M  V30 1612 C 152.73 0.583486 6.09313 0
M  V30 1613 N 151.867 -0.186244 7.01853 0
M  V30 1614 H 156.707 1.15901 2.74538 0
M  V30 1615 H 154.244 0.58294 1.35056 0
M  V30 1616 H 156.202 -0.941085 4.06447 0
M  V30 1617 H 154.832 -1.26456 2.97 0
M  V30 1618 H 153.884 1.05663 3.65431 0
M  V30 1619 H 155.196 1.1734 4.84802 0
M  V30 1620 H 154.35 -0.879816 6.00287 0
M  V30 1621 H 153.089 -1.08585 4.75458 0
M  V30 1622 H 152.094 1.13251 5.3801 0
M  V30 1623 H 153.319 1.32566 6.66035 0
M  V30 1624 H 151.265 -0.912348 6.49625 0
M  V30 1625 H 151.182 0.464422 7.54572 0
M  V30 1626 H 152.45 -0.704716 7.76308 0
M  V30 1627 N 156.679 -1.44442 0.630414 0
M  V30 1628 C 157.589 -2.34476 -0.0761693 0
M  V30 1629 C 158.605 -1.52576 -0.836449 0
M  V30 1630 O 159.781 -1.85307 -0.788874 0
M  V30 1631 C 156.846 -3.30545 -1.04599 0
M  V30 1632 C 155.907 -4.28352 -0.28516 0
M  V30 1633 C 155.14 -5.19831 -1.20878 0
M  V30 1634 O 155.363 -5.15223 -2.44747 0
M  V30 1635 O 154.297 -5.97892 -0.693491 0
M  V30 1636 H 158.123 -2.96345 0.664324 0
M  V30 1637 H 155.708 -1.44203 0.39061 0
M  V30 1638 H 157.59 -3.89681 -1.60396 0
M  V30 1639 H 156.265 -2.7121 -1.76711 0
M  V30 1640 H 155.172 -3.72764 0.315837 0
M  V30 1641 H 156.505 -4.90605 0.395924 0
M  V30 1642 N 158.157 -0.370918 -1.53173 0
M  V30 1643 C 159.403 0.217423 -2.01631 0
M  V30 1644 C 159.736 1.47983 -1.25756 0
M  V30 1645 O 159.011 1.91274 -0.352764 0
M  V30 1646 C 159.294 0.503982 -3.56556 0
M  V30 1647 C 159.147 -0.77243 -4.43118 0
M  V30 1648 C 160.466 1.30234 -4.20389 0
M  V30 1649 H 157.585 0.0775486 -0.732909 0
M  V30 1650 H 160.227 -0.496863 -1.83388 0
M  V30 1651 H 158.377 1.11248 -3.72231 0
M  V30 1652 H 160.049 -1.4098 -4.39229 0
M  V30 1653 H 158.292 -1.39167 -4.10871 0
M  V30 1654 H 158.963 -0.526815 -5.4948 0
M  V30 1655 H 161.439 0.787546 -4.08579 0
M  V30 1656 H 160.315 1.47158 -5.28806 0
M  V30 1657 H 160.576 2.31237 -3.76805 0
M  V30 1658 N 159.635 1.57281 -0.100228 0
M  V30 1659 C 160.875 1.96419 0.56558 0
M  V30 1660 C 161.239 0.981265 1.65031 0
M  V30 1661 O 162.44 1.26133 2.37369 0
M  V30 1662 C 160.711 3.39996 1.10171 0
M  V30 1663 S 162.27 4.01134 1.77867 0
M  V30 1664 H 159.088 0.68667 0.184406 0
M  V30 1665 H 161.69 1.94662 -0.180851 0
M  V30 1666 H 160.394 4.09296 0.300803 0
M  V30 1667 H 159.925 3.45361 1.88385 0
M  V30 1668 H 161.94 3.90358 3.06326 0
M  V30 1669 N 161.113 -0.173488 1.56642 0
M  V30 1670 C 162.338 -0.910149 1.86363 0
M  V30 1671 C 162.763 -1.75132 0.686318 0
M  V30 1672 O 162.121 -1.77595 -0.364643 0
M  V30 1673 C 162.169 -1.76447 3.14482 0
M  V30 1674 O 161.273 -2.86584 2.96553 0
M  V30 1675 H 160.614 -0.255086 0.613047 0
M  V30 1676 H 163.144 -0.172283 2.03873 0
M  V30 1677 H 163.154 -2.16483 3.45831 0
M  V30 1678 H 161.829 -1.14658 3.99783 0
M  V30 1679 H 160.406 -2.50146 2.76553 0
M  V30 1680 N 162.591 -1.51276 -0.441967 0
M  V30 1681 C 163.501 -1.75092 -1.56141 0
M  V30 1682 C 164.517 -0.634963 -1.62001 0
M  V30 1683 O 165.693 -0.916686 -1.79329 0
M  V30 1684 C 162.758 -1.86666 -2.92158 0
M  V30 1685 C 161.819 -3.10506 -2.96453 0
M  V30 1686 C 161.052 -3.21519 -4.25982 0
M  V30 1687 O 161.275 -2.38586 -5.18105 0
M  V30 1688 O 160.209 -4.14465 -4.36466 0
M  V30 1689 H 164.035 -2.70044 -1.38961 0
M  V30 1690 H 161.62 -1.35722 -0.624499 0
M  V30 1691 H 163.502 -1.96292 -3.72891 0
M  V30 1692 H 162.177 -0.949014 -3.09476 0
M  V30 1693 H 161.084 -3.06363 -2.14692 0
M  V30 1694 H 162.417 -4.01945 -2.84079 0
M  V30 1695 N 164.069 0.697108 -1.41344 0
M  V30 1696 C 165.016 1.81106 -1.43071 0
M  V30 1697 C 165.986 1.63632 -0.285275 0
M  V30 1698 O 167.171 1.84504 -0.486091 0
M  V30 1699 C 164.311 3.18975 -1.31715 0
M  V30 1700 C 163.424 3.47892 -2.56115 0
M  V30 1701 C 162.559 4.75367 -2.37064 0
M  V30 1702 C 161.598 4.97247 -3.56948 0
M  V30 1703 N 160.735 6.15947 -3.36977 0
M  V30 1704 H 165.575 1.78965 -2.38276 0
M  V30 1705 H 163.112 0.873975 -1.18322 0
M  V30 1706 H 165.07 3.98615 -1.23133 0
M  V30 1707 H 163.7 3.20297 -0.401183 0
M  V30 1708 H 162.752 2.62669 -2.75153 0
M  V30 1709 H 164.064 3.59962 -3.45295 0
M  V30 1710 H 163.218 5.63059 -2.25941 0
M  V30 1711 H 161.957 4.65541 -1.45338 0
M  V30 1712 H 160.962 4.08004 -3.68527 0
M  V30 1713 H 162.187 5.08934 -4.49626 0
M  V30 1714 H 160.133 6.07336 -2.47949 0
M  V30 1715 H 160.05 6.28777 -4.19732 0
M  V30 1716 H 161.318 7.06377 -3.29623 0
M  V30 1717 N 165.547 1.27147 0.931209 0
M  V30 1718 C 166.775 1.16082 1.71267 0
M  V30 1719 C 167.19 -0.282772 1.8667 0
M  V30 1720 O 166.547 -1.19283 1.38122 0
M  V30 1721 C 166.598 1.8358 3.11417 0
M  V30 1722 O 166.319 3.22299 2.96741 0
M  V30 1723 C 167.82 1.78597 4.05732 0
M  V30 1724 H 165.04 0.403758 0.535929 0
M  V30 1725 H 167.584 1.67953 1.16671 0
M  V30 1726 H 165.739 1.35623 3.62885 0
M  V30 1727 H 166.153 3.55851 3.85319 0
M  V30 1728 H 167.627 2.30444 5.01597 0
M  V30 1729 H 168.104 0.754564 4.3267 0
M  V30 1730 H 168.71 2.26152 3.60188 0
M  V30 1731 N 167.025 -1.13721 1.09112 0
M  V30 1732 C 168.273 -1.84559 0.823562 0
M  V30 1733 C 168.594 -1.83754 -0.652658 0
M  V30 1734 O 167.864 -1.29102 -1.47342 0
M  V30 1735 H 166.444 -0.683376 0.301673 0
M  V30 1736 H 169.106 -1.37771 1.37859 0
M  V30 1737 H 168.202 -2.8917 1.17419 0
M  V30 1738 N 168.503 -0.877838 -1.30888 0
M  V30 1739 C 169.453 -0.310872 -2.25871 0
M  V30 1740 C 170.437 0.556596 -1.50966 0
M  V30 1741 O 171.629 0.402187 -1.7237 0
M  V30 1742 C 168.758 0.479821 -3.3993 0
M  V30 1743 C 167.844 -0.401333 -4.22197 0
M  V30 1744 N 168.235 -1.49848 -4.83093 0
M  V30 1745 C 166.533 -0.195167 -4.45573 0
M  V30 1746 C 167.234 -2.0425 -5.44662 0
M  V30 1747 N 166.21 -1.33843 -5.26865 0
M  V30 1748 H 170.012 -1.1493 -2.70496 0
M  V30 1749 H 167.526 -0.726458 -1.45246 0
M  V30 1750 H 169.523 0.902582 -4.07012 0
M  V30 1751 H 168.183 1.31577 -2.96846 0
M  V30 1752 H 169.194 -1.88137 -4.82519 0
M  V30 1753 H 165.871 0.604192 -4.13105 0
M  V30 1754 H 167.261 -2.96345 -6.03017 0
M  V30 1755 N 169.982 1.44106 -0.638065 0
M  V30 1756 C 170.945 2.29138 0.0531013 0
M  V30 1757 C 171.945 1.41409 0.765506 0
M  V30 1758 O 173.135 1.63206 0.609046 0
M  V30 1759 C 170.267 3.23144 1.08584 0
M  V30 1760 H 171.46 2.91739 -0.694883 0
M  V30 1761 H 169.013 1.51134 -0.398538 0
M  V30 1762 H 169.748 2.65408 1.86357 0
M  V30 1763 H 169.533 3.87804 0.578852 0
M  V30 1764 H 171.023 3.87004 1.56899 0
M  V30 1765 N 171.46 0.379036 1.52974 0
M  V30 1766 C 172.37 -0.468639 2.29872 0
M  V30 1767 C 173.386 -1.08067 1.36373 0
M  V30 1768 O 174.562 -1.08871 1.69438 0
M  V30 1769 C 171.627 -1.58594 3.083 0
M  V30 1770 C 170.688 -1.00007 4.17489 0
M  V30 1771 C 169.921 -2.06413 4.92168 0
M  V30 1772 O 170.144 -3.27751 4.66835 0
M  V30 1773 O 169.078 -1.68717 5.7777 0
M  V30 1774 H 172.904 0.157508 3.03291 0
M  V30 1775 H 170.489 0.143035 1.48714 0
M  V30 1776 H 172.371 -2.23525 3.57232 0
M  V30 1777 H 171.046 -2.19724 2.37703 0
M  V30 1778 H 169.953 -0.314299 3.72777 0
M  V30 1779 H 171.286 -0.433135 4.90291 0
M  V30 1780 N 172.938 -1.57226 0.108567 0
M  V30 1781 C 174.184 -1.95121 -0.552761 0
M  V30 1782 C 174.517 -0.991345 -1.66991 0
M  V30 1783 O 173.792 -0.0267211 -1.94482 0
M  V30 1784 C 174.075 -3.43039 -1.09528 0
M  V30 1785 C 173.928 -4.49797 0.0177332 0
M  V30 1786 C 175.247 -3.92567 -1.98945 0
M  V30 1787 H 172.366 -0.709496 -0.199461 0
M  V30 1788 H 175.008 -1.89126 0.182011 0
M  V30 1789 H 173.158 -3.48279 -1.72146 0
M  V30 1790 H 174.83 -4.56661 0.652584 0
M  V30 1791 H 173.073 -4.284 0.682309 0
M  V30 1792 H 173.744 -5.50528 -0.402919 0
M  V30 1793 H 176.22 -3.89565 -1.46214 0
M  V30 1794 H 175.096 -4.96605 -2.33827 0
M  V30 1795 H 175.357 -3.32648 -2.91201 0
M  V30 1796 N 174.416 0.165178 -1.56732 0
M  V30 1797 C 175.662 0.882112 -1.82611 0
M  V30 1798 C 175.995 1.81628 -0.687378 0
M  V30 1799 O 175.27 1.92009 0.310267 0
M  V30 1800 C 175.553 1.67245 -3.18906 0
M  V30 1801 C 175.406 0.760987 -4.43316 0
M  V30 1802 C 176.725 2.63884 -3.52212 0
M  V30 1803 H 173.844 0.319242 -0.664269 0
M  V30 1804 H 176.486 0.148052 -1.89422 0
M  V30 1805 H 174.636 2.29824 -3.1323 0
M  V30 1806 H 176.308 0.147596 -4.61064 0
M  V30 1807 H 174.551 0.0694102 -4.33744 0
M  V30 1808 H 175.222 1.34962 -5.35247 0
M  V30 1809 H 177.698 2.11429 -3.58381 0
M  V30 1810 H 176.574 3.16245 -4.48643 0
M  V30 1811 H 176.835 3.44377 -2.77231 0
M  V30 1812 N 175.894 1.51508 0.433938 0
M  V30 1813 C 177.31 1.39759 0.770682 0
M  V30 1814 C 177.51 0.482594 1.95636 0
M  V30 1815 O 176.566 -0.0609691 2.52426 0
M  V30 1816 C 177.879 2.81851 1.04787 0
M  V30 1817 C 179.427 2.91025 1.1521 0
M  V30 1818 C 179.902 4.34032 1.46219 0
M  V30 1819 N 181.393 4.37154 1.53136 0
M  V30 1820 C 182.128 5.4484 1.78709 0
M  V30 1821 N 181.624 6.62682 2.02051 0
M  V30 1822 N 183.417 5.32324 1.80519 0
M  V30 1823 H 175.568 2.09548 -0.346892 0
M  V30 1824 H 177.831 0.943446 -0.0928074 0
M  V30 1825 H 177.537 3.50815 0.249304 0
M  V30 1826 H 177.411 3.21386 1.97461 0
M  V30 1827 H 179.798 2.22257 1.94128 0
M  V30 1828 H 179.879 2.54983 0.204281 0
M  V30 1829 H 179.523 5.03351 0.678274 0
M  V30 1830 H 179.453 4.6759 2.42212 0
M  V30 1831 H 181.944 3.52197 1.36987 0
M  V30 1832 H 182.257 7.40543 2.20943 0
M  V30 1833 H 180.602 6.65791 1.99366 0
M  V30 1834 H 183.793 4.39246 1.61805 0
M  V30 1835 H 183.966 6.16328 2.00111 0
M  V30 1836 N 177.372 -0.689602 1.41712 0
M  V30 1837 C 178.618 -1.45181 1.41599 0
M  V30 1838 C 178.951 -1.94181 0.0270081 0
M  V30 1839 O 178.226 -1.6993 -0.946265 0
M  V30 1840 C 178.509 -2.65945 2.42787 0
M  V30 1841 C 178.362 -2.22672 3.90816 0
M  V30 1842 C 179.681 -3.68149 2.41151 0
M  V30 1843 H 176.8 -0.526576 0.515642 0
M  V30 1844 H 179.442 -0.784947 1.73028 0
M  V30 1845 H 177.592 -3.2284 2.16116 0
M  V30 1846 H 179.264 -1.71058 4.28412 0
M  V30 1847 H 177.507 -1.54394 4.05395 0
M  V30 1848 H 178.178 -3.0935 4.57172 0
M  V30 1849 H 180.654 -3.2094 2.64834 0
M  V30 1850 H 179.53 -4.50248 3.13955 0
M  V30 1851 H 179.791 -4.18259 1.43221 0
M  V30 1852 N 178.85 -1.27639 -0.924453 0
M  V30 1853 C 180.096 -1.14336 -1.67497 0
M  V30 1854 C 180.429 0.309465 -1.91718 0
M  V30 1855 O 179.704 1.22608 -1.50989 0
M  V30 1856 C 179.987 -1.93096 -3.0395 0
M  V30 1857 C 179.84 -3.46381 -2.8695 0
M  V30 1858 C 181.159 -1.73798 -4.0433 0
M  V30 1859 H 178.278 -0.416728 -0.607871 0
M  V30 1860 H 180.92 -1.56832 -1.07256 0
M  V30 1861 H 179.07 -1.56982 -3.55372 0
M  V30 1862 H 180.742 -3.92343 -2.42621 0
M  V30 1863 H 178.985 -3.72557 -2.22225 0
M  V30 1864 H 179.656 -3.96735 -3.83804 0
M  V30 1865 H 182.132 -2.05293 -3.61931 0
M  V30 1866 H 181.008 -2.31294 -4.97789 0
M  V30 1867 H 181.269 -0.686725 -4.36734 0
M  V30 1868 N 180.328 1.1314 -1.09713 0
M  V30 1869 C 181.558 1.88048 -0.855656 0
M  V30 1870 C 181.966 1.79537 0.596919 0
M  V30 1871 O 181.309 1.16196 1.42282 0
M  V30 1872 C 181.371 3.38314 -1.21589 0
M  V30 1873 C 181.035 3.70605 -2.67397 0
M  V30 1874 C 182.032 3.69596 -3.65643 0
M  V30 1875 C 179.717 4.0017 -3.03593 0
M  V30 1876 C 181.711 3.977 -4.9811 0
M  V30 1877 C 179.398 4.27935 -4.36251 0
M  V30 1878 C 180.396 4.26685 -5.33318 0
M  V30 1879 O 180.084 4.53767 -6.63589 0
M  V30 1880 H 179.816 0.60208 -0.307368 0
M  V30 1881 H 182.37 1.44128 -1.46343 0
M  V30 1882 H 180.6 3.82752 -0.551177 0
M  V30 1883 H 182.289 3.94552 -0.953083 0
M  V30 1884 H 183.055 3.46826 -3.39023 0
M  V30 1885 H 178.934 4.00289 -2.2867 0
M  V30 1886 H 182.478 3.9664 -5.73866 0
M  V30 1887 H 178.375 4.50178 -4.62613 0
M  V30 1888 H 179.143 4.71422 -6.69107 0
M  V30 1889 N 181.806 0.884767 1.30421 0
M  V30 1890 C 182.738 0.308655 2.27112 0
M  V30 1891 C 183.751 -0.536655 1.53701 0
M  V30 1892 O 184.94 -0.35624 1.74909 0
M  V30 1893 C 182.04 -0.579782 3.33904 0
M  V30 1894 C 181.213 0.236417 4.36761 0
M  V30 1895 C 180.272 -0.582482 5.22966 0
M  V30 1896 O 179.298 -0.00525502 5.692 0
M  V30 1897 N 180.5 -1.89163 5.48815 0
M  V30 1898 H 183.265 1.13964 2.77186 0
M  V30 1899 H 180.826 0.747731 1.43599 0
M  V30 1900 H 182.818 -1.13366 3.88497 0
M  V30 1901 H 181.388 -1.31144 2.83761 0
M  V30 1902 H 180.608 0.97174 3.82035 0
M  V30 1903 H 181.896 0.795924 5.02536 0
M  V30 1904 H 181.294 -2.38352 5.13035 0
M  V30 1905 H 179.851 -2.39296 6.06284 0
M  V30 1906 N 183.284 -1.43765 0.645699 0
M  V30 1907 C 184.695 -1.85193 0.236719 0
M  V30 1908 C 185.046 -1.54045 -1.21509 0
M  V30 1909 O 184.171 -0.985694 -1.92647 0
M  V30 1910 C 184.766 -3.36151 0.422845 0
M  V30 1911 C 183.325 -3.76338 0.0682492 0
M  V30 1912 C 182.472 -2.67538 0.729306 0
M  V30 1913 H 185.423 -1.34025 0.849883 0
M  V30 1914 H 185.444 -3.79032 -0.333904 0
M  V30 1915 H 184.956 -3.5879 1.47958 0
M  V30 1916 H 183.057 -3.59312 -0.986179 0
M  V30 1917 H 183.17 -4.76603 0.488469 0
M  V30 1918 H 181.534 -2.54176 0.163235 0
M  V30 1919 H 182.317 -2.93006 1.78892 0
M  V30 1920 N 184.763 -0.387143 -1.52771 0
M  V30 1921 C 185.673 0.456442 -2.30117 0
M  V30 1922 C 186.689 1.07342 -1.36944 0
M  V30 1923 O 187.865 1.07971 -1.70013 0
M  V30 1924 C 184.93 1.56957 -3.09136 0
M  V30 1925 C 183.991 0.977916 -4.18014 0
M  V30 1926 C 183.224 2.038 -4.93256 0
M  V30 1927 O 183.447 3.25271 -4.68567 0
M  V30 1928 O 182.381 1.6565 -5.78657 0
M  V30 1929 H 186.207 -0.17359 -3.03203 0
M  V30 1930 H 183.792 -0.150919 -1.48636 0
M  V30 1931 H 185.674 2.21628 -3.58412 0
M  V30 1932 H 184.349 2.18461 -2.38865 0
M  V30 1933 H 183.256 0.294525 -3.72939 0
M  V30 1934 H 184.589 0.407128 -4.90513 0
M  V30 1935 N 186.241 1.57166 -0.116904 0
M  V30 1936 C 187.191 2.11756 0.845178 0
M  V30 1937 C 188.175 1.03783 1.22955 0
M  V30 1938 O 189.367 1.3002 1.20099 0
M  V30 1939 C 186.496 2.71886 2.09602 0
M  V30 1940 C 185.582 3.86937 1.7361 0
M  V30 1941 N 185.973 4.94073 1.08284 0
M  V30 1942 C 184.271 3.97082 2.03082 0
M  V30 1943 C 184.972 5.74477 0.913855 0
M  V30 1944 N 183.948 5.2423 1.43818 0
M  V30 1945 H 187.75 2.91967 0.336523 0
M  V30 1946 H 185.264 1.62174 0.0856332 0
M  V30 1947 H 187.261 3.09338 2.79492 0
M  V30 1948 H 185.921 1.93138 2.61013 0
M  V30 1949 H 186.932 5.12483 0.747067 0
M  V30 1950 H 183.609 3.29372 2.56554 0
M  V30 1951 H 184.999 6.70701 0.40125 0
M  V30 1952 N 187.719 -0.156864 1.56817 0
M  V30 1953 C 188.652 -1.22316 1.9265 0
M  V30 1954 C 189.63 -1.42059 0.791076 0
M  V30 1955 O 190.814 -1.56831 1.04576 0
M  V30 1956 C 187.941 -2.58375 2.18998 0
M  V30 1957 C 186.987 -2.55284 3.41661 0
M  V30 1958 S 187.82 -2.02946 4.95553 0
M  V30 1959 C 188.976 -3.40753 5.25013 0
M  V30 1960 H 189.209 -0.917403 2.82791 0
M  V30 1961 H 186.742 -0.362059 1.50095 0
M  V30 1962 H 188.7 -3.36677 2.34859 0
M  V30 1963 H 187.361 -2.86145 1.29538 0
M  V30 1964 H 186.554 -3.55418 3.57343 0
M  V30 1965 H 186.156 -1.85086 3.24991 0
M  V30 1966 H 188.448 -4.36819 5.17876 0
M  V30 1967 H 189.391 -3.29933 6.26538 0
M  V30 1968 H 189.799 -3.37433 4.52548 0
M  V30 1969 N 189.197 -1.51736 -0.425897 0
M  V30 1970 C 190.422 -1.69082 -1.20108 0
M  V30 1971 C 190.847 -0.392398 -1.83962 0
M  V30 1972 O 190.205 0.64858 -1.69302 0
M  V30 1973 C 190.253 -2.81604 -2.25237 0
M  V30 1974 O 189.357 -2.46004 -3.30992 0
M  V30 1975 H 188.698 -0.563408 -0.35138 0
M  V30 1976 H 191.228 -1.98358 -0.501512 0
M  V30 1977 H 191.238 -3.06025 -2.69838 0
M  V30 1978 H 189.913 -3.75817 -1.78142 0
M  V30 1979 H 188.49 -2.32195 -2.91787 0
M  V30 1980 N 190.675 0.682077 -1.42076 0
M  V30 1981 C 191.922 1.44215 -1.42156 0
M  V30 1982 C 192.25 1.94468 -0.0354186 0
M  V30 1983 O 191.505 1.70816 0.955002 0
M  V30 1984 C 191.804 2.66036 -2.38662 0
M  V30 1985 C 191.47 2.34366 -3.85206 0
M  V30 1986 C 190.132 2.25439 -4.25124 0
M  V30 1987 C 192.484 2.08513 -4.77673 0
M  V30 1988 C 189.812 1.88775 -5.55501 0
M  V30 1989 C 192.164 1.73354 -6.08384 0
M  V30 1990 C 190.828 1.62933 -6.47309 0
M  V30 1991 H 190.098 0.527718 -0.520187 0
M  V30 1992 H 192.745 0.778387 -1.74967 0
M  V30 1993 H 191.05 3.3741 -1.99152 0
M  V30 1994 H 192.747 3.24205 -2.35991 0
M  V30 1995 H 189.337 2.42213 -3.53597 0
M  V30 1996 H 193.521 2.14346 -4.47626 0
M  V30 1997 H 188.777 1.7927 -5.84527 0
M  V30 1998 H 192.951 1.52373 -6.79526 0
M  V30 1999 H 190.578 1.34292 -7.48244 0
M  V30 2000 N 192.153 1.28127 0.917671 0
M  V30 2001 C 193.063 1.13556 2.05286 0
M  V30 2002 C 194.079 0.0630914 1.73886 0
M  V30 2003 O 195.255 0.271598 1.9956 0
M  V30 2004 C 192.32 0.794676 3.3747 0
M  V30 2005 C 191.381 1.94909 3.82504 0
M  V30 2006 C 190.614 1.62437 5.0838 0
M  V30 2007 O 190.837 0.536905 5.67867 0
M  V30 2008 O 189.771 2.46677 5.4903 0
M  V30 2009 H 193.597 2.08844 2.20495 0
M  V30 2010 H 191.182 1.07409 1.03845 0
M  V30 2011 H 193.064 0.618344 4.16839 0
M  V30 2012 H 191.739 -0.128581 3.23445 0
M  V30 2013 H 190.646 2.18055 3.03978 0
M  V30 2014 H 191.979 2.85291 4.01086 0
M  V30 2015 N 193.631 -1.12557 1.10312 0
M  V30 2016 C 194.541 -2.21841 0.763142 0
M  V30 2017 C 195.557 -1.72354 -0.238801 0
M  V30 2018 O 196.733 -2.01249 -0.0778746 0
M  V30 2019 C 193.798 -3.46131 0.198632 0
M  V30 2020 C 192.859 -4.10464 1.25769 0
M  V30 2021 C 192.092 -5.28821 0.72002 0
M  V30 2022 O 192.315 -5.6859 -0.453993 0
M  V30 2023 O 191.249 -5.83437 1.47935 0
M  V30 2024 H 195.075 -2.53312 1.67532 0
M  V30 2025 H 192.66 -1.20867 0.878157 0
M  V30 2026 H 194.542 -4.2125 -0.112401 0
M  V30 2027 H 193.217 -3.16338 -0.686419 0
M  V30 2028 H 192.124 -3.3713 1.62156 0
M  V30 2029 H 193.457 -4.44408 2.11571 0
M  V30 2030 N 195.109 -0.891671 -1.2995 0
M  V30 2031 C 196.039 -0.379797 -2.30391 0
M  V30 2032 C 197.02 0.540919 -1.6127 0
M  V30 2033 O 198.205 0.453352 -1.88834 0
M  V30 2034 C 195.335 0.400654 -3.44981 0
M  V30 2035 C 194.289 -0.428905 -4.25846 0
M  V30 2036 C 193.615 0.478557 -5.32554 0
M  V30 2037 C 194.915 -1.67458 -4.94727 0
M  V30 2038 H 196.609 -1.21914 -2.73454 0
M  V30 2039 H 194.155 -0.587675 -1.31462 0
M  V30 2040 H 196.108 0.769434 -4.14316 0
M  V30 2041 H 194.832 1.27371 -3.0074 0
M  V30 2042 H 193.491 -0.779911 -3.58208 0
M  V30 2043 H 193.139 1.34951 -4.84559 0
M  V30 2044 H 192.839 -0.0727433 -5.87555 0
M  V30 2045 H 194.363 0.843705 -6.04743 0
M  V30 2046 H 195.777 -1.376 -5.56542 0
M  V30 2047 H 194.174 -2.16659 -5.59624 0
M  V30 2048 H 195.244 -2.41518 -4.20473 0
M  V30 2049 N 196.587 1.43421 -0.653314 0
M  V30 2050 C 197.517 2.33487 0.0246656 0
M  V30 2051 C 198.498 1.49475 0.811863 0
M  V30 2052 O 199.683 1.78139 0.773322 0
M  V30 2053 C 196.813 3.32841 0.99166 0
M  V30 2054 C 195.767 4.26842 0.314568 0
M  V30 2055 C 195.093 5.16236 1.39302 0
M  V30 2056 C 196.393 5.16243 -0.793095 0
M  V30 2057 H 198.087 2.90427 -0.727481 0
M  V30 2058 H 195.633 1.39649 -0.351287 0
M  V30 2059 H 197.586 3.94747 1.47487 0
M  V30 2060 H 196.31 2.74158 1.77497 0
M  V30 2061 H 194.969 3.663 -0.148199 0
M  V30 2062 H 194.617 4.53891 2.16776 0
M  V30 2063 H 194.317 5.79948 0.945223 0
M  V30 2064 H 195.841 5.81015 1.87759 0
M  V30 2065 H 197.255 5.71958 -0.392039 0
M  V30 2066 H 195.652 5.88676 -1.16536 0
M  V30 2067 H 196.722 4.55927 -1.65103 0
M  V30 2068 N 198.065 0.39524 1.52563 0
M  V30 2069 C 199.012 -0.437036 2.26624 0
M  V30 2070 C 199.982 -1.05281 1.28472 0
M  V30 2071 O 201.167 -1.07971 1.57311 0
M  V30 2072 C 198.307 -1.55524 3.08069 0
M  V30 2073 C 197.42 -0.961745 4.21158 0
M  V30 2074 C 196.555 -2.05149 4.89987 0
M  V30 2075 C 195.594 -1.4342 5.95061 0
M  V30 2076 N 194.731 -2.46351 6.57462 0
M  V30 2077 H 199.571 0.200976 2.97322 0
M  V30 2078 H 197.108 0.110944 1.46681 0
M  V30 2079 H 199.066 -2.21437 3.53584 0
M  V30 2080 H 197.696 -2.16348 2.3957 0
M  V30 2081 H 196.748 -0.192048 3.79915 0
M  V30 2082 H 198.06 -0.470701 4.96574 0
M  V30 2083 H 197.214 -2.78819 5.38837 0
M  V30 2084 H 195.953 -2.57615 4.14109 0
M  V30 2085 H 194.958 -0.682774 5.45544 0
M  V30 2086 H 196.183 -0.917416 6.72875 0
M  V30 2087 H 194.129 -2.97975 5.8442 0
M  V30 2088 H 194.046 -2.02019 7.28508 0
M  V30 2089 H 195.314 -3.19633 7.10954 0
M  V30 2090 N 199.544 -1.57102 0.125237 0
M  V30 2091 C 200.79 -1.95697 -0.532035 0
M  V30 2092 C 201.123 -1.009 -1.6593 0
M  V30 2093 O 200.398 -0.047347 -1.94442 0
M  V30 2094 C 200.681 -3.44181 -1.05884 0
M  V30 2095 C 200.534 -4.49752 0.0654392 0
M  V30 2096 C 201.853 -3.94655 -1.9477 0
M  V30 2097 H 198.972 -0.711571 -0.191925 0
M  V30 2098 H 201.614 -1.88923 0.20206 0
M  V30 2099 H 199.764 -3.50085 -1.68442 0
M  V30 2100 H 201.436 -4.55943 0.700982 0
M  V30 2101 H 199.679 -4.27653 0.727709 0
M  V30 2102 H 200.35 -5.50924 -0.344505 0
M  V30 2103 H 202.826 -3.91094 -1.42074 0
M  V30 2104 H 201.702 -4.99057 -2.28546 0
M  V30 2105 H 201.963 -3.35718 -2.87656 0
M  V30 2106 N 201.022 0.148545 -1.56898 0
M  V30 2107 C 202.269 0.861418 -1.83264 0
M  V30 2108 C 202.597 1.81239 -0.705883 0
M  V30 2109 O 201.852 1.93305 0.305212 0
M  V30 2110 C 202.151 1.67064 -3.1595 0
M  V30 2111 C 201.817 0.866591 -4.42494 0
M  V30 2112 C 200.479 0.644762 -4.76861 0
M  V30 2113 C 202.831 0.30418 -5.20312 0
M  V30 2114 C 200.159 -0.15021 -5.86508 0
M  V30 2115 C 202.511 -0.477824 -6.30793 0
M  V30 2116 C 201.175 -0.710244 -6.63711 0
M  V30 2117 H 200.445 0.315215 -0.670612 0
M  V30 2118 H 203.092 0.125142 -1.91091 0
M  V30 2119 H 201.397 2.47698 -3.03567 0
M  V30 2120 H 203.094 2.22566 -3.33565 0
M  V30 2121 H 199.684 1.04955 -4.15551 0
M  V30 2122 H 203.868 0.462844 -4.94137 0
M  V30 2123 H 199.124 -0.339796 -6.10455 0
M  V30 2124 H 203.298 -0.92076 -6.90286 0
M  V30 2125 H 200.925 -1.3281 -7.48509 0
M  V30 2126 N 202.5 1.5196 0.417844 0
M  V30 2127 C 203.746 1.66793 1.16411 0
M  V30 2128 C 204.101 0.388758 1.88432 0
M  V30 2129 O 203.394 -0.616409 1.81414 0
M  V30 2130 C 203.588 2.82269 2.19223 0
M  V30 2131 C 203.417 4.21293 1.57297 0
M  V30 2132 C 202.187 4.86948 1.34944 0
M  V30 2133 C 204.385 5.03704 1.03858 0
M  V30 2134 N 202.367 6.1003 0.688195 0
M  V30 2135 C 203.738 6.1795 0.503742 0
M  V30 2136 C 205.793 4.89095 0.932203 0
M  V30 2137 C 204.496 7.19188 -0.127034 0
M  V30 2138 C 206.522 5.90559 0.315293 0
M  V30 2139 C 205.884 7.0409 -0.208906 0
M  V30 2140 H 201.983 0.66407 0.412959 0
M  V30 2141 H 204.567 1.89242 0.457772 0
M  V30 2142 H 202.738 2.61451 2.87225 0
M  V30 2143 H 204.47 2.86183 2.86149 0
M  V30 2144 H 201.225 4.45156 1.61657 0
M  V30 2145 H 201.649 6.75964 0.374449 0
M  V30 2146 H 206.291 4.01557 1.32332 0
M  V30 2147 H 204.009 8.06359 -0.530231 0
M  V30 2148 H 207.595 5.81327 0.234625 0
M  V30 2149 H 206.475 7.81257 -0.67875 0
M  V30 2150 N 203.978 -0.674533 1.42435 0
M  V30 2151 C 204.888 -1.81751 1.48337 0
M  V30 2152 C 205.904 -1.69975 0.372099 0
M  V30 2153 O 207.08 -1.91521 0.62304 0
M  V30 2154 C 204.145 -3.17895 1.38361 0
M  V30 2155 C 203.206 -3.41625 2.59982 0
M  V30 2156 C 202.439 -4.71274 2.50473 0
M  V30 2157 O 202.662 -5.49197 1.54075 0
M  V30 2158 O 201.596 -4.96254 3.4061 0
M  V30 2159 H 205.422 -1.79728 2.44809 0
M  V30 2160 H 203.007 -0.830312 1.24202 0
M  V30 2161 H 204.889 -3.99136 1.35161 0
M  V30 2162 H 203.564 -3.20555 0.450144 0
M  V30 2163 H 202.471 -2.60231 2.68757 0
M  V30 2164 H 203.804 -3.43796 3.52229 0
M  V30 2165 N 205.456 -1.28612 -0.910864 0
M  V30 2166 C 206.404 -1.1265 -2.03501 0
M  V30 2167 C 207.398 -0.0450054 -1.6934 0
M  V30 2168 O 208.604 -0.203988 -1.7884 0
M  V30 2169 H 204.979 -0.347639 -0.666822 0
M  V30 2170 H 206.95 -2.07849 -2.14106 0
M  V30 2171 C 205.699 -0.808143 -3.38178 0
M  V30 2172 H 205.022 -1.63231 -3.6496 0
M  V30 2173 H 206.462 -0.736426 -4.17556 0
M  V30 2174 C 204.921 0.488226 -3.33344 0
M  V30 2175 O 205.451 1.51766 -3.71927 0
M  V30 2176 N 203.657 0.490009 -2.86439 0
M  V30 2177 H 203.204 -0.348161 -2.55236 0
M  V30 2178 H 203.162 1.35741 -2.83587 0
M  V30 2179 N 206.934 1.1197 -1.10907 0
M  V30 2180 C 207.884 2.15946 -0.731538 0
M  V30 2181 C 208.868 1.58758 0.261699 0
M  V30 2182 O 210.06 1.76863 0.0696722 0
M  V30 2183 C 207.189 3.42877 -0.170299 0
M  V30 2184 C 206.275 4.07037 -1.19087 0
M  V30 2185 N 206.666 4.46135 -2.38322 0
M  V30 2186 C 204.964 4.33884 -1.03252 0
M  V30 2187 C 205.665 4.96331 -3.03366 0
M  V30 2188 N 204.641 4.9214 -2.30865 0
M  V30 2189 H 208.443 2.43947 -1.63912 0
M  V30 2190 H 205.957 1.28927 -0.987505 0
M  V30 2191 H 207.954 4.16732 0.118271 0
M  V30 2192 H 206.614 3.16343 0.731935 0
M  V30 2193 H 207.625 4.38345 -2.75815 0
M  V30 2194 H 204.302 4.17084 -0.186256 0
M  V30 2195 H 205.692 5.36257 -4.04818 0
M  V30 2196 N 208.412 0.89855 1.29475 0
M  V30 2197 C 209.689 0.443416 1.90508 0
M  V30 2198 C 210.069 -1.07685 1.81569 0
M  V30 2199 O 209.417 -1.9182 1.24166 0
M  V30 2200 C 209.627 0.956708 3.35631 0
M  V30 2201 C 210.975 0.999728 4.12663 0
M  V30 2202 O 211.999 0.904299 3.4453 0
M  V30 2203 O 210.858 1.14289 5.34416 0
M  V30 2204 H 207.952 0.138025 0.815401 0
M  V30 2205 H 210.498 0.98834 1.37949 0
M  V30 2206 H 209.27 2.00067 3.36287 0
M  V30 2207 H 208.893 0.391728 3.95666 0
M  V30 2208 N 209.89 -1.43072 0.660911 0
M  V30 2209 C 211.301 -1.84932 0.256348 0
M  V30 2210 C 211.652 -1.55325 -1.19868 0
M  V30 2211 O 210.777 -1.00607 -1.91591 0
M  V30 2212 C 211.372 -3.35684 0.458475 0
M  V30 2213 C 209.931 -3.76245 0.108161 0
M  V30 2214 C 209.078 -2.66749 0.757641 0
M  V30 2215 H 212.029 -1.33116 0.864051 0
M  V30 2216 H 212.05 -3.79365 -0.293683 0
M  V30 2217 H 211.562 -3.572 1.51755 0
M  V30 2218 H 209.663 -3.60338 -0.948014 0
M  V30 2219 H 209.776 -4.76058 0.538992 0
M  V30 2220 H 208.14 -2.53989 0.190185 0
M  V30 2221 H 208.923 -2.91092 1.81989 0
M  V30 2222 N 211.368 -0.403325 -1.52352 0
M  V30 2223 C 212.596 0.174012 -2.06167 0
M  V30 2224 C 213.011 1.39347 -1.27388 0
M  V30 2225 O 212.368 1.79597 -0.324201 0
M  V30 2226 C 212.419 0.530223 -3.5759 0
M  V30 2227 O 212.14 -0.640806 -4.33388 0
M  V30 2228 C 213.641 1.16192 -4.27802 0
M  V30 2229 H 210.861 0.0229464 -0.670608 0
M  V30 2230 H 213.405 -0.572604 -1.9632 0
M  V30 2231 H 211.56 1.22673 -3.67464 0
M  V30 2232 H 211.974 -0.344851 -5.23365 0
M  V30 2233 H 213.448 1.36141 -5.34948 0
M  V30 2234 H 213.925 2.13335 -3.83907 0
M  V30 2235 H 214.531 0.505775 -4.22282 0
M  V30 2236 N 212.846 1.57033 -0.133567 0
M  V30 2237 C 213.778 2.13176 0.841944 0
M  V30 2238 C 214.791 1.07794 1.22001 0
M  V30 2239 O 215.98 1.35117 1.16643 0
M  V30 2240 C 213.08 2.62847 2.13926 0
M  V30 2241 C 212.253 3.92486 1.93064 0
M  V30 2242 C 211.312 4.27605 3.0666 0
M  V30 2243 O 210.338 4.96168 2.78937 0
M  V30 2244 N 211.54 3.861 4.33483 0
M  V30 2245 H 214.305 2.97503 0.362192 0
M  V30 2246 H 211.866 1.61821 0.05042 0
M  V30 2247 H 213.858 2.83363 2.88942 0
M  V30 2248 H 212.428 1.83319 2.53205 0
M  V30 2249 H 211.648 3.80732 1.02159 0
M  V30 2250 H 212.936 4.77225 1.76447 0
M  V30 2251 H 212.334 3.30828 4.58878 0
M  V30 2252 H 210.891 4.11694 5.05323 0
M  V30 2253 N 214.325 -0.140222 1.56975 0
M  V30 2254 C 215.573 -0.850005 1.83356 0
M  V30 2255 C 215.894 -1.81399 0.71551 0
M  V30 2256 O 215.164 -1.94136 -0.262294 0
M  V30 2257 H 213.744 -0.316886 0.676456 0
M  V30 2258 H 216.406 -0.132608 1.94448 0
M  V30 2259 H 215.502 -1.40814 2.78528 0
M  V30 2260 N 215.803 -1.52179 -0.40978 0
M  V30 2261 C 216.736 -1.70196 -1.52015 0
M  V30 2262 C 217.714 -0.549542 -1.53032 0
M  V30 2263 O 218.898 -0.776815 -1.71749 0
M  V30 2264 C 216.025 -1.74069 -2.90547 0
M  V30 2265 C 215.071 -2.95601 -3.07445 0
M  V30 2266 S 215.904 -4.55956 -2.80827 0
M  V30 2267 C 217.06 -4.62614 -4.21591 0
M  V30 2268 H 217.293 -2.64109 -1.36504 0
M  V30 2269 H 214.826 -1.4221 -0.601312 0
M  V30 2270 H 216.784 -1.76985 -3.70387 0
M  V30 2271 H 215.445 -0.812835 -3.034 0
M  V30 2272 H 214.638 -2.94791 -4.08796 0
M  V30 2273 H 214.24 -2.90569 -2.35469 0
M  V30 2274 H 216.532 -4.39951 -5.15218 0
M  V30 2275 H 217.475 -5.64548 -4.27424 0
M  V30 2276 H 217.883 -3.91654 -4.06531 0
M  V30 2277 N 217.281 0.66697 -1.42791 0
M  V30 2278 C 218.697 0.981027 -1.25889 0
M  V30 2279 C 218.897 2.00793 -0.168695 0
M  V30 2280 O 217.953 2.48321 0.45747 0
M  V30 2281 C 219.266 1.47838 -2.61848 0
M  V30 2282 C 220.814 1.59575 -2.69267 0
M  V30 2283 C 221.289 2.12704 -4.05612 0
M  V30 2284 N 222.78 2.20026 -4.07606 0
M  V30 2285 C 223.515 2.62227 -5.09926 0
M  V30 2286 N 223.011 3.03824 -6.22626 0
M  V30 2287 N 224.804 2.62045 -4.97281 0
M  V30 2288 H 216.955 -0.0127891 -2.12396 0
M  V30 2289 H 219.218 0.0568258 -0.946295 0
M  V30 2290 H 218.924 0.798299 -3.4252 0
M  V30 2291 H 218.798 2.45579 -2.86305 0
M  V30 2292 H 221.185 2.26687 -1.88936 0
M  V30 2293 H 221.266 0.60302 -2.48591 0
M  V30 2294 H 220.91 1.46198 -4.86404 0
M  V30 2295 H 220.84 3.12782 -4.23645 0
M  V30 2296 H 223.331 1.90708 -3.2625 0
M  V30 2297 H 223.644 3.34734 -6.96544 0
M  V30 2298 H 221.989 3.01662 -6.26119 0
M  V30 2299 H 225.18 2.28916 -4.08308 0
M  V30 2300 H 225.353 2.94613 -5.77154 0
M  V30 2301 N 218.759 1.29093 0.90403 0
M  V30 2302 C 219.691 1.09658 2.01266 0
M  V30 2303 C 220.704 0.0453729 1.62737 0
M  V30 2304 O 221.893 0.289446 1.76138 0
M  V30 2305 C 218.993 0.646278 3.32681 0
M  V30 2306 C 218.166 1.77505 3.99763 0
M  V30 2307 C 217.225 1.31649 5.09465 0
M  V30 2308 O 216.251 2.02045 5.32134 0
M  V30 2309 N 217.453 0.184997 5.80205 0
M  V30 2310 H 220.218 2.05135 2.18494 0
M  V30 2311 H 217.779 1.20975 1.07594 0
M  V30 2312 H 219.771 0.322906 4.0341 0
M  V30 2313 H 218.341 -0.215916 3.11853 0
M  V30 2314 H 217.561 2.26752 3.22455 0
M  V30 2315 H 218.849 2.53198 4.41325 0
M  V30 2316 H 218.247 -0.402021 5.6427 0
M  V30 2317 H 216.804 -0.0790358 6.51752 0
M  V30 2318 N 220.237 -1.11381 1.11499 0
M  V30 2319 C 221.485 -1.8277 0.862524 0
M  V30 2320 C 221.806 -1.85097 -0.613534 0
M  V30 2321 O 221.076 -1.32198 -1.4457 0
M  V30 2322 H 219.656 -0.676823 0.316101 0
M  V30 2323 H 222.318 -1.34816 1.4075 0
M  V30 2324 H 221.414 -2.86614 1.23527 0
M  V30 2325 N 221.715 -0.905404 -1.28997 0
M  V30 2326 C 222.663 -0.377431 -2.29517 0
M  V30 2327 C 223.657 0.526461 -1.61012 0
M  V30 2328 O 224.863 0.40863 -1.753 0
M  V30 2329 H 221.238 -0.103437 -0.744852 0
M  V30 2330 H 223.209 -1.23848 -2.71485 0
M  V30 2331 C 221.958 0.374833 -3.45674 0
M  V30 2332 H 221.281 -0.311474 -3.98585 0
M  V30 2333 H 222.721 0.70903 -4.1803 0
M  V30 2334 C 221.18 1.57963 -2.97572 0
M  V30 2335 O 221.71 2.67886 -2.99333 0
M  V30 2336 N 219.916 1.42375 -2.53333 0
M  V30 2337 H 219.463 0.529466 -2.521 0
M  V30 2338 H 219.421 2.23117 -2.21509 0
M  V30 2339 N 223.193 1.4272 -0.668489 0
M  V30 2340 C 224.47 1.95248 -0.117373 0
M  V30 2341 C 224.85 1.60919 1.36632 0
M  V30 2342 O 224.198 0.902095 2.09939 0
M  V30 2343 C 224.408 3.46927 -0.379806 0
M  V30 2344 C 225.756 4.23588 -0.292923 0
M  V30 2345 O 226.78 3.5482 -0.313204 0
M  V30 2346 O 225.639 5.46017 -0.229697 0
M  V30 2347 H 222.733 0.827 0.00079152 0
M  V30 2348 H 225.279 1.52581 -0.742783 0
M  V30 2349 H 224.051 3.65096 -1.40786 0
M  V30 2350 H 223.674 3.96627 0.277923 0
M  V30 2351 N 224.671 0.411399 1.52136 0
M  V30 2352 C 225.621 -0.430376 2.23901 0
M  V30 2353 C 226.605 -1.0116 1.25121 0
M  V30 2354 O 227.797 -0.934044 1.50348 0
M  V30 2355 C 224.926 -1.54527 3.06556 0
M  V30 2356 C 224.012 -0.9747 4.12747 0
M  V30 2357 N 224.403 -0.130991 5.0563 0
M  V30 2358 C 222.701 -1.24497 4.28271 0
M  V30 2359 C 223.402 0.186689 5.814 0
M  V30 2360 N 222.378 -0.42304 5.41951 0
M  V30 2361 H 226.18 0.220509 2.93072 0
M  V30 2362 H 223.694 0.221952 1.60876 0
M  V30 2363 H 225.691 -2.16093 3.56524 0
M  V30 2364 H 224.351 -2.19875 2.38925 0
M  V30 2365 H 225.362 0.23349 5.17373 0
M  V30 2366 H 222.039 -1.89787 3.7187 0
M  V30 2367 H 223.429 0.871673 6.66222 0
M  V30 2368 N 226.149 -1.5696 0.141893 0
M  V30 2369 C 227.397 -1.95573 -0.509484 0
M  V30 2370 C 227.718 -1.02746 -1.65736 0
M  V30 2371 O 226.988 -0.0880311 -1.95702 0
M  V30 2372 H 225.568 -0.722115 -0.191205 0
M  V30 2373 H 228.23 -1.93697 0.216196 0
M  V30 2374 H 227.326 -2.99171 -0.889 0
M  V30 2375 N 227.627 0.131896 -1.57047 0
M  V30 2376 C 228.855 0.856461 -1.88341 0
M  V30 2377 C 229.27 1.74042 -0.731757 0
M  V30 2378 O 228.627 1.80051 0.297945 0
M  V30 2379 C 228.678 1.70064 -3.18999 0
M  V30 2380 O 228.399 0.852278 -4.2973 0
M  V30 2381 C 229.9 2.53148 -3.63911 0
M  V30 2382 H 227.12 0.246885 -0.62393 0
M  V30 2383 H 229.664 0.120152 -2.04147 0
M  V30 2384 H 227.819 2.38984 -3.04902 0
M  V30 2385 H 228.233 1.43329 -5.04537 0
M  V30 2386 H 229.707 3.07931 -4.58129 0
M  V30 2387 H 230.184 3.29901 -2.89935 0
M  V30 2388 H 230.79 1.89492 -3.80753 0
M  V30 2389 N 229.106 1.52395 0.401703 0
M  V30 2390 C 230.038 1.72505 1.50912 0
M  V30 2391 C 231.051 0.605468 1.51122 0
M  V30 2392 O 232.24 0.880828 1.55254 0
M  V30 2393 C 229.34 1.75711 2.89791 0
M  V30 2394 C 228.513 3.04824 3.1369 0
M  V30 2395 C 227.572 2.99743 4.32482 0
M  V30 2396 O 226.598 3.73635 4.29402 0
M  V30 2397 N 227.8 2.18047 5.37992 0
M  V30 2398 H 230.565 2.68049 1.34052 0
M  V30 2399 H 228.126 1.50724 0.591084 0
M  V30 2400 H 230.118 1.69834 3.6734 0
M  V30 2401 H 228.688 0.876092 3.00072 0
M  V30 2402 H 227.908 3.2429 2.24119 0
M  V30 2403 H 229.196 3.90221 3.26504 0
M  V30 2404 H 228.594 1.57456 5.43345 0
M  V30 2405 H 227.151 2.18021 6.14256 0
M  V30 2406 N 230.584 -0.659388 1.43143 0
M  V30 2407 C 231.814 -1.44513 1.47646 0
M  V30 2408 C 232.222 -1.88981 0.0910095 0
M  V30 2409 O 231.565 -1.59702 -0.907789 0
M  V30 2410 C 231.627 -2.71663 2.35456 0
M  V30 2411 C 231.291 -2.49175 3.83094 0
M  V30 2412 C 232.288 -2.1279 4.74359 0
M  V30 2413 C 229.973 -2.63691 4.27519 0
M  V30 2414 C 231.967 -1.9121 6.08044 0
M  V30 2415 C 229.654 -2.41726 5.61259 0
M  V30 2416 C 230.652 -2.0554 6.51339 0
M  V30 2417 O 230.34 -1.838 7.82606 0
M  V30 2418 H 230.072 -0.45064 0.503884 0
M  V30 2419 H 232.626 -0.816248 1.88485 0
M  V30 2420 H 230.856 -3.37089 1.89493 0
M  V30 2421 H 232.545 -3.33595 2.31235 0
M  V30 2422 H 233.311 -2.01157 4.41317 0
M  V30 2423 H 229.19 -2.90832 3.57684 0
M  V30 2424 H 232.734 -1.62889 6.78316 0
M  V30 2425 H 228.631 -2.52959 5.9387 0
M  V30 2426 H 229.399 -1.98275 7.94122 0
M  V30 2427 N 232.062 -1.29571 -0.897171 0
M  V30 2428 C 233.478 -1.07637 -1.17841 0
M  V30 2429 C 233.678 0.170713 -2.00776 0
M  V30 2430 O 232.734 0.867768 -2.3712 0
M  V30 2431 C 234.047 -2.3332 -1.8969 0
M  V30 2432 C 235.595 -2.38664 -2.02505 0
M  V30 2433 C 236.07 -3.64157 -2.77765 0
M  V30 2434 N 237.561 -3.64894 -2.85318 0
M  V30 2435 C 238.296 -4.58679 -3.44094 0
M  V30 2436 N 237.792 -5.62799 -4.04017 0
M  V30 2437 N 239.585 -4.46245 -3.41793 0
M  V30 2438 H 231.736 -2.09598 -0.343883 0
M  V30 2439 H 233.999 -0.923333 -0.214848 0
M  V30 2440 H 233.705 -3.24262 -1.36187 0
M  V30 2441 H 233.579 -2.41025 -2.9015 0
M  V30 2442 H 235.966 -1.48208 -2.55183 0
M  V30 2443 H 236.047 -2.34943 -1.01171 0
M  V30 2444 H 235.691 -4.54965 -2.25763 0
M  V30 2445 H 235.621 -3.65137 -3.7945 0
M  V30 2446 H 238.112 -2.89613 -2.42761 0
M  V30 2447 H 238.425 -6.3048 -4.46895 0
M  V30 2448 H 236.77 -5.66605 -4.02472 0
M  V30 2449 H 239.961 -3.64094 -2.94199 0
M  V30 2450 H 240.134 -5.19518 -3.87304 0
M  V30 2451 N 233.54 1.10788 -1.12088 0
M  V30 2452 C 234.765 1.87002 -0.896949 0
M  V30 2453 C 235.19 1.79933 0.548261 0
M  V30 2454 O 234.548 1.16662 1.38779 0
M  V30 2455 C 234.596 3.3349 -1.37174 0
M  V30 2456 O 233.7 4.08745 -0.547831 0
M  V30 2457 H 233.041 0.580397 -0.322545 0
M  V30 2458 H 235.571 1.39996 -1.49206 0
M  V30 2459 H 235.581 3.84339 -1.36922 0
M  V30 2460 H 234.256 3.37951 -2.42408 0
M  V30 2461 H 232.833 3.6776 -0.617034 0
M  V30 2462 N 235.018 0.912232 1.28515 0
M  V30 2463 C 235.981 0.404223 2.25607 0
M  V30 2464 C 236.981 -0.468602 1.53821 0
M  V30 2465 O 238.171 -0.271873 1.72065 0
M  V30 2466 C 235.303 -0.420653 3.38295 0
M  V30 2467 H 236.496 1.26188 2.7206 0
M  V30 2468 H 234.049 0.691495 1.40171 0
M  V30 2469 H 234.784 -1.29777 2.97201 0
M  V30 2470 H 234.569 0.204935 3.91564 0
M  V30 2471 H 236.059 -0.766971 4.10496 0
M  V30 2472 N 236.496 -1.42363 0.676048 0
M  V30 2473 C 237.745 -2.00745 0.196037 0
M  V30 2474 C 238.058 -1.54083 -1.20489 0
M  V30 2475 O 239.264 -2.04891 -1.78134 0
M  V30 2476 C 237.72 -3.58651 0.299616 0
M  V30 2477 C 237.328 -4.143 1.70468 0
M  V30 2478 C 239.072 -4.24326 -0.121619 0
M  V30 2479 C 236.979 -5.64574 1.76096 0
M  V30 2480 H 235.909 -0.750787 0.0695301 0
M  V30 2481 H 238.56 -1.63072 0.841412 0
M  V30 2482 H 236.942 -3.93833 -0.413673 0
M  V30 2483 H 238.116 -3.90575 2.44515 0
M  V30 2484 H 236.431 -3.61081 2.07387 0
M  V30 2485 H 239.028 -5.34607 -0.0997362 0
M  V30 2486 H 239.371 -3.99897 -1.15708 0
M  V30 2487 H 239.904 -3.94108 0.540706 0
M  V30 2488 H 236.643 -5.93804 2.77628 0
M  V30 2489 H 236.163 -5.90286 1.06406 0
M  V30 2490 H 237.842 -6.29013 1.51496 0
M  V30 2491 N 237.974 -0.419461 -1.51915 0
M  V30 2492 C 239.204 0.151915 -2.06041 0
M  V30 2493 C 239.612 1.38539 -1.28855 0
M  V30 2494 O 238.955 1.80592 -0.336463 0
M  V30 2495 C 239.017 0.557119 -3.55157 0
M  V30 2496 C 238.681 -0.567054 -4.53468 0
M  V30 2497 C 239.678 -1.43379 -4.99738 0
M  V30 2498 C 237.363 -0.742693 -4.96779 0
M  V30 2499 C 239.357 -2.46102 -5.87973 0
M  V30 2500 C 237.044 -1.77322 -5.84808 0
M  V30 2501 C 238.042 -2.63078 -6.30301 0
M  V30 2502 O 237.73 -3.64364 -7.16585 0
M  V30 2503 H 237.462 0.0193293 -0.675724 0
M  V30 2504 H 240.016 -0.592073 -1.96682 0
M  V30 2505 H 238.246 1.35355 -3.62238 0
M  V30 2506 H 239.935 1.05759 -3.9188 0
M  V30 2507 H 240.701 -1.30954 -4.66986 0
M  V30 2508 H 236.58 -0.0848307 -4.60922 0
M  V30 2509 H 240.124 -3.13071 -6.23404 0
M  V30 2510 H 236.021 -1.89773 -6.16974 0
M  V30 2511 H 236.789 -3.60731 -7.34721 0
M  V30 2512 N 239.452 1.56882 -0.150215 0
M  V30 2513 C 240.863 1.82995 0.370076 0
M  V30 2514 C 241.214 1.06907 1.64515 0
M  V30 2515 O 240.339 0.315369 2.1409 0
M  V30 2516 C 240.934 3.31942 0.678208 0
M  V30 2517 C 239.493 3.58625 1.14301 0
M  V30 2518 C 238.64 2.76792 0.167778 0
M  V30 2519 H 241.591 1.54209 -0.374858 0
M  V30 2520 H 241.612 3.48272 1.53254 0
M  V30 2521 H 241.124 3.87294 -0.249991 0
M  V30 2522 H 239.225 3.08664 2.08704 0
M  V30 2523 H 239.338 4.67073 1.06676 0
M  V30 2524 H 237.702 2.45972 0.661037 0
M  V30 2525 H 238.485 3.34916 -0.754069 0
M  V30 2526 N 240.93 -0.123565 1.57115 0
M  V30 2527 C 242.158 -0.846461 1.88793 0
M  V30 2528 C 242.573 -1.73652 0.740976 0
M  V30 2529 O 241.93 -1.80207 -0.288393 0
M  V30 2530 C 241.981 -1.6837 3.19897 0
M  V30 2531 O 241.702 -0.829477 4.30176 0
M  V30 2532 C 243.203 -2.51214 3.65248 0
M  V30 2533 H 240.423 -0.243573 0.625231 0
M  V30 2534 H 242.967 -0.109324 2.04208 0
M  V30 2535 H 241.122 -2.37364 3.06165 0
M  V30 2536 H 241.536 -1.40651 5.0529 0
M  V30 2537 H 243.01 -3.05497 4.59756 0
M  V30 2538 H 243.487 -3.28359 2.9168 0
M  V30 2539 H 244.093 -1.8747 3.81752 0
M  V30 2540 N 242.408 -1.52605 -0.393616 0
M  V30 2541 C 243.633 -1.71592 -1.16495 0
M  V30 2542 C 244.058 -0.43133 -1.83088 0
M  V30 2543 O 243.416 0.612523 -1.7064 0
M  V30 2544 C 243.464 -2.86318 -2.19213 0
M  V30 2545 O 242.568 -2.52969 -3.257 0
M  V30 2546 H 241.909 -0.570734 -0.33935 0
M  V30 2547 H 244.439 -1.99377 -0.459324 0
M  V30 2548 H 244.449 -3.1168 -2.63286 0
M  V30 2549 H 243.124 -3.79511 -1.7013 0
M  V30 2550 H 241.701 -2.38332 -2.86797 0
M  V30 2551 N 243.887 0.651787 -1.4349 0
M  V30 2552 C 244.85 1.74647 -1.48429 0
M  V30 2553 C 245.85 1.56513 -0.368817 0
M  V30 2554 O 247.04 1.62385 -0.630623 0
M  V30 2555 C 244.172 3.13533 -1.33827 0
M  V30 2556 H 245.365 1.71649 -2.4592 0
M  V30 2557 H 242.918 0.863573 -1.30277 0
M  V30 2558 H 243.653 3.22142 -0.37349 0
M  V30 2559 H 243.438 3.28101 -2.14691 0
M  V30 2560 H 244.928 3.93356 -1.40218 0
M  V30 2561 N 245.365 1.30045 0.890287 0
M  V30 2562 C 246.312 1.15976 1.99545 0
M  V30 2563 C 247.282 0.0506202 1.66023 0
M  V30 2564 O 248.467 0.219847 1.89529 0
M  V30 2565 C 245.607 0.852054 3.34416 0
M  V30 2566 C 244.72 2.04255 3.80662 0
M  V30 2567 C 243.855 1.6734 5.04154 0
M  V30 2568 C 242.894 2.82916 5.42794 0
M  V30 2569 N 242.031 2.46333 6.57468 0
M  V30 2570 H 246.871 2.10524 2.10911 0
M  V30 2571 H 244.408 1.04749 1.03276 0
M  V30 2572 H 246.366 0.654296 4.12037 0
M  V30 2573 H 244.996 -0.0565502 3.2275 0
M  V30 2574 H 244.048 2.35172 2.98995 0
M  V30 2575 H 245.36 2.90826 4.05242 0
M  V30 2576 H 244.514 1.43908 5.89386 0
M  V30 2577 H 243.253 0.779308 4.81433 0
M  V30 2578 H 242.258 3.0702 4.56091 0
M  V30 2579 H 243.483 3.73004 5.6749 0
M  V30 2580 H 241.429 1.59423 6.36334 0
M  V30 2581 H 241.346 3.26436 6.81891 0
M  V30 2582 H 242.614 2.26244 7.45945 0
M  V30 2583 N 246.843 -1.10192 1.12674 0
M  V30 2584 C 247.775 -2.16418 0.754701 0
M  V30 2585 C 248.788 -1.61309 -0.21986 0
M  V30 2586 O 249.977 -1.785 -0.000826841 0
M  V30 2587 C 247.077 -3.38762 0.096698 0
M  V30 2588 C 246.25 -4.23307 1.10136 0
M  V30 2589 C 245.309 -5.24092 0.470513 0
M  V30 2590 O 244.335 -5.57906 1.12824 0
M  V30 2591 N 245.537 -5.75491 -0.760948 0
M  V30 2592 H 248.302 -2.48943 1.66875 0
M  V30 2593 H 245.863 -1.25834 1.01869 0
M  V30 2594 H 247.855 -4.03291 -0.337384 0
M  V30 2595 H 246.425 -3.04192 -0.720153 0
M  V30 2596 H 245.645 -3.55036 1.71299 0
M  V30 2597 H 246.933 -4.76624 1.78064 0
M  V30 2598 H 246.331 -5.50222 -1.31424 0
M  V30 2599 H 244.888 -6.41792 -1.13781 0
M  V30 2600 N 248.321 -0.919034 -1.28029 0
M  V30 2601 C 249.254 -0.355887 -2.25408 0
M  V30 2602 C 250.232 0.542874 -1.5327 0
M  V30 2603 O 251.416 0.485338 -1.82145 0
M  V30 2604 C 248.543 0.490759 -3.35126 0
M  V30 2605 C 247.589 -0.343358 -4.25116 0
M  V30 2606 S 248.422 -1.75344 -5.05979 0
M  V30 2607 C 249.578 -0.914244 -6.19187 0
M  V30 2608 H 249.811 -1.18123 -2.72826 0
M  V30 2609 H 247.344 -0.720636 -1.36551 0
M  V30 2610 H 249.302 0.973404 -3.98792 0
M  V30 2611 H 247.963 1.29054 -2.86363 0
M  V30 2612 H 247.156 0.304266 -5.03081 0
M  V30 2613 H 246.758 -0.759851 -3.662 0
M  V30 2614 H 249.05 -0.146282 -6.77342 0
M  V30 2615 H 249.993 -1.66661 -6.88208 0
M  V30 2616 H 250.401 -0.460082 -5.62622 0
M  V30 2617 N 249.799 1.42003 -0.683588 0
M  V30 2618 C 250.709 2.34597 -0.0109075 0
M  V30 2619 C 251.725 1.55576 0.779245 0
M  V30 2620 O 252.901 1.88107 0.719555 0
M  V30 2621 C 249.966 3.34199 0.922588 0
M  V30 2622 C 249.027 4.29115 0.125984 0
M  V30 2623 C 248.26 5.23959 1.01502 0
M  V30 2624 O 248.483 5.23952 2.25456 0
M  V30 2625 O 247.417 6.00053 0.47111 0
M  V30 2626 H 251.243 2.93675 -0.773853 0
M  V30 2627 H 248.828 1.42654 -0.443861 0
M  V30 2628 H 250.71 3.95365 1.45823 0
M  V30 2629 H 249.385 2.77582 1.66523 0
M  V30 2630 H 248.292 3.71335 -0.453969 0
M  V30 2631 H 249.625 4.88798 -0.577736 0
M  V30 2632 N 251.277 0.427512 1.51691 0
M  V30 2633 C 252.24 -0.377132 2.26076 0
M  V30 2634 C 253.24 -0.958089 1.29141 0
M  V30 2635 O 254.43 -0.83408 1.52934 0
M  V30 2636 C 251.562 -1.53262 3.04506 0
M  V30 2637 H 252.755 0.27464 2.9864 0
M  V30 2638 H 250.308 0.180445 1.55255 0
M  V30 2639 H 251.043 -2.22072 2.36335 0
M  V30 2640 H 250.828 -1.12232 3.75694 0
M  V30 2641 H 252.318 -2.10135 3.60878 0
M  V30 2642 N 252.755 -1.56801 0.158532 0
M  V30 2643 C 253.718 -2.16138 -0.762705 0
M  V30 2644 C 254.718 -1.1061 -1.16713 0
M  V30 2645 O 255.908 -1.36191 -1.08617 0
M  V30 2646 C 253.04 -2.73386 -2.03649 0
M  V30 2647 H 254.233 -2.98886 -0.246354 0
M  V30 2648 H 251.786 -1.56035 -0.0909744 0
M  V30 2649 H 252.521 -1.94335 -2.59623 0
M  V30 2650 H 252.306 -3.50601 -1.75559 0
M  V30 2651 H 253.796 -3.19065 -2.6942 0
M  V30 2652 N 254.233 0.115231 -1.57178 0
M  V30 2653 C 255.163 1.1423 -2.03651 0
M  V30 2654 C 256.144 1.42967 -0.921655 0
M  V30 2655 O 257.329 1.53343 -1.19162 0
M  V30 2656 C 254.459 2.4675 -2.44401 0
M  V30 2657 C 253.413 2.32467 -3.59365 0
M  V30 2658 C 252.739 3.69984 -3.86026 0
M  V30 2659 C 254.039 1.78203 -4.90959 0
M  V30 2660 H 255.733 0.755749 -2.89705 0
M  V30 2661 H 253.279 0.362093 -1.39373 0
M  V30 2662 H 255.232 3.18854 -2.75517 0
M  V30 2663 H 253.956 2.87302 -1.55322 0
M  V30 2664 H 252.615 1.62811 -3.28463 0
M  V30 2665 H 252.263 4.08028 -2.94147 0
M  V30 2666 H 251.963 3.61279 -4.63412 0
M  V30 2667 H 253.487 4.43587 -4.19599 0
M  V30 2668 H 254.901 2.40128 -5.20587 0
M  V30 2669 H 253.298 1.8031 -5.72371 0
M  V30 2670 H 254.368 0.739876 -4.79222 0
M  V30 2671 N 255.711 1.52812 0.385517 0
M  V30 2672 C 256.936 1.72207 1.15583 0
M  V30 2673 C 257.361 0.441034 1.82857 0
M  V30 2674 O 256.719 -0.603465 1.70962 0
M  V30 2675 C 256.767 2.87476 2.17692 0
M  V30 2676 O 255.871 2.54693 3.24354 0
M  V30 2677 H 255.212 0.572526 0.336319 0
M  V30 2678 H 257.742 1.99618 0.448744 0
M  V30 2679 H 257.752 3.13072 2.6163 0
M  V30 2680 H 256.427 3.80408 1.68115 0
M  V30 2681 H 255.004 2.3985 2.85529 0
M  V30 2682 N 257.189 -0.644168 1.43834 0
M  V30 2683 C 258.414 -1.43642 1.49605 0
M  V30 2684 C 258.839 -1.8773 0.117913 0
M  V30 2685 O 258.197 -1.57938 -0.890239 0
M  V30 2686 C 258.245 -2.6416 2.45463 0
M  V30 2687 O 257.349 -3.63538 1.94714 0
M  V30 2688 H 256.69 -0.430329 0.50568 0
M  V30 2689 H 259.22 -0.787448 1.8884 0
M  V30 2690 H 259.23 -3.11864 2.63068 0
M  V30 2691 H 257.905 -2.31414 3.45572 0
M  V30 2692 H 256.482 -3.2273 1.86814 0
M  V30 2693 N 258.668 -1.30515 -0.883378 0
M  V30 2694 C 259.615 -1.17032 -1.98927 0
M  V30 2695 C 260.585 -0.0594241 -1.65994 0
M  V30 2696 O 261.77 -0.229895 -1.8941 0
M  V30 2697 C 258.91 -0.869777 -3.33959 0
M  V30 2698 C 258.023 -2.06271 -3.79574 0
M  V30 2699 C 257.158 -1.70011 -5.03259 0
M  V30 2700 C 256.197 -2.8579 -5.41286 0
M  V30 2701 N 255.334 -2.49816 -6.56153 0
M  V30 2702 H 260.174 -2.1164 -2.09792 0
M  V30 2703 H 257.711 -1.05296 -1.02719 0
M  V30 2704 H 259.669 -0.676138 -4.11685 0
M  V30 2705 H 258.299 0.0394332 -3.22776 0
M  V30 2706 H 257.351 -2.36755 -2.97744 0
M  V30 2707 H 258.663 -2.92971 -4.03694 0
M  V30 2708 H 257.817 -1.47032 -5.88614 0
M  V30 2709 H 256.556 -0.804829 -4.81013 0
M  V30 2710 H 255.561 -3.09434 -4.54456 0
M  V30 2711 H 256.786 -3.76008 -5.65504 0
M  V30 2712 H 254.732 -1.62795 -6.35479 0
M  V30 2713 H 254.649 -3.30048 -6.8015 0
M  V30 2714 H 255.917 -2.30197 -7.44735 0
M  V30 2715 N 260.146 1.09593 -1.13257 0
M  V30 2716 C 261.056 2.19739 -0.821691 0
M  V30 2717 C 262.072 1.72926 0.19302 0
M  V30 2718 O 263.248 2.01385 0.0244895 0
M  V30 2719 C 260.313 3.45482 -0.290333 0
M  V30 2720 C 259.374 4.06985 -1.36607 0
M  V30 2721 C 258.607 5.26726 -0.859975 0
M  V30 2722 O 258.83 5.69594 0.303082 0
M  V30 2723 O 257.764 5.7931 -1.63351 0
M  V30 2724 H 261.59 2.48781 -1.74189 0
M  V30 2725 H 259.175 1.18496 -0.909894 0
M  V30 2726 H 261.057 4.214 0.000674022 0
M  V30 2727 H 259.732 3.18047 0.602306 0
M  V30 2728 H 258.639 3.32712 -1.71037 0
M  V30 2729 H 259.972 4.38643 -2.23279 0
M  V30 2730 N 261.624 0.925811 1.2754 0
M  V30 2731 C 262.572 0.413897 2.28888 0
M  V30 2732 C 263.566 -0.500779 1.61829 0
M  V30 2733 O 264.772 -0.38069 1.75928 0
M  V30 2734 H 261.147 0.115274 0.743112 0
M  V30 2735 H 263.118 1.28151 2.69481 0
M  V30 2736 C 261.867 -0.319792 3.46226 0
M  V30 2737 H 261.19 0.374846 3.98039 0
M  V30 2738 H 262.63 -0.642435 4.19105 0
M  V30 2739 C 261.089 -1.53209 3.00048 0
M  V30 2740 O 261.619 -2.6309 3.03557 0
M  V30 2741 N 259.825 -1.38326 2.55566 0
M  V30 2742 H 259.372 -0.489292 2.5291 0
M  V30 2743 H 259.33 -2.19564 2.25031 0
M  V30 2744 N 263.102 -1.41638 0.69111 0
M  V30 2745 C 264.332 -2.0533 0.228758 0
M  V30 2746 C 264.74 -1.52089 -1.12541 0
M  V30 2747 O 264.083 -0.662145 -1.71351 0
M  V30 2748 C 264.145 -3.59349 0.10407 0
M  V30 2749 C 263.809 -4.35362 1.38956 0
M  V30 2750 C 264.806 -4.64942 2.32648 0
M  V30 2751 C 262.491 -4.74714 1.64169 0
M  V30 2752 C 264.485 -5.32828 3.49818 0
M  V30 2753 C 262.172 -5.42338 2.81625 0
M  V30 2754 C 263.17 -5.71322 3.74273 0
M  V30 2755 O 262.858 -6.37554 4.89673 0
M  V30 2756 H 262.59 -0.667796 0.104997 0
M  V30 2757 H 265.144 -1.82477 0.942938 0
M  V30 2758 H 263.374 -3.80924 -0.665839 0
M  V30 2759 H 265.063 -4.04633 -0.320519 0
M  V30 2760 H 265.829 -4.35025 2.14425 0
M  V30 2761 H 261.708 -4.51538 0.929202 0
M  V30 2762 H 265.252 -5.55368 4.22152 0
M  V30 2763 H 261.149 -5.71673 2.99768 0
M  V30 2764 H 261.917 -6.56049 4.8943 0
M  V30 2765 N 264.58 -0.43555 -1.51462 0
M  V30 2766 C 265.512 0.41257 -2.25456 0
M  V30 2767 C 266.525 0.987822 -1.29406 0
M  V30 2768 O 267.714 0.882266 -1.55172 0
M  V30 2769 C 264.814 1.58894 -2.99342 0
M  V30 2770 C 263.987 1.13288 -4.22474 0
M  V30 2771 C 263.046 2.17917 -4.78956 0
M  V30 2772 O 262.072 1.77425 -5.40841 0
M  V30 2773 N 263.274 3.50382 -4.62832 0
M  V30 2774 H 266.039 -0.221603 -2.9888 0
M  V30 2775 H 263.6 -0.264342 -1.59727 0
M  V30 2776 H 265.592 2.28508 -3.34015 0
M  V30 2777 H 264.162 2.12849 -2.28941 0
M  V30 2778 H 263.382 0.263881 -3.93316 0
M  V30 2779 H 264.67 0.805542 -5.02383 0
M  V30 2780 H 264.068 3.86013 -4.13534 0
M  V30 2781 H 262.625 4.15895 -5.01871 0
M  V30 2782 N 266.058 1.56714 -0.166846 0
M  V30 2783 C 267.005 2.17746 0.765193 0
M  V30 2784 C 267.975 1.11614 1.23011 0
M  V30 2785 O 269.16 1.39745 1.29908 0
M  V30 2786 C 266.3 2.81882 1.9909 0
M  V30 2787 C 265.413 4.02462 1.56997 0
M  V30 2788 C 264.548 4.54537 2.749 0
M  V30 2789 C 263.587 5.67538 2.29275 0
M  V30 2790 N 262.724 6.14142 3.40255 0
M  V30 2791 H 267.564 2.97048 0.237952 0
M  V30 2792 H 265.101 1.4672 0.105725 0
M  V30 2793 H 267.059 3.17221 2.70974 0
M  V30 2794 H 265.689 2.05191 2.49192 0
M  V30 2795 H 264.741 3.72973 0.748037 0
M  V30 2796 H 266.053 4.84273 1.19503 0
M  V30 2797 H 265.207 4.92035 3.54946 0
M  V30 2798 H 263.946 3.71774 3.1565 0
M  V30 2799 H 262.951 5.29597 1.47674 0
M  V30 2800 H 264.176 6.52099 1.89588 0
M  V30 2801 H 262.122 5.3431 3.8059 0
M  V30 2802 H 262.039 6.9093 3.06841 0
M  V30 2803 H 263.307 6.56289 4.206 0
M  V30 2804 N 267.536 -0.106894 1.57237 0
M  V30 2805 C 268.782 -0.81373 1.85759 0
M  V30 2806 C 269.115 -1.78952 0.754315 0
M  V30 2807 O 268.39 -1.93029 -0.23879 0
M  V30 2808 C 268.673 -1.55293 3.24894 0
M  V30 2809 C 268.526 -0.595929 4.45835 0
M  V30 2810 C 269.845 -2.5063 3.61763 0
M  V30 2811 H 266.964 -0.294369 0.67566 0
M  V30 2812 H 269.606 -0.0776472 1.89841 0
M  V30 2813 H 267.756 -2.1804 3.21544 0
M  V30 2814 H 269.428 0.0236262 4.61294 0
M  V30 2815 H 267.671 0.0916191 4.33703 0
M  V30 2816 H 268.342 -1.15004 5.39887 0
M  V30 2817 H 270.818 -1.97982 3.65981 0
M  V30 2818 H 269.694 -2.99376 4.60071 0
M  V30 2819 H 269.955 -3.3385 2.89821 0
M  V30 2820 N 269.014 -1.53014 -0.377408 0
M  V30 2821 C 269.944 -1.81589 -1.46791 0
M  V30 2822 C 270.925 -0.668622 -1.56408 0
M  V30 2823 O 272.11 -0.917337 -1.71168 0
M  V30 2824 C 269.24 -1.99519 -2.8427 0
M  V30 2825 C 268.194 -3.15249 -2.89486 0
M  V30 2826 C 267.52 -3.18451 -4.29527 0
M  V30 2827 C 268.82 -4.54084 -2.58079 0
M  V30 2828 H 270.514 -2.7291 -1.23127 0
M  V30 2829 H 268.06 -1.31319 -0.590883 0
M  V30 2830 H 270.013 -2.18092 -3.60575 0
M  V30 2831 H 268.737 -1.04897 -3.09296 0
M  V30 2832 H 267.396 -2.96477 -2.15631 0
M  V30 2833 H 267.044 -2.2149 -4.5161 0
M  V30 2834 H 266.744 -3.962 -4.33934 0
M  V30 2835 H 268.268 -3.39193 -5.07721 0
M  V30 2836 H 269.682 -4.72899 -3.24098 0
M  V30 2837 H 268.079 -5.33987 -2.7382 0
M  V30 2838 H 269.149 -4.60006 -1.53372 0
M  V30 2839 N 270.492 0.636531 -1.44174 0
M  V30 2840 C 271.717 1.42847 -1.50364 0
M  V30 2841 C 272.142 1.87665 -0.127867 0
M  V30 2842 O 271.5 1.58408 0.88185 0
M  V30 2843 C 271.548 2.62854 -2.4686 0
M  V30 2844 O 270.652 3.62501 -1.9664 0
M  V30 2845 H 269.993 0.427642 -0.507955 0
M  V30 2846 H 272.523 0.777422 -1.89255 0
M  V30 2847 H 272.533 3.10465 -2.64718 0
M  V30 2848 H 271.208 2.29578 -3.46795 0
M  V30 2849 H 269.785 3.21735 -1.88523 0
M  V30 2850 N 271.97 1.30982 0.876444 0
M  V30 2851 C 272.88 1.2003 2.01569 0
M  V30 2852 C 273.896 0.11838 1.73597 0
M  V30 2853 O 275.072 0.33495 1.98595 0
M  V30 2854 C 272.137 0.901637 3.34771 0
M  V30 2855 C 271.198 2.06979 3.76109 0
M  V30 2856 C 270.431 1.78529 5.02954 0
M  V30 2857 O 270.654 0.717296 5.65872 0
M  V30 2858 O 269.588 2.64019 5.40905 0
M  V30 2859 H 273.414 2.15753 2.13739 0
M  V30 2860 H 270.999 1.10658 1.00375 0
M  V30 2861 H 272.881 0.750645 4.1466 0
M  V30 2862 H 271.556 -0.0256141 3.2369 0
M  V30 2863 H 270.463 2.27616 2.96887 0
M  V30 2864 H 271.796 2.97907 3.91807 0
M  V30 2865 N 273.449 -1.08991 1.13837 0
M  V30 2866 C 274.399 -2.1393 0.788535 0
M  V30 2867 C 275.383 -1.59396 -0.219516 0
M  V30 2868 O 276.575 -1.76985 -0.0227557 0
M  V30 2869 C 273.704 -3.42305 0.261147 0
M  V30 2870 C 272.79 -4.03736 1.29837 0
M  V30 2871 N 273.181 -4.39659 2.50067 0
M  V30 2872 C 271.479 -4.30993 1.1472 0
M  V30 2873 C 272.18 -4.88113 3.16419 0
M  V30 2874 N 271.156 -4.85846 2.43832 0
M  V30 2875 H 274.958 -2.39516 1.70322 0
M  V30 2876 H 272.472 -1.26263 1.02134 0
M  V30 2877 H 274.469 -4.16899 -0.0077405 0
M  V30 2878 H 273.129 -3.18172 -0.647805 0
M  V30 2879 H 274.14 -4.30878 2.8734 0
M  V30 2880 H 270.817 -4.16444 0.296773 0
M  V30 2881 H 272.207 -5.25336 4.18894 0
M  V30 2882 N 274.927 -0.932562 -1.27047 0
M  V30 2883 C 276.175 -0.574422 -1.93765 0
M  V30 2884 C 276.496 0.887993 -1.73608 0
M  V30 2885 O 275.766 1.62999 -1.08665 0
M  V30 2886 H 274.346 -0.209451 -0.717035 0
M  V30 2887 H 277.008 -1.18601 -1.5466 0
M  V30 2888 H 276.104 -0.784841 -3.02071 0
M  V30 2889 N 276.405 1.4127 -0.698611 0
M  V30 2890 C 277.652 2.0118 -0.230865 0
M  V30 2891 C 277.98 1.55338 1.17049 0
M  V30 2892 O 277.235 0.756775 1.80475 0
M  V30 2893 C 277.534 3.56592 -0.240192 0
M  V30 2894 C 277.2 4.21955 -1.58948 0
M  V30 2895 C 275.862 4.39524 -1.95887 0
M  V30 2896 C 278.214 4.58576 -2.47704 0
M  V30 2897 C 275.542 4.90992 -3.2116 0
M  V30 2898 C 277.894 5.11435 -3.72313 0
M  V30 2899 C 276.558 5.27215 -4.0939 0
M  V30 2900 H 275.828 0.736169 -0.0844796 0
M  V30 2901 H 278.475 1.69124 -0.8983 0
M  V30 2902 H 276.78 3.88456 0.510797 0
M  V30 2903 H 278.477 4.00758 0.139296 0
M  V30 2904 H 275.067 4.08657 -1.29219 0
M  V30 2905 H 279.251 4.44654 -2.20445 0
M  V30 2906 H 274.507 5.01393 -3.49878 0
M  V30 2907 H 278.681 5.38752 -4.4127 0
M  V30 2908 H 276.308 5.66859 -5.06533 0
M  V30 2909 N 277.883 0.443576 1.51229 0
M  V30 2910 C 279.131 -0.120557 2.0174 0
M  V30 2911 C 279.452 -1.42665 1.32935 0
M  V30 2912 O 278.722 -1.9028 0.465866 0
M  V30 2913 H 277.302 -0.0475426 0.745486 0
M  V30 2914 H 279.964 0.587711 1.85828 0
M  V30 2915 H 279.06 -0.291972 3.10731 0
M  V30 2916 N 279.361 -1.56624 0.175154 0
M  V30 2917 C 280.772 -1.83561 -0.340916 0
M  V30 2918 C 281.123 -1.09511 -1.62794 0
M  V30 2919 O 280.248 -0.349389 -2.13561 0
M  V30 2920 C 280.843 -3.32979 -0.625313 0
M  V30 2921 C 279.402 -3.60399 -1.08581 0
M  V30 2922 C 278.549 -2.77024 -0.123722 0
M  V30 2923 H 281.5 -1.53593 0.399344 0
M  V30 2924 H 281.521 -3.50666 -1.47694 0
M  V30 2925 H 281.033 -3.86847 0.311575 0
M  V30 2926 H 279.134 -3.11945 -2.03767 0
M  V30 2927 H 279.247 -4.68711 -0.992317 0
M  V30 2928 H 277.611 -2.46993 -0.621821 0
M  V30 2929 H 278.394 -3.33674 0.807256 0
M  V30 2930 N 280.839 0.0985539 -1.57292 0
M  V30 2931 C 282.088 0.801358 -1.85098 0
M  V30 2932 C 282.401 1.80066 -0.763902 0
M  V30 2933 O 283.607 2.55112 -0.928981 0
M  V30 2934 C 282.063 1.47599 -3.28242 0
M  V30 2935 C 281.671 0.516624 -4.45011 0
M  V30 2936 C 283.415 2.16272 -3.65276 0
M  V30 2937 C 281.322 1.19564 -5.79188 0
M  V30 2938 H 280.252 0.303022 -0.69043 0
M  V30 2939 H 282.903 0.0542623 -1.8342 0
M  V30 2940 H 281.285 2.27042 -3.2445 0
M  V30 2941 H 282.459 -0.246065 -4.60143 0
M  V30 2942 H 280.774 -0.064227 -4.1635 0
M  V30 2943 H 283.371 2.67802 -4.62803 0
M  V30 2944 H 283.714 2.95009 -2.93727 0
M  V30 2945 H 284.247 1.43693 -3.70941 0
M  V30 2946 H 280.986 0.449157 -6.53959 0
M  V30 2947 H 280.506 1.92984 -5.67906 0
M  V30 2948 H 282.185 1.7231 -6.23633 0
M  V30 2949 N 282.317 1.53212 0.369288 0
M  V30 2950 C 283.545 1.73119 1.13303 0
M  V30 2951 C 283.96 0.458455 1.83149 0
M  V30 2952 O 283.317 -0.568403 1.73423 0
M  V30 2953 C 283.368 2.89413 2.16616 0
M  V30 2954 O 283.089 4.11761 1.49614 0
M  V30 2955 C 284.59 3.21161 3.05566 0
M  V30 2956 H 281.81 0.579107 0.338934 0
M  V30 2957 H 284.354 1.99942 0.429338 0
M  V30 2958 H 282.509 2.64994 2.82589 0
M  V30 2959 H 282.923 4.76858 2.18419 0
M  V30 2960 H 284.397 4.05949 3.74045 0
M  V30 2961 H 284.874 2.36369 3.70171 0
M  V30 2962 H 285.48 3.47492 2.45213 0
M  V30 2963 N 283.795 -0.628877 1.44509 0
M  V30 2964 C 285.023 -1.41554 1.50897 0
M  V30 2965 C 285.438 -1.8832 0.134564 0
M  V30 2966 O 284.795 -1.60969 -0.859965 0
M  V30 2967 C 284.846 -2.63435 2.47556 0
M  V30 2968 O 284.567 -2.18619 3.79654 0
M  V30 2969 C 286.068 -3.56537 2.63431 0
M  V30 2970 H 283.288 -0.434044 0.511709 0
M  V30 2971 H 285.832 -0.768895 1.89495 0
M  V30 2972 H 283.987 -3.24187 2.12089 0
M  V30 2973 H 284.401 -2.97652 4.31861 0
M  V30 2974 H 285.875 -4.38657 3.35088 0
M  V30 2975 H 286.352 -4.05493 1.68738 0
M  V30 2976 H 286.958 -3.01653 2.9981 0
M  V30 2977 N 285.273 -1.31445 -0.869486 0
M  V30 2978 C 286.55 -1.11795 -1.60503 0
M  V30 2979 C 286.93 0.327168 -2.08549 0
M  V30 2980 O 286.278 1.32135 -1.8642 0
M  V30 2981 C 286.488 -2.13258 -2.76265 0
M  V30 2982 C 287.836 -2.45805 -3.46215 0
M  V30 2983 O 288.86 -2.11688 -2.86473 0
M  V30 2984 O 287.719 -3.04228 -4.5399 0
M  V30 2985 H 284.813 -0.430421 -0.706163 0
M  V30 2986 H 287.359 -1.42925 -0.914907 0
M  V30 2987 H 286.131 -3.10461 -2.3818 0
M  V30 2988 H 285.754 -1.83035 -3.52964 0
M  V30 2989 N 286.751 1.08385 -1.14413 0
M  V30 2990 C 288 1.80153 -0.907076 0
M  V30 2991 C 288.313 1.87176 0.567851 0
M  V30 2992 O 289.519 2.55359 0.922172 0
M  V30 2993 C 287.975 3.23687 -1.57336 0
M  V30 2994 C 287.583 3.24897 -3.08457 0
M  V30 2995 C 289.327 4.00136 -1.41744 0
M  V30 2996 C 287.234 4.6302 -3.67921 0
M  V30 2997 H 286.164 0.675139 -0.335714 0
M  V30 2998 H 288.815 1.21733 -1.37307 0
M  V30 2999 H 287.197 3.82234 -1.03505 0
M  V30 3000 H 288.371 2.76055 -3.68958 0
M  V30 3001 H 286.686 2.61943 -3.2369 0
M  V30 3002 H 289.283 5.02201 -1.83572 0
M  V30 3003 H 289.626 4.14709 -0.363576 0
M  V30 3004 H 290.159 3.48058 -1.92614 0
M  V30 3005 H 286.898 4.5365 -4.73161 0
M  V30 3006 H 286.418 5.12143 -3.12201 0
M  V30 3007 H 288.097 5.31994 -3.68227 0
M  V30 3008 N 288.23 0.939286 1.26551 0
M  V30 3009 C 289.646 0.641304 1.46149 0
M  V30 3010 C 289.846 -0.805964 1.84679 0
M  V30 3011 O 288.902 -1.58278 1.96734 0
M  V30 3012 C 290.215 1.6011 2.54529 0
M  V30 3013 C 291.763 1.6106 2.68382 0
M  V30 3014 C 292.238 2.55765 3.79932 0
M  V30 3015 N 293.729 2.5404 3.87322 0
M  V30 3016 C 294.464 3.24004 4.73085 0
M  V30 3017 N 293.96 4.03388 5.63249 0
M  V30 3018 N 295.753 3.12965 4.66914 0
M  V30 3019 H 287.904 1.87478 0.998285 0
M  V30 3020 H 290.167 0.805559 0.499779 0
M  V30 3021 H 289.873 2.63412 2.33039 0
M  V30 3022 H 289.747 1.35171 3.52149 0
M  V30 3023 H 292.134 0.584835 2.89247 0
M  V30 3024 H 292.215 1.90053 1.71212 0
M  V30 3025 H 291.859 3.58458 3.5982 0
M  V30 3026 H 291.789 2.24063 4.76554 0
M  V30 3027 H 294.28 1.96396 3.22858 0
M  V30 3028 H 294.593 4.5373 6.25579 0
M  V30 3029 H 292.938 4.07489 5.63008 0
M  V30 3030 H 296.129 2.50432 3.95476 0
M  V30 3031 H 296.302 3.67759 5.33533 0
M  V30 3032 N 289.708 -1.40897 0.706093 0
M  V30 3033 C 290.618 -2.3455 0.0482286 0
M  V30 3034 C 291.634 -1.56796 -0.754396 0
M  V30 3035 O 292.81 -1.89228 -0.689538 0
M  V30 3036 C 289.875 -3.35625 -0.869303 0
M  V30 3037 C 288.936 -4.29261 -0.0576994 0
M  V30 3038 C 288.169 -5.25508 -0.931531 0
M  V30 3039 O 288.392 -5.27472 -2.17092 0
M  V30 3040 O 287.326 -6.00727 -0.375587 0
M  V30 3041 H 291.152 -2.92407 0.820476 0
M  V30 3042 H 288.737 -1.4193 0.4665 0
M  V30 3043 H 290.619 -3.97635 -1.39514 0
M  V30 3044 H 289.294 -2.80196 -1.62086 0
M  V30 3045 H 288.201 -3.70566 0.512988 0
M  V30 3046 H 289.534 -4.87817 0.655426 0
M  V30 3047 N 291.186 -0.45159 -1.50991 0
M  V30 3048 C 292.434 0.109857 -2.01801 0
M  V30 3049 C 292.755 1.41958 -1.3369 0
M  V30 3050 O 292.025 1.9003 -0.475951 0
M  V30 3051 H 290.605 0.0435884 -0.745727 0
M  V30 3052 H 293.267 -0.597557 -1.85514 0
M  V30 3053 H 292.363 0.275489 -3.10882 0
M  V30 3054 N 292.664 1.56529 -0.183458 0
M  V30 3055 C 293.596 2.15747 0.773697 0
M  V30 3056 C 294.609 1.1162 1.1851 0
M  V30 3057 O 295.798 1.3876 1.12285 0
M  V30 3058 C 292.898 2.6952 2.05456 0
M  V30 3059 C 292.071 3.98429 1.8048 0
M  V30 3060 C 291.13 4.37145 2.92901 0
M  V30 3061 O 290.156 5.04791 2.6301 0
M  V30 3062 N 291.358 3.99695 4.2098 0
M  V30 3063 H 294.123 2.98505 0.26736 0
M  V30 3064 H 291.684 1.619 -0.0010878 0
M  V30 3065 H 293.676 2.92412 2.79781 0
M  V30 3066 H 292.246 1.91282 2.47245 0
M  V30 3067 H 291.466 3.8379 0.899947 0
M  V30 3068 H 292.754 4.82597 1.61175 0
M  V30 3069 H 292.152 3.4526 4.48121 0
M  V30 3070 H 290.709 4.27562 4.9197 0
M  V30 3071 N 294.142 -0.090211 1.57342 0
M  V30 3072 C 295.37 -0.806224 1.90546 0
M  V30 3073 C 295.785 -1.72041 0.777644 0
M  V30 3074 O 295.142 -1.80778 -0.250103 0
M  V30 3075 C 295.193 -1.61546 3.23396 0
M  V30 3076 O 294.914 -0.738043 4.31839 0
M  V30 3077 C 296.415 -2.4341 3.70495 0
M  V30 3078 H 293.635 -0.230256 0.630257 0
M  V30 3079 H 296.179 -0.0659843 2.04394 0
M  V30 3080 H 294.334 -2.30816 3.11131 0
M  V30 3081 H 294.748 -1.29901 5.08159 0
M  V30 3082 H 296.222 -2.95676 4.66133 0
M  V30 3083 H 296.699 -3.22098 2.98579 0
M  V30 3084 H 297.305 -1.79331 3.85643 0
M  V30 3085 N 295.62 -1.53406 -0.361157 0
M  V30 3086 C 296.867 -1.69802 -1.10333 0
M  V30 3087 C 297.195 -0.452087 -1.89173 0
M  V30 3088 O 296.45 0.566017 -1.87336 0
M  V30 3089 C 296.749 -2.90211 -2.08596 0
M  V30 3090 C 296.415 -4.26539 -1.46203 0
M  V30 3091 C 295.077 -4.6361 -1.28915 0
M  V30 3092 C 297.429 -5.113 -1.01101 0
M  V30 3093 C 294.757 -5.83075 -0.651157 0
M  V30 3094 C 297.109 -6.31415 -0.387007 0
M  V30 3095 C 295.773 -6.67195 -0.201657 0
M  V30 3096 H 295.043 -0.621351 -0.403737 0
M  V30 3097 H 297.69 -1.87598 -0.384609 0
M  V30 3098 H 295.995 -2.66946 -2.86788 0
M  V30 3099 H 297.692 -3.00091 -2.65982 0
M  V30 3100 H 294.282 -3.97352 -1.60653 0
M  V30 3101 H 298.466 -4.83206 -1.13249 0
M  V30 3102 H 293.722 -6.09385 -0.496006 0
M  V30 3103 H 297.896 -6.96394 -0.0293563 0
M  V30 3104 H 295.523 -7.59628 0.294766 0
M  V30 3105 N 297.098 0.621204 -1.44841 0
M  V30 3106 C 298.328 1.40548 -1.51426 0
M  V30 3107 C 298.736 1.88673 -0.141083 0
M  V30 3108 O 298.079 1.62053 0.865128 0
M  V30 3109 C 298.141 2.65325 -2.42576 0
M  V30 3110 C 297.805 2.3893 -3.89566 0
M  V30 3111 C 298.802 2.00138 -4.79834 0
M  V30 3112 C 296.487 2.52263 -4.3436 0
M  V30 3113 C 298.481 1.75021 -6.129 0
M  V30 3114 C 296.168 2.2676 -5.67471 0
M  V30 3115 C 297.166 1.88199 -6.56559 0
M  V30 3116 O 296.854 1.62986 -7.87204 0
M  V30 3117 H 296.586 0.437122 -0.515655 0
M  V30 3118 H 299.14 0.765987 -1.90583 0
M  V30 3119 H 297.37 3.31947 -1.98364 0
M  V30 3120 H 299.059 3.27347 -2.39998 0
M  V30 3121 H 299.825 1.89386 -4.46495 0
M  V30 3122 H 295.704 2.81246 -3.65269 0
M  V30 3123 H 299.248 1.44848 -6.82396 0
M  V30 3124 H 295.145 2.37125 -6.00368 0
M  V30 3125 H 295.913 1.7715 -7.991 0
M  V30 3126 N 298.576 1.31904 0.862503 0
M  V30 3127 C 299.806 1.24817 1.64634 0
M  V30 3128 C 300.214 -0.187579 1.88268 0
M  V30 3129 O 299.557 -1.13253 1.44635 0
M  V30 3130 C 299.619 1.92996 3.03303 0
M  V30 3131 C 299.283 3.42336 3.02746 0
M  V30 3132 C 300.28 4.37956 2.80162 0
M  V30 3133 C 297.965 3.84147 3.2363 0
M  V30 3134 C 299.959 5.73361 2.78453 0
M  V30 3135 C 297.646 5.19663 3.21549 0
M  V30 3136 C 298.644 6.14081 2.98988 0
M  V30 3137 O 298.332 7.47118 2.96766 0
M  V30 3138 H 298.064 0.432222 0.519769 0
M  V30 3139 H 300.618 1.7445 1.08427 0
M  V30 3140 H 298.848 1.37922 3.61268 0
M  V30 3141 H 300.537 1.79723 3.63943 0
M  V30 3142 H 301.303 4.06981 2.63802 0
M  V30 3143 H 297.182 3.11083 3.40218 0
M  V30 3144 H 300.726 6.4703 2.60763 0
M  V30 3145 H 296.623 5.5027 3.37451 0
M  V30 3146 H 297.391 7.56382 3.12775 0
M  V30 3147 N 300.054 -1.07777 1.14986 0
M  V30 3148 C 301.017 -2.13041 0.845358 0
M  V30 3149 C 302.017 -1.60071 -0.152931 0
M  V30 3150 O 303.207 -1.74033 0.0761879 0
M  V30 3151 C 300.339 -3.39896 0.261383 0
M  V30 3152 H 301.532 -2.41485 1.77834 0
M  V30 3153 H 299.085 -1.23595 0.956757 0
M  V30 3154 H 299.82 -3.17091 -0.68 0
M  V30 3155 H 299.605 -3.79642 0.980514 0
M  V30 3156 H 301.095 -4.17548 0.0657687 0
M  V30 3157 N 301.532 -0.945985 -1.26051 0
M  V30 3158 C 302.442 -0.465633 -2.29933 0
M  V30 3159 C 303.458 0.462761 -1.67733 0
M  V30 3160 O 304.634 0.341118 -1.9849 0
M  V30 3161 C 301.699 0.256994 -3.45746 0
M  V30 3162 C 300.76 -0.708549 -4.23412 0
M  V30 3163 C 299.993 -0.0203135 -5.33696 0
M  V30 3164 O 300.216 1.19571 -5.57726 0
M  V30 3165 O 299.15 -0.701459 -5.97799 0
M  V30 3166 H 302.976 -1.32866 -2.73094 0
M  V30 3167 H 300.561 -0.712071 -1.31339 0
M  V30 3168 H 302.443 0.663852 -4.16138 0
M  V30 3169 H 301.118 1.09533 -3.04605 0
M  V30 3170 H 300.025 -1.16545 -3.55483 0
M  V30 3171 H 301.358 -1.51465 -4.68315 0
M  V30 3172 N 303.011 1.40521 -0.713556 0
M  V30 3173 C 304.288 1.94775 -0.17943 0
M  V30 3174 C 304.668 1.65184 1.31444 0
M  V30 3175 O 304.016 0.968429 2.06963 0
M  V30 3176 C 304.226 3.45543 -0.489986 0
M  V30 3177 C 305.574 4.22442 -0.427536 0
M  V30 3178 O 306.598 3.53644 -0.425929 0
M  V30 3179 O 305.457 5.4501 -0.403292 0
M  V30 3180 H 302.551 0.826606 -0.0255192 0
M  V30 3181 H 305.097 1.5014 -0.790949 0
M  V30 3182 H 303.869 3.60432 -1.5233 0
M  V30 3183 H 303.492 3.97311 0.151598 0
M  V30 3184 N 304.489 0.459591 1.5075 0
M  V30 3185 C 305.719 -0.0972338 2.06371 0
M  V30 3186 C 306.127 -1.35074 1.32483 0
M  V30 3187 O 305.47 -1.79637 0.384226 0
M  V30 3188 C 305.532 -0.462759 3.56509 0
M  V30 3189 C 305.196 0.687084 4.51805 0
M  V30 3190 C 306.193 1.56578 4.95761 0
M  V30 3191 C 303.878 0.874144 4.94635 0
M  V30 3192 C 305.872 2.61604 5.81242 0
M  V30 3193 C 303.559 1.92765 5.79901 0
M  V30 3194 C 304.557 2.79697 6.23104 0
M  V30 3195 O 304.245 3.83235 7.06673 0
M  V30 3196 H 303.977 -0.00140687 0.675999 0
M  V30 3197 H 306.531 0.644011 1.95043 0
M  V30 3198 H 304.761 -1.25703 3.65699 0
M  V30 3199 H 306.45 -0.953323 3.94546 0
M  V30 3200 H 307.216 1.4329 4.6335 0
M  V30 3201 H 303.095 0.207006 4.60535 0
M  V30 3202 H 306.639 3.29489 6.14884 0
M  V30 3203 H 302.536 2.06064 6.11725 0
M  V30 3204 H 303.304 3.80084 7.24899 0
M  V30 3205 N 305.967 -1.56429 0.191757 0
M  V30 3206 C 306.917 -2.15548 -0.743184 0
M  V30 3207 C 307.901 -1.09531 -1.17863 0
M  V30 3208 O 309.093 -1.35602 -1.13759 0
M  V30 3209 C 306.222 -2.81577 -1.96391 0
M  V30 3210 C 305.308 -3.9478 -1.54951 0
M  V30 3211 N 305.699 -4.98677 -0.845876 0
M  V30 3212 C 303.997 -4.06319 -1.83905 0
M  V30 3213 C 304.698 -5.78183 -0.638724 0
M  V30 3214 N 303.674 -5.30495 -1.18643 0
M  V30 3215 H 307.476 -2.9324 -0.196839 0
M  V30 3216 H 304.99 -1.62398 -0.0081603 0
M  V30 3217 H 306.987 -3.22321 -2.64415 0
M  V30 3218 H 305.647 -2.05371 -2.51501 0
M  V30 3219 H 306.658 -5.15464 -0.501704 0
M  V30 3220 H 303.335 -3.41238 -2.40548 0
M  V30 3221 H 304.725 -6.71851 -0.0807929 0
M  V30 3222 N 307.445 0.0818655 -1.57387 0
M  V30 3223 C 308.377 1.12484 -1.997 0
M  V30 3224 C 309.39 1.35564 -0.90146 0
M  V30 3225 O 310.579 1.33982 -1.17945 0
M  V30 3226 C 307.679 2.47778 -2.31213 0
M  V30 3227 C 306.852 2.44793 -3.62485 0
M  V30 3228 C 305.911 3.62117 -3.81782 0
M  V30 3229 O 304.937 3.44005 -4.53486 0
M  V30 3230 N 306.139 4.82094 -3.23367 0
M  V30 3231 H 308.904 0.764585 -2.89783 0
M  V30 3232 H 306.465 0.270664 -1.59621 0
M  V30 3233 H 308.457 3.24891 -2.41304 0
M  V30 3234 H 307.027 2.75843 -1.4707 0
M  V30 3235 H 306.247 1.53134 -3.6324 0
M  V30 3236 H 307.535 2.39889 -4.48699 0
M  V30 3237 H 306.933 4.99713 -2.65148 0
M  V30 3238 H 305.49 5.56753 -3.38923 0
M  V30 3239 N 308.923 1.53595 0.353017 0
M  V30 3240 C 309.855 1.77219 1.45348 0
M  V30 3241 C 310.868 0.65324 1.49119 0
M  V30 3242 O 312.057 0.929775 1.52373 0
M  V30 3243 C 309.157 1.84841 2.84055 0
M  V30 3244 C 308.33 3.14649 3.03833 0
M  V30 3245 C 307.389 3.13351 4.22727 0
M  V30 3246 O 306.415 3.87107 4.17297 0
M  V30 3247 N 307.617 2.35052 5.30783 0
M  V30 3248 H 310.382 2.72178 1.25457 0
M  V30 3249 H 307.943 1.52528 0.542833 0
M  V30 3250 H 309.935 1.81435 3.61751 0
M  V30 3251 H 308.505 0.971114 2.97133 0
M  V30 3252 H 307.725 3.31256 2.13689 0
M  V30 3253 H 309.013 4.00411 3.13925 0
M  V30 3254 H 308.411 1.74663 5.38061 0
M  V30 3255 H 306.968 2.37453 6.07009 0
M  V30 3256 N 310.401 -0.613514 1.45168 0
M  V30 3257 C 311.631 -1.39743 1.52169 0
M  V30 3258 C 312.039 -1.88596 0.151086 0
M  V30 3259 O 311.382 -1.6251 -0.856521 0
M  V30 3260 C 311.444 -2.64035 2.43979 0
M  V30 3261 C 311.108 -2.36861 3.90827 0
M  V30 3262 C 312.105 -1.97591 4.80889 0
M  V30 3263 C 309.79 -2.49956 4.35692 0
M  V30 3264 C 311.784 -1.71768 6.1382 0
M  V30 3265 C 309.471 -2.23747 5.68665 0
M  V30 3266 C 310.469 -1.84714 6.57548 0
M  V30 3267 O 310.157 -1.58809 7.88058 0
M  V30 3268 H 309.889 -0.434382 0.517966 0
M  V30 3269 H 312.443 -0.75587 1.90986 0
M  V30 3270 H 310.673 -3.3089 2.00122 0
M  V30 3271 H 312.362 -3.26069 2.41731 0
M  V30 3272 H 313.128 -1.87015 4.47493 0
M  V30 3273 H 309.007 -2.79305 3.66756 0
M  V30 3274 H 312.551 -1.41227 6.83155 0
M  V30 3275 H 308.448 -2.33938 6.01617 0
M  V30 3276 H 309.216 -1.7291 8.00028 0
M  V30 3277 N 311.879 -1.3236 -0.855495 0
M  V30 3278 C 312.809 -1.23833 -1.97958 0
M  V30 3279 C 313.79 -0.122361 -1.69659 0
M  V30 3280 O 314.975 -0.30939 -1.9172 0
M  V30 3281 C 312.105 -0.959772 -3.33775 0
M  V30 3282 C 311.059 -2.03689 -3.76424 0
M  V30 3283 C 310.385 -1.61075 -5.09862 0
M  V30 3284 C 311.685 -3.4518 -3.9198 0
M  V30 3285 H 313.379 -2.1788 -2.0535 0
M  V30 3286 H 310.925 -1.04891 -0.986605 0
M  V30 3287 H 312.878 -0.886678 -4.11966 0
M  V30 3288 H 311.602 0.0163404 -3.26596 0
M  V30 3289 H 310.261 -2.10012 -3.00484 0
M  V30 3290 H 309.909 -0.622107 -4.99138 0
M  V30 3291 H 309.609 -2.33143 -5.39368 0
M  V30 3292 H 311.133 -1.55201 -5.90546 0
M  V30 3293 H 312.547 -3.4145 -4.60526 0
M  V30 3294 H 310.944 -4.1559 -4.32903 0
M  V30 3295 H 312.014 -3.84903 -2.94919 0
M  V30 3296 N 313.357 1.07166 -1.15556 0
M  V30 3297 C 314.582 1.84053 -0.955988 0
M  V30 3298 C 315.007 1.81586 0.490739 0
M  V30 3299 O 314.365 1.21018 1.34997 0
M  V30 3300 C 314.413 3.28957 -1.47714 0
M  V30 3301 O 313.517 4.06795 -0.677593 0
M  V30 3302 H 312.858 0.569842 -0.340847 0
M  V30 3303 H 315.388 1.35178 -1.53584 0
M  V30 3304 H 315.398 3.79788 -1.4908 0
M  V30 3305 H 314.073 3.30068 -2.53037 0
M  V30 3306 H 312.65 3.6561 -0.733721 0
M  V30 3307 N 314.835 0.952656 1.25548 0
M  V30 3308 C 315.782 0.47008 2.25962 0
M  V30 3309 C 316.752 -0.476384 1.59122 0
M  V30 3310 O 317.937 -0.39007 1.8677 0
M  V30 3311 C 315.077 -0.247881 3.44209 0
M  V30 3312 C 314.19 0.735591 4.25691 0
M  V30 3313 C 313.325 -0.0047306 5.312 0
M  V30 3314 C 312.364 0.969805 6.04368 0
M  V30 3315 N 311.501 0.260486 7.01617 0
M  V30 3316 H 316.341 1.33126 2.66611 0
M  V30 3317 H 313.878 0.66765 1.31076 0
M  V30 3318 H 315.836 -0.680695 4.1161 0
M  V30 3319 H 314.466 -1.07312 3.0444 0
M  V30 3320 H 313.518 1.28689 3.57971 0
M  V30 3321 H 314.83 1.47934 4.76358 0
M  V30 3322 H 313.984 -0.496275 6.04667 0
M  V30 3323 H 312.723 -0.781282 4.81401 0
M  V30 3324 H 311.728 1.47237 5.29718 0
M  V30 3325 H 312.953 1.74655 6.56256 0
M  V30 3326 H 310.899 -0.497364 6.54112 0
M  V30 3327 H 310.816 0.943362 7.50091 0
M  V30 3328 H 312.084 -0.209587 7.79218 0
M  V30 3329 N 316.313 -1.40141 0.720998 0
M  V30 3330 C 317.261 -2.3252 0.0608547 0
M  V30 3331 C 318.255 -1.52326 -0.741152 0
M  V30 3332 O 319.461 -1.68089 -0.643911 0
M  V30 3333 H 315.836 -0.751999 0.000876664 0
M  V30 3334 H 317.807 -2.8584 0.856614 0
M  V30 3335 C 316.556 -3.37331 -0.842809 0
M  V30 3336 H 315.879 -3.99108 -0.235084 0
M  V30 3337 H 317.319 -4.04452 -1.27257 0
M  V30 3338 C 315.778 -2.73246 -1.97074 0
M  V30 3339 O 316.308 -2.59998 -3.06209 0
M  V30 3340 N 314.514 -2.31547 -1.75597 0
M  V30 3341 H 314.061 -2.42522 -0.868368 0
M  V30 3342 H 314.019 -1.89007 -2.51244 0
M  V30 3343 N 317.792 -0.46758 -1.50504 0
M  V30 3344 C 319.203 -0.0116166 -1.86696 0
M  V30 3345 C 319.554 1.39202 -1.38265 0
M  V30 3346 O 318.679 2.0313 -0.746132 0
M  V30 3347 C 319.274 -0.0143044 -3.38797 0
M  V30 3348 C 317.833 0.386175 -3.74414 0
M  V30 3349 C 316.98 -0.401287 -2.74381 0
M  V30 3350 H 319.931 -0.682022 -1.43297 0
M  V30 3351 H 319.952 0.788641 -3.72237 0
M  V30 3352 H 319.464 -1.03602 -3.74016 0
M  V30 3353 H 317.565 1.41237 -3.44794 0
M  V30 3354 H 317.678 0.0899596 -4.79016 0
M  V30 3355 H 316.042 0.144536 -2.5429 0
M  V30 3356 H 316.825 -1.42244 -3.12444 0
M  V30 3357 N 319.27 1.56325 -0.20005 0
M  V30 3358 C 320.218 2.20666 0.735482 0
M  V30 3359 C 321.212 1.17934 1.21605 0
M  V30 3360 O 322.418 1.36068 1.17837 0
M  V30 3361 H 318.793 0.70725 0.255542 0
M  V30 3362 H 320.764 2.9792 0.169166 0
M  V30 3363 C 319.513 2.88391 1.94232 0
M  V30 3364 H 318.836 3.67185 1.58161 0
M  V30 3365 H 320.276 3.3684 2.57517 0
M  V30 3366 C 318.735 1.89692 2.78421 0
M  V30 3367 O 319.265 1.40032 3.76502 0
M  V30 3368 N 317.471 1.57813 2.44015 0
M  V30 3369 H 317.018 1.9839 1.64314 0
M  V30 3370 H 316.976 0.920325 3.00628 0
M  V30 3371 N 320.748 -0.0735177 1.57428 0
M  V30 3372 C 321.996 -0.771472 1.86796 0
M  V30 3373 C 322.317 -1.78201 0.791804 0
M  V30 3374 O 321.587 -1.95074 -0.179718 0
M  V30 3375 H 320.167 -0.28791 0.689287 0
M  V30 3376 H 322.829 -0.0500161 1.94836 0
M  V30 3377 H 321.925 -1.28874 2.8425 0
M  V30 3378 N 322.226 -1.5378 -0.344866 0
M  V30 3379 C 323.456 -1.74646 -1.10374 0
M  V30 3380 C 323.864 -0.48491 -1.8288 0
M  V30 3381 O 323.207 0.553062 -1.75177 0
M  V30 3382 C 323.269 -2.87145 -2.16306 0
M  V30 3383 C 322.933 -4.26795 -1.63386 0
M  V30 3384 C 323.93 -5.08412 -1.08688 0
M  V30 3385 C 321.615 -4.73276 -1.68272 0
M  V30 3386 C 323.609 -6.34609 -0.595792 0
M  V30 3387 C 321.296 -5.99446 -1.18776 0
M  V30 3388 C 322.294 -6.79946 -0.645215 0
M  V30 3389 O 321.982 -8.03745 -0.157626 0
M  V30 3390 H 321.714 -0.587112 -0.335075 0
M  V30 3391 H 324.268 -2.01403 -0.403252 0
M  V30 3392 H 322.498 -2.55909 -2.89909 0
M  V30 3393 H 324.187 -2.95992 -2.77747 0
M  V30 3394 H 324.953 -4.73666 -1.04236 0
M  V30 3395 H 320.832 -4.10677 -2.09442 0
M  V30 3396 H 324.376 -6.97389 -0.171654 0
M  V30 3397 H 320.273 -6.33687 -1.22928 0
M  V30 3398 H 321.041 -8.18038 -0.275037 0
M  V30 3399 N 323.704 0.605807 -1.45491 0
M  V30 3400 C 324.944 1.37606 -1.51142 0
M  V30 3401 C 325.308 1.91413 -0.150075 0
M  V30 3402 O 326.509 2.68677 -0.0812828 0
M  V30 3403 C 324.78 2.49197 -2.56195 0
M  V30 3404 S 326.339 3.36953 -2.81083 0
M  V30 3405 H 323.157 0.469118 -0.534275 0
M  V30 3406 H 325.759 0.698845 -1.82583 0
M  V30 3407 H 324.463 2.0802 -3.53773 0
M  V30 3408 H 323.994 3.21717 -2.26411 0
M  V30 3409 H 326.009 4.47395 -2.14598 0
M  V30 3410 N 325.182 1.32811 0.848464 0
M  V30 3411 C 326.43 1.23479 1.59991 0
M  V30 3412 C 326.751 -0.201853 1.93952 0
M  V30 3413 O 326.021 -1.12818 1.60153 0
M  V30 3414 H 324.601 0.454034 0.593179 0
M  V30 3415 H 327.263 1.66412 1.01455 0
M  V30 3416 H 326.359 1.82178 2.53412 0
M  V30 3417 N 326.66 -1.06551 1.16123 0
M  V30 3418 C 327.59 -2.15935 0.88851 0
M  V30 3419 C 328.571 -1.69306 -0.164135 0
M  V30 3420 O 329.756 -1.94193 -0.0167857 0
M  V30 3421 C 326.886 -3.45149 0.385942 0
M  V30 3422 C 325.84 -4.05271 1.3762 0
M  V30 3423 C 325.166 -5.29664 0.732137 0
M  V30 3424 C 326.466 -4.44355 2.74493 0
M  V30 3425 H 328.16 -2.39006 1.80323 0
M  V30 3426 H 325.706 -1.14866 0.868435 0
M  V30 3427 H 327.659 -4.21004 0.182647 0
M  V30 3428 H 326.383 -3.21689 -0.564274 0
M  V30 3429 H 325.042 -3.3147 1.56599 0
M  V30 3430 H 324.69 -5.02499 -0.224483 0
M  V30 3431 H 324.39 -5.70848 1.39307 0
M  V30 3432 H 325.914 -6.08218 0.538802 0
M  V30 3433 H 327.328 -5.11303 2.59311 0
M  V30 3434 H 325.725 -4.96515 3.37035 0
M  V30 3435 H 326.795 -3.55339 3.29943 0
M  V30 3436 N 328.138 -0.959301 -1.25041 0
M  V30 3437 C 329.386 -0.615393 -1.92503 0
M  V30 3438 C 329.707 0.850969 -1.75452 0
M  V30 3439 O 328.977 1.60658 -1.12098 0
M  V30 3440 H 327.557 -0.224613 -0.712431 0
M  V30 3441 H 330.219 -1.21855 -1.5211 0
M  V30 3442 H 329.315 -0.848738 -3.00338 0
M  V30 3443 N 329.616 1.39756 -0.72842 0
M  V30 3444 C 330.864 2.00248 -0.272946 0
M  V30 3445 C 331.185 1.58077 1.14178 0
M  V30 3446 O 330.455 0.826014 1.77634 0
M  V30 3447 H 329.035 0.740554 -0.0979247 0
M  V30 3448 H 331.697 1.70903 -0.936912 0
M  V30 3449 H 330.793 3.10495 -0.316142 0
M  V30 3450 N 331.094 0.475555 1.50254 0
M  V30 3451 C 332.322 -0.0754493 2.06762 0
M  V30 3452 C 332.737 -1.33111 1.33891 0
M  V30 3453 O 332.094 -1.77846 0.40952 0
M  V30 3454 C 332.145 -0.359008 3.59713 0
M  V30 3455 O 331.866 0.846851 4.29837 0
M  V30 3456 C 333.367 -0.956484 4.32858 0
M  V30 3457 H 330.587 0.00907525 0.670939 0
M  V30 3458 H 333.131 0.665618 1.93364 0
M  V30 3459 H 331.286 -1.05001 3.72899 0
M  V30 3460 H 331.7 0.594162 5.21124 0
M  V30 3461 H 333.174 -1.10463 5.40834 0
M  V30 3462 H 333.651 -1.94775 3.93649 0
M  V30 3463 H 334.257 -0.303723 4.24214 0
M  V30 3464 N 332.573 -1.56217 0.208337 0
M  V30 3465 C 333.821 -1.97558 -0.426076 0
M  V30 3466 C 334.142 -1.09683 -1.61229 0
M  V30 3467 O 333.412 -0.170956 -1.95153 0
M  V30 3468 H 331.992 -0.729575 -0.160405 0
M  V30 3469 H 334.654 -1.92606 0.298155 0
M  V30 3470 H 333.75 -3.02672 -0.761312 0
M  V30 3471 N 334.051 0.0651679 -1.57465 0
M  V30 3472 C 335.297 0.764193 -1.87851 0
M  V30 3473 C 335.63 1.76889 -0.801495 0
M  V30 3474 O 334.905 1.93594 0.187528 0
M  V30 3475 C 335.188 1.46625 -3.28897 0
M  V30 3476 C 335.041 0.477515 -4.47258 0
M  V30 3477 C 336.36 2.4095 -3.68281 0
M  V30 3478 H 333.479 0.276351 -0.683227 0
M  V30 3479 H 336.121 0.0272868 -1.8998 0
M  V30 3480 H 334.271 2.09438 -3.27212 0
M  V30 3481 H 335.943 -0.145922 -4.61069 0
M  V30 3482 H 334.186 -0.206576 -4.33308 0
M  V30 3483 H 334.857 1.0065 -5.42746 0
M  V30 3484 H 337.333 1.88209 -3.71102 0
M  V30 3485 H 336.209 2.87072 -4.67847 0
M  V30 3486 H 336.47 3.26049 -2.98571 0
M  V30 3487 N 335.529 1.53961 0.336706 0
M  V30 3488 C 336.754 1.75797 1.10046 0
M  V30 3489 C 337.179 0.498985 1.81361 0
M  V30 3490 O 336.537 -0.548769 1.72795 0
M  V30 3491 C 336.585 2.94257 2.08436 0
M  V30 3492 O 335.689 2.64883 3.16087 0
M  V30 3493 H 335.03 0.582936 0.317934 0
M  V30 3494 H 337.56 2.00945 0.38501 0
M  V30 3495 H 337.57 3.21237 2.51537 0
M  V30 3496 H 336.245 3.85564 1.55927 0
M  V30 3497 H 334.822 2.48812 2.77753 0
M  V30 3498 N 337.007 -0.598083 1.45811 0
M  V30 3499 C 338.247 -1.36802 1.5187 0
M  V30 3500 C 338.611 -1.9133 0.160224 0
M  V30 3501 O 339.812 -2.6863 0.0955302 0
M  V30 3502 C 338.083 -2.47835 2.57513 0
M  V30 3503 S 339.642 -3.35458 2.82866 0
M  V30 3504 H 336.46 -0.466278 0.536755 0
M  V30 3505 H 339.062 -0.689152 1.82951 0
M  V30 3506 H 337.766 -2.06141 3.54872 0
M  V30 3507 H 337.297 -3.20512 2.28114 0
M  V30 3508 H 339.312 -4.46251 2.16967 0
M  V30 3509 N 338.485 -1.33259 -0.841409 0
M  V30 3510 C 339.896 -1.22066 -1.41269 0
M  V30 3511 C 340.247 0.161479 -1.95534 0
M  V30 3512 O 339.372 1.06094 -1.88608 0
M  V30 3513 C 339.967 -2.20996 -2.568 0
M  V30 3514 C 338.526 -2.13649 -3.09888 0
M  V30 3515 C 337.673 -2.08623 -1.82679 0
M  V30 3516 H 340.624 -1.44895 -0.647395 0
M  V30 3517 H 340.645 -1.81621 -3.34356 0
M  V30 3518 H 340.157 -3.2158 -2.17274 0
M  V30 3519 H 338.258 -1.16359 -3.53965 0
M  V30 3520 H 338.371 -3.04079 -3.70234 0
M  V30 3521 H 336.735 -1.54061 -2.02824 0
M  V30 3522 H 337.518 -3.1101 -1.45353 0
M  V30 3523 N 339.963 1.05934 -1.16686 0
M  V30 3524 C 341.209 1.79065 -0.95203 0
M  V30 3525 C 341.542 1.87147 0.518629 0
M  V30 3526 O 340.817 1.36574 1.38484 0
M  V30 3527 C 341.1 3.23359 -1.58464 0
M  V30 3528 C 340.953 3.23336 -3.12689 0
M  V30 3529 C 342.272 4.21004 -1.28232 0
M  V30 3530 H 339.391 0.65005 -0.34728 0
M  V30 3531 H 342.033 1.23868 -1.44072 0
M  V30 3532 H 340.183 3.70493 -1.16908 0
M  V30 3533 H 341.855 2.84336 -3.6325 0
M  V30 3534 H 340.098 2.61886 -3.4583 0
M  V30 3535 H 340.769 4.25144 -3.52075 0
M  V30 3536 H 343.245 3.8233 -1.64203 0
M  V30 3537 H 342.121 5.20225 -1.75092 0
M  V30 3538 H 342.382 4.41639 -0.201791 0
M  V30 3539 N 341.441 0.965919 1.2453 0
M  V30 3540 C 342.689 0.625593 1.92174 0
M  V30 3541 C 343.01 -0.841652 1.75901 0
M  V30 3542 O 342.28 -1.60061 1.12948 0
M  V30 3543 H 340.86 0.228388 0.71123 0
M  V30 3544 H 343.522 1.2266 1.51461 0
M  V30 3545 H 342.618 0.864653 2.99884 0
M  V30 3546 N 342.919 -1.39368 0.735821 0
M  V30 3547 C 344.168 -1.99733 0.281004 0
M  V30 3548 C 344.481 -1.59055 -1.13846 0
M  V30 3549 O 345.687 -2.12262 -1.69284 0
M  V30 3550 C 344.143 -3.57057 0.451462 0
M  V30 3551 C 343.751 -4.06697 1.87886 0
M  V30 3552 C 345.495 -4.2446 0.0584616 0
M  V30 3553 C 343.402 -5.56598 1.99883 0
M  V30 3554 H 342.332 -0.747163 0.101311 0
M  V30 3555 H 344.983 -1.59357 0.909819 0
M  V30 3556 H 343.365 -3.95234 -0.246263 0
M  V30 3557 H 344.539 -3.79853 2.60861 0
M  V30 3558 H 342.854 -3.5196 2.22515 0
M  V30 3559 H 345.451 -5.34549 0.127099 0
M  V30 3560 H 345.794 -4.04444 -0.986433 0
M  V30 3561 H 346.327 -3.9146 0.707374 0
M  V30 3562 H 343.066 -5.81494 3.02564 0
M  V30 3563 H 342.586 -5.85242 1.31346 0
M  V30 3564 H 344.265 -6.22022 1.78039 0
M  V30 3565 N 344.397 -0.483516 -1.5 0
M  V30 3566 C 345.344 0.304164 -2.28787 0
M  V30 3567 C 346.314 0.976114 -1.34392 0
M  V30 3568 O 347.499 0.986156 -1.63339 0
M  V30 3569 C 344.639 1.37298 -3.16612 0
M  V30 3570 C 343.752 0.714561 -4.26049 0
M  V30 3571 C 342.887 1.76232 -5.01114 0
M  V30 3572 C 341.926 1.08483 -6.0241 0
M  V30 3573 N 341.063 2.076 -6.70706 0
M  V30 3574 H 345.903 -0.373981 -2.95644 0
M  V30 3575 H 343.44 -0.196275 -1.45785 0
M  V30 3576 H 345.398 2.00445 -3.65893 0
M  V30 3577 H 344.028 2.02012 -2.51776 0
M  V30 3578 H 343.08 -0.0297798 -3.80388 0
M  V30 3579 H 344.392 0.180383 -4.98474 0
M  V30 3580 H 343.546 2.46929 -5.54176 0
M  V30 3581 H 342.285 2.33033 -4.28424 0
M  V30 3582 H 341.29 0.363545 -5.48597 0
M  V30 3583 H 342.515 0.523551 -6.77079 0
M  V30 3584 H 340.461 2.63394 -6.00799 0
M  V30 3585 H 340.378 1.59201 -7.39047 0
M  V30 3586 H 341.646 2.77639 -7.2838 0
M  V30 3587 N 345.875 1.56104 -0.216619 0
M  V30 3588 C 346.822 2.2007 0.695531 0
M  V30 3589 C 347.792 1.15471 1.19397 0
M  V30 3590 O 348.977 1.43807 1.25396 0
M  V30 3591 C 346.117 2.88073 1.90021 0
M  V30 3592 C 345.23 4.07253 1.44113 0
M  V30 3593 C 344.365 4.63052 2.603 0
M  V30 3594 C 343.404 5.74545 2.11103 0
M  V30 3595 N 342.541 6.24656 3.20545 0
M  V30 3596 H 347.381 2.97655 0.143327 0
M  V30 3597 H 344.918 1.46982 0.0589934 0
M  V30 3598 H 346.876 3.25681 2.60745 0
M  V30 3599 H 345.506 2.13015 2.42538 0
M  V30 3600 H 344.558 3.75164 0.628999 0
M  V30 3601 H 345.87 4.8783 1.04036 0
M  V30 3602 H 345.024 5.03078 3.39113 0
M  V30 3603 H 343.763 3.81628 3.03663 0
M  V30 3604 H 342.768 5.34027 1.3075 0
M  V30 3605 H 343.993 6.57801 1.68746 0
M  V30 3606 H 341.939 5.46148 3.63399 0
M  V30 3607 H 341.856 7.00343 2.84704 0
M  V30 3608 H 343.124 6.69338 3.99508 0
M  V30 3609 O 347.392 0.0802023 1.61301 0
M  V30 3610 H 348.083 -0.524716 1.86458 0
M  V30 END ATOM
M  V30 BEGIN BOND
M  V30 END BOND
M  V30 END CTAB
M  END
$$$$
