drugbank_target|O67648 UDP-3-O-[3-hydroxymyristoyl] N-acetylglucosamine deacetylase (DB01991; DB04257; DB07355; DB07536; DB08231)
 OpenBabel12092119523D

  0  0  0     0  0            999 V3000
M  V30 BEGIN CTAB
M  V30 COUNTS 4580 4629 0 0 0
M  V30 BEGIN ATOM
M  V30 1 H -0.908 1.98254 -0.117106 0
M  V30 2 N 0 1.576 0 0
M  V30 3 C 0.933 2.03868 1.02534 0
M  V30 4 C 1.911 0.928543 1.3348 0
M  V30 5 O 3.095 1.19667 1.45644 0
M  V30 6 C 0.222 2.43627 2.35294 0
M  V30 7 C -0.732 3.65373 2.2001 0
M  V30 8 S 0.101 5.13292 1.52614 0
M  V30 9 C 1.257 5.56322 2.86805 0
M  V30 10 H 1.49 2.90518 0.631377 0
M  V30 11 H -0.977 1.52953 0.210867 0
M  V30 12 H 0.981 2.67203 3.11629 0
M  V30 13 H -0.358 1.57376 2.7183 0
M  V30 14 H -1.165 3.90944 3.18086 0
M  V30 15 H -1.563 3.418 1.51819 0
M  V30 16 H 0.729 5.58782 3.83104 0
M  V30 17 H 1.672 6.56266 2.65933 0
M  V30 18 H 2.08 4.83886 2.90714 0
M  V30 19 N 1.4781 -0.272755 1.55222 0
M  V30 20 C 2.7261 -1.00234 1.75492 0
M  V30 21 C 3.0471 -1.8681 0.5592 0
M  V30 22 O 2.3171 -1.91215 -0.425882 0
M  V30 23 H 0.8971 -0.373076 0.647166 0
M  V30 24 H 3.5591 -0.296926 1.92625 0
M  V30 25 H 2.6551 -1.63913 2.65592 0
M  V30 26 N 2.9562 -1.48159 -0.537278 0
M  V30 27 C 3.8862 -1.65029 -1.6519 0
M  V30 28 C 4.8672 -0.499281 -1.62607 0
M  V30 29 O 6.0522 -0.730972 -1.79918 0
M  V30 30 C 3.1822 -1.68303 -3.03795 0
M  V30 31 C 2.1362 -2.8283 -3.21234 0
M  V30 32 C 1.4622 -2.71189 -4.60826 0
M  V30 33 C 2.7622 -4.24211 -3.04701 0
M  V30 34 H 4.4562 -2.58341 -1.51328 0
M  V30 35 H 2.0022 -1.24325 -0.726585 0
M  V30 36 H 3.9552 -1.78693 -3.81637 0
M  V30 37 H 2.6792 -0.715635 -3.18663 0
M  V30 38 H 1.3382 -2.71983 -2.45807 0
M  V30 39 H 0.9862 -1.72435 -4.7252 0
M  V30 40 H 0.6862 -3.48035 -4.7344 0
M  V30 41 H 2.2102 -2.83537 -5.40777 0
M  V30 42 H 3.6242 -4.3593 -3.72341 0
M  V30 43 H 2.0212 -5.01998 -3.28813 0
M  V30 44 H 3.0912 -4.41184 -2.01209 0
M  V30 45 N 4.4343 0.785586 -1.36625 0
M  V30 46 C 5.3443 1.92964 -1.33425 0
M  V30 47 C 6.3603 1.72394 -0.235851 0
M  V30 48 O 7.5363 1.95866 -0.468878 0
M  V30 49 C 4.6013 3.27884 -1.12662 0
M  V30 50 C 3.6623 3.61204 -2.32013 0
M  V30 51 C 2.8953 4.89687 -2.12231 0
M  V30 52 O 3.1183 5.59704 -1.09945 0
M  V30 53 O 2.0523 5.21752 -3.00098 0
M  V30 54 H 5.8783 1.98613 -2.29753 0
M  V30 55 H 3.4633 0.926384 -1.17211 0
M  V30 56 H 5.3453 4.08614 -1.03016 0
M  V30 57 H 4.0203 3.23118 -0.193991 0
M  V30 58 H 2.9273 2.80765 -2.47228 0
M  V30 59 H 4.2603 3.70698 -3.23796 0
M  V30 60 N 5.9124 1.20967 1.01018 0
M  V30 61 C 6.8594 0.964281 2.09691 0
M  V30 62 C 7.8294 -0.107853 1.65749 0
M  V30 63 O 9.0144 0.0381987 1.90762 0
M  V30 64 C 6.1544 0.52943 3.41015 0
M  V30 65 C 5.2674 1.67043 3.98398 0
M  V30 66 C 4.4024 1.18525 5.17808 0
M  V30 67 C 3.4414 2.29892 5.67288 0
M  V30 68 N 2.5784 1.82546 6.77954 0
M  V30 69 H 7.4184 1.89463 2.30017 0
M  V30 70 H 4.9554 0.944289 1.1279 0
M  V30 71 H 6.9134 0.258588 4.16398 0
M  V30 72 H 5.5434 -0.363919 3.20742 0
M  V30 73 H 4.5954 2.05603 3.20049 0
M  V30 74 H 5.9074 2.50877 4.31117 0
M  V30 75 H 5.0614 0.870762 6.00419 0
M  V30 76 H 3.8004 0.316887 4.86669 0
M  V30 77 H 2.8054 2.6215 4.83278 0
M  V30 78 H 4.0304 3.17216 6.00459 0
M  V30 79 H 1.9764 0.980454 6.48632 0
M  V30 80 H 1.8934 2.59956 7.09901 0
M  V30 81 H 3.1614 1.54115 7.64113 0
M  V30 82 N 7.3905 -1.2043 1.01659 0
M  V30 83 C 8.6185 -1.93777 0.725132 0
M  V30 84 C 9.0335 -1.74772 -0.714166 0
M  V30 85 O 8.3905 -1.06169 -1.4844 0
M  V30 86 C 8.4415 -3.45876 1.05129 0
M  V30 87 O 8.1625 -3.6426 2.43406 0
M  V30 88 C 9.6635 -4.36368 0.780891 0
M  V30 89 H 6.8835 -0.615901 0.266284 0
M  V30 90 H 9.4275 -1.52922 1.35776 0
M  V30 91 H 7.5825 -3.8461 0.464065 0
M  V30 92 H 7.9965 -4.58246 2.55169 0
M  V30 93 H 9.4705 -5.41743 1.05918 0
M  V30 94 H 9.9475 -4.38275 -0.284937 0
M  V30 95 H 10.5535 -4.03296 1.35027 0
M  V30 96 N 8.8686 -0.792821 -1.36206 0
M  V30 97 C 10.1146 -0.36733 -1.99446 0
M  V30 98 C 10.4476 1.05917 -1.62774 0
M  V30 99 O 9.7226 1.7324 -0.88421 0
M  V30 100 C 10.0056 -0.535044 -3.56103 0
M  V30 101 C 9.8586 -2.00548 -4.02617 0
M  V30 102 C 11.1776 0.0478191 -4.40074 0
M  V30 103 H 8.2966 -0.134941 -0.724541 0
M  V30 104 H 10.9386 -0.999794 -1.61568 0
M  V30 105 H 9.0886 0.00336329 -3.885 0
M  V30 106 H 10.7606 -2.60521 -3.80692 0
M  V30 107 H 9.0036 -2.50686 -3.54032 0
M  V30 108 H 9.6746 -2.07377 -5.11565 0
M  V30 109 H 12.1506 -0.411822 -4.14057 0
M  V30 110 H 11.0266 -0.0995336 -5.4881 0
M  V30 111 H 11.2876 1.14025 -4.27142 0
M  V30 112 N 10.3467 1.47872 -0.545128 0
M  V30 113 C 11.2937 2.29849 0.2093 0
M  V30 114 C 12.2637 1.38313 0.919707 0
M  V30 115 O 13.4487 1.67277 0.917772 0
M  V30 116 C 10.5887 3.22019 1.24088 0
M  V30 117 C 9.7017 4.2864 0.537778 0
M  V30 118 C 8.8367 5.07973 1.5536 0
M  V30 119 C 7.8757 6.06381 0.8348 0
M  V30 120 N 7.0127 6.78717 1.79688 0
M  V30 121 H 11.8527 2.93845 -0.49591 0
M  V30 122 H 9.3897 1.44848 -0.256389 0
M  V30 123 H 11.3477 3.73868 1.85144 0
M  V30 124 H 9.9777 2.59914 1.91428 0
M  V30 125 H 9.0297 3.7994 -0.187046 0
M  V30 126 H 10.3417 4.98793 -0.0258907 0
M  V30 127 H 9.4957 5.63912 2.23803 0
M  V30 128 H 8.2347 4.37693 2.15118 0
M  V30 129 H 7.2397 5.49631 0.136388 0
M  V30 130 H 8.4647 6.78665 0.24313 0
M  V30 131 H 6.4107 6.11177 2.38326 0
M  V30 132 H 6.3277 7.44998 1.28505 0
M  V30 133 H 7.5957 7.39237 2.47282 0
M  V30 134 N 11.8248 0.280983 1.55075 0
M  V30 135 C 12.7348 -0.61388 2.26426 0
M  V30 136 C 13.7508 -1.16521 1.29224 0
M  V30 137 O 14.9268 -1.19426 1.62171 0
M  V30 138 C 11.9918 -1.7788 2.9759 0
M  V30 139 C 11.0528 -1.26355 4.10284 0
M  V30 140 C 10.2858 -2.37295 4.78045 0
M  V30 141 O 10.5088 -3.56777 4.45047 0
M  V30 142 O 9.4428 -2.05119 5.65871 0
M  V30 143 H 13.2688 -0.0356932 3.03679 0
M  V30 144 H 10.8538 0.0481686 1.49322 0
M  V30 145 H 12.7358 -2.45791 3.42293 0
M  V30 146 H 11.4108 -2.34397 2.23249 0
M  V30 147 H 10.3178 -0.550735 3.70024 0
M  V30 148 H 11.6508 -0.744065 4.86543 0
M  V30 149 N 13.3029 -1.57598 0.00835791 0
M  V30 150 C 14.2499 -2.08945 -0.980346 0
M  V30 151 C 15.2199 -0.986738 -1.33614 0
M  V30 152 O 16.4049 -1.25968 -1.43306 0
M  V30 153 C 13.5449 -2.60425 -2.26435 0
M  V30 154 C 12.6579 -3.84628 -1.96685 0
M  V30 155 C 11.7929 -4.24579 -3.19228 0
M  V30 156 C 10.8319 -5.41596 -2.85202 0
M  V30 157 N 9.9689 -5.768 -4.00307 0
M  V30 158 H 14.8089 -2.93148 -0.535551 0
M  V30 159 H 12.3459 -1.44912 -0.252776 0
M  V30 160 H 14.3039 -2.88354 -3.01509 0
M  V30 161 H 12.9339 -1.79083 -2.68568 0
M  V30 162 H 11.9859 -3.63556 -1.11942 0
M  V30 163 H 13.2979 -4.69796 -1.67611 0
M  V30 164 H 12.4519 -4.53834 -4.02641 0
M  V30 165 H 11.1909 -3.38137 -3.51447 0
M  V30 166 H 10.1959 -5.12056 -2.00198 0
M  V30 167 H 11.4209 -6.29721 -2.54222 0
M  V30 168 H 9.3669 -4.93316 -4.32407 0
M  V30 169 H 9.2839 -6.5656 -3.74786 0
M  V30 170 H 10.5519 -6.10652 -4.84484 0
M  V30 171 N 14.781 0.264519 -1.55364 0
M  V30 172 C 15.711 1.33121 -1.91836 0
M  V30 173 C 16.692 1.51101 -0.781192 0
M  V30 174 O 17.877 1.64003 -1.04003 0
M  V30 175 C 15.007 2.68921 -2.19769 0
M  V30 176 C 13.961 2.65661 -3.35571 0
M  V30 177 C 13.287 4.05093 -3.49004 0
M  V30 178 C 14.587 2.24187 -4.71739 0
M  V30 179 H 16.281 1.02844 -2.81182 0
M  V30 180 H 13.827 0.493286 -1.35287 0
M  V30 181 H 15.78 3.43663 -2.43872 0
M  V30 182 H 14.504 3.00799 -1.27231 0
M  V30 183 H 13.163 1.93377 -3.1145 0
M  V30 184 H 12.811 4.34206 -2.53917 0
M  V30 185 H 12.511 4.03804 -4.26868 0
M  V30 186 H 14.035 4.81561 -3.75408 0
M  V30 187 H 15.449 2.88654 -4.9533 0
M  V30 188 H 13.846 2.34044 -5.52579 0
M  V30 189 H 14.916 1.19327 -4.69988 0
M  V30 190 N 16.2591 1.48442 0.529413 0
M  V30 191 C 17.4841 1.60406 1.31471 0
M  V30 192 C 17.9091 0.264738 1.86228 0
M  V30 193 O 17.2671 -0.763668 1.64432 0
M  V30 194 C 17.3151 2.65419 2.44101 0
M  V30 195 O 16.4191 2.22618 3.47153 0
M  V30 196 H 15.7601 0.537863 0.389357 0
M  V30 197 H 18.2901 1.94432 0.636965 0
M  V30 198 H 18.3001 2.86709 2.90279 0
M  V30 199 H 16.9751 3.62652 2.03608 0
M  V30 200 H 15.5521 2.11543 3.0709 0
M  V30 201 N 17.7372 -0.778329 1.37039 0
M  V30 202 C 18.9842 -1.53665 1.31884 0
M  V30 203 C 19.3122 -1.9425 -0.0986303 0
M  V30 204 O 18.5672 -1.63832 -1.07041 0
M  V30 205 C 18.8662 -2.81845 2.19768 0
M  V30 206 C 18.5322 -2.60345 3.68146 0
M  V30 207 C 17.1942 -2.5419 4.08584 0
M  V30 208 C 19.5462 -2.40923 4.62175 0
M  V30 209 C 16.8742 -2.26594 5.41177 0
M  V30 210 C 19.2262 -2.14852 5.94997 0
M  V30 211 C 17.8902 -2.07137 6.34547 0
M  V30 212 H 17.1602 -0.562299 0.482598 0
M  V30 213 H 19.8072 -0.897069 1.69189 0
M  V30 214 H 18.1122 -3.50328 1.75436 0
M  V30 215 H 19.8092 -3.39692 2.13097 0
M  V30 216 H 16.3992 -2.65996 3.36072 0
M  V30 217 H 20.5832 -2.44673 4.31797 0
M  V30 218 H 15.8392 -2.19111 5.70789 0
M  V30 219 H 20.0132 -1.98822 6.67415 0
M  V30 220 H 17.6402 -1.85518 7.37216 0
M  V30 221 N 19.2153 -1.21501 -1.00376 0
M  V30 222 C 20.1253 -0.991447 -2.12621 0
M  V30 223 C 21.1413 0.0568446 -1.73907 0
M  V30 224 O 22.3173 -0.13348 -2.00957 0
M  V30 225 C 19.3823 -0.560312 -3.42142 0
M  V30 226 C 18.4433 -1.68096 -3.95022 0
M  V30 227 C 17.6763 -1.2703 -5.18362 0
M  V30 228 O 17.8993 -0.144438 -5.70217 0
M  V30 229 O 16.8333 -2.08269 -5.64719 0
M  V30 230 H 20.6593 -1.93158 -2.34358 0
M  V30 231 H 18.2443 -0.999999 -1.10997 0
M  V30 232 H 20.1263 -0.329724 -4.20108 0
M  V30 233 H 18.8013 0.351089 -3.2179 0
M  V30 234 H 17.7083 -1.96597 -3.18278 0
M  V30 235 H 19.0413 -2.56983 -4.19786 0
M  V30 236 N 20.6934 1.19889 -1.02296 0
M  V30 237 C 21.9414 1.89046 -0.714558 0
M  V30 238 C 22.2624 1.79636 0.758681 0
M  V30 239 O 21.5324 1.20292 1.54618 0
M  V30 240 H 20.1124 0.699802 -0.261317 0
M  V30 241 H 22.7744 1.45574 -1.29592 0
M  V30 242 H 21.8704 2.95524 -1.0036 0
M  V30 243 N 22.1715 0.800033 1.35784 0
M  V30 244 C 23.4175 0.377901 1.99248 0
M  V30 245 C 23.7505 -1.05052 1.63333 0
M  V30 246 O 23.0255 -1.72768 0.893385 0
M  V30 247 C 23.3085 0.553922 3.55814 0
M  V30 248 C 23.1615 2.0268 4.01548 0
M  V30 249 C 24.4805 -0.0244802 4.40093 0
M  V30 250 H 21.5995 0.138782 0.723815 0
M  V30 251 H 24.2415 1.00835 1.61035 0
M  V30 252 H 22.3915 0.0172398 3.88496 0
M  V30 253 H 24.0635 2.62536 3.79305 0
M  V30 254 H 22.3065 2.5256 3.52698 0
M  V30 255 H 22.9775 2.10087 5.10458 0
M  V30 256 H 25.4535 0.433775 4.13833 0
M  V30 257 H 24.3295 0.128637 5.48749 0
M  V30 258 H 24.5905 -1.11758 4.27741 0
M  V30 259 N 23.6496 -1.47581 0.552962 0
M  V30 260 C 24.8976 -2.02082 0.0272703 0
M  V30 261 C 25.2186 -1.4301 -1.32563 0
M  V30 262 O 24.4886 -0.603745 -1.86365 0
M  V30 263 H 23.0686 -0.746966 0.00709182 0
M  V30 264 H 25.7306 -1.81033 0.722008 0
M  V30 265 H 24.8266 -3.12034 -0.0639951 0
M  V30 266 N 25.1277 -0.289203 -1.54924 0
M  V30 267 C 26.3767 0.324231 -1.99077 0
M  V30 268 C 26.6897 1.5591 -1.18117 0
M  V30 269 O 27.8957 2.24637 -1.52481 0
M  V30 270 C 26.3517 0.628209 -3.54375 0
M  V30 271 C 25.9597 -0.587647 -4.44129 0
M  V30 272 C 27.7037 1.20349 -4.07083 0
M  V30 273 C 25.6107 -0.257475 -5.90839 0
M  V30 274 H 24.5407 0.124924 -0.743579 0
M  V30 275 H 27.1917 -0.396063 -1.79175 0
M  V30 276 H 25.5737 1.40778 -3.70132 0
M  V30 277 H 26.7477 -1.36418 -4.40144 0
M  V30 278 H 25.0627 -1.08074 -4.0213 0
M  V30 279 H 27.6597 1.46456 -5.14252 0
M  V30 280 H 28.0027 2.14195 -3.56968 0
M  V30 281 H 28.5357 0.485889 -3.94821 0
M  V30 282 H 25.2747 -1.16419 -6.45079 0
M  V30 283 H 24.7947 0.482018 -5.9786 0
M  V30 284 H 26.4737 0.145238 -6.46837 0
M  V30 285 N 26.6058 1.57591 -0.0167156 0
M  V30 286 C 27.5558 2.05953 0.978137 0
M  V30 287 C 28.5398 0.957532 1.29306 0
M  V30 288 O 29.7318 1.22119 1.28125 0
M  V30 289 C 26.8608 2.58006 2.26468 0
M  V30 290 C 25.9468 3.75113 1.97867 0
M  V30 291 N 26.3378 4.86187 1.39486 0
M  V30 292 C 24.6358 3.83363 2.27924 0
M  V30 293 C 25.3368 5.67502 1.27735 0
M  V30 294 N 24.3128 5.14023 1.76866 0
M  V30 295 H 28.1148 2.89236 0.521522 0
M  V30 296 H 25.6288 1.61301 0.188596 0
M  V30 297 H 27.6258 2.90937 2.98599 0
M  V30 298 H 26.2858 1.76148 2.72767 0
M  V30 299 H 27.2968 5.06695 1.07147 0
M  V30 300 H 23.9738 3.1239 2.76982 0
M  V30 301 H 25.3638 6.66791 0.826978 0
M  V30 302 N 28.0839 -0.256276 1.55502 0
M  V30 303 C 29.3119 -1.00342 1.8094 0
M  V30 304 C 29.7269 -1.79307 0.59114 0
M  V30 305 O 29.0839 -1.77114 -0.440081 0
M  V30 306 C 29.1349 -1.94875 3.04476 0
M  V30 307 O 28.8559 -1.19107 4.21598 0
M  V30 308 C 30.3569 -2.81266 3.42644 0
M  V30 309 H 27.5769 -0.295685 0.602338 0
M  V30 310 H 30.1209 -0.281998 2.02546 0
M  V30 311 H 28.2759 -2.62457 2.84947 0
M  V30 312 H 28.6899 -1.82969 4.91551 0
M  V30 313 H 30.1639 -3.43362 4.32211 0
M  V30 314 H 30.6409 -3.51897 2.62802 0
M  V30 315 H 31.2469 -2.1915 3.64491 0
M  V30 316 N 29.562 -1.4872 -0.521534 0
M  V30 317 C 30.81 -1.56857 -1.27437 0
M  V30 318 C 31.131 -0.247982 -1.93417 0
M  V30 319 O 30.401 0.731151 -1.81744 0
M  V30 320 H 28.981 -0.577885 -0.473347 0
M  V30 321 H 31.643 -1.85233 -0.606205 0
M  V30 322 H 30.739 -2.35402 -2.0492 0
M  V30 323 N 31.0401 0.771051 -1.3745 0
M  V30 324 C 31.9501 1.91538 -1.35464 0
M  V30 325 C 32.9661 1.72134 -0.254123 0
M  V30 326 O 34.1421 1.95358 -0.489626 0
M  V30 327 C 31.2071 3.26671 -1.16134 0
M  V30 328 C 30.2681 3.58723 -2.35831 0
M  V30 329 C 29.5011 4.87409 -2.17413 0
M  V30 330 O 29.7241 5.58506 -1.15876 0
M  V30 331 O 28.6581 5.18539 -3.05615 0
M  V30 332 H 32.4841 1.96165 -2.31847 0
M  V30 333 H 30.0691 0.9139 -1.18187 0
M  V30 334 H 31.9511 4.07499 -1.07345 0
M  V30 335 H 30.6261 3.22894 -0.228251 0
M  V30 336 H 29.5331 2.78127 -2.50192 0
M  V30 337 H 30.8661 3.67243 -3.27709 0
M  V30 338 N 32.5182 1.22032 0.997298 0
M  V30 339 C 33.7482 1.06686 1.76923 0
M  V30 340 C 34.1562 -0.385838 1.85224 0
M  V30 341 O 33.4992 -1.27929 1.31833 0
M  V30 342 C 33.5612 1.59802 3.22031 0
M  V30 343 C 33.2252 3.08362 3.37286 0
M  V30 344 C 34.2222 4.05835 3.24952 0
M  V30 345 C 31.9072 3.47727 3.6248 0
M  V30 346 C 33.9012 5.4066 3.37588 0
M  V30 347 C 31.5882 4.82701 3.74757 0
M  V30 348 C 32.5862 5.78977 3.62319 0
M  V30 349 O 32.2742 7.11502 3.74193 0
M  V30 350 H 32.0062 0.374767 0.562606 0
M  V30 351 H 34.5602 1.61991 1.26286 0
M  V30 352 H 32.7902 0.989003 3.73839 0
M  V30 353 H 34.4792 1.40184 3.80924 0
M  V30 354 H 35.2452 3.76766 3.05405 0
M  V30 355 H 31.1242 2.73317 3.7124 0
M  V30 356 H 34.6682 6.15788 3.27796 0
M  V30 357 H 30.5652 5.11453 3.9381 0
M  V30 358 H 31.3332 7.19019 3.91093 0
M  V30 359 N 33.9963 -1.19345 1.0293 0
M  V30 360 C 35.2213 -1.93538 0.745511 0
M  V30 361 C 35.6463 -1.75007 -0.689511 0
M  V30 362 O 35.0043 -1.05265 -1.47611 0
M  V30 363 C 35.0523 -3.43336 1.10239 0
M  V30 364 O 34.1563 -4.11806 0.221289 0
M  V30 365 H 33.4973 -0.604193 0.275404 0
M  V30 366 H 36.0273 -1.5141 1.37609 0
M  V30 367 H 36.0373 -3.94004 1.05947 0
M  V30 368 H 34.7123 -3.56146 2.14786 0
M  V30 369 H 33.2893 -3.715 0.322842 0
M  V30 370 N 35.4744 -0.807222 -1.35358 0
M  V30 371 C 36.4214 -0.216037 -2.29787 0
M  V30 372 C 37.3914 0.650278 -1.52842 0
M  V30 373 O 38.5764 0.595227 -1.81278 0
M  V30 374 C 35.7164 0.628893 -3.39321 0
M  V30 375 C 34.8294 -0.257927 -4.31229 0
M  V30 376 C 33.9644 0.595069 -5.27856 0
M  V30 377 C 33.0034 -0.292111 -6.11403 0
M  V30 378 N 32.1404 0.520895 -7.00165 0
M  V30 379 H 36.9804 -1.02671 -2.79755 0
M  V30 380 H 34.5174 -0.517839 -1.37684 0
M  V30 381 H 36.4754 1.13393 -4.01494 0
M  V30 382 H 35.1054 1.40482 -2.90628 0
M  V30 383 H 34.1574 -0.881076 -3.70056 0
M  V30 384 H 35.4694 -0.940759 -4.89848 0
M  V30 385 H 34.6234 1.16522 -5.95405 0
M  V30 386 H 33.3624 1.31146 -4.69736 0
M  V30 387 H 32.3674 -0.874525 -5.428 0
M  V30 388 H 33.5924 -1.00638 -6.71602 0
M  V30 389 H 31.5384 1.22125 -6.44532 0
M  V30 390 H 31.4554 -0.103877 -7.55929 0
M  V30 391 H 32.7234 1.0743 -7.72062 0
M  V30 392 N 36.9525 1.47285 -0.560781 0
M  V30 393 C 37.8825 2.32857 0.173105 0
M  V30 394 C 38.8635 1.44009 0.905281 0
M  V30 395 O 40.0485 1.7286 0.885046 0
M  V30 396 C 37.1785 3.25861 1.20133 0
M  V30 397 C 36.1325 4.23978 0.585388 0
M  V30 398 C 35.4585 5.06332 1.7185 0
M  V30 399 C 36.7585 5.20242 -0.463178 0
M  V30 400 H 38.4525 2.94466 -0.541307 0
M  V30 401 H 35.9985 1.41601 -0.261764 0
M  V30 402 H 37.9515 3.84569 1.72293 0
M  V30 403 H 36.6755 2.62315 1.94573 0
M  V30 404 H 35.3345 3.66501 0.085054 0
M  V30 405 H 34.9825 4.39186 2.45203 0
M  V30 406 H 34.6825 5.72762 1.31213 0
M  V30 407 H 36.2065 5.67899 2.24329 0
M  V30 408 H 37.6205 5.73293 -0.027502 0
M  V30 409 H 36.0175 5.94896 -0.788627 0
M  V30 410 H 37.0875 4.65504 -1.35773 0
M  V30 411 N 38.4306 0.297415 1.54768 0
M  V30 412 C 39.6796 -0.313669 1.99246 0
M  V30 413 C 39.9926 -1.55281 1.18942 0
M  V30 414 O 41.1986 -2.23825 1.5367 0
M  V30 415 C 39.6546 -0.609407 3.54703 0
M  V30 416 C 39.2626 0.611192 4.43811 0
M  V30 417 C 41.0066 -1.18188 4.07715 0
M  V30 418 C 38.9136 0.288805 5.90694 0
M  V30 419 H 37.8436 -0.120979 0.744231 0
M  V30 420 H 40.4946 0.40556 1.78962 0
M  V30 421 H 38.8766 -1.38813 3.70873 0
M  V30 422 H 40.0506 1.3875 4.39414 0
M  V30 423 H 38.3656 1.10205 4.01552 0
M  V30 424 H 40.9626 -1.43727 5.15021 0
M  V30 425 H 41.3056 -2.12299 3.58099 0
M  V30 426 H 41.8386 -0.464944 3.95074 0
M  V30 427 H 38.5776 1.19838 6.44453 0
M  V30 428 H 38.0976 -0.450305 5.98107 0
M  V30 429 H 39.7766 -0.110933 6.46905 0
M  V30 430 N 39.9087 -1.5758 0.0250728 0
M  V30 431 C 41.1577 -1.90811 -0.653767 0
M  V30 432 C 41.4707 -0.90273 -1.73523 0
M  V30 433 O 42.6767 -1.12614 -2.47043 0
M  V30 434 C 41.1327 -3.38804 -1.21409 0
M  V30 435 C 40.7407 -4.47692 -0.166126 0
M  V30 436 C 42.4847 -3.81108 -1.86967 0
M  V30 437 C 40.3917 -5.86779 -0.737856 0
M  V30 438 H 39.3217 -0.712063 -0.247956 0
M  V30 439 H 41.9727 -1.83281 0.0897137 0
M  V30 440 H 40.3547 -3.41252 -2.00905 0
M  V30 441 H 41.5287 -4.56797 0.606079 0
M  V30 442 H 39.8437 -4.14565 0.390466 0
M  V30 443 H 42.4407 -4.82375 -2.30692 0
M  V30 444 H 42.7837 -3.15953 -2.71071 0
M  V30 445 H 43.3167 -3.81065 -1.14167 0
M  V30 446 H 40.0557 -6.55468 0.0649577 0
M  V30 447 H 39.5757 -5.81288 -1.47864 0
M  V30 448 H 41.2547 -6.35223 -1.22884 0
M  V30 449 N 41.3868 0.248026 -1.55636 0
M  V30 450 C 42.3368 1.30994 -1.86614 0
M  V30 451 C 43.3208 1.43543 -0.726918 0
M  V30 452 O 44.5128 1.46804 -0.988818 0
M  V30 453 C 41.6418 2.6656 -2.16335 0
M  V30 454 C 40.7278 2.58019 -3.36581 0
M  V30 455 N 41.1188 2.1911 -4.55878 0
M  V30 456 C 39.4168 2.89035 -3.39669 0
M  V30 457 C 40.1178 2.21174 -5.38012 0
M  V30 458 N 39.0938 2.60632 -4.77045 0
M  V30 459 H 42.8958 0.999583 -2.76379 0
M  V30 460 H 40.4098 0.456652 -1.55848 0
M  V30 461 H 42.4068 3.43194 -2.36692 0
M  V30 462 H 41.0668 2.98463 -1.27867 0
M  V30 463 H 42.0778 1.90672 -4.81523 0
M  V30 464 H 38.7548 3.25485 -2.61469 0
M  V30 465 H 40.1448 1.9344 -6.43452 0
M  V30 466 N 42.8649 1.48995 0.513639 0
M  V30 467 C 44.2759 1.5119 1.09537 0
M  V30 468 C 44.6269 0.290906 1.94031 0
M  V30 469 O 43.7519 -0.60049 2.07902 0
M  V30 470 C 44.3469 2.73964 1.99322 0
M  V30 471 C 42.9059 2.78978 2.52682 0
M  V30 472 C 42.0529 2.44934 1.30009 0
M  V30 473 H 45.0039 1.55875 0.298125 0
M  V30 474 H 45.0249 2.53409 2.83838 0
M  V30 475 H 44.5369 3.62813 1.37799 0
M  V30 476 H 42.6379 1.94378 3.1788 0
M  V30 477 H 42.7509 3.8083 2.90698 0
M  V30 478 H 41.1149 1.9644 1.62122 0
M  V30 479 H 41.8979 3.36043 0.702131 0
M  V30 480 N 44.343 -0.763751 1.37857 0
M  V30 481 C 45.253 -1.90817 1.36478 0
M  V30 482 C 46.269 -1.71997 0.263248 0
M  V30 483 O 47.445 -1.95095 0.499979 0
M  V30 484 C 44.51 -3.2605 1.17864 0
M  V30 485 C 43.571 -3.57467 2.3773 0
M  V30 486 C 42.804 -4.86249 2.19995 0
M  V30 487 O 43.027 -5.57884 1.18836 0
M  V30 488 O 41.961 -5.16911 3.08361 0
M  V30 489 H 45.787 -1.94933 2.32884 0
M  V30 490 H 43.372 -0.907619 1.1867 0
M  V30 491 H 45.254 -4.06924 1.09504 0
M  V30 492 H 43.929 -3.22769 0.245372 0
M  V30 493 H 42.836 -2.76796 2.51664 0
M  V30 494 H 44.169 -3.655 3.29652 0
M  V30 495 N 45.8211 -1.22559 -0.990812 0
M  V30 496 C 46.7681 -0.997519 -2.0813 0
M  V30 497 C 47.7381 0.0814702 -1.659 0
M  V30 498 O 48.9231 -0.0685424 -1.90677 0
M  V30 499 C 46.0631 -0.583615 -3.40129 0
M  V30 500 C 45.1761 -1.7336 -3.9569 0
M  V30 501 C 44.3111 -1.26748 -5.15857 0
M  V30 502 C 43.3501 -2.38888 -5.63559 0
M  V30 503 N 42.4871 -1.93308 -6.74964 0
M  V30 504 H 47.3271 -1.93099 -2.26973 0
M  V30 505 H 44.8641 -0.962114 -1.11273 0
M  V30 506 H 46.8221 -0.324801 -4.15934 0
M  V30 507 H 45.4521 0.312845 -3.2128 0
M  V30 508 H 44.5041 -2.10669 -3.16738 0
M  V30 509 H 45.8161 -2.57704 -4.27071 0
M  V30 510 H 44.9701 -0.966173 -5.98957 0
M  V30 511 H 43.7091 -0.394272 -4.86104 0
M  V30 512 H 42.7141 -2.69805 -4.79046 0
M  V30 513 H 43.9391 -3.26728 -5.95336 0
M  V30 514 H 41.8851 -1.08352 -6.4699 0
M  V30 515 H 41.8021 -2.71217 -7.05675 0
M  V30 516 H 43.0701 -1.66252 -7.61564 0
M  V30 517 N 47.2992 1.18797 -1.03562 0
M  V30 518 C 48.2092 2.25913 -0.632505 0
M  V30 519 C 49.2252 1.70668 0.338882 0
M  V30 520 O 50.4012 2.00453 0.195076 0
M  V30 521 C 47.4662 3.467 0.00350942 0
M  V30 522 C 46.5272 4.17098 -1.01624 0
M  V30 523 C 45.7602 5.32119 -0.410478 0
M  V30 524 O 45.9832 5.64976 0.784725 0
M  V30 525 O 44.9172 5.9107 -1.13667 0
M  V30 526 H 48.7432 2.62648 -1.52478 0
M  V30 527 H 46.3282 1.25781 -0.806195 0
M  V30 528 H 48.2102 4.19878 0.35781 0
M  V30 529 H 46.8852 3.11798 0.869686 0
M  V30 530 H 45.7922 3.4601 -1.42224 0
M  V30 531 H 47.1252 4.55987 -1.85301 0
M  V30 532 N 48.7773 0.814389 1.34928 0
M  V30 533 C 50.0253 0.397636 1.9815 0
M  V30 534 C 50.3463 -1.04069 1.64908 0
M  V30 535 O 49.6163 -1.72121 0.93548 0
M  V30 536 H 48.1963 0.144043 0.732981 0
M  V30 537 H 50.8583 1.04195 1.6471 0
M  V30 538 H 49.9543 0.509688 3.0791 0
M  V30 539 N 50.2554 -1.46986 0.568584 0
M  V30 540 C 51.4834 -2.0683 0.0539956 0
M  V30 541 C 51.8984 -1.41953 -1.24478 0
M  V30 542 O 51.2554 -0.519933 -1.74937 0
M  V30 543 C 51.3064 -3.61254 -0.133362 0
M  V30 544 O 51.0274 -4.237 1.11399 0
M  V30 545 C 52.5284 -4.37992 -0.683927 0
M  V30 546 H 49.7484 -0.669058 0.0510141 0
M  V30 547 H 52.2924 -1.88824 0.785234 0
M  V30 548 H 50.4474 -3.78735 -0.81477 0
M  V30 549 H 50.8614 -5.16388 0.91888 0
M  V30 550 H 52.3354 -5.46684 -0.764263 0
M  V30 551 H 52.8124 -4.05058 -1.69778 0
M  V30 552 H 53.4184 -4.25283 -0.0378494 0
M  V30 553 N 51.7335 -0.305618 -1.54608 0
M  V30 554 C 52.9815 0.301701 -1.99835 0
M  V30 555 C 53.3025 1.54054 -1.19551 0
M  V30 556 O 52.5725 1.93702 -0.292658 0
M  V30 557 H 51.1525 0.114468 -0.738178 0
M  V30 558 H 53.8145 -0.418016 -1.90364 0
M  V30 559 H 52.9105 0.570548 -3.06841 0
M  V30 560 N 53.2116 1.57565 -0.0334293 0
M  V30 561 C 54.4606 1.91155 0.643639 0
M  V30 562 C 54.7736 0.91192 1.73042 0
M  V30 563 O 55.9796 1.13923 2.46442 0
M  V30 564 C 54.4356 3.39443 1.1961 0
M  V30 565 C 54.0436 4.47774 0.142381 0
M  V30 566 C 55.7876 3.82094 1.84944 0
M  V30 567 C 53.6946 5.87162 0.706727 0
M  V30 568 H 52.6246 0.713368 0.244176 0
M  V30 569 H 55.2756 1.8323 -0.0994323 0
M  V30 570 H 53.6576 3.42313 1.99092 0
M  V30 571 H 54.8316 4.56469 -0.630296 0
M  V30 572 H 53.1466 4.14352 -0.412446 0
M  V30 573 H 55.7436 4.83591 2.2813 0
M  V30 574 H 56.0866 3.17386 2.69392 0
M  V30 575 H 56.6196 3.81665 1.12145 0
M  V30 576 H 53.3586 6.55424 -0.0997178 0
M  V30 577 H 52.8786 5.82064 1.44779 0
M  V30 578 H 54.5576 6.35866 1.19514 0
M  V30 579 N 54.6897 -0.239769 1.55765 0
M  V30 580 C 56.1057 -0.588624 1.48349 0
M  V30 581 C 56.3057 -1.88005 0.72502 0
M  V30 582 O 55.3617 -2.51186 0.257269 0
M  V30 583 C 56.6747 -0.68474 2.928 0
M  V30 584 C 58.2227 -0.77659 3.03213 0
M  V30 585 C 58.6977 -0.904207 4.48986 0
M  V30 586 N 60.1887 -0.968896 4.52953 0
M  V30 587 C 60.9237 -1.08703 5.63002 0
M  V30 588 N 60.4197 -1.17026 6.82845 0
M  V30 589 N 62.2127 -1.12074 5.50814 0
M  V30 590 H 54.3637 0.607911 2.03515 0
M  V30 591 H 56.6267 0.21083 0.924259 0
M  V30 592 H 56.3327 0.194284 3.51163 0
M  V30 593 H 56.2067 -1.55435 3.43686 0
M  V30 594 H 58.5937 -1.64606 2.44926 0
M  V30 595 H 58.6747 0.118315 2.55526 0
M  V30 596 H 58.3187 -0.0392633 5.07885 0
M  V30 597 H 58.2487 -1.81426 4.9436 0
M  V30 598 H 60.7397 -0.915633 3.6664 0
M  V30 599 H 61.0527 -1.25966 7.62465 0
M  V30 600 H 59.3977 -1.13971 6.85591 0
M  V30 601 H 62.5887 -1.05226 4.5612 0
M  V30 602 H 62.7617 -1.20936 6.36615 0
M  V30 603 N 56.1678 -1.49265 -0.50573 0
M  V30 604 C 57.4148 -1.58513 -1.26015 0
M  V30 605 C 57.7428 -0.26972 -1.92621 0
M  V30 606 O 56.9978 0.741997 -1.81088 0
M  V30 607 C 57.2968 -2.69008 -2.35308 0
M  V30 608 C 56.9628 -4.10662 -1.86192 0
M  V30 609 C 55.6248 -4.49212 -1.72516 0
M  V30 610 C 57.9768 -4.99336 -1.49375 0
M  V30 611 C 55.3048 -5.74214 -1.20394 0
M  V30 612 C 57.6568 -6.24852 -0.987072 0
M  V30 613 C 56.3208 -6.62236 -0.836669 0
M  V30 614 H 55.5908 -0.580041 -0.461122 0
M  V30 615 H 58.2378 -1.83078 -0.561665 0
M  V30 616 H 56.5428 -2.38396 -3.10926 0
M  V30 617 H 58.2398 -2.73373 -2.93374 0
M  V30 618 H 54.8298 -3.8023 -1.97795 0
M  V30 619 H 59.0138 -4.70212 -1.5879 0
M  V30 620 H 54.2698 -6.01883 -1.07458 0
M  V30 621 H 58.4438 -6.92944 -0.692983 0
M  V30 622 H 56.0708 -7.58979 -0.430607 0
M  V30 623 N 57.6459 0.756429 -1.3826 0
M  V30 624 C 58.8929 1.51547 -1.34312 0
M  V30 625 C 59.2209 1.94382 0.0677144 0
M  V30 626 O 58.4759 1.65514 1.04421 0
M  V30 627 C 58.7749 2.78313 -2.24224 0
M  V30 628 C 58.4409 2.54455 -3.72241 0
M  V30 629 C 57.1029 2.47657 -4.12576 0
M  V30 630 C 59.4549 2.3354 -4.65949 0
M  V30 631 C 56.7829 2.17956 -5.44713 0
M  V30 632 C 59.1349 2.05359 -5.9834 0
M  V30 633 C 57.7989 1.97016 -6.37762 0
M  V30 634 H 57.0689 0.55455 -0.491482 0
M  V30 635 H 59.7159 0.870039 -1.70595 0
M  V30 636 H 58.0209 3.47492 -1.80987 0
M  V30 637 H 59.7179 3.36259 -2.18474 0
M  V30 638 H 56.3079 2.60616 -3.40261 0
M  V30 639 H 60.4919 2.37772 -4.35635 0
M  V30 640 H 55.7479 2.10003 -5.74203 0
M  V30 641 H 59.9219 1.88179 -6.70494 0
M  V30 642 H 57.5489 1.73766 -7.40074 0
M  V30 643 N 59.124 1.23083 0.984299 0
M  V30 644 C 60.071 1.00854 2.07598 0
M  V30 645 C 61.041 -0.0726709 1.65941 0
M  V30 646 O 62.226 0.0786535 1.90638 0
M  V30 647 C 59.366 0.601645 3.39815 0
M  V30 648 C 58.479 1.75456 3.94765 0
M  V30 649 C 57.614 1.29482 5.15177 0
M  V30 650 C 56.653 2.41873 5.62284 0
M  V30 651 N 55.79 1.96885 6.73929 0
M  V30 652 H 60.63 1.943 2.25946 0
M  V30 653 H 58.167 0.968001 1.10762 0
M  V30 654 H 60.125 0.346854 4.15756 0
M  V30 655 H 58.755 -0.295803 3.21442 0
M  V30 656 H 57.807 2.12346 3.15616 0
M  V30 657 H 59.119 2.59965 4.25699 0
M  V30 658 H 58.273 0.997923 5.98437 0
M  V30 659 H 57.012 0.420046 4.85888 0
M  V30 660 H 56.017 2.72342 4.77608 0
M  V30 661 H 57.242 3.29881 5.93595 0
M  V30 662 H 55.188 1.11782 6.46406 0
M  V30 663 H 55.105 2.74956 7.04227 0
M  V30 664 H 56.373 1.70289 7.60672 0
M  V30 665 N 60.6021 -1.18246 1.0419 0
M  V30 666 C 61.5501 -2.23968 0.627792 0
M  V30 667 C 62.5441 -1.65828 -0.346019 0
M  V30 668 O 63.7501 -1.78733 -0.213175 0
M  V30 669 H 60.1251 -0.728939 0.184802 0
M  V30 670 H 62.0961 -2.56202 1.52981 0
M  V30 671 C 60.8451 -3.47699 0.00796591 0
M  V30 672 H 60.1681 -3.92734 0.748347 0
M  V30 673 H 61.6081 -4.23294 -0.24455 0
M  V30 674 C 60.0671 -3.13153 -1.24246 0
M  V30 675 O 60.5971 -3.27003 -2.33307 0
M  V30 676 N 58.8031 -2.67467 -1.13622 0
M  V30 677 H 58.3501 -2.56396 -0.248734 0
M  V30 678 H 58.3081 -2.44724 -1.97377 0
M  V30 679 N 62.0802 -0.821533 -1.34494 0
M  V30 680 C 63.3282 -0.408139 -1.97936 0
M  V30 681 C 63.6492 1.03193 -1.65457 0
M  V30 682 O 62.9192 1.71622 -0.944595 0
M  V30 683 H 61.4992 -0.147928 -0.732206 0
M  V30 684 H 64.1612 -1.05067 -1.64155 0
M  V30 685 H 63.2572 -0.52601 -3.07635 0
M  V30 686 N 63.5583 1.46682 -0.576371 0
M  V30 687 C 64.8043 2.02712 -0.0596221 0
M  V30 688 C 65.1373 1.44765 1.29448 0
M  V30 689 O 64.4123 0.610355 1.84675 0
M  V30 690 C 64.6953 3.60098 0.0129503 0
M  V30 691 C 64.5483 4.28441 -1.3696 0
M  V30 692 C 65.8673 4.34224 0.71678 0
M  V30 693 H 62.9863 0.736637 -0.0231407 0
M  V30 694 H 65.6283 1.74898 -0.742351 0
M  V30 695 H 63.7783 3.83926 0.594378 0
M  V30 696 H 65.4503 4.15896 -1.9957 0
M  V30 697 H 63.6933 3.8805 -1.93907 0
M  V30 698 H 64.3643 5.3716 -1.27135 0
M  V30 699 H 66.8403 4.15503 0.222908 0
M  V30 700 H 65.7163 5.43936 0.73657 0
M  V30 701 H 65.9773 4.04823 1.77682 0
M  V30 702 N 65.0364 0.313813 1.54444 0
M  V30 703 C 66.2664 -0.293491 2.04505 0
M  V30 704 C 66.6744 -1.47086 1.19005 0
M  V30 705 O 66.0174 -1.82481 0.211257 0
M  V30 706 C 66.0794 -0.800455 3.50475 0
M  V30 707 C 65.7434 0.253322 4.56297 0
M  V30 708 C 66.7404 1.08612 5.08428 0
M  V30 709 C 64.4254 0.398708 5.00715 0
M  V30 710 C 66.4194 2.05013 6.0353 0
M  V30 711 C 64.1064 1.36614 5.95634 0
M  V30 712 C 65.1044 2.19033 6.46926 0
M  V30 713 O 64.7924 3.14134 7.39983 0
M  V30 714 H 64.5244 -0.0658325 0.672787 0
M  V30 715 H 67.0784 0.455177 2.00293 0
M  V30 716 H 65.3084 -1.59987 3.52053 0
M  V30 717 H 66.9974 -1.32504 3.83663 0
M  V30 718 H 67.7634 0.984736 4.74898 0
M  V30 719 H 63.6424 -0.23289 4.60411 0
M  V30 720 H 67.1864 2.69382 6.4349 0
M  V30 721 H 63.0834 1.4682 6.28581 0
M  V30 722 H 63.8514 3.0926 7.57826 0
M  V30 723 N 66.5145 -1.57545 0.0417849 0
M  V30 724 C 67.7635 -1.91494 -0.633492 0
M  V30 725 C 68.0765 -0.921084 -1.72556 0
M  V30 726 O 69.2825 -1.15228 -2.45835 0
M  V30 727 C 67.7385 -3.40072 -1.17808 0
M  V30 728 C 67.3465 -4.47843 -0.118633 0
M  V30 729 C 69.0905 -3.8307 -1.82915 0
M  V30 730 C 66.9975 -5.87529 -0.675578 0
M  V30 731 H 65.9275 -0.714653 -0.24039 0
M  V30 732 H 68.5785 -1.83175 0.109148 0
M  V30 733 H 66.9605 -3.43364 -1.97274 0
M  V30 734 H 68.1345 -4.56128 0.654494 0
M  V30 735 H 66.4495 -4.14128 0.434414 0
M  V30 736 H 69.0465 -4.84794 -2.25563 0
M  V30 737 H 69.3895 -3.1881 -2.67705 0
M  V30 738 H 69.9225 -3.82255 -1.10119 0
M  V30 739 H 66.6615 -6.55362 0.134475 0
M  V30 740 H 66.1815 -5.82824 -1.4169 0
M  V30 741 H 67.8605 -6.36491 -1.1614 0
M  V30 742 N 67.9926 0.231505 -1.5589 0
M  V30 743 C 69.4036 0.799327 -1.68724 0
M  V30 744 C 69.7546 1.85398 -0.642022 0
M  V30 745 O 68.8796 2.1539 0.208784 0
M  V30 746 C 69.4746 1.45664 -3.05888 0
M  V30 747 C 68.0336 1.97197 -3.20609 0
M  V30 748 C 67.1806 0.828552 -2.64632 0
M  V30 749 H 70.1316 0.00702616 -1.58698 0
M  V30 750 H 70.1526 2.32517 -3.01191 0
M  V30 751 H 69.6646 0.688808 -3.81939 0
M  V30 752 H 67.7656 2.76813 -2.4941 0
M  V30 753 H 67.8786 2.15878 -4.27707 0
M  V30 754 H 66.2426 1.23321 -2.22854 0
M  V30 755 H 67.0256 0.0735544 -3.43221 0
M  V30 756 N 69.4707 1.49531 0.497807 0
M  V30 757 C 70.4337 1.65916 1.58128 0
M  V30 758 C 71.4337 0.530825 1.51786 0
M  V30 759 O 72.6237 0.797342 1.54881 0
M  V30 760 C 69.7557 1.65951 2.9778 0
M  V30 761 H 70.9487 2.62556 1.44929 0
M  V30 762 H 68.5017 1.38611 0.722275 0
M  V30 763 H 69.2367 0.709065 3.16453 0
M  V30 764 H 69.0217 2.47897 3.03792 0
M  V30 765 H 70.5117 1.80673 3.76493 0
M  V30 766 N 70.9488 -0.749086 1.3866 0
M  V30 767 C 72.3648 -1.05276 1.19955 0
M  V30 768 C 72.5648 -2.01435 0.05134 0
M  V30 769 O 71.6208 -2.45232 -0.60147 0
M  V30 770 C 72.9338 -1.62853 2.52783 0
M  V30 771 C 74.4818 -1.75002 2.59506 0
M  V30 772 C 74.9568 -2.35991 3.92521 0
M  V30 773 N 76.4478 -2.43416 3.94085 0
M  V30 774 C 77.1828 -2.91511 4.9377 0
M  V30 775 N 76.6788 -3.39608 6.03853 0
M  V30 776 N 78.4718 -2.90592 4.81157 0
M  V30 777 H 70.6228 -0.111066 2.12109 0
M  V30 778 H 72.8858 -0.111901 0.941373 0
M  V30 779 H 72.5918 -0.99664 3.37283 0
M  V30 780 H 72.4658 -2.61854 2.715 0
M  V30 781 H 74.8528 -2.37317 1.75398 0
M  V30 782 H 74.9338 -0.74693 2.44652 0
M  V30 783 H 74.5778 -1.74308 4.77053 0
M  V30 784 H 74.5078 -3.3695 4.04688 0
M  V30 785 H 76.9988 -2.09405 3.14576 0
M  V30 786 H 77.3118 -3.74775 6.75843 0
M  V30 787 H 75.6568 -3.37653 6.07466 0
M  V30 788 H 78.8478 -2.52332 3.94267 0
M  V30 789 H 79.0208 -3.27762 5.58996 0
M  V30 790 N 72.4269 -1.23603 -0.977757 0
M  V30 791 C 73.3769 -0.986664 -2.05545 0
M  V30 792 C 74.3609 0.0683009 -1.60755 0
M  V30 793 O 75.5529 -0.144162 -1.76412 0
M  V30 794 C 72.6819 -0.582623 -3.3832 0
M  V30 795 C 71.7679 -1.67313 -3.89701 0
M  V30 796 N 72.1589 -2.90394 -4.14132 0
M  V30 797 C 70.4569 -1.54832 -4.18262 0
M  V30 798 C 71.1579 -3.61017 -4.56116 0
M  V30 799 N 70.1339 -2.8854 -4.60701 0
M  V30 800 H 73.9359 -1.92139 -2.22396 0
M  V30 801 H 71.4499 -1.1358 -1.16074 0
M  V30 802 H 73.4469 -0.38524 -4.15116 0
M  V30 803 H 72.1069 0.34503 -3.22862 0
M  V30 804 H 73.1179 -3.26673 -4.01877 0
M  V30 805 H 69.7949 -0.687969 -4.11793 0
M  V30 806 H 71.1849 -4.66544 -4.83514 0
M  V30 807 N 73.905 1.17692 -1.04816 0
M  V30 808 C 74.815 2.25229 -0.65643 0
M  V30 809 C 75.831 1.71018 0.320761 0
M  V30 810 O 77.007 2.00649 0.173805 0
M  V30 811 C 74.072 3.46684 -0.0332629 0
M  V30 812 C 73.133 4.15997 -1.06042 0
M  V30 813 C 72.366 5.31654 -0.466893 0
M  V30 814 O 72.589 5.65777 0.724758 0
M  V30 815 O 71.523 5.89831 -1.1993 0
M  V30 816 H 75.349 2.61016 -1.55255 0
M  V30 817 H 72.934 1.24919 -0.81949 0
M  V30 818 H 74.816 4.20234 0.313256 0
M  V30 819 H 73.491 3.12703 0.836566 0
M  V30 820 H 72.398 3.44482 -1.45886 0
M  V30 821 H 73.731 4.53996 -1.90127 0
M  V30 822 N 75.3831 0.828654 1.34056 0
M  V30 823 C 76.6301 0.419458 1.98108 0
M  V30 824 C 76.9581 -1.01886 1.65679 0
M  V30 825 O 76.2131 -1.72539 0.923512 0
M  V30 826 C 76.5121 0.575226 3.52741 0
M  V30 827 C 76.1781 1.98012 4.05095 0
M  V30 828 C 74.8401 2.36442 4.19104 0
M  V30 829 C 77.1921 2.89824 4.33188 0
M  V30 830 C 74.5201 3.66009 4.58535 0
M  V30 831 C 76.8721 4.1886 4.74066 0
M  V30 832 C 75.5361 4.5726 4.86281 0
M  V30 833 H 74.8061 0.153491 0.724929 0
M  V30 834 H 77.4531 1.05371 1.59904 0
M  V30 835 H 75.7581 -0.142385 3.91541 0
M  V30 836 H 77.4551 0.239057 4.00287 0
M  V30 837 H 74.0451 1.67162 3.94658 0
M  V30 838 H 78.2291 2.61375 4.21897 0
M  V30 839 H 73.4851 3.95579 4.66184 0
M  V30 840 H 77.6591 4.90086 4.94761 0
M  V30 841 H 75.2861 5.57707 5.16592 0
M  V30 842 N 76.8612 -1.46375 0.584142 0
M  V30 843 C 78.1072 -2.02678 0.0703716 0
M  V30 844 C 78.4402 -1.4545 -1.28678 0
M  V30 845 O 77.7152 -0.62014 -1.84349 0
M  V30 846 C 77.9982 -3.60099 0.00614674 0
M  V30 847 C 77.8512 -4.27709 1.3923 0
M  V30 848 C 79.1702 -4.34598 -0.693742 0
M  V30 849 H 76.2892 -0.736504 0.027047 0
M  V30 850 H 78.9312 -1.74501 0.751615 0
M  V30 851 H 77.0812 -3.84236 -0.574009 0
M  V30 852 H 78.7532 -4.14832 2.01773 0
M  V30 853 H 76.9962 -3.87016 1.95962 0
M  V30 854 H 77.6672 -5.36478 1.29982 0
M  V30 855 H 80.1432 -4.15615 -0.200869 0
M  V30 856 H 79.0192 -5.44318 -0.707714 0
M  V30 857 H 79.2802 -4.05759 -1.75533 0
M  V30 858 N 78.3393 -0.321999 -1.54275 0
M  V30 859 C 79.5853 0.281461 -2.00837 0
M  V30 860 C 79.9183 1.51909 -1.20985 0
M  V30 861 O 79.1933 1.923 -0.291733 0
M  V30 862 C 79.4763 0.617162 -3.54772 0
M  V30 863 C 79.3293 -0.631064 -4.45351 0
M  V30 864 C 80.6483 1.43542 -4.16033 0
M  V30 865 H 77.7673 0.100826 -0.730071 0
M  V30 866 H 80.4093 -0.438268 -1.84876 0
M  V30 867 H 78.5593 1.23034 -3.68504 0
M  V30 868 H 80.2313 -1.26934 -4.43492 0
M  V30 869 H 78.4743 -1.26025 -4.15091 0
M  V30 870 H 79.1453 -0.351735 -5.50878 0
M  V30 871 H 81.6213 0.917134 -4.05867 0
M  V30 872 H 80.4973 1.63907 -5.23856 0
M  V30 873 H 80.7583 2.43108 -3.69257 0
M  V30 874 N 79.8174 1.5752 -0.0501392 0
M  V30 875 C 80.7674 2.07981 0.934231 0
M  V30 876 C 81.7514 0.984745 1.27246 0
M  V30 877 O 82.9434 1.24809 1.25506 0
M  V30 878 C 80.0724 2.62751 2.20945 0
M  V30 879 C 79.1584 3.79225 1.89865 0
M  V30 880 N 79.5494 4.89036 1.29142 0
M  V30 881 C 77.8474 3.88111 2.19741 0
M  V30 882 C 78.5484 5.70084 1.15669 0
M  V30 883 N 77.5244 5.17659 1.65923 0
M  V30 884 H 81.3264 2.90277 0.460053 0
M  V30 885 H 78.8404 1.61665 0.15434 0
M  V30 886 H 80.8374 2.97205 2.9236 0
M  V30 887 H 79.4974 1.81894 2.6897 0
M  V30 888 H 80.5084 5.08854 0.963756 0
M  V30 889 H 77.1854 3.18194 2.70293 0
M  V30 890 H 78.5754 6.68395 0.685356 0
M  V30 891 N 81.2955 -0.223234 1.56011 0
M  V30 892 C 82.5235 -0.964812 1.83027 0
M  V30 893 C 82.9385 -1.78013 0.62904 0
M  V30 894 O 82.2955 -1.78008 -0.402414 0
M  V30 895 C 82.3465 -1.88373 3.08542 0
M  V30 896 O 82.0675 -1.10137 4.2403 0
M  V30 897 C 83.5685 -2.73934 3.48533 0
M  V30 898 H 80.7885 -0.282842 0.608475 0
M  V30 899 H 83.3325 -0.238971 2.03099 0
M  V30 900 H 81.4875 -2.56354 2.9045 0
M  V30 901 H 81.9015 -1.72501 4.95322 0
M  V30 902 H 83.3755 -3.34117 4.39397 0
M  V30 903 H 83.8525 -3.46244 2.70207 0
M  V30 904 H 84.4585 -2.11369 3.69057 0
M  V30 905 N 82.7736 -1.49793 -0.48987 0
M  V30 906 C 83.7216 -1.67783 -1.61095 0
M  V30 907 C 84.7156 -0.543683 -1.60438 0
M  V30 908 O 85.9216 -0.723647 -1.64813 0
M  V30 909 H 82.2966 -0.529255 -0.534222 0
M  V30 910 H 84.2676 -2.61861 -1.43078 0
M  V30 911 C 83.0166 -1.77191 -2.99164 0
M  V30 912 H 82.3396 -2.63841 -3.0038 0
M  V30 913 H 83.7796 -1.93809 -3.77113 0
M  V30 914 C 82.2386 -0.519203 -3.32875 0
M  V30 915 O 82.7686 0.350124 -4.00171 0
M  V30 916 N 80.9746 -0.378816 -2.8812 0
M  V30 917 H 80.5216 -1.08725 -2.33531 0
M  V30 918 H 80.4796 0.458239 -3.11043 0
M  V30 919 N 84.2517 0.741722 -1.39055 0
M  V30 920 C 85.2017 1.84661 -1.33732 0
M  V30 921 C 86.1857 1.59397 -0.219401 0
M  V30 922 O 87.3777 1.71015 -0.456375 0
M  V30 923 C 84.5067 3.22512 -1.17647 0
M  V30 924 C 83.5927 3.53628 -2.34112 0
M  V30 925 N 83.9837 3.55723 -3.59576 0
M  V30 926 C 82.2817 3.83956 -2.26923 0
M  V30 927 C 82.9827 3.84443 -4.36553 0
M  V30 928 N 81.9587 4.01877 -3.66055 0
M  V30 929 H 85.7607 1.84576 -2.28711 0
M  V30 930 H 83.2747 0.939647 -1.32455 0
M  V30 931 H 85.2717 4.01597 -1.11917 0
M  V30 932 H 83.9317 3.2384 -0.236124 0
M  V30 933 H 84.9427 3.37196 -3.93089 0
M  V30 934 H 81.6197 3.92929 -1.41113 0
M  V30 935 H 83.0097 3.92588 -5.45274 0
M  V30 936 N 85.7298 1.2412 0.971189 0
M  V30 937 C 86.9548 1.10667 1.75407 0
M  V30 938 C 87.3798 -0.337048 1.85056 0
M  V30 939 O 86.7378 -1.24396 1.31892 0
M  V30 940 C 86.7858 1.74726 3.15441 0
M  V30 941 O 85.8898 1.01566 3.99697 0
M  V30 942 H 85.2308 0.387341 0.539317 0
M  V30 943 H 87.7608 1.64358 1.2185 0
M  V30 944 H 87.7708 1.80341 3.6598 0
M  V30 945 H 86.4458 2.79773 3.07734 0
M  V30 946 H 85.0228 1.03713 3.58187 0
M  V30 947 N 87.2079 -1.17134 1.05439 0
M  V30 948 C 88.4359 -1.91372 0.786414 0
M  V30 949 C 88.8509 -1.76955 -0.658202 0
M  V30 950 O 88.2079 -1.10838 -1.44987 0
M  V30 951 C 88.2589 -3.42356 1.1608 0
M  V30 952 O 87.9799 -3.56332 2.54871 0
M  V30 953 C 89.4809 -4.33663 0.919322 0
M  V30 954 H 86.7009 -0.607118 0.285743 0
M  V30 955 H 89.2449 -1.48525 1.40572 0
M  V30 956 H 87.3999 -3.82939 0.586191 0
M  V30 957 H 87.8139 -4.49896 2.69618 0
M  V30 958 H 89.2879 -5.38099 1.231 0
M  V30 959 H 89.7649 -4.38959 -0.145359 0
M  V30 960 H 90.3709 -3.98796 1.47789 0
M  V30 961 N 88.686 -0.835752 -1.33615 0
M  V30 962 C 89.963 -0.352017 -1.92406 0
M  V30 963 C 90.343 1.16225 -1.76224 0
M  V30 964 O 89.691 1.97526 -1.14873 0
M  V30 965 C 89.901 -0.795485 -3.39813 0
M  V30 966 C 91.249 -0.801703 -4.16963 0
M  V30 967 O 92.273 -0.738889 -3.48452 0
M  V30 968 O 91.132 -0.886607 -5.3926 0
M  V30 969 H 88.226 -0.0989641 -0.821057 0
M  V30 970 H 90.772 -0.921397 -1.42507 0
M  V30 971 H 89.544 -1.83795 -3.45449 0
M  V30 972 H 89.167 -0.202505 -3.97084 0
M  V30 973 N 90.1641 1.46063 -0.591896 0
M  V30 974 C 91.0941 2.33172 0.123673 0
M  V30 975 C 92.0751 1.45897 0.87453 0
M  V30 976 O 93.2601 1.74698 0.848181 0
M  V30 977 C 90.3901 3.28336 1.13194 0
M  V30 978 C 89.3441 4.25124 0.495324 0
M  V30 979 C 88.6701 5.09863 1.61071 0
M  V30 980 C 89.9701 5.19143 -0.573425 0
M  V30 981 H 91.6641 2.93252 -0.603646 0
M  V30 982 H 89.2101 1.41014 -0.291741 0
M  V30 983 H 91.1631 3.88137 1.64097 0
M  V30 984 H 89.8871 2.66383 1.88965 0
M  V30 985 H 88.5461 3.66599 0.00729452 0
M  V30 986 H 88.1941 4.44288 2.35832 0
M  V30 987 H 87.8941 5.75417 1.19035 0
M  V30 988 H 89.4181 5.72529 2.12233 0
M  V30 989 H 90.8321 5.73106 -0.1491 0
M  V30 990 H 89.2291 5.93089 -0.914636 0
M  V30 991 H 90.2991 4.62519 -1.45617 0
M  V30 992 N 91.6422 0.330177 1.54103 0
M  V30 993 C 92.8902 -0.269871 2.0029 0
M  V30 994 C 93.2112 -1.52133 1.21986 0
M  V30 995 O 92.4812 -1.93212 0.323438 0
M  V30 996 H 91.0612 -0.10271 0.739905 0
M  V30 997 H 93.7232 0.448249 1.89675 0
M  V30 998 H 92.8192 -0.52166 3.07709 0
M  V30 999 N 93.1203 -1.57491 0.0584922 0
M  V30 1000 C 94.3673 -1.92978 -0.613648 0
M  V30 1001 C 94.6953 -0.937461 -1.70417 0
M  V30 1002 O 93.9503 0.049078 -1.95638 0
M  V30 1003 C 94.2493 -3.3513 -1.24188 0
M  V30 1004 C 93.9153 -4.50037 -0.278826 0
M  V30 1005 C 92.5773 -4.81198 -0.0138447 0
M  V30 1006 C 94.9293 -5.19807 0.380777 0
M  V30 1007 C 92.2573 -5.79473 0.918052 0
M  V30 1008 C 94.6093 -6.19079 1.30091 0
M  V30 1009 C 93.2733 -6.48665 1.57449 0
M  V30 1010 H 92.5433 -0.706157 -0.22455 0
M  V30 1011 H 95.1903 -1.91082 0.126533 0
M  V30 1012 H 93.4953 -3.33429 -2.05749 0
M  V30 1013 H 95.1923 -3.59871 -1.769 0
M  V30 1014 H 91.7823 -4.25726 -0.495539 0
M  V30 1015 H 95.9663 -4.95939 0.189158 0
M  V30 1016 H 91.2223 -6.00727 1.1374 0
M  V30 1017 H 95.3963 -6.7225 1.81804 0
M  V30 1018 H 93.0233 -7.24628 2.29822 0
M  V30 1019 N 94.5984 0.214957 -1.56127 0
M  V30 1020 C 95.5454 1.26642 -1.92952 0
M  V30 1021 C 96.5154 1.46244 -0.78753 0
M  V30 1022 O 97.7004 1.59704 -1.04399 0
M  V30 1023 C 94.8404 2.6104 -2.25726 0
M  V30 1024 C 93.9534 2.49183 -3.52891 0
M  V30 1025 C 93.0884 3.76149 -3.7508 0
M  V30 1026 C 92.1274 3.59041 -4.95738 0
M  V30 1027 N 91.2644 4.77972 -5.14283 0
M  V30 1028 H 96.1044 0.945384 -2.82607 0
M  V30 1029 H 93.6414 0.455489 -1.3987 0
M  V30 1030 H 95.5994 3.39313 -2.42739 0
M  V30 1031 H 94.2294 2.91227 -1.39236 0
M  V30 1032 H 93.2814 1.6231 -3.44034 0
M  V30 1033 H 94.5934 2.32466 -4.41318 0
M  V30 1034 H 93.7474 4.62865 -3.92226 0
M  V30 1035 H 92.4864 3.95799 -2.84947 0
M  V30 1036 H 91.4914 2.7071 -4.78535 0
M  V30 1037 H 92.7164 3.40856 -5.87362 0
M  V30 1038 H 90.6624 4.97923 -4.27093 0
M  V30 1039 H 90.5794 4.64006 -5.96853 0
M  V30 1040 H 91.8474 5.66096 -5.35869 0
M  V30 1041 N 96.0765 1.50051 0.48192 0
M  V30 1042 C 97.3245 1.60181 1.23234 0
M  V30 1043 C 97.6455 0.299176 1.92691 0
M  V30 1044 O 96.9155 -0.682708 1.83619 0
M  V30 1045 H 95.4955 0.590232 0.457859 0
M  V30 1046 H 98.1575 1.86775 0.556881 0
M  V30 1047 H 97.2535 2.40753 1.98607 0
M  V30 1048 N 97.5546 -0.734337 1.39446 0
M  V30 1049 C 98.4866 -1.85861 1.34121 0
M  V30 1050 C 99.4996 -1.60871 0.249864 0
M  V30 1051 O 100.689 -1.71093 0.508865 0
M  V30 1052 C 97.7886 -3.21899 1.05991 0
M  V30 1053 C 96.9616 -3.74239 2.26415 0
M  V30 1054 C 96.0206 -4.88841 1.94733 0
M  V30 1055 O 95.0466 -5.02468 2.67422 0
M  V30 1056 N 96.2486 -5.73261 0.913884 0
M  V30 1057 H 99.0136 -1.90934 2.31007 0
M  V30 1058 H 96.5746 -0.915102 1.33557 0
M  V30 1059 H 98.5666 -3.96136 0.828147 0
M  V30 1060 H 97.1366 -3.12091 0.178361 0
M  V30 1061 H 96.3566 -2.91347 2.65539 0
M  V30 1062 H 97.6446 -4.05942 3.06738 0
M  V30 1063 H 97.0426 -5.64842 0.311476 0
M  V30 1064 H 95.5996 -6.47563 0.742015 0
M  V30 1065 N 99.0327 -1.24633 -0.964593 0
M  V30 1066 C 100.449 -1.01239 -1.2338 0
M  V30 1067 C 100.649 0.2769 -1.99588 0
M  V30 1068 O 99.7047 0.992241 -2.32187 0
M  V30 1069 C 101.018 -2.22937 -2.01791 0
M  V30 1070 C 102.566 -2.27594 -2.14872 0
M  V30 1071 C 103.041 -3.48921 -2.96678 0
M  V30 1072 N 104.532 -3.49257 -3.04259 0
M  V30 1073 C 105.267 -4.39795 -3.67924 0
M  V30 1074 N 104.763 -5.40591 -4.33281 0
M  V30 1075 N 106.556 -4.275 -3.64966 0
M  V30 1076 H 98.7067 -2.0748 -0.454502 0
M  V30 1077 H 100.97 -0.910647 -0.26349 0
M  V30 1078 H 100.676 -3.16587 -1.53184 0
M  V30 1079 H 100.55 -2.25306 -3.02518 0
M  V30 1080 H 102.937 -1.34473 -2.6268 0
M  V30 1081 H 103.018 -2.2925 -1.13482 0
M  V30 1082 H 102.662 -4.42359 -2.49562 0
M  V30 1083 H 102.592 -3.4451 -3.98272 0
M  V30 1084 H 105.083 -2.76337 -2.57771 0
M  V30 1085 H 105.396 -6.05904 -4.79687 0
M  V30 1086 H 103.741 -5.44475 -4.3194 0
M  V30 1087 H 106.932 -3.47987 -3.13086 0
M  V30 1088 H 107.105 -4.98258 -4.14298 0
M  V30 1089 N 100.511 1.16574 -1.06058 0
M  V30 1090 C 101.76 1.86385 -0.770944 0
M  V30 1091 C 102.073 1.82448 0.705129 0
M  V30 1092 O 103.279 2.47815 1.10905 0
M  V30 1093 C 101.735 3.34466 -1.32893 0
M  V30 1094 C 101.343 3.46883 -2.83507 0
M  V30 1095 C 103.087 4.09548 -1.11672 0
M  V30 1096 C 100.994 4.89036 -3.32562 0
M  V30 1097 H 99.9238 0.698181 -0.284709 0
M  V30 1098 H 102.575 1.31583 -1.27899 0
M  V30 1099 H 100.957 3.88859 -0.748662 0
M  V30 1100 H 102.131 3.02663 -3.47465 0
M  V30 1101 H 100.446 2.85232 -3.03368 0
M  V30 1102 H 103.043 5.14434 -1.45814 0
M  V30 1103 H 103.386 4.16264 -0.0549535 0
M  V30 1104 H 103.919 3.61387 -1.66265 0
M  V30 1105 H 100.658 4.87499 -4.38207 0
M  V30 1106 H 100.178 5.3389 -2.73351 0
M  V30 1107 H 101.857 5.57843 -3.2775 0
M  V30 1108 N 101.989 0.842826 1.3317 0
M  V30 1109 C 102.936 0.276885 2.29133 0
M  V30 1110 C 103.906 -0.609527 1.54512 0
M  V30 1111 O 105.091 -0.546955 1.82792 0
M  V30 1112 C 102.231 -0.538707 3.40869 0
M  V30 1113 C 101.344 0.372169 4.30394 0
M  V30 1114 C 100.479 -0.454908 5.29249 0
M  V30 1115 C 99.5179 0.45411 6.10413 0
M  V30 1116 N 98.6549 -0.335075 7.013 0
M  V30 1117 H 103.495 1.10052 2.76934 0
M  V30 1118 H 101.032 0.554161 1.36262 0
M  V30 1119 H 102.99 -1.02709 4.0436 0
M  V30 1120 H 101.62 -1.32727 2.9425 0
M  V30 1121 H 100.672 0.97888 3.6759 0
M  V30 1122 H 101.984 1.0703 4.87182 0
M  V30 1123 H 101.138 -1.00695 5.98285 0
M  V30 1124 H 99.8769 -1.18646 4.73048 0
M  V30 1125 H 98.8819 1.01813 5.40291 0
M  V30 1126 H 100.107 1.18409 6.68697 0
M  V30 1127 H 98.0529 -1.04994 6.47543 0
M  V30 1128 H 97.9699 0.304262 7.55387 0
M  V30 1129 H 99.2379 -0.869224 7.74638 0
M  V30 1130 N 103.467 -1.45747 0.599634 0
M  V30 1131 C 104.695 -2.06668 0.0978551 0
M  V30 1132 C 105.11 -1.44562 -1.21439 0
M  V30 1133 O 104.467 -0.556923 -1.73795 0
M  V30 1134 C 104.518 -3.61456 -0.0567044 0
M  V30 1135 O 104.239 -4.21242 1.20361 0
M  V30 1136 C 105.74 -4.39345 -0.590869 0
M  V30 1137 H 102.96 -0.667825 0.0651943 0
M  V30 1138 H 105.504 -1.87115 0.82511 0
M  V30 1139 H 103.659 -3.80378 -0.734251 0
M  V30 1140 H 104.073 -5.14323 1.02821 0
M  V30 1141 H 105.547 -5.48182 -0.648131 0
M  V30 1142 H 106.024 -4.08568 -1.61147 0
M  V30 1143 H 106.63 -4.25268 0.0523679 0
M  V30 1144 N 104.945 -0.338344 -1.53925 0
M  V30 1145 C 106.191 0.260143 -2.01125 0
M  V30 1146 C 106.524 1.50617 -1.22589 0
M  V30 1147 O 105.799 1.91979 -0.312113 0
M  V30 1148 C 106.082 0.579499 -3.55407 0
M  V30 1149 C 105.935 -0.678264 -4.44657 0
M  V30 1150 C 107.254 1.39122 -4.17532 0
M  V30 1151 H 104.373 0.0930772 -0.731099 0
M  V30 1152 H 107.015 -0.457852 -1.84401 0
M  V30 1153 H 105.165 1.19118 -3.69788 0
M  V30 1154 H 106.837 -1.31631 -4.42121 0
M  V30 1155 H 105.08 -1.3042 -4.13731 0
M  V30 1156 H 105.751 -0.410143 -5.50474 0
M  V30 1157 H 108.227 0.874035 -4.06817 0
M  V30 1158 H 107.103 1.58342 -5.25565 0
M  V30 1159 H 107.364 2.39178 -3.71815 0
M  V30 1160 N 106.423 1.57458 -0.0668435 0
M  V30 1161 C 107.333 2.15937 0.916975 0
M  V30 1162 C 108.349 1.12123 1.33058 0
M  V30 1163 O 109.525 1.44366 1.40429 0
M  V30 1164 C 106.59 2.70547 2.16807 0
M  V30 1165 C 105.651 3.89215 1.81135 0
M  V30 1166 C 104.884 4.41211 3.0028 0
M  V30 1167 O 105.107 3.92225 4.14144 0
M  V30 1168 O 104.041 5.32605 2.80384 0
M  V30 1169 H 107.867 3.00354 0.449561 0
M  V30 1170 H 105.452 1.48584 0.155949 0
M  V30 1171 H 107.334 3.0557 2.90181 0
M  V30 1172 H 106.009 1.89192 2.62656 0
M  V30 1173 H 104.916 3.59054 1.05028 0
M  V30 1174 H 106.249 4.71848 1.40073 0
M  V30 1175 N 107.901 -0.206675 1.56239 0
M  V30 1176 C 108.851 -1.26 1.90021 0
M  V30 1177 C 109.835 -1.41566 0.764721 0
M  V30 1178 O 111.027 -1.44131 1.02739 0
M  V30 1179 C 108.156 -2.6073 2.23326 0
M  V30 1180 C 107.242 -2.49005 3.43304 0
M  V30 1181 N 107.633 -2.06946 4.61527 0
M  V30 1182 C 105.931 -2.79927 3.47213 0
M  V30 1183 C 106.632 -2.06832 5.43687 0
M  V30 1184 N 105.608 -2.47892 4.83788 0
M  V30 1185 H 109.41 -0.925955 2.78932 0
M  V30 1186 H 106.924 -0.415172 1.57003 0
M  V30 1187 H 108.921 -3.36798 2.45708 0
M  V30 1188 H 107.581 -2.94968 1.35735 0
M  V30 1189 H 108.592 -1.77839 4.86409 0
M  V30 1190 H 105.269 -3.18438 2.70006 0
M  V30 1191 H 106.659 -1.76312 6.48354 0
M  V30 1192 N 109.379 -1.50304 -0.473955 0
M  V30 1193 C 110.628 -1.60392 -1.22301 0
M  V30 1194 C 110.941 -0.308411 -1.93153 0
M  V30 1195 O 112.147 -0.288156 -2.69966 0
M  V30 1196 C 110.603 -2.83109 -2.2221 0
M  V30 1197 C 110.211 -4.19524 -1.57173 0
M  V30 1198 C 111.955 -3.0254 -2.97775 0
M  V30 1199 C 109.862 -5.33431 -2.55353 0
M  V30 1200 H 108.792 -0.597286 -0.460179 0
M  V30 1201 H 111.443 -1.76731 -0.493803 0
M  V30 1202 H 109.825 -2.60322 -2.9841 0
M  V30 1203 H 110.999 -4.52554 -0.867824 0
M  V30 1204 H 109.314 -4.05674 -0.939002 0
M  V30 1205 H 111.911 -3.84811 -3.71248 0
M  V30 1206 H 112.254 -2.14154 -3.56992 0
M  V30 1207 H 112.787 -3.25494 -2.28688 0
M  V30 1208 H 109.526 -6.23962 -2.00878 0
M  V30 1209 H 109.046 -5.04823 -3.23904 0
M  V30 1210 H 110.725 -5.63887 -3.17239 0
M  V30 1211 N 110.857 0.726932 -1.39834 0
M  V30 1212 C 111.787 1.85405 -1.41941 0
M  V30 1213 C 112.768 1.67751 -0.281728 0
M  V30 1214 O 113.953 1.8795 -0.488717 0
M  V30 1215 C 111.083 3.23243 -1.2701 0
M  V30 1216 C 110.037 3.55549 -2.38262 0
M  V30 1217 C 109.363 4.9241 -2.08415 0
M  V30 1218 C 110.663 3.577 -3.80589 0
M  V30 1219 H 112.357 1.83899 -2.36266 0
M  V30 1220 H 109.903 0.883349 -1.13723 0
M  V30 1221 H 111.856 4.01775 -1.27103 0
M  V30 1222 H 110.58 3.25296 -0.291564 0
M  V30 1223 H 109.239 2.79351 -2.37399 0
M  V30 1224 H 108.887 4.91052 -1.0898 0
M  V30 1225 H 108.587 5.14992 -2.82943 0
M  V30 1226 H 110.111 5.73289 -2.10171 0
M  V30 1227 H 111.525 4.26293 -3.83337 0
M  V30 1228 H 109.922 3.91804 -4.54543 0
M  V30 1229 H 110.992 2.57328 -4.10987 0
M  V30 1230 N 112.336 1.25143 0.95797 0
M  V30 1231 C 113.561 1.12521 1.74223 0
M  V30 1232 C 113.986 -0.317402 1.85403 0
M  V30 1233 O 113.344 -1.2299 1.33204 0
M  V30 1234 C 113.392 1.78062 3.1357 0
M  V30 1235 O 112.496 1.058 3.98598 0
M  V30 1236 H 111.837 0.39304 0.535178 0
M  V30 1237 H 114.367 1.65641 1.201 0
M  V30 1238 H 114.377 1.84213 3.64046 0
M  V30 1239 H 113.052 2.83021 3.04749 0
M  V30 1240 H 111.629 1.07506 3.57067 0
M  V30 1241 N 113.814 -1.1601 1.06675 0
M  V30 1242 C 115.06 -1.86909 0.786945 0
M  V30 1243 C 115.393 -1.81717 -0.685018 0
M  V30 1244 O 114.668 -1.23551 -1.50218 0
M  V30 1245 C 114.951 -3.36313 1.28707 0
M  V30 1246 C 114.804 -3.50175 2.82308 0
M  V30 1247 C 116.123 -4.3084 0.898071 0
M  V30 1248 H 113.242 -0.678677 0.287343 0
M  V30 1249 H 115.884 -1.36336 1.32334 0
M  V30 1250 H 114.034 -3.79513 0.830768 0
M  V30 1251 H 115.706 -3.15886 3.36175 0
M  V30 1252 H 113.949 -2.91959 3.20847 0
M  V30 1253 H 114.62 -4.55116 3.12368 0
M  V30 1254 H 117.096 -3.95561 1.29114 0
M  V30 1255 H 115.972 -5.33876 1.27543 0
M  V30 1256 H 116.233 -4.41662 -0.196651 0
M  V30 1257 N 115.292 -0.849877 -1.32721 0
M  V30 1258 C 116.222 -0.306308 -2.31482 0
M  V30 1259 C 117.203 0.591952 -1.59468 0
M  V30 1260 O 118.388 0.513199 -1.87296 0
M  V30 1261 C 115.518 0.510204 -3.43532 0
M  V30 1262 C 114.472 -0.293209 -4.26994 0
M  V30 1263 C 113.798 0.647743 -5.30762 0
M  V30 1264 C 115.098 -1.51634 -4.99804 0
M  V30 1265 H 116.792 -1.13153 -2.77195 0
M  V30 1266 H 114.338 -0.545553 -1.33266 0
M  V30 1267 H 116.291 0.900856 -4.11658 0
M  V30 1268 H 115.015 1.36874 -2.96535 0
M  V30 1269 H 113.674 -0.665555 -3.60508 0
M  V30 1270 H 113.322 1.50299 -4.8002 0
M  V30 1271 H 113.022 0.11422 -5.87489 0
M  V30 1272 H 114.546 1.03567 -6.01753 0
M  V30 1273 H 115.96 -1.19824 -5.60638 0
M  V30 1274 H 114.357 -1.98745 -5.66234 0
M  V30 1275 H 115.427 -2.28018 -4.27943 0
M  V30 1276 N 116.77 1.45427 -0.607355 0
M  V30 1277 C 117.72 2.27612 0.133038 0
M  V30 1278 C 118.704 1.37307 0.838785 0
M  V30 1279 O 119.896 1.61299 0.728813 0
M  V30 1280 C 117.025 3.24173 1.12991 0
M  V30 1281 C 116.111 4.21965 0.425011 0
M  V30 1282 N 116.502 5.02982 -0.533217 0
M  V30 1283 C 114.8 4.40899 0.672593 0
M  V30 1284 C 115.501 5.73931 -0.947518 0
M  V30 1285 N 114.477 5.42819 -0.291321 0
M  V30 1286 H 118.279 2.87649 -0.602935 0
M  V30 1287 H 115.793 1.56576 -0.431006 0
M  V30 1288 H 117.79 3.81783 1.67473 0
M  V30 1289 H 116.45 2.65696 1.86644 0
M  V30 1290 H 117.461 5.09843 -0.90995 0
M  V30 1291 H 114.138 3.93547 1.39382 0
M  V30 1292 H 115.528 6.49037 -1.73782 0
M  V30 1293 N 118.248 0.346503 1.53744 0
M  V30 1294 C 119.178 -0.501193 2.28058 0
M  V30 1295 C 120.159 -1.10014 1.29734 0
M  V30 1296 O 121.344 -1.12097 1.58581 0
M  V30 1297 C 118.474 -1.65078 3.05559 0
M  V30 1298 C 117.428 -1.18003 4.11411 0
M  V30 1299 C 116.754 -2.41837 4.76884 0
M  V30 1300 C 118.054 -0.278394 5.21558 0
M  V30 1301 H 119.748 0.11875 2.99164 0
M  V30 1302 H 117.294 0.0585531 1.43881 0
M  V30 1303 H 119.247 -2.25028 3.56287 0
M  V30 1304 H 117.971 -2.29767 2.32109 0
M  V30 1305 H 116.63 -0.603331 3.61601 0
M  V30 1306 H 116.278 -3.0494 4.00026 0
M  V30 1307 H 115.978 -2.1102 5.48402 0
M  V30 1308 H 117.502 -3.02508 5.30397 0
M  V30 1309 H 118.916 -0.784823 5.67903 0
M  V30 1310 H 117.313 -0.0619707 6.00068 0
M  V30 1311 H 118.383 0.684677 4.80042 0
M  V30 1312 N 119.726 -1.57421 0.075193 0
M  V30 1313 C 120.656 -2.15942 -0.888324 0
M  V30 1314 C 121.637 -1.08737 -1.30806 0
M  V30 1315 O 122.822 -1.36787 -1.37851 0
M  V30 1316 C 119.952 -2.72379 -2.1547 0
M  V30 1317 C 118.906 -3.8478 -1.87425 0
M  V30 1318 C 118.232 -4.27834 -3.20721 0
M  V30 1319 C 119.532 -5.08869 -1.17684 0
M  V30 1320 H 121.226 -2.96705 -0.400799 0
M  V30 1321 H 118.772 -1.42723 -0.191342 0
M  V30 1322 H 120.725 -3.11965 -2.83295 0
M  V30 1323 H 119.449 -1.88841 -2.6647 0
M  V30 1324 H 118.108 -3.45703 -1.22004 0
M  V30 1325 H 117.756 -3.41214 -3.6957 0
M  V30 1326 H 117.456 -5.03605 -3.02746 0
M  V30 1327 H 118.98 -4.70039 -3.89738 0
M  V30 1328 H 120.394 -5.4575 -1.75584 0
M  V30 1329 H 118.791 -5.8994 -1.09956 0
M  V30 1330 H 119.861 -4.84648 -0.156453 0
M  V30 1331 N 121.204 0.198386 -1.56346 0
M  V30 1332 C 122.114 1.2664 -1.97483 0
M  V30 1333 C 123.13 1.49989 -0.882002 0
M  V30 1334 O 124.306 1.62668 -1.18748 0
M  V30 1335 C 121.371 2.59141 -2.30319 0
M  V30 1336 C 120.432 2.43892 -3.53292 0
M  V30 1337 C 119.665 3.70074 -3.84553 0
M  V30 1338 O 119.888 4.74101 -3.1715 0
M  V30 1339 O 118.822 3.658 -4.7799 0
M  V30 1340 H 122.648 0.947304 -2.88548 0
M  V30 1341 H 120.233 0.403123 -1.43859 0
M  V30 1342 H 122.115 3.37352 -2.5253 0
M  V30 1343 H 120.79 2.90684 -1.42423 0
M  V30 1344 H 119.697 1.63803 -3.36332 0
M  V30 1345 H 121.03 2.17282 -4.41644 0
M  V30 1346 N 122.682 1.50554 0.465978 0
M  V30 1347 C 123.931 1.61038 1.21448 0
M  V30 1348 C 124.244 0.31865 1.92987 0
M  V30 1349 O 125.45 0.302469 2.6981 0
M  V30 1350 C 123.906 2.84283 2.20706 0
M  V30 1351 C 123.514 4.20352 1.54946 0
M  V30 1352 C 125.258 3.04115 2.96166 0
M  V30 1353 C 123.165 5.34778 2.5252 0
M  V30 1354 H 122.095 0.599718 0.457005 0
M  V30 1355 H 124.746 1.7699 0.484424 0
M  V30 1356 H 123.128 2.61901 2.97025 0
M  V30 1357 H 124.302 4.53008 0.843811 0
M  V30 1358 H 122.617 4.06167 0.917475 0
M  V30 1359 H 125.214 3.86774 3.69202 0
M  V30 1360 H 125.557 2.16045 3.55852 0
M  V30 1361 H 126.09 3.26702 2.26959 0
M  V30 1362 H 122.829 6.25018 1.97566 0
M  V30 1363 H 122.349 5.06534 3.21222 0
M  V30 1364 H 124.028 5.65561 3.14245 0
M  V30 1365 N 124.16 -0.719506 1.40217 0
M  V30 1366 C 125.388 -1.50864 1.41589 0
M  V30 1367 C 125.803 -1.88794 0.0145275 0
M  V30 1368 O 125.16 -1.55174 -0.960594 0
M  V30 1369 C 125.211 -2.78646 2.30302 0
M  V30 1370 O 124.932 -2.42321 3.64983 0
M  V30 1371 C 126.433 -3.72569 2.40224 0
M  V30 1372 H 123.653 -0.465709 0.48307 0
M  V30 1373 H 126.197 -0.88785 1.84221 0
M  V30 1374 H 124.352 -3.37019 1.91042 0
M  V30 1375 H 124.766 -3.24514 4.12057 0
M  V30 1376 H 126.24 -4.5908 3.06512 0
M  V30 1377 H 126.717 -4.15403 1.42608 0
M  V30 1378 H 127.323 -3.20109 2.80019 0
M  V30 1379 N 125.638 -1.25649 -0.95132 0
M  V30 1380 C 126.586 -1.06118 -2.06982 0
M  V30 1381 C 127.58 0.00889169 -1.69398 0
M  V30 1382 O 128.786 -0.146988 -1.79399 0
M  V30 1383 H 125.161 -0.326248 -0.677544 0
M  V30 1384 H 127.132 -2.00932 -2.2061 0
M  V30 1385 C 125.881 -0.700145 -3.40578 0
M  V30 1386 H 125.204 -1.51537 -3.69968 0
M  V30 1387 H 126.644 -0.603211 -4.19687 0
M  V30 1388 C 125.103 0.59403 -3.31622 0
M  V30 1389 O 125.633 1.63522 -3.66911 0
M  V30 1390 N 123.839 0.58089 -2.84735 0
M  V30 1391 H 123.386 -0.266783 -2.56215 0
M  V30 1392 H 123.344 1.44695 -2.79125 0
M  V30 1393 N 127.117 1.15442 -1.07289 0
M  V30 1394 C 128.363 1.86489 -0.796846 0
M  V30 1395 C 128.696 1.82078 0.675371 0
M  V30 1396 O 127.971 1.24346 1.4956 0
M  V30 1397 C 128.254 3.35626 -1.30489 0
M  V30 1398 C 128.107 3.48673 -2.84161 0
M  V30 1399 C 129.426 4.30357 -0.920907 0
M  V30 1400 H 126.545 0.677144 -0.290939 0
M  V30 1401 H 129.187 1.35633 -1.33056 0
M  V30 1402 H 127.337 3.79068 -0.850883 0
M  V30 1403 H 129.009 3.14099 -3.37846 0
M  V30 1404 H 127.252 2.90253 -3.22391 0
M  V30 1405 H 127.923 4.53453 -3.14777 0
M  V30 1406 H 130.399 3.94871 -1.3121 0
M  V30 1407 H 129.275 5.33193 -1.30372 0
M  V30 1408 H 129.536 4.4176 0.173226 0
M  V30 1409 N 128.595 0.856903 1.32268 0
M  V30 1410 C 129.823 0.475439 2.01363 0
M  V30 1411 C 130.238 -0.928486 1.64392 0
M  V30 1412 O 129.595 -1.60624 0.866387 0
M  V30 1413 C 129.646 0.607545 3.56358 0
M  V30 1414 O 129.367 1.95617 3.92002 0
M  V30 1415 C 130.868 0.225382 4.42727 0
M  V30 1416 H 128.088 0.186636 0.644521 0
M  V30 1417 H 130.632 1.15446 1.68797 0
M  V30 1418 H 128.787 -0.0237719 3.87393 0
M  V30 1419 H 129.201 1.95455 4.86721 0
M  V30 1420 H 130.675 0.368813 5.50767 0
M  V30 1421 H 131.152 -0.834369 4.31202 0
M  V30 1422 H 131.758 0.831864 4.17085 0
M  V30 1423 N 130.073 -1.45103 0.615059 0
M  V30 1424 C 131.322 -2.01396 0.110718 0
M  V30 1425 C 131.635 -1.48834 -1.26916 0
M  V30 1426 O 132.841 -1.97152 -1.86664 0
M  V30 1427 C 131.297 -3.59599 0.14723 0
M  V30 1428 C 130.905 -4.21158 1.52743 0
M  V30 1429 C 132.649 -4.23428 -0.30148 0
M  V30 1430 C 130.556 -5.71535 1.51992 0
M  V30 1431 H 129.486 -0.753061 0.0376241 0
M  V30 1432 H 132.137 -1.66494 0.77149 0
M  V30 1433 H 130.519 -3.91724 -0.580339 0
M  V30 1434 H 131.693 -4.00594 2.2773 0
M  V30 1435 H 130.008 -3.69552 1.91886 0
M  V30 1436 H 132.605 -5.33703 -0.326392 0
M  V30 1437 H 132.948 -3.94629 -1.32565 0
M  V30 1438 H 133.481 -3.96047 0.373065 0
M  V30 1439 H 130.22 -6.05044 2.52193 0
M  V30 1440 H 129.74 -5.94268 0.81274 0
M  V30 1441 H 131.419 -6.34873 1.24681 0
M  V30 1442 N 131.551 -0.354651 -1.53558 0
M  V30 1443 C 132.461 0.50515 -2.29097 0
M  V30 1444 C 133.477 1.10223 -1.34636 0
M  V30 1445 O 134.653 1.11553 -1.67684 0
M  V30 1446 C 131.718 1.63479 -3.05738 0
M  V30 1447 C 130.779 1.06636 -4.15845 0
M  V30 1448 C 130.012 2.14217 -4.88822 0
M  V30 1449 O 130.235 3.35137 -4.61562 0
M  V30 1450 O 129.169 1.77887 -5.75013 0
M  V30 1451 H 132.995 -0.109237 -3.03503 0
M  V30 1452 H 130.58 -0.119357 -1.48922 0
M  V30 1453 H 132.462 2.2918 -3.5363 0
M  V30 1454 H 131.137 2.23478 -2.34178 0
M  V30 1455 H 130.044 0.373565 -3.7223 0
M  V30 1456 H 131.377 0.511081 -4.89539 0
M  V30 1457 N 133.029 1.57378 -0.0835403 0
M  V30 1458 C 134.275 1.94217 0.583733 0
M  V30 1459 C 134.608 0.964653 1.68547 0
M  V30 1460 O 133.883 -0.00422258 1.945 0
M  V30 1461 C 134.166 3.41253 1.14972 0
M  V30 1462 C 134.019 4.49768 0.0538277 0
M  V30 1463 C 135.338 3.89352 2.05166 0
M  V30 1464 H 132.457 0.706233 0.210724 0
M  V30 1465 H 135.099 1.89392 -0.1519 0
M  V30 1466 H 133.249 3.45496 1.77665 0
M  V30 1467 H 134.921 4.57641 -0.579851 0
M  V30 1468 H 133.164 4.29432 -0.614068 0
M  V30 1469 H 133.835 5.49817 0.490452 0
M  V30 1470 H 136.311 3.87189 1.52393 0
M  V30 1471 H 135.187 4.92822 2.41698 0
M  V30 1472 H 135.448 3.27973 2.96456 0
M  V30 1473 N 134.507 -0.190092 1.56449 0
M  V30 1474 C 135.756 -0.907912 1.80111 0
M  V30 1475 C 136.069 -1.84214 0.657619 0
M  V30 1476 O 137.275 -2.60094 0.778663 0
M  V30 1477 C 135.731 -1.66485 3.19078 0
M  V30 1478 C 135.339 -0.7752 4.41242 0
M  V30 1479 C 137.083 -2.37201 3.52045 0
M  V30 1480 C 134.99 -1.53129 5.71231 0
M  V30 1481 H 133.92 -0.34276 0.671589 0
M  V30 1482 H 136.571 -0.161109 1.82791 0
M  V30 1483 H 134.953 -2.45572 3.10661 0
M  V30 1484 H 136.127 -0.0226298 4.60794 0
M  V30 1485 H 134.442 -0.178627 4.16017 0
M  V30 1486 H 137.039 -2.94329 4.46402 0
M  V30 1487 H 137.382 -3.11632 2.76028 0
M  V30 1488 H 137.915 -1.65075 3.61932 0
M  V30 1489 H 134.654 -0.82967 6.50228 0
M  V30 1490 H 134.174 -2.25767 5.55688 0
M  V30 1491 H 135.853 -2.08377 6.12526 0
M  V30 1492 N 135.985 -1.50799 -0.457987 0
M  V30 1493 C 137.233 -1.62121 -1.2067 0
M  V30 1494 C 137.554 -0.329793 -1.92191 0
M  V30 1495 O 136.824 0.653409 -1.84682 0
M  V30 1496 H 135.404 -0.597441 -0.448411 0
M  V30 1497 H 138.066 -1.87637 -0.527096 0
M  V30 1498 H 137.162 -2.43882 -1.94751 0
M  V30 1499 N 137.463 0.71206 -1.40597 0
M  V30 1500 C 138.411 1.84746 -1.41321 0
M  V30 1501 C 139.405 1.66842 -0.293268 0
M  V30 1502 O 140.611 1.73904 -0.464481 0
M  V30 1503 H 136.986 0.608522 -0.441819 0
M  V30 1504 H 138.957 1.81252 -2.37045 0
M  V30 1505 C 137.706 3.22638 -1.29614 0
M  V30 1506 H 137.029 3.37023 -2.15071 0
M  V30 1507 H 138.469 4.02209 -1.3418 0
M  V30 1508 C 136.928 3.36899 -0.00673121 0
M  V30 1509 O 137.458 3.90186 0.954859 0
M  V30 1510 N 135.664 2.9053 0.0639327 0
M  V30 1511 H 135.211 2.47353 -0.719311 0
M  V30 1512 H 135.169 3.0045 0.926118 0
M  V30 1513 N 138.941 1.26152 0.944643 0
M  V30 1514 C 139.851 1.09176 2.07648 0
M  V30 1515 C 140.867 0.0261935 1.7398 0
M  V30 1516 O 142.043 0.229208 2.00091 0
M  V30 1517 C 139.108 0.722915 3.39079 0
M  V30 1518 C 138.169 1.86752 3.86552 0
M  V30 1519 C 137.402 1.51617 5.11711 0
M  V30 1520 O 137.625 0.416331 5.68879 0
M  V30 1521 O 136.559 2.34975 5.54139 0
M  V30 1522 H 140.385 2.0412 2.24875 0
M  V30 1523 H 137.97 1.05182 1.061 0
M  V30 1524 H 139.852 0.529787 4.18056 0
M  V30 1525 H 138.527 -0.197159 3.23099 0
M  V30 1526 H 137.434 2.11558 3.08535 0
M  V30 1527 H 138.767 2.76719 4.07047 0
M  V30 1528 N 140.419 -1.14872 1.07899 0
M  V30 1529 C 141.668 -1.85135 0.800499 0
M  V30 1530 C 141.981 -1.83547 -0.676014 0
M  V30 1531 O 143.187 -2.49548 -1.06948 0
M  V30 1532 C 141.643 -3.3231 1.38197 0
M  V30 1533 C 141.251 -3.42329 2.8899 0
M  V30 1534 C 142.995 -4.0772 1.18174 0
M  V30 1535 C 140.902 -4.83684 3.403 0
M  V30 1536 H 139.832 -0.693563 0.29578 0
M  V30 1537 H 142.483 -1.29532 1.29976 0
M  V30 1538 H 140.865 -3.87618 0.810431 0
M  V30 1539 H 142.039 -2.97097 3.52236 0
M  V30 1540 H 140.354 -2.80369 3.07867 0
M  V30 1541 H 142.951 -5.12049 1.5398 0
M  V30 1542 H 143.294 -4.16124 0.12117 0
M  V30 1543 H 143.827 -3.58696 1.71994 0
M  V30 1544 H 140.566 -4.80465 4.45907 0
M  V30 1545 H 140.086 -5.29474 2.81811 0
M  V30 1546 H 141.765 -5.52558 3.36584 0
M  V30 1547 N 141.898 -0.863906 -1.31812 0
M  V30 1548 C 143.309 -0.52522 -1.7916 0
M  V30 1549 C 143.66 0.957518 -1.71248 0
M  V30 1550 O 142.785 1.74734 -1.27659 0
M  V30 1551 C 143.38 -0.9466 -3.25307 0
M  V30 1552 C 141.939 -0.659668 -3.70574 0
M  V30 1553 C 141.086 -1.14126 -2.52726 0
M  V30 1554 H 144.037 -1.05022 -1.1898 0
M  V30 1555 H 144.058 -0.266766 -3.79564 0
M  V30 1556 H 143.57 -2.02579 -3.31034 0
M  V30 1557 H 141.671 0.408416 -3.70355 0
M  V30 1558 H 141.784 -1.23245 -4.62977 0
M  V30 1559 H 140.148 -0.561216 -2.4844 0
M  V30 1560 H 140.931 -2.22775 -2.61201 0
M  V30 1561 N 143.376 1.44774 -0.622745 0
M  V30 1562 C 144.625 2.01334 -0.121397 0
M  V30 1563 C 144.938 1.49505 1.26125 0
M  V30 1564 O 146.144 1.98139 1.85616 0
M  V30 1565 C 144.6 3.59516 -0.166298 0
M  V30 1566 C 144.208 4.20342 -1.54974 0
M  V30 1567 C 145.952 4.23582 0.279021 0
M  V30 1568 C 143.859 5.70721 -1.55021 0
M  V30 1569 H 142.789 0.752851 -0.0416172 0
M  V30 1570 H 145.44 1.66083 -0.780309 0
M  V30 1571 H 143.822 3.92027 0.559557 0
M  V30 1572 H 144.996 3.99381 -2.29851 0
M  V30 1573 H 143.311 3.68529 -1.93843 0
M  V30 1574 H 145.908 5.33868 0.298083 0
M  V30 1575 H 146.251 3.95327 1.30471 0
M  V30 1576 H 146.784 3.95843 -0.394063 0
M  V30 1577 H 143.523 6.03698 -2.55399 0
M  V30 1578 H 143.043 5.93829 -0.844245 0
M  V30 1579 H 144.722 6.34203 -1.28047 0
M  V30 1580 N 144.854 0.36279 1.53368 0
M  V30 1581 C 145.784 -0.476976 2.28576 0
M  V30 1582 C 146.765 -1.08631 1.30894 0
M  V30 1583 O 147.95 -1.10409 1.59761 0
M  V30 1584 C 145.08 -1.61828 3.07293 0
M  V30 1585 C 144.034 -1.13633 4.1264 0
M  V30 1586 C 143.36 -2.36766 4.79423 0
M  V30 1587 C 144.66 -0.223061 5.21823 0
M  V30 1588 H 146.354 0.150474 2.99022 0
M  V30 1589 H 143.9 0.0738103 1.43811 0
M  V30 1590 H 145.853 -2.21237 3.58653 0
M  V30 1591 H 144.577 -2.27292 2.34533 0
M  V30 1592 H 143.236 -0.564945 3.62221 0
M  V30 1593 H 142.884 -3.0068 4.03238 0
M  V30 1594 H 142.584 -2.05192 5.50609 0
M  V30 1595 H 144.108 -2.96865 5.33576 0
M  V30 1596 H 145.522 -0.724545 5.68703 0
M  V30 1597 H 143.919 0.001678 6.001 0
M  V30 1598 H 144.989 0.735553 4.79289 0
M  V30 1599 N 146.332 -1.57332 0.0918853 0
M  V30 1600 C 147.609 -1.85691 -0.614668 0
M  V30 1601 C 147.989 -0.988146 -1.86545 0
M  V30 1602 O 147.337 -0.0597055 -2.28422 0
M  V30 1603 C 147.547 -3.36294 -0.933126 0
M  V30 1604 C 148.895 -4.04275 -1.29796 0
M  V30 1605 O 149.919 -3.41157 -1.02424 0
M  V30 1606 O 148.778 -5.1564 -1.81047 0
M  V30 1607 H 145.872 -0.767802 -0.307261 0
M  V30 1608 H 148.418 -1.69244 0.12434 0
M  V30 1609 H 147.19 -3.91273 -0.0456404 0
M  V30 1610 H 146.813 -3.58076 -1.72822 0
M  V30 1611 N 147.81 0.181792 -1.56548 0
M  V30 1612 C 149.058 0.89832 -1.81038 0
M  V30 1613 C 149.379 1.83232 -0.667164 0
M  V30 1614 O 148.649 1.93372 0.313673 0
M  V30 1615 H 147.229 0.33471 -0.667816 0
M  V30 1616 H 149.891 0.184116 -1.94028 0
M  V30 1617 H 148.987 1.4815 -2.74696 0
M  V30 1618 N 149.288 1.51039 0.449983 0
M  V30 1619 C 150.513 1.6715 1.22783 0
M  V30 1620 C 150.938 0.363081 1.84563 0
M  V30 1621 O 150.296 -0.675433 1.68249 0
M  V30 1622 C 150.344 2.77985 2.29689 0
M  V30 1623 O 149.448 2.40707 3.34864 0
M  V30 1624 H 148.789 0.557746 0.360299 0
M  V30 1625 H 151.319 1.97535 0.533005 0
M  V30 1626 H 151.329 3.01693 2.74673 0
M  V30 1627 H 150.004 3.72935 1.84098 0
M  V30 1628 H 148.581 2.27523 2.95445 0
M  V30 1629 N 150.766 -0.704594 1.40972 0
M  V30 1630 C 152.014 -1.46169 1.39568 0
M  V30 1631 C 152.335 -1.95 0.00253745 0
M  V30 1632 O 151.605 -1.71095 -0.954114 0
M  V30 1633 H 150.185 -0.542326 0.513704 0
M  V30 1634 H 152.847 -0.834553 1.76128 0
M  V30 1635 H 151.943 -2.32922 2.07735 0
M  V30 1636 N 152.244 -1.26651 -0.937939 0
M  V30 1637 C 153.49 -1.13562 -1.68746 0
M  V30 1638 C 153.845 0.317241 -1.89767 0
M  V30 1639 O 153.138 1.22939 -1.46957 0
M  V30 1640 C 153.332 -1.84168 -3.06295 0
M  V30 1641 C 153.161 -3.36171 -2.98696 0
M  V30 1642 C 151.931 -4.05468 -3.01535 0
M  V30 1643 C 154.129 -4.32312 -2.78588 0
M  V30 1644 N 152.111 -5.44118 -2.84269 0
M  V30 1645 C 153.482 -5.58159 -2.69924 0
M  V30 1646 C 155.537 -4.22524 -2.63396 0
M  V30 1647 C 154.24 -6.75335 -2.47618 0
M  V30 1648 C 156.266 -5.39411 -2.42466 0
M  V30 1649 C 155.628 -6.64208 -2.34536 0
M  V30 1650 H 151.727 -0.470361 -0.624728 0
M  V30 1651 H 154.311 -1.59982 -1.10968 0
M  V30 1652 H 152.482 -1.40219 -3.62206 0
M  V30 1653 H 154.214 -1.63674 -3.70126 0
M  V30 1654 H 150.969 -3.56854 -3.11372 0
M  V30 1655 H 151.393 -6.1693 -2.78795 0
M  V30 1656 H 156.035 -3.26771 -2.68292 0
M  V30 1657 H 153.753 -7.71182 -2.41463 0
M  V30 1658 H 157.339 -5.33711 -2.31611 0
M  V30 1659 H 156.219 -7.53129 -2.18555 0
M  V30 1660 N 153.722 1.14298 -1.08507 0
M  V30 1661 C 154.632 2.23027 -0.727753 0
M  V30 1662 C 155.648 1.71952 0.26619 0
M  V30 1663 O 156.824 2.011 0.109882 0
M  V30 1664 C 153.889 3.46403 -0.143541 0
M  V30 1665 C 152.95 4.12413 -1.19223 0
M  V30 1666 C 152.183 5.29899 -0.635798 0
M  V30 1667 O 152.406 5.67796 0.544393 0
M  V30 1668 O 151.34 5.85717 -1.38634 0
M  V30 1669 H 155.166 2.55945 -1.63481 0
M  V30 1670 H 152.751 1.22248 -0.858817 0
M  V30 1671 H 154.633 4.21018 0.179404 0
M  V30 1672 H 153.308 3.15206 0.736659 0
M  V30 1673 H 152.215 3.39667 -1.56772 0
M  V30 1674 H 153.548 4.47718 -2.04474 0
M  V30 1675 N 155.201 0.870884 1.31352 0
M  V30 1676 C 156.448 0.482273 1.96673 0
M  V30 1677 C 156.776 -0.965638 1.68836 0
M  V30 1678 O 156.031 -1.69514 0.977937 0
M  V30 1679 C 156.33 0.687157 3.50732 0
M  V30 1680 C 155.996 2.108 3.9859 0
M  V30 1681 C 154.658 2.49656 4.1137 0
M  V30 1682 C 157.01 3.03459 4.23748 0
M  V30 1683 C 154.338 3.80412 4.46659 0
M  V30 1684 C 156.69 4.3373 4.60501 0
M  V30 1685 C 155.354 4.725 4.71487 0
M  V30 1686 H 154.624 0.176476 0.719679 0
M  V30 1687 H 157.271 1.10405 1.56471 0
M  V30 1688 H 155.576 -0.0177476 3.91796 0
M  V30 1689 H 157.273 0.366284 3.99324 0
M  V30 1690 H 153.863 1.79633 3.8914 0
M  V30 1691 H 158.047 2.74665 4.13368 0
M  V30 1692 H 153.303 4.1021 4.53362 0
M  V30 1693 H 157.477 5.05578 4.78919 0
M  V30 1694 H 155.104 5.73859 4.98588 0
M  V30 1695 N 156.679 -1.44442 0.630414 0
M  V30 1696 C 157.909 -2.06115 0.141465 0
M  V30 1697 C 158.317 -1.47179 -1.1889 0
M  V30 1698 O 157.66 -0.588873 -1.74006 0
M  V30 1699 C 157.722 -3.59467 -0.0484355 0
M  V30 1700 C 157.386 -4.40864 1.20366 0
M  V30 1701 C 158.383 -4.74391 2.12719 0
M  V30 1702 C 156.068 -4.8125 1.43887 0
M  V30 1703 C 158.062 -5.47186 3.26904 0
M  V30 1704 C 155.749 -5.53795 2.5837 0
M  V30 1705 C 156.747 -5.86682 3.49705 0
M  V30 1706 O 156.435 -6.57749 4.62191 0
M  V30 1707 H 156.167 -0.671648 0.0765792 0
M  V30 1708 H 158.721 -1.86312 0.864695 0
M  V30 1709 H 156.951 -3.77758 -0.826803 0
M  V30 1710 H 158.64 -4.02909 -0.491849 0
M  V30 1711 H 159.406 -4.43728 1.95781 0
M  V30 1712 H 155.285 -4.55073 0.736853 0
M  V30 1713 H 158.829 -5.72773 3.98217 0
M  V30 1714 H 154.726 -5.83872 2.75251 0
M  V30 1715 H 155.494 -6.76217 4.61164 0
M  V30 1716 N 158.157 -0.370918 -1.53173 0
M  V30 1717 C 159.067 0.480823 -2.2962 0
M  V30 1718 C 160.083 1.08789 -1.35798 0
M  V30 1719 O 161.259 1.09768 -1.68858 0
M  V30 1720 C 158.324 1.60227 -3.07454 0
M  V30 1721 C 157.385 1.0222 -4.16953 0
M  V30 1722 C 156.618 2.0902 -4.91066 0
M  V30 1723 O 156.841 3.30222 -4.65091 0
M  V30 1724 O 155.775 1.71778 -5.76867 0
M  V30 1725 H 159.601 -0.141421 -3.03371 0
M  V30 1726 H 157.186 -0.135146 -1.48787 0
M  V30 1727 H 159.068 2.25417 -3.56041 0
M  V30 1728 H 157.743 2.20982 -2.36535 0
M  V30 1729 H 156.65 0.334064 -3.72605 0
M  V30 1730 H 157.983 0.459131 -4.90054 0
M  V30 1731 N 159.635 1.57281 -0.100228 0
M  V30 1732 C 160.598 2.13158 0.842398 0
M  V30 1733 C 161.598 1.06202 1.20738 0
M  V30 1734 O 162.788 1.32066 1.13597 0
M  V30 1735 C 159.92 2.65639 2.13655 0
M  V30 1736 H 161.113 2.97766 0.357114 0
M  V30 1737 H 158.666 1.5559 0.148823 0
M  V30 1738 H 159.401 1.84566 2.66657 0
M  V30 1739 H 159.186 3.43844 1.88451 0
M  V30 1740 H 160.676 3.08846 2.81077 0
M  V30 1741 N 161.113 -0.173488 1.56642 0
M  V30 1742 C 162.362 -0.888758 1.81063 0
M  V30 1743 C 162.675 -1.83506 0.67712 0
M  V30 1744 O 163.881 -2.59254 0.806206 0
M  V30 1745 C 162.337 -1.63091 3.20826 0
M  V30 1746 C 161.945 -0.728357 4.4204 0
M  V30 1747 C 163.689 -2.33454 3.54541 0
M  V30 1748 C 161.596 -1.47062 5.72823 0
M  V30 1749 H 160.526 -0.335618 0.675186 0
M  V30 1750 H 163.177 -0.141712 1.82952 0
M  V30 1751 H 161.559 -2.42263 3.13248 0
M  V30 1752 H 162.733 0.0262449 4.60793 0
M  V30 1753 H 161.048 -0.134492 4.16183 0
M  V30 1754 H 163.645 -2.89578 4.49498 0
M  V30 1755 H 163.988 -3.08687 2.79317 0
M  V30 1756 H 164.521 -1.61227 3.63663 0
M  V30 1757 H 161.26 -0.760658 6.51072 0
M  V30 1758 H 160.78 -2.1986 5.58052 0
M  V30 1759 H 162.459 -2.01868 6.14702 0
M  V30 1760 N 162.591 -1.51276 -0.441967 0
M  V30 1761 C 164.007 -1.39349 -0.778083 0
M  V30 1762 C 164.207 -0.472212 -1.95889 0
M  V30 1763 O 163.263 0.0743551 -2.5239 0
M  V30 1764 C 164.576 -2.81292 -1.0628 0
M  V30 1765 C 166.124 -2.9041 -1.16751 0
M  V30 1766 C 166.599 -4.33251 -1.48519 0
M  V30 1767 N 168.09 -4.36336 -1.55453 0
M  V30 1768 C 168.825 -5.43885 -1.81596 0
M  V30 1769 N 168.321 -6.61601 -2.05562 0
M  V30 1770 N 170.114 -5.3136 -1.8334 0
M  V30 1771 H 162.265 -2.09729 0.335774 0
M  V30 1772 H 164.528 -0.943925 0.0878028 0
M  V30 1773 H 164.234 -3.50678 -0.267905 0
M  V30 1774 H 164.108 -3.20334 -1.99163 0
M  V30 1775 H 166.495 -2.21225 -1.95304 0
M  V30 1776 H 166.576 -2.54871 -0.217801 0
M  V30 1777 H 166.22 -5.02984 -0.704958 0
M  V30 1778 H 166.15 -4.66299 -2.44689 0
M  V30 1779 H 168.641 -3.51466 -1.38853 0
M  V30 1780 H 168.954 -7.39361 -2.24867 0
M  V30 1781 H 167.299 -6.64725 -2.02894 0
M  V30 1782 H 170.49 -4.38382 -1.64132 0
M  V30 1783 H 170.663 -6.15258 -2.03377 0
M  V30 1784 N 164.069 0.697108 -1.41344 0
M  V30 1785 C 165.016 1.81106 -1.43071 0
M  V30 1786 C 165.986 1.63632 -0.285275 0
M  V30 1787 O 167.171 1.84504 -0.486091 0
M  V30 1788 C 164.311 3.18975 -1.31715 0
M  V30 1789 C 163.424 3.47892 -2.56115 0
M  V30 1790 C 162.559 4.75367 -2.37064 0
M  V30 1791 C 161.598 4.97247 -3.56948 0
M  V30 1792 N 160.735 6.15947 -3.36977 0
M  V30 1793 H 165.575 1.78965 -2.38276 0
M  V30 1794 H 163.112 0.873975 -1.18322 0
M  V30 1795 H 165.07 3.98615 -1.23133 0
M  V30 1796 H 163.7 3.20297 -0.401183 0
M  V30 1797 H 162.752 2.62669 -2.75153 0
M  V30 1798 H 164.064 3.59962 -3.45295 0
M  V30 1799 H 163.218 5.63059 -2.25941 0
M  V30 1800 H 161.957 4.65541 -1.45338 0
M  V30 1801 H 160.962 4.08004 -3.68527 0
M  V30 1802 H 162.187 5.08934 -4.49626 0
M  V30 1803 H 160.133 6.07336 -2.47949 0
M  V30 1804 H 160.05 6.28777 -4.19732 0
M  V30 1805 H 161.318 7.06377 -3.29623 0
M  V30 1806 N 165.547 1.27147 0.931209 0
M  V30 1807 C 166.495 1.09398 2.05268 0
M  V30 1808 C 167.489 0.0180591 1.6939 0
M  V30 1809 O 168.695 0.17551 1.79142 0
M  V30 1810 H 165.07 0.336986 0.672268 0
M  V30 1811 H 167.041 2.04416 2.17386 0
M  V30 1812 C 165.79 0.75424 3.39421 0
M  V30 1813 H 165.113 1.57404 3.67511 0
M  V30 1814 H 166.553 0.669903 4.18674 0
M  V30 1815 C 165.012 -0.541197 3.32525 0
M  V30 1816 O 165.542 -1.57664 3.69466 0
M  V30 1817 N 163.748 -0.535517 2.85623 0
M  V30 1818 H 163.295 0.307511 2.55758 0
M  V30 1819 H 163.253 -1.40236 2.81392 0
M  V30 1820 N 167.025 -1.13721 1.09112 0
M  V30 1821 C 168.274 -1.84275 0.82009 0
M  V30 1822 C 168.587 -1.84253 -0.656509 0
M  V30 1823 O 169.793 -2.50668 -1.04296 0
M  V30 1824 C 168.249 -3.30825 1.41714 0
M  V30 1825 C 167.857 -3.39244 2.92605 0
M  V30 1826 C 169.601 -4.06443 1.22492 0
M  V30 1827 C 167.508 -4.80047 3.45411 0
M  V30 1828 H 166.438 -0.690387 0.30312 0
M  V30 1829 H 169.089 -1.28146 1.31343 0
M  V30 1830 H 167.471 -3.86737 0.851498 0
M  V30 1831 H 168.645 -2.93344 3.55367 0
M  V30 1832 H 166.96 -2.77088 3.10823 0
M  V30 1833 H 169.557 -5.10387 1.59402 0
M  V30 1834 H 169.9 -4.15972 0.165299 0
M  V30 1835 H 170.433 -3.56852 1.75788 0
M  V30 1836 H 167.172 -4.75709 4.50978 0
M  V30 1837 H 166.692 -5.26455 2.87411 0
M  V30 1838 H 168.371 -5.48957 3.42425 0
M  V30 1839 N 168.503 -0.877838 -1.30888 0
M  V30 1840 C 169.433 -0.35534 -2.3078 0
M  V30 1841 C 170.414 0.557994 -1.60687 0
M  V30 1842 O 171.599 0.473355 -1.88343 0
M  V30 1843 C 168.729 0.437221 -3.44537 0
M  V30 1844 C 167.683 -0.383715 -4.26276 0
M  V30 1845 C 167.009 0.535014 -5.32017 0
M  V30 1846 C 168.309 -1.62201 -4.96476 0
M  V30 1847 H 170.003 -1.19007 -2.74732 0
M  V30 1848 H 167.549 -0.573698 -1.32078 0
M  V30 1849 H 169.502 0.813334 -4.13477 0
M  V30 1850 H 168.226 1.30553 -2.99372 0
M  V30 1851 H 166.885 -0.741874 -3.59015 0
M  V30 1852 H 166.533 1.40083 -4.831 0
M  V30 1853 H 166.233 -0.0104211 -5.87599 0
M  V30 1854 H 167.757 0.907799 -6.03814 0
M  V30 1855 H 169.171 -1.31689 -5.5797 0
M  V30 1856 H 167.568 -2.10711 -5.61891 0
M  V30 1857 H 168.638 -2.37044 -4.23011 0
M  V30 1858 N 169.982 1.44106 -0.638065 0
M  V30 1859 C 170.93 2.3248 0.0748149 0
M  V30 1860 C 171.924 1.47746 0.828702 0
M  V30 1861 O 173.13 1.64049 0.740816 0
M  V30 1862 H 169.505 0.750771 0.0429686 0
M  V30 1863 H 171.476 2.90348 -0.688504 0
M  V30 1864 C 170.225 3.31843 1.03805 0
M  V30 1865 H 169.548 3.97059 0.467375 0
M  V30 1866 H 170.988 3.96345 1.50622 0
M  V30 1867 C 169.447 2.61291 2.1267 0
M  V30 1868 O 169.977 2.41702 3.20847 0
M  V30 1869 N 168.183 2.20915 1.88798 0
M  V30 1870 H 167.73 2.37047 1.00829 0
M  V30 1871 H 167.688 1.74038 2.61836 0
M  V30 1872 N 171.46 0.379036 1.52974 0
M  V30 1873 C 172.392 -0.495963 2.2377 0
M  V30 1874 C 173.405 -1.03517 1.25651 0
M  V30 1875 O 174.594 -0.939249 1.51791 0
M  V30 1876 C 171.694 -1.69894 2.93239 0
M  V30 1877 C 170.867 -1.2889 4.17979 0
M  V30 1878 C 169.926 -2.35543 4.70538 0
M  V30 1879 O 168.952 -1.97375 5.33883 0
M  V30 1880 N 170.154 -3.67318 4.49508 0
M  V30 1881 H 172.919 0.110523 2.99496 0
M  V30 1882 H 170.48 0.204878 1.60598 0
M  V30 1883 H 172.472 -2.40747 3.25304 0
M  V30 1884 H 171.042 -2.212 2.20883 0
M  V30 1885 H 170.262 -0.409676 3.92065 0
M  V30 1886 H 171.55 -0.991443 4.99047 0
M  V30 1887 H 170.948 -4.01095 3.98923 0
M  V30 1888 H 169.505 -4.34235 4.8609 0
M  V30 1889 N 172.938 -1.57226 0.108567 0
M  V30 1890 C 173.886 -2.16002 -0.862885 0
M  V30 1891 C 174.88 -1.10644 -1.28274 0
M  V30 1892 O 176.086 -1.28966 -1.2557 0
M  V30 1893 H 172.461 -0.691148 -0.296342 0
M  V30 1894 H 174.432 -2.96427 -0.342575 0
M  V30 1895 C 173.181 -2.76576 -2.10716 0
M  V30 1896 H 172.504 -3.5734 -1.793 0
M  V30 1897 H 173.944 -3.21253 -2.76717 0
M  V30 1898 C 172.403 -1.73137 -2.89007 0
M  V30 1899 O 172.933 -1.17842 -3.84026 0
M  V30 1900 N 171.139 -1.43317 -2.52801 0
M  V30 1901 H 170.686 -1.88473 -1.75601 0
M  V30 1902 H 170.644 -0.743485 -3.05483 0
M  V30 1903 N 174.416 0.165178 -1.56732 0
M  V30 1904 C 175.832 0.517174 -1.50988 0
M  V30 1905 C 176.032 1.84331 -0.813894 0
M  V30 1906 O 175.088 2.49672 -0.37682 0
M  V30 1907 C 176.401 0.544261 -2.95733 0
M  V30 1908 C 177.949 0.631039 -3.06573 0
M  V30 1909 C 178.424 0.68896 -4.52788 0
M  V30 1910 N 179.915 0.751683 -4.5706 0
M  V30 1911 C 180.65 0.817177 -5.67547 0
M  V30 1912 N 180.146 0.843129 -6.8765 0
M  V30 1913 N 181.939 0.856668 -5.55534 0
M  V30 1914 H 174.09 -0.704318 -2.00382 0
M  V30 1915 H 176.353 -0.254687 -0.913148 0
M  V30 1916 H 176.059 -0.361607 -3.49836 0
M  V30 1917 H 175.933 1.3886 -3.5071 0
M  V30 1918 H 178.32 1.52733 -2.52501 0
M  V30 1919 H 178.401 -0.240095 -2.54671 0
M  V30 1920 H 178.045 -0.2031 -5.07494 0
M  V30 1921 H 177.975 1.57633 -5.02454 0
M  V30 1922 H 180.466 0.739661 -3.70591 0
M  V30 1923 H 180.779 0.894448 -7.67606 0
M  V30 1924 H 179.124 0.811304 -6.90248 0
M  V30 1925 H 182.315 0.833437 -4.60621 0
M  V30 1926 H 182.488 0.904247 -6.4166 0
M  V30 1927 N 175.894 1.51508 0.433938 0
M  V30 1928 C 176.804 1.75917 1.5521 0
M  V30 1929 C 177.82 0.643545 1.61662 0
M  V30 1930 O 178.996 0.926183 1.7884 0
M  V30 1931 C 176.061 1.88213 2.91164 0
M  V30 1932 C 175.122 3.12074 2.94802 0
M  V30 1933 C 174.355 3.23774 4.24271 0
M  V30 1934 O 174.578 2.4133 5.16833 0
M  V30 1935 O 173.512 4.16774 4.34262 0
M  V30 1936 H 177.338 2.70777 1.37527 0
M  V30 1937 H 174.923 1.36051 0.617293 0
M  V30 1938 H 176.805 1.98267 3.71845 0
M  V30 1939 H 175.48 0.965413 3.08968 0
M  V30 1940 H 174.387 3.07497 2.13065 0
M  V30 1941 H 175.72 4.03446 2.81943 0
M  V30 1942 N 177.372 -0.689602 1.41712 0
M  V30 1943 C 178.621 -1.44534 1.40686 0
M  V30 1944 C 178.934 -1.95588 0.0213352 0
M  V30 1945 O 180.14 -2.71271 -0.111534 0
M  V30 1946 C 178.596 -2.61387 2.47396 0
M  V30 1947 C 178.204 -2.17094 3.91885 0
M  V30 1948 C 179.948 -3.38986 2.55517 0
M  V30 1949 C 177.855 -3.3094 4.90135 0
M  V30 1950 H 176.785 -0.542925 0.52321 0
M  V30 1951 H 179.436 -0.748054 1.6756 0
M  V30 1952 H 177.818 -3.33412 2.13664 0
M  V30 1953 H 178.992 -1.52318 4.34897 0
M  V30 1954 H 177.307 -1.52473 3.8748 0
M  V30 1955 H 179.904 -4.23747 3.26102 0
M  V30 1956 H 180.247 -3.84578 1.59391 0
M  V30 1957 H 180.78 -2.74021 2.8837 0
M  V30 1958 H 177.519 -2.90355 5.87685 0
M  V30 1959 H 177.039 -3.94546 4.51767 0
M  V30 1960 H 178.718 -3.9663 5.11169 0
M  V30 1961 N 178.85 -1.27639 -0.924453 0
M  V30 1962 C 180.127 -1.04887 -1.651 0
M  V30 1963 C 180.507 0.415327 -2.06974 0
M  V30 1964 O 179.855 1.39923 -1.80648 0
M  V30 1965 C 180.065 -2.01348 -2.85061 0
M  V30 1966 C 181.413 -2.30899 -3.56329 0
M  V30 1967 O 182.437 -1.99348 -2.95193 0
M  V30 1968 O 181.296 -2.84699 -4.66485 0
M  V30 1969 H 178.39 -0.400083 -0.723784 0
M  V30 1970 H 180.936 -1.38916 -0.974703 0
M  V30 1971 H 179.708 -3.0008 -2.51133 0
M  V30 1972 H 179.331 -1.679 -3.6041 0
M  V30 1973 N 180.328 1.1314 -1.09713 0
M  V30 1974 C 181.558 1.88048 -0.855656 0
M  V30 1975 C 181.966 1.79537 0.596919 0
M  V30 1976 O 181.309 1.16196 1.42282 0
M  V30 1977 C 181.371 3.38314 -1.21589 0
M  V30 1978 C 181.035 3.70605 -2.67397 0
M  V30 1979 C 182.032 3.69596 -3.65643 0
M  V30 1980 C 179.717 4.0017 -3.03593 0
M  V30 1981 C 181.711 3.977 -4.9811 0
M  V30 1982 C 179.398 4.27935 -4.36251 0
M  V30 1983 C 180.396 4.26685 -5.33318 0
M  V30 1984 O 180.084 4.53767 -6.63589 0
M  V30 1985 H 179.816 0.60208 -0.307368 0
M  V30 1986 H 182.37 1.44128 -1.46343 0
M  V30 1987 H 180.6 3.82752 -0.551177 0
M  V30 1988 H 182.289 3.94552 -0.953083 0
M  V30 1989 H 183.055 3.46826 -3.39023 0
M  V30 1990 H 178.934 4.00289 -2.2867 0
M  V30 1991 H 182.478 3.9664 -5.73866 0
M  V30 1992 H 178.375 4.50178 -4.62613 0
M  V30 1993 H 179.143 4.71422 -6.69107 0
M  V30 1994 N 181.806 0.884767 1.30421 0
M  V30 1995 C 183.053 0.503105 1.96151 0
M  V30 1996 C 183.381 -0.947676 1.69851 0
M  V30 1997 O 182.636 -1.68467 0.995861 0
M  V30 1998 C 182.935 0.724318 3.49983 0
M  V30 1999 C 182.601 2.15015 3.96332 0
M  V30 2000 C 181.263 2.54005 4.08699 0
M  V30 2001 C 183.615 3.07936 4.20505 0
M  V30 2002 C 180.943 3.85128 4.42599 0
M  V30 2003 C 183.295 4.3859 4.55874 0
M  V30 2004 C 181.959 4.77474 4.66449 0
M  V30 2005 H 181.229 0.184099 0.717766 0
M  V30 2006 H 183.876 1.12058 1.55291 0
M  V30 2007 H 182.181 0.0238086 3.91793 0
M  V30 2008 H 183.878 0.408617 3.98913 0
M  V30 2009 H 180.468 1.8375 3.87213 0
M  V30 2010 H 184.652 2.79033 4.10431 0
M  V30 2011 H 179.908 4.14996 4.48986 0
M  V30 2012 H 184.082 5.10629 4.7353 0
M  V30 2013 H 181.709 5.79115 4.92473 0
M  V30 2014 N 183.284 -1.43765 0.645699 0
M  V30 2015 C 184.53 -2.02197 0.156271 0
M  V30 2016 C 184.863 -1.50776 -1.22393 0
M  V30 2017 O 184.138 -0.697771 -1.81553 0
M  V30 2018 C 184.421 -3.59749 0.158872 0
M  V30 2019 C 184.274 -4.21419 1.57245 0
M  V30 2020 C 185.593 -4.37149 -0.50879 0
M  V30 2021 H 182.712 -0.734694 0.0582602 0
M  V30 2022 H 185.354 -1.71157 0.824951 0
M  V30 2023 H 183.504 -3.86325 -0.410525 0
M  V30 2024 H 185.176 -4.059 2.19186 0
M  V30 2025 H 183.419 -3.78356 2.122 0
M  V30 2026 H 184.09 -5.30482 1.52619 0
M  V30 2027 H 186.566 -4.16093 -0.024412 0
M  V30 2028 H 185.442 -5.4683 -0.476213 0
M  V30 2029 H 185.703 -4.12839 -1.58165 0
M  V30 2030 N 184.763 -0.387143 -1.52771 0
M  V30 2031 C 186.009 0.196025 -2.0185 0
M  V30 2032 C 186.342 1.46641 -1.27319 0
M  V30 2033 O 185.617 1.90889 -0.373032 0
M  V30 2034 C 185.9 0.466136 -3.5707 0
M  V30 2035 C 185.753 -0.819385 -4.42274 0
M  V30 2036 C 187.072 1.25768 -4.21747 0
M  V30 2037 H 184.191 0.0697708 -0.73369 0
M  V30 2038 H 186.833 -0.516286 -1.82851 0
M  V30 2039 H 184.983 1.07293 -3.7339 0
M  V30 2040 H 186.655 -1.4563 -4.37709 0
M  V30 2041 H 184.898 -1.43517 -4.09372 0
M  V30 2042 H 185.569 -0.585065 -5.48891 0
M  V30 2043 H 188.045 0.744167 -4.09391 0
M  V30 2044 H 186.921 1.41541 -5.30337 0
M  V30 2045 H 187.182 2.27228 -3.79236 0
M  V30 2046 N 186.241 1.57166 -0.116904 0
M  V30 2047 C 187.151 2.18745 0.847812 0
M  V30 2048 C 188.167 1.163 1.29423 0
M  V30 2049 O 189.343 1.48761 1.35765 0
M  V30 2050 C 186.408 2.77307 2.0809 0
M  V30 2051 C 185.469 3.94781 1.68661 0
M  V30 2052 C 184.702 4.50541 2.86091 0
M  V30 2053 O 184.925 4.05202 4.01456 0
M  V30 2054 O 183.859 5.41256 2.63298 0
M  V30 2055 H 187.685 3.01632 0.353778 0
M  V30 2056 H 185.27 1.49005 0.108599 0
M  V30 2057 H 187.152 3.14647 2.80313 0
M  V30 2058 H 185.827 1.97452 2.56504 0
M  V30 2059 H 184.734 3.62214 0.935518 0
M  V30 2060 H 186.067 4.76065 1.24991 0
M  V30 2061 N 187.719 -0.156864 1.56817 0
M  V30 2062 C 188.629 -1.2136 2.00771 0
M  V30 2063 C 189.645 -1.47598 0.921459 0
M  V30 2064 O 190.821 -1.59462 1.2302 0
M  V30 2065 C 187.886 -2.52943 2.37109 0
M  V30 2066 C 186.947 -2.34439 3.59634 0
M  V30 2067 C 186.18 -3.59748 3.94229 0
M  V30 2068 O 186.403 -4.65526 3.29609 0
M  V30 2069 O 185.337 -3.52998 4.8752 0
M  V30 2070 H 189.163 -0.870468 2.90958 0
M  V30 2071 H 186.748 -0.36484 1.44877 0
M  V30 2072 H 188.63 -3.30538 2.61386 0
M  V30 2073 H 187.305 -2.86806 1.5008 0
M  V30 2074 H 186.212 -1.54828 3.40557 0
M  V30 2075 H 187.545 -2.05496 4.4725 0
M  V30 2076 N 189.197 -1.51736 -0.425897 0
M  V30 2077 C 190.608 -1.5732 -1.00536 0
M  V30 2078 C 190.959 -0.403537 -1.92005 0
M  V30 2079 O 190.084 0.478256 -2.11049 0
M  V30 2080 C 190.679 -2.85119 -1.8301 0
M  V30 2081 C 189.238 -2.93236 -2.35987 0
M  V30 2082 C 188.385 -2.52098 -1.15508 0
M  V30 2083 H 191.336 -1.57348 -0.206739 0
M  V30 2084 H 191.357 -2.69526 -2.68581 0
M  V30 2085 H 190.869 -3.7023 -1.16411 0
M  V30 2086 H 188.97 -2.12581 -3.06007 0
M  V30 2087 H 189.083 -3.9713 -2.68001 0
M  V30 2088 H 187.447 -2.05558 -1.50393 0
M  V30 2089 H 188.23 -3.39565 -0.505014 0
M  V30 2090 N 190.675 0.682077 -1.42076 0
M  V30 2091 C 191.924 1.43786 -1.41451 0
M  V30 2092 C 192.237 1.95574 -0.0317074 0
M  V30 2093 O 193.443 2.71326 0.0971462 0
M  V30 2094 C 191.899 2.60071 -2.48779 0
M  V30 2095 C 191.507 2.15013 -3.93031 0
M  V30 2096 C 193.251 3.37626 -2.57311 0
M  V30 2097 C 191.158 3.28336 -4.91883 0
M  V30 2098 H 190.088 0.540143 -0.526082 0
M  V30 2099 H 192.739 0.739157 -1.67955 0
M  V30 2100 H 191.121 3.32275 -2.15429 0
M  V30 2101 H 192.295 1.5001 -4.35699 0
M  V30 2102 H 190.61 1.50416 -3.88284 0
M  V30 2103 H 193.207 4.22012 -3.28345 0
M  V30 2104 H 193.55 3.83727 -1.61429 0
M  V30 2105 H 194.083 2.72488 -2.89819 0
M  V30 2106 H 190.822 2.87234 -5.89217 0
M  V30 2107 H 190.342 3.92145 -4.53853 0
M  V30 2108 H 192.021 3.93913 -5.13265 0
M  V30 2109 N 192.153 1.28127 0.917671 0
M  V30 2110 C 193.402 1.14432 1.66097 0
M  V30 2111 C 193.715 -0.307247 1.93172 0
M  V30 2112 O 194.921 -0.565259 2.65551 0
M  V30 2113 C 193.377 2.00015 2.99202 0
M  V30 2114 C 192.985 3.49889 2.79789 0
M  V30 2115 C 194.729 1.94996 3.77064 0
M  V30 2116 C 192.636 4.27636 4.08511 0
M  V30 2117 H 191.566 0.424662 0.62304 0
M  V30 2118 H 194.217 1.52628 1.01868 0
M  V30 2119 H 192.599 1.54672 3.64544 0
M  V30 2120 H 193.773 4.03162 2.23152 0
M  V30 2121 H 192.088 3.56392 2.15345 0
M  V30 2122 H 194.685 2.50354 4.72469 0
M  V30 2123 H 195.028 0.925819 4.05875 0
M  V30 2124 H 195.561 2.38287 3.18534 0
M  V30 2125 H 192.3 5.30615 3.84874 0
M  V30 2126 H 191.82 3.79137 4.64774 0
M  V30 2127 H 193.499 4.37346 4.76799 0
M  V30 2128 N 193.631 -1.12557 1.10312 0
M  V30 2129 C 194.877 -1.84311 0.846011 0
M  V30 2130 C 195.21 -1.83805 -0.626859 0
M  V30 2131 O 194.485 -1.28268 -1.46211 0
M  V30 2132 C 194.768 -3.32048 1.39341 0
M  V30 2133 C 194.621 -3.41016 2.93305 0
M  V30 2134 C 195.94 -4.27764 1.03468 0
M  V30 2135 H 193.059 -0.669192 0.30879 0
M  V30 2136 H 195.701 -1.32057 1.36605 0
M  V30 2137 H 193.851 -3.76678 0.951087 0
M  V30 2138 H 195.523 -3.05031 3.46055 0
M  V30 2139 H 193.766 -2.81603 3.29973 0
M  V30 2140 H 194.437 -4.44948 3.26689 0
M  V30 2141 H 196.913 -3.91253 1.41633 0
M  V30 2142 H 195.789 -5.29549 1.44463 0
M  V30 2143 H 196.05 -4.42064 -0.0560404 0
M  V30 2144 N 195.109 -0.891671 -1.2995 0
M  V30 2145 C 196.019 -0.367691 -2.31701 0
M  V30 2146 C 197.035 0.533486 -1.6562 0
M  V30 2147 O 198.211 0.424997 -1.96865 0
M  V30 2148 C 195.276 0.403406 -3.44345 0
M  V30 2149 C 194.337 -0.528328 -4.26037 0
M  V30 2150 C 193.57 0.206063 -5.33302 0
M  V30 2151 O 193.793 1.43119 -5.52153 0
M  V30 2152 O 192.727 -0.447281 -6.00236 0
M  V30 2153 H 196.553 -1.21163 -2.78484 0
M  V30 2154 H 194.138 -0.655725 -1.34241 0
M  V30 2155 H 196.02 0.839753 -4.12948 0
M  V30 2156 H 194.695 1.22354 -2.99685 0
M  V30 2157 H 193.602 -1.01362 -3.60106 0
M  V30 2158 H 194.935 -1.31465 -4.74318 0
M  V30 2159 N 196.587 1.43421 -0.653314 0
M  V30 2160 C 197.864 1.95361 -0.0966581 0
M  V30 2161 C 198.244 1.59461 1.38331 0
M  V30 2162 O 197.592 0.879777 2.10884 0
M  V30 2163 C 197.802 3.47311 -0.342988 0
M  V30 2164 C 199.15 4.23875 -0.24798 0
M  V30 2165 O 200.174 3.55133 -0.275553 0
M  V30 2166 O 199.033 5.4623 -0.171771 0
M  V30 2167 H 196.127 0.826945 0.00956291 0
M  V30 2168 H 198.673 1.5336 -0.726558 0
M  V30 2169 H 197.445 3.66569 -1.36906 0
M  V30 2170 H 197.068 3.9631 0.319975 0
M  V30 2171 N 198.065 0.39524 1.52563 0
M  V30 2172 C 198.975 -0.444232 2.30356 0
M  V30 2173 C 199.991 -1.06615 1.37511 0
M  V30 2174 O 201.167 -1.07067 1.70583 0
M  V30 2175 C 198.232 -1.55315 3.09964 0
M  V30 2176 C 197.293 -0.955734 4.18526 0
M  V30 2177 C 196.526 -2.01181 4.9433 0
M  V30 2178 O 196.749 -3.22781 4.70285 0
M  V30 2179 O 195.683 -1.62579 5.79527 0
M  V30 2180 H 199.509 0.189667 3.03107 0
M  V30 2181 H 197.094 0.1588 1.48554 0
M  V30 2182 H 198.976 -2.19724 3.59582 0
M  V30 2183 H 197.651 -2.17191 2.4002 0
M  V30 2184 H 196.558 -0.274743 3.7309 0
M  V30 2185 H 197.891 -0.381109 4.90722 0
M  V30 2186 N 199.544 -1.57102 0.125237 0
M  V30 2187 C 200.792 -1.95021 -0.530198 0
M  V30 2188 C 201.113 -1.00982 -1.66816 0
M  V30 2189 O 200.383 -0.0672693 -1.95784 0
M  V30 2190 H 198.963 -0.720046 -0.198853 0
M  V30 2191 H 201.625 -1.93916 0.19564 0
M  V30 2192 H 200.721 -2.98211 -0.920681 0
M  V30 2193 N 201.022 0.148545 -1.56898 0
M  V30 2194 C 202.438 0.501131 -1.51528 0
M  V30 2195 C 202.638 1.83458 -0.833399 0
M  V30 2196 O 201.694 2.49259 -0.40328 0
M  V30 2197 C 203.007 0.512864 -2.96294 0
M  V30 2198 C 204.555 0.598487 -3.07225 0
M  V30 2199 C 205.03 0.640897 -4.53494 0
M  V30 2200 N 206.521 0.703163 -4.57832 0
M  V30 2201 C 207.256 0.756935 -5.68382 0
M  V30 2202 N 206.752 0.770147 -6.88506 0
M  V30 2203 N 208.545 0.797698 -5.56411 0
M  V30 2204 H 200.696 -0.725532 -1.99624 0
M  V30 2205 H 202.959 -0.264358 -0.910395 0
M  V30 2206 H 202.665 -0.398691 -3.49433 0
M  V30 2207 H 202.539 1.35133 -3.52163 0
M  V30 2208 H 204.926 1.50046 -2.54106 0
M  V30 2209 H 205.007 -0.267093 -2.54402 0
M  V30 2210 H 204.651 -0.256915 -5.0725 0
M  V30 2211 H 204.581 1.52295 -5.04097 0
M  V30 2212 H 207.072 0.700314 -3.71354 0
M  V30 2213 H 207.385 0.812983 -7.68512 0
M  V30 2214 H 205.73 0.738049 -6.9107 0
M  V30 2215 H 208.921 0.784535 -4.61479 0
M  V30 2216 H 209.094 0.83614 -6.42583 0
M  V30 2217 N 202.5 1.5196 0.417844 0
M  V30 2218 C 203.43 1.77634 1.51554 0
M  V30 2219 C 204.411 0.626918 1.58126 0
M  V30 2220 O 205.596 0.871632 1.7354 0
M  V30 2221 C 202.726 1.91911 2.8946 0
M  V30 2222 C 201.68 3.07463 2.97743 0
M  V30 2223 C 201.006 3.06951 4.37819 0
M  V30 2224 C 202.306 4.47082 2.70027 0
M  V30 2225 H 204 2.6955 1.3032 0
M  V30 2226 H 201.546 1.29706 0.625492 0
M  V30 2227 H 203.499 2.08455 3.6623 0
M  V30 2228 H 202.223 0.966598 3.11969 0
M  V30 2229 H 200.882 2.90656 2.23416 0
M  V30 2230 H 200.53 2.09438 4.57323 0
M  V30 2231 H 200.23 3.84556 4.44286 0
M  V30 2232 H 201.754 3.25613 5.16535 0
M  V30 2233 H 203.168 4.6414 3.36522 0
M  V30 2234 H 201.565 5.2654 2.87881 0
M  V30 2235 H 202.635 4.55777 1.65514 0
M  V30 2236 N 203.978 -0.674533 1.42435 0
M  V30 2237 C 205.227 -1.43034 1.42212 0
M  V30 2238 C 205.54 -1.95555 0.0420788 0
M  V30 2239 O 206.746 -2.71374 -0.0827558 0
M  V30 2240 C 205.202 -2.58748 2.50155 0
M  V30 2241 C 204.81 -2.12925 3.94166 0
M  V30 2242 C 206.554 -3.36257 2.59098 0
M  V30 2243 C 204.461 -3.25723 4.93618 0
M  V30 2244 H 203.391 -0.537345 0.528939 0
M  V30 2245 H 206.042 -0.73024 1.68344 0
M  V30 2246 H 204.424 -3.31128 2.17188 0
M  V30 2247 H 205.598 -1.47697 4.36488 0
M  V30 2248 H 203.913 -1.48354 3.89076 0
M  V30 2249 H 206.51 -4.20264 3.30578 0
M  V30 2250 H 206.853 -3.82866 1.63461 0
M  V30 2251 H 207.386 -2.70947 2.9126 0
M  V30 2252 H 204.125 -2.84105 5.90732 0
M  V30 2253 H 203.645 -3.89732 4.55926 0
M  V30 2254 H 205.324 -3.91186 5.15347 0
M  V30 2255 N 205.456 -1.28612 -0.910864 0
M  V30 2256 C 206.403 -1.12786 -2.01365 0
M  V30 2257 C 207.373 -0.024201 -1.66082 0
M  V30 2258 O 208.558 -0.189667 -1.89855 0
M  V30 2259 C 205.698 -0.798743 -3.35729 0
M  V30 2260 C 204.811 -1.98173 -3.83864 0
M  V30 2261 C 203.946 -1.59298 -5.06752 0
M  V30 2262 C 202.985 -2.74245 -5.47226 0
M  V30 2263 N 202.122 -2.35842 -6.61304 0
M  V30 2264 H 206.962 -2.07142 -2.14234 0
M  V30 2265 H 204.499 -1.03093 -1.0493 0
M  V30 2266 H 206.457 -0.588662 -4.13026 0
M  V30 2267 H 205.087 0.10789 -3.2262 0
M  V30 2268 H 204.139 -2.30386 -3.02699 0
M  V30 2269 H 205.451 -2.84343 -4.09818 0
M  V30 2270 H 204.605 -1.34513 -5.916 0
M  V30 2271 H 203.344 -0.702618 -4.82612 0
M  V30 2272 H 202.349 -2.99725 -4.60918 0
M  V30 2273 H 203.574 -3.63928 -5.73353 0
M  V30 2274 H 201.52 -1.49279 -6.38789 0
M  V30 2275 H 201.437 -3.15546 -6.86998 0
M  V30 2276 H 202.705 -2.14348 -7.4945 0
M  V30 2277 N 206.934 1.1197 -1.10907 0
M  V30 2278 C 207.897 2.16031 -0.765707 0
M  V30 2279 C 208.897 1.59393 0.212235 0
M  V30 2280 O 210.087 1.74196 -0.0115441 0
M  V30 2281 C 207.219 3.40632 -0.135053 0
M  V30 2282 H 208.412 2.47919 -1.68748 0
M  V30 2283 H 205.965 1.27061 -0.910226 0
M  V30 2284 H 206.7 3.14348 0.797218 0
M  V30 2285 H 206.485 3.8302 -0.838937 0
M  V30 2286 H 207.975 4.17505 0.0892469 0
M  V30 2287 N 208.412 0.89855 1.29475 0
M  V30 2288 C 209.322 0.379974 2.31502 0
M  V30 2289 C 210.338 -0.524695 1.659 0
M  V30 2290 O 211.514 -0.414551 1.97087 0
M  V30 2291 C 208.579 -0.385138 3.44554 0
M  V30 2292 C 207.64 0.550914 4.2575 0
M  V30 2293 C 206.873 -0.177778 5.33404 0
M  V30 2294 O 207.096 -1.40189 5.52904 0
M  V30 2295 O 206.03 0.479106 5.9999 0
M  V30 2296 H 209.856 1.22639 2.77837 0
M  V30 2297 H 207.441 0.662834 1.33891 0
M  V30 2298 H 209.323 -0.817841 4.13388 0
M  V30 2299 H 207.998 -1.20763 3.0033 0
M  V30 2300 H 206.905 1.03271 3.59564 0
M  V30 2301 H 208.238 1.33979 4.73614 0
M  V30 2302 N 209.89 -1.43072 0.660911 0
M  V30 2303 C 211.301 -1.84932 0.256348 0
M  V30 2304 C 211.652 -1.55325 -1.19868 0
M  V30 2305 O 210.777 -1.00607 -1.91591 0
M  V30 2306 C 211.372 -3.35684 0.458475 0
M  V30 2307 C 209.931 -3.76245 0.108161 0
M  V30 2308 C 209.078 -2.66749 0.757641 0
M  V30 2309 H 212.029 -1.33116 0.864051 0
M  V30 2310 H 212.05 -3.79365 -0.293683 0
M  V30 2311 H 211.562 -3.572 1.51755 0
M  V30 2312 H 209.663 -3.60338 -0.948014 0
M  V30 2313 H 209.776 -4.76058 0.538992 0
M  V30 2314 H 208.14 -2.53989 0.190185 0
M  V30 2315 H 208.923 -2.91092 1.81989 0
M  V30 2316 N 211.368 -0.403325 -1.52352 0
M  V30 2317 C 212.593 0.176499 -2.06648 0
M  V30 2318 C 213.018 1.38577 -1.27193 0
M  V30 2319 O 212.376 1.7879 -0.300637 0
M  V30 2320 C 212.424 0.511061 -3.5696 0
M  V30 2321 O 211.528 1.60294 -3.79973 0
M  V30 2322 H 210.869 0.0167337 -0.663789 0
M  V30 2323 H 213.399 -0.574848 -1.96359 0
M  V30 2324 H 213.409 0.771362 -4.00642 0
M  V30 2325 H 212.084 -0.37296 -4.14224 0
M  V30 2326 H 210.661 1.33526 -3.48174 0
M  V30 2327 N 212.846 1.57033 -0.133567 0
M  V30 2328 C 214.123 1.87256 0.56522 0
M  V30 2329 C 214.503 1.03726 1.83859 0
M  V30 2330 O 213.851 0.120247 2.28183 0
M  V30 2331 C 214.061 3.3865 0.843636 0
M  V30 2332 C 215.409 4.07574 1.19032 0
M  V30 2333 O 216.433 3.43752 0.933429 0
M  V30 2334 O 215.292 5.20259 1.67312 0
M  V30 2335 H 212.386 0.775678 0.286796 0
M  V30 2336 H 214.932 1.68855 -0.169168 0
M  V30 2337 H 213.704 3.91257 -0.0581149 0
M  V30 2338 H 213.327 3.62532 1.63268 0
M  V30 2339 N 214.325 -0.140222 1.56975 0
M  V30 2340 C 215.553 -0.866437 1.87884 0
M  V30 2341 C 215.968 -1.74428 0.722517 0
M  V30 2342 O 215.325 -1.79891 -0.30749 0
M  V30 2343 C 215.376 -1.71753 3.18093 0
M  V30 2344 O 215.097 -0.875056 4.29272 0
M  V30 2345 C 216.598 -2.55074 3.62563 0
M  V30 2346 H 213.818 -0.25019 0.622612 0
M  V30 2347 H 216.362 -0.130977 2.0408 0
M  V30 2348 H 214.517 -2.40598 3.03631 0
M  V30 2349 H 214.931 -1.46002 5.03769 0
M  V30 2350 H 216.405 -3.10356 4.5649 0
M  V30 2351 H 216.882 -3.31434 2.88181 0
M  V30 2352 H 217.488 -1.91509 3.79743 0
M  V30 2353 N 215.803 -1.52179 -0.40978 0
M  V30 2354 C 216.733 -1.78435 -1.5061 0
M  V30 2355 C 217.714 -0.635295 -1.57791 0
M  V30 2356 O 218.899 -0.880823 -1.73076 0
M  V30 2357 C 216.029 -1.93444 -2.88439 0
M  V30 2358 C 214.983 -3.09038 -2.96108 0
M  V30 2359 C 214.309 -3.09268 -4.36185 0
M  V30 2360 C 215.609 -4.48508 -2.67652 0
M  V30 2361 H 217.303 -2.70237 -1.28889 0
M  V30 2362 H 214.849 -1.30036 -0.618605 0
M  V30 2363 H 216.802 -2.10394 -3.65119 0
M  V30 2364 H 215.526 -0.983129 -3.11452 0
M  V30 2365 H 214.185 -2.91837 -2.21872 0
M  V30 2366 H 213.833 -2.11861 -4.56206 0
M  V30 2367 H 213.533 -3.86907 -4.42241 0
M  V30 2368 H 215.057 -3.28348 -5.14801 0
M  V30 2369 H 216.471 -4.65918 -3.34056 0
M  V30 2370 H 214.868 -5.28059 -2.85085 0
M  V30 2371 H 215.938 -4.56649 -1.63095 0
M  V30 2372 N 217.281 0.66697 -1.42791 0
M  V30 2373 C 218.191 1.80962 -1.49299 0
M  V30 2374 C 219.207 1.69775 -0.381108 0
M  V30 2375 O 220.383 1.91188 -0.633188 0
M  V30 2376 C 217.448 3.17156 -1.40045 0
M  V30 2377 C 216.509 3.40242 -2.6179 0
M  V30 2378 C 215.742 4.69939 -2.52969 0
M  V30 2379 O 215.965 5.48372 -1.56985 0
M  V30 2380 O 214.899 4.94441 -3.43237 0
M  V30 2381 H 218.725 1.78427 -2.45759 0
M  V30 2382 H 216.31 0.823713 -1.24641 0
M  V30 2383 H 218.192 3.98413 -1.37276 0
M  V30 2384 H 216.867 3.20312 -0.467138 0
M  V30 2385 H 215.774 2.58802 -2.70134 0
M  V30 2386 H 217.107 3.41923 -3.54047 0
M  V30 2387 N 218.759 1.29093 0.90403 0
M  V30 2388 C 220.005 1.16986 1.65656 0
M  V30 2389 C 220.338 -0.278925 1.92186 0
M  V30 2390 O 219.613 -1.2019 1.5292 0
M  V30 2391 C 219.896 1.97908 3.0084 0
M  V30 2392 C 219.749 3.50903 2.81403 0
M  V30 2393 C 221.068 1.80208 4.01513 0
M  V30 2394 H 218.187 0.426346 0.601164 0
M  V30 2395 H 220.829 1.58518 1.04747 0
M  V30 2396 H 218.979 1.62616 3.52829 0
M  V30 2397 H 220.651 3.96153 2.36348 0
M  V30 2398 H 218.894 3.76045 2.1627 0
M  V30 2399 H 219.565 4.02791 3.77443 0
M  V30 2400 H 222.041 2.11025 3.58619 0
M  V30 2401 H 220.917 2.39184 4.94047 0
M  V30 2402 H 221.178 0.756119 4.35586 0
M  V30 2403 N 220.237 -1.11381 1.11499 0
M  V30 2404 C 221.465 -1.86934 0.88675 0
M  V30 2405 C 221.88 -1.80195 -0.563476 0
M  V30 2406 O 221.237 -1.18367 -1.38908 0
M  V30 2407 C 221.288 -3.35722 1.34064 0
M  V30 2408 O 221.009 -3.4232 2.73401 0
M  V30 2409 C 222.51 -4.2818 1.14791 0
M  V30 2410 H 219.73 -0.591117 0.317523 0
M  V30 2411 H 222.274 -1.40865 1.48248 0
M  V30 2412 H 220.429 -3.79294 0.788355 0
M  V30 2413 H 220.843 -4.34971 2.93087 0
M  V30 2414 H 222.317 -5.30817 1.5145 0
M  V30 2415 H 222.794 -4.39113 0.0875279 0
M  V30 2416 H 223.4 -3.90402 1.68721 0
M  V30 2417 N 221.715 -0.905404 -1.28997 0
M  V30 2418 C 222.945 -0.549049 -1.99171 0
M  V30 2419 C 223.353 0.87203 -1.67906 0
M  V30 2420 O 222.696 1.58796 -0.923561 0
M  V30 2421 C 222.758 -0.668306 -3.53234 0
M  V30 2422 C 222.422 -2.0574 -4.08069 0
M  V30 2423 C 223.419 -3.0292 -4.22534 0
M  V30 2424 C 221.104 -2.36833 -4.42962 0
M  V30 2425 C 223.098 -4.29314 -4.71135 0
M  V30 2426 C 220.785 -3.63467 -4.91258 0
M  V30 2427 C 221.783 -4.59522 -5.053 0
M  V30 2428 O 221.471 -5.83907 -5.52546 0
M  V30 2429 H 221.203 -0.208784 -0.64295 0
M  V30 2430 H 223.757 -1.21836 -1.65363 0
M  V30 2431 H 221.987 0.0580547 -3.86656 0
M  V30 2432 H 223.676 -0.320273 -4.04634 0
M  V30 2433 H 224.442 -2.80216 -3.95859 0
M  V30 2434 H 220.321 -1.62824 -4.31288 0
M  V30 2435 H 223.865 -5.04293 -4.8201 0
M  V30 2436 H 219.762 -3.86 -5.17372 0
M  V30 2437 H 220.53 -5.86578 -5.70849 0
M  V30 2438 N 223.193 1.4272 -0.668489 0
M  V30 2439 C 224.103 2.34596 0.0139753 0
M  V30 2440 C 225.119 1.5474 0.795703 0
M  V30 2441 O 226.295 1.87334 0.739466 0
M  V30 2442 C 223.36 3.33202 0.957982 0
M  V30 2443 C 222.421 4.28957 0.17149 0
M  V30 2444 C 221.654 5.22853 1.07053 0
M  V30 2445 O 221.877 5.21531 2.31001 0
M  V30 2446 O 220.811 5.9952 0.534727 0
M  V30 2447 H 224.637 2.9448 -0.742661 0
M  V30 2448 H 222.222 1.43117 -0.428705 0
M  V30 2449 H 224.104 3.93796 1.50008 0
M  V30 2450 H 222.779 2.758 1.69458 0
M  V30 2451 H 221.686 3.71796 -0.414558 0
M  V30 2452 H 223.019 4.89383 -0.52586 0
M  V30 2453 N 224.671 0.411399 1.52136 0
M  V30 2454 C 225.919 -0.163322 2.01439 0
M  V30 2455 C 226.24 -1.45453 1.29879 0
M  V30 2456 O 225.51 -1.91225 0.4254 0
M  V30 2457 H 224.09 -0.0633447 0.744309 0
M  V30 2458 H 226.752 0.548161 1.87033 0
M  V30 2459 H 225.848 -0.357817 3.10042 0
M  V30 2460 N 226.149 -1.5696 0.141893 0
M  V30 2461 C 227.059 -2.20066 -0.812905 0
M  V30 2462 C 228.075 -1.18344 -1.27557 0
M  V30 2463 O 229.251 -1.50902 -1.33381 0
M  V30 2464 C 226.316 -2.80583 -2.03652 0
M  V30 2465 C 225.377 -3.97414 -1.62359 0
M  V30 2466 C 224.61 -4.55036 -2.78887 0
M  V30 2467 O 224.833 -4.11538 -3.94959 0
M  V30 2468 O 223.767 -5.45376 -2.54653 0
M  V30 2469 H 227.593 -3.02157 -0.305746 0
M  V30 2470 H 225.178 -1.49159 -0.0848799 0
M  V30 2471 H 227.06 -3.19067 -2.75272 0
M  V30 2472 H 225.735 -2.01508 -2.5333 0
M  V30 2473 H 224.642 -3.63656 -0.877775 0
M  V30 2474 H 225.975 -4.77994 -1.17401 0
M  V30 2475 N 227.627 0.131896 -1.57047 0
M  V30 2476 C 228.874 0.841932 -1.84168 0
M  V30 2477 C 229.202 1.8048 -0.725066 0
M  V30 2478 O 228.457 1.93618 0.284692 0
M  V30 2479 C 228.756 1.63703 -3.17704 0
M  V30 2480 C 228.422 0.81961 -4.43388 0
M  V30 2481 C 227.084 0.594148 -4.77518 0
M  V30 2482 C 229.436 0.248977 -5.20605 0
M  V30 2483 C 226.764 -0.212409 -5.86315 0
M  V30 2484 C 229.116 -0.544701 -6.30251 0
M  V30 2485 C 227.78 -0.780599 -6.6292 0
M  V30 2486 H 227.05 0.308085 -0.673917 0
M  V30 2487 H 229.697 0.104867 -1.91213 0
M  V30 2488 H 228.002 2.44464 -3.06177 0
M  V30 2489 H 229.699 2.19015 -3.35907 0
M  V30 2490 H 226.289 1.00542 -4.16641 0
M  V30 2491 H 230.473 0.410408 -4.946 0
M  V30 2492 H 225.729 -0.404524 -6.1006 0
M  V30 2493 H 229.903 -0.993922 -6.89271 0
M  V30 2494 H 227.53 -1.40742 -7.47058 0
M  V30 2495 N 229.106 1.52395 0.401703 0
M  V30 2496 C 230.053 1.76268 1.48991 0
M  V30 2497 C 231.023 0.605386 1.54675 0
M  V30 2498 O 232.208 0.843742 1.7113 0
M  V30 2499 C 229.348 1.92592 2.86361 0
M  V30 2500 C 228.461 3.20259 2.89928 0
M  V30 2501 C 227.596 3.26972 4.18644 0
M  V30 2502 C 226.635 4.48812 4.16214 0
M  V30 2503 N 225.772 4.52877 5.36514 0
M  V30 2504 H 230.612 2.6914 1.27935 0
M  V30 2505 H 228.149 1.33355 0.620871 0
M  V30 2506 H 230.107 2.0004 3.66115 0
M  V30 2507 H 228.737 1.03093 3.05895 0
M  V30 2508 H 227.789 3.21945 2.02621 0
M  V30 2509 H 229.101 4.10056 2.83999 0
M  V30 2510 H 228.255 3.33533 5.06794 0
M  V30 2511 H 226.994 2.35126 4.27278 0
M  V30 2512 H 225.999 4.4239 3.26453 0
M  V30 2513 H 227.224 5.41961 4.09213 0
M  V30 2514 H 225.17 3.63917 5.45802 0
M  V30 2515 H 225.087 5.36529 5.32609 0
M  V30 2516 H 226.355 4.63676 6.26597 0
M  V30 2517 N 230.584 -0.659388 1.43143 0
M  V30 2518 C 231.532 -1.79374 1.4808 0
M  V30 2519 C 232.526 -1.65639 0.354988 0
M  V30 2520 O 233.732 -1.7206 0.528704 0
M  V30 2521 H 230.107 -0.591705 0.4641 0
M  V30 2522 H 232.078 -1.72329 2.43609 0
M  V30 2523 C 230.827 -3.17606 1.41499 0
M  V30 2524 H 230.15 -3.28809 2.27431 0
M  V30 2525 H 231.59 -3.96951 1.49015 0
M  V30 2526 C 230.049 -3.36642 0.131765 0
M  V30 2527 O 230.579 -3.93461 -0.809386 0
M  V30 2528 N 228.785 -2.90567 0.0439396 0
M  V30 2529 H 228.332 -2.44513 0.810619 0
M  V30 2530 H 228.29 -3.03681 -0.813969 0
M  V30 2531 N 232.062 -1.29571 -0.897171 0
M  V30 2532 C 233.309 -1.17689 -1.6479 0
M  V30 2533 C 233.637 0.27107 -1.92602 0
M  V30 2534 O 232.892 1.21193 -1.53658 0
M  V30 2535 C 233.191 -1.9382 -3.00281 0
M  V30 2536 C 232.857 -3.43522 -2.92068 0
M  V30 2537 C 231.519 -3.84348 -2.89535 0
M  V30 2538 C 233.871 -4.38906 -2.81089 0
M  V30 2539 C 231.199 -5.18869 -2.73846 0
M  V30 2540 C 233.551 -5.73521 -2.66939 0
M  V30 2541 C 232.215 -6.13601 -2.62774 0
M  V30 2542 H 231.485 -0.430654 -0.603008 0
M  V30 2543 H 234.132 -1.60536 -1.04404 0
M  V30 2544 H 232.437 -1.4357 -3.64547 0
M  V30 2545 H 234.134 -1.82028 -3.57305 0
M  V30 2546 H 230.724 -3.11072 -2.94842 0
M  V30 2547 H 234.908 -4.08315 -2.82121 0
M  V30 2548 H 230.164 -5.4903 -2.69027 0
M  V30 2549 H 234.338 -6.47078 -2.57416 0
M  V30 2550 H 231.965 -7.17786 -2.50375 0
M  V30 2551 N 233.54 1.10788 -1.12088 0
M  V30 2552 C 234.47 2.19083 -0.807755 0
M  V30 2553 C 235.451 1.6858 0.226859 0
M  V30 2554 O 236.636 1.93997 0.0888475 0
M  V30 2555 C 233.766 3.46344 -0.257576 0
M  V30 2556 C 232.72 4.101 -1.22483 0
M  V30 2557 C 232.046 5.32016 -0.535052 0
M  V30 2558 C 233.346 4.54236 -2.57811 0
M  V30 2559 H 235.04 2.45534 -1.71328 0
M  V30 2560 H 232.586 1.1801 -0.825205 0
M  V30 2561 H 234.539 4.21392 -0.0262679 0
M  V30 2562 H 233.263 3.19373 0.683278 0
M  V30 2563 H 231.922 3.37054 -1.44189 0
M  V30 2564 H 231.57 5.01319 0.410827 0
M  V30 2565 H 231.27 5.75625 -1.18024 0
M  V30 2566 H 232.794 6.09799 -0.312695 0
M  V30 2567 H 234.208 5.20575 -2.40155 0
M  V30 2568 H 232.605 5.08682 -3.18375 0
M  V30 2569 H 233.675 3.6734 -3.16528 0
M  V30 2570 N 235.018 0.912232 1.28515 0
M  V30 2571 C 236.266 0.543523 1.94654 0
M  V30 2572 C 236.587 -0.9155 1.72173 0
M  V30 2573 O 235.857 -1.64708 1.06058 0
M  V30 2574 H 234.437 0.198017 0.720277 0
M  V30 2575 H 237.099 1.16126 1.56527 0
M  V30 2576 H 236.195 0.736684 3.03281 0
M  V30 2577 N 236.496 -1.42363 0.676048 0
M  V30 2578 C 237.912 -1.55811 0.345718 0
M  V30 2579 C 238.112 -1.65544 -1.14879 0
M  V30 2580 O 237.168 -1.62306 -1.93424 0
M  V30 2581 C 238.481 -2.80746 1.07713 0
M  V30 2582 C 240.029 -2.9452 1.05958 0
M  V30 2583 C 240.504 -4.22318 1.77233 0
M  V30 2584 N 241.995 -4.29233 1.74108 0
M  V30 2585 C 242.73 -5.26935 2.26113 0
M  V30 2586 N 242.226 -6.30783 2.86505 0
M  V30 2587 N 244.019 -5.18741 2.1648 0
M  V30 2588 H 236.17 -1.34289 1.6456 0
M  V30 2589 H 238.433 -0.646506 0.69335 0
M  V30 2590 H 238.139 -2.79696 2.13221 0
M  V30 2591 H 238.013 -3.71676 0.64316 0
M  V30 2592 H 240.4 -2.95097 0.0128255 0
M  V30 2593 H 240.481 -2.04817 1.53244 0
M  V30 2594 H 240.125 -4.22502 2.81877 0
M  V30 2595 H 240.055 -5.10958 1.27396 0
M  V30 2596 H 242.546 -3.54814 1.30059 0
M  V30 2597 H 242.859 -7.01691 3.23805 0
M  V30 2598 H 241.204 -6.31341 2.90575 0
M  V30 2599 H 244.395 -4.36533 1.68987 0
M  V30 2600 H 244.568 -5.94721 2.57316 0
M  V30 2601 N 237.974 -0.419461 -1.51915 0
M  V30 2602 C 238.906 0.43646 -2.25006 0
M  V30 2603 C 239.919 1.00149 -1.28351 0
M  V30 2604 O 241.108 0.898674 -1.54227 0
M  V30 2605 C 238.208 1.6206 -2.9764 0
M  V30 2606 C 237.381 1.17763 -4.21249 0
M  V30 2607 C 236.44 2.22985 -4.76617 0
M  V30 2608 O 235.466 1.83151 -5.38929 0
M  V30 2609 N 236.668 3.55271 -4.59089 0
M  V30 2610 H 239.433 -0.18989 -2.99098 0
M  V30 2611 H 236.994 -0.247386 -1.59999 0
M  V30 2612 H 238.986 2.32038 -3.31573 0
M  V30 2613 H 237.556 2.15266 -2.2667 0
M  V30 2614 H 236.776 0.305582 -3.93014 0
M  V30 2615 H 238.064 0.858781 -5.015 0
M  V30 2616 H 237.462 3.90377 -4.09417 0
M  V30 2617 H 236.019 4.21195 -4.97432 0
M  V30 2618 N 239.452 1.56882 -0.150215 0
M  V30 2619 C 240.399 2.16922 0.788244 0
M  V30 2620 C 241.369 1.10303 1.24187 0
M  V30 2621 O 242.554 1.38359 1.31383 0
M  V30 2622 C 239.694 2.79754 2.02068 0
M  V30 2623 C 238.807 4.00775 1.61257 0
M  V30 2624 C 237.942 4.51595 2.79705 0
M  V30 2625 C 236.981 5.65074 2.35282 0
M  V30 2626 N 236.118 6.10499 3.4675 0
M  V30 2627 H 240.958 2.96779 0.269444 0
M  V30 2628 H 238.495 1.46599 0.12128 0
M  V30 2629 H 240.453 3.14329 2.74323 0
M  V30 2630 H 239.083 2.02536 2.51354 0
M  V30 2631 H 238.135 3.72158 0.787553 0
M  V30 2632 H 239.447 4.82978 1.24633 0
M  V30 2633 H 238.601 4.88242 3.60145 0
M  V30 2634 H 237.34 3.68406 3.19576 0
M  V30 2635 H 236.345 5.28 1.53283 0
M  V30 2636 H 237.57 6.50052 1.96493 0
M  V30 2637 H 235.516 5.30243 3.86236 0
M  V30 2638 H 235.433 6.87637 3.14152 0
M  V30 2639 H 236.701 6.51791 4.27537 0
M  V30 2640 N 240.93 -0.123565 1.57115 0
M  V30 2641 C 242.177 -0.832153 1.84612 0
M  V30 2642 C 242.505 -1.80093 0.734627 0
M  V30 2643 O 241.76 -1.93766 -0.27442 0
M  V30 2644 C 242.059 -1.62016 3.18568 0
M  V30 2645 C 241.725 -0.796084 4.43817 0
M  V30 2646 C 240.387 -0.568816 4.77826 0
M  V30 2647 C 242.739 -0.221364 5.2073 0
M  V30 2648 C 240.067 0.243499 5.86194 0
M  V30 2649 C 242.419 0.578117 6.29953 0
M  V30 2650 C 241.083 0.815744 6.62497 0
M  V30 2651 H 240.353 -0.304507 0.675542 0
M  V30 2652 H 243 -0.0947248 1.91266 0
M  V30 2653 H 241.305 -2.42837 3.0747 0
M  V30 2654 H 243.002 -2.17231 3.37064 0
M  V30 2655 H 239.592 -0.983307 4.17168 0
M  V30 2656 H 243.776 -0.384173 4.94811 0
M  V30 2657 H 239.032 0.436871 6.09837 0
M  V30 2658 H 243.206 1.03046 6.88734 0
M  V30 2659 H 240.833 1.44701 7.46301 0
M  V30 2660 N 242.408 -1.52605 -0.393616 0
M  V30 2661 C 243.636 -1.71294 -1.16043 0
M  V30 2662 C 244.051 -0.429259 -1.83855 0
M  V30 2663 O 243.408 0.595921 -1.72496 0
M  V30 2664 C 243.459 -2.8593 -2.21193 0
M  V30 2665 O 243.18 -4.09329 -1.56146 0
M  V30 2666 C 244.681 -3.16259 -3.10636 0
M  V30 2667 H 241.901 -0.573641 -0.348104 0
M  V30 2668 H 244.445 -1.99234 -0.461092 0
M  V30 2669 H 242.6 -2.60465 -2.86769 0
M  V30 2670 H 243.014 -4.73323 -2.25978 0
M  V30 2671 H 244.488 -3.99946 -3.80456 0
M  V30 2672 H 244.965 -2.3045 -3.73884 0
M  V30 2673 H 245.571 -3.43547 -2.50711 0
M  V30 2674 N 243.887 0.651787 -1.4349 0
M  V30 2675 C 245.134 1.41167 -1.45183 0
M  V30 2676 C 245.462 1.94349 -0.0766601 0
M  V30 2677 O 244.717 1.72804 0.918555 0
M  V30 2678 C 245.016 2.60914 -2.44251 0
M  V30 2679 C 244.682 2.26142 -3.9009 0
M  V30 2680 C 243.344 2.16371 -4.2981 0
M  V30 2681 C 245.696 1.98334 -4.81989 0
M  V30 2682 C 243.024 1.7695 -5.5938 0
M  V30 2683 C 245.376 1.6041 -6.11924 0
M  V30 2684 C 244.04 1.49166 -6.5062 0
M  V30 2685 H 243.31 0.516566 -0.531263 0
M  V30 2686 H 245.957 0.741099 -1.76579 0
M  V30 2687 H 244.262 3.3311 -2.06265 0
M  V30 2688 H 245.959 3.19127 -2.42815 0
M  V30 2689 H 242.549 2.34658 -3.58655 0
M  V30 2690 H 246.733 2.04803 -4.52072 0
M  V30 2691 H 241.989 1.66831 -5.88198 0
M  V30 2692 H 246.163 1.37925 -6.82605 0
M  V30 2693 H 243.79 1.1839 -7.50925 0
M  V30 2694 N 245.365 1.30045 0.890287 0
M  V30 2695 C 246.611 1.18737 1.64406 0
M  V30 2696 C 246.944 -0.258525 1.92472 0
M  V30 2697 O 246.219 -1.18562 1.54186 0
M  V30 2698 C 246.502 2.01087 2.98724 0
M  V30 2699 C 246.355 3.53867 2.77665 0
M  V30 2700 C 247.674 1.84457 3.9958 0
M  V30 2701 H 244.793 0.432698 0.596608 0
M  V30 2702 H 247.435 1.5962 1.0306 0
M  V30 2703 H 245.585 1.66349 3.51084 0
M  V30 2704 H 247.257 3.98637 2.32133 0
M  V30 2705 H 245.5 3.78318 2.12269 0
M  V30 2706 H 246.171 4.06772 3.7315 0
M  V30 2707 H 248.647 2.14817 3.56361 0
M  V30 2708 H 247.523 2.44411 4.91482 0
M  V30 2709 H 247.784 0.802276 4.3476 0
M  V30 2710 N 246.843 -1.10192 1.12674 0
M  V30 2711 C 247.753 -2.20172 0.810026 0
M  V30 2712 C 248.769 -1.72821 -0.202188 0
M  V30 2713 O 249.945 -2.01369 -0.0351691 0
M  V30 2714 C 247.01 -3.45631 0.272007 0
M  V30 2715 C 246.071 -4.07704 1.34447 0
M  V30 2716 C 245.304 -5.27175 0.832029 0
M  V30 2717 O 245.527 -5.69425 -0.333284 0
M  V30 2718 O 244.461 -5.80168 1.60277 0
M  V30 2719 H 248.287 -2.49701 1.72867 0
M  V30 2720 H 245.872 -1.18977 0.903597 0
M  V30 2721 H 247.754 -4.21394 -0.0230219 0
M  V30 2722 H 246.429 -3.17723 -0.619164 0
M  V30 2723 H 245.336 -3.33614 1.6927 0
M  V30 2724 H 246.669 -4.3982 2.2095 0
M  V30 2725 N 248.321 -0.919034 -1.28029 0
M  V30 2726 C 249.569 -0.553838 -1.94363 0
M  V30 2727 C 249.89 0.906357 -1.72656 0
M  V30 2728 O 249.16 1.64143 -1.0693 0
M  V30 2729 H 247.74 -0.201834 -0.719216 0
M  V30 2730 H 250.402 -1.16954 -1.55909 0
M  V30 2731 H 249.498 -0.752758 -3.02886 0
M  V30 2732 N 249.799 1.42003 -0.683588 0
M  V30 2733 C 250.747 2.326 0.000815408 0
M  V30 2734 C 251.741 1.50308 0.781278 0
M  V30 2735 O 252.947 1.66322 0.688251 0
M  V30 2736 H 249.322 0.751758 0.0190616 0
M  V30 2737 H 251.293 2.88011 -0.780528 0
M  V30 2738 C 250.042 3.34978 0.93195 0
M  V30 2739 H 249.365 3.98345 0.340817 0
M  V30 2740 H 250.805 4.00936 1.37936 0
M  V30 2741 C 249.264 2.67925 2.04249 0
M  V30 2742 O 249.794 2.51788 3.12995 0
M  V30 2743 N 248 2.2681 1.81675 0
M  V30 2744 H 247.547 2.40135 0.932363 0
M  V30 2745 H 247.505 1.8228 2.56167 0
M  V30 2746 N 251.277 0.427512 1.51691 0
M  V30 2747 C 252.187 -0.39527 2.31246 0
M  V30 2748 C 253.203 -1.03674 1.39742 0
M  V30 2749 O 254.379 -1.03425 1.72816 0
M  V30 2750 C 251.444 -1.48706 3.13189 0
M  V30 2751 C 250.505 -0.866743 4.20459 0
M  V30 2752 C 249.738 -1.90651 4.98486 0
M  V30 2753 O 249.961 -3.12733 4.77026 0
M  V30 2754 O 248.895 -1.5025 5.82845 0
M  V30 2755 H 252.721 0.253918 3.02637 0
M  V30 2756 H 250.306 0.190274 1.48183 0
M  V30 2757 H 252.188 -2.12047 3.64162 0
M  V30 2758 H 250.863 -2.12051 2.44573 0
M  V30 2759 H 249.77 -0.195544 3.73589 0
M  V30 2760 H 251.103 -0.276934 4.9142 0
M  V30 2761 N 252.755 -1.56801 0.158532 0
M  V30 2762 C 253.665 -2.20916 -0.789518 0
M  V30 2763 C 254.681 -1.1969 -1.26294 0
M  V30 2764 O 255.857 -1.52308 -1.31773 0
M  V30 2765 C 252.922 -2.82727 -2.00665 0
M  V30 2766 C 251.983 -3.99114 -1.58134 0
M  V30 2767 C 251.216 -4.57968 -2.74045 0
M  V30 2768 O 251.439 -4.15704 -3.90572 0
M  V30 2769 O 250.373 -5.48047 -2.48855 0
M  V30 2770 H 254.199 -3.02464 -0.273681 0
M  V30 2771 H 251.784 -1.4924 -0.0690548 0
M  V30 2772 H 253.666 -3.21968 -2.71872 0
M  V30 2773 H 252.341 -2.04184 -2.51179 0
M  V30 2774 H 251.248 -3.64567 -0.839155 0
M  V30 2775 H 252.581 -4.79212 -1.12325 0
M  V30 2776 N 254.233 0.115231 -1.57178 0
M  V30 2777 C 255.143 1.15994 -2.03918 0
M  V30 2778 C 256.159 1.45103 -0.960268 0
M  V30 2779 O 257.335 1.56144 -1.27204 0
M  V30 2780 C 254.4 2.46568 -2.43732 0
M  V30 2781 C 253.461 2.24822 -3.65723 0
M  V30 2782 C 252.694 3.4917 -4.03629 0
M  V30 2783 O 252.917 4.56623 -3.41835 0
M  V30 2784 O 251.851 3.39949 -4.96708 0
M  V30 2785 H 255.677 0.793019 -2.93164 0
M  V30 2786 H 253.262 0.3263 -1.45793 0
M  V30 2787 H 255.144 3.23492 -2.70057 0
M  V30 2788 H 253.819 2.82726 -1.57631 0
M  V30 2789 H 252.726 1.45744 -3.44542 0
M  V30 2790 H 254.059 1.93566 -4.52541 0
M  V30 2791 N 255.711 1.52812 0.385517 0
M  V30 2792 C 256.96 1.67249 1.12741 0
M  V30 2793 C 257.273 0.4205 1.91027 0
M  V30 2794 O 258.479 0.445064 2.67827 0
M  V30 2795 C 256.935 2.95583 2.05326 0
M  V30 2796 C 256.543 4.27974 1.32447 0
M  V30 2797 C 258.287 3.19386 2.7963 0
M  V30 2798 C 256.194 5.47412 2.23818 0
M  V30 2799 H 255.124 0.6231 0.424573 0
M  V30 2800 H 257.775 1.79309 0.389924 0
M  V30 2801 H 256.157 2.77277 2.82725 0
M  V30 2802 H 257.331 4.56844 0.602495 0
M  V30 2803 H 255.646 4.10459 0.700885 0
M  V30 2804 H 258.243 4.05801 3.48181 0
M  V30 2805 H 258.586 2.34604 3.43899 0
M  V30 2806 H 259.119 3.38274 2.09322 0
M  V30 2807 H 255.858 6.34612 1.64157 0
M  V30 2808 H 255.378 5.22849 2.93921 0
M  V30 2809 H 257.057 5.81423 2.83824 0
M  V30 2810 N 257.189 -0.644168 1.43834 0
M  V30 2811 C 258.435 -1.40603 1.46146 0
M  V30 2812 C 258.768 -1.93997 0.0887717 0
M  V30 2813 O 258.043 -1.72854 -0.891724 0
M  V30 2814 C 258.326 -2.58086 2.51124 0
M  V30 2815 C 258.179 -2.10126 3.97702 0
M  V30 2816 C 259.498 -3.60291 2.52742 0
M  V30 2817 H 256.617 -0.509905 0.532134 0
M  V30 2818 H 259.259 -0.729502 1.75437 0
M  V30 2819 H 257.409 -3.15801 2.26278 0
M  V30 2820 H 259.081 -1.57342 4.33637 0
M  V30 2821 H 257.324 -1.41419 4.10101 0
M  V30 2822 H 257.995 -2.94649 4.66783 0
M  V30 2823 H 260.471 -3.12352 2.7491 0
M  V30 2824 H 259.347 -4.40032 3.28121 0
M  V30 2825 H 259.608 -4.1349 1.56455 0
M  V30 2826 N 258.668 -1.30515 -0.883378 0
M  V30 2827 C 259.598 -1.19607 -2.00541 0
M  V30 2828 C 260.579 -0.086346 -1.69881 0
M  V30 2829 O 261.764 -0.268654 -1.92333 0
M  V30 2830 C 258.894 -0.888758 -3.35736 0
M  V30 2831 C 257.848 -1.95659 -3.8066 0
M  V30 2832 C 257.174 -1.50224 -5.13164 0
M  V30 2833 C 258.474 -3.36788 -3.99213 0
M  V30 2834 H 260.168 -2.13476 -2.09925 0
M  V30 2835 H 257.714 -1.02775 -1.00863 0
M  V30 2836 H 259.667 -0.799094 -4.13754 0
M  V30 2837 H 258.391 0.0856125 -3.26488 0
M  V30 2838 H 257.05 -2.03591 -3.04871 0
M  V30 2839 H 256.698 -0.516092 -5.00345 0
M  V30 2840 H 256.398 -2.2165 -5.44192 0
M  V30 2841 H 257.922 -1.42639 -5.93706 0
M  V30 2842 H 259.336 -3.31605 -4.67665 0
M  V30 2843 H 257.733 -4.06314 -4.41621 0
M  V30 2844 H 258.803 -3.78561 -3.03017 0
M  V30 2845 N 260.146 1.09593 -1.13257 0
M  V30 2846 C 261.109 2.14359 -0.811358 0
M  V30 2847 C 262.109 1.59808 0.178377 0
M  V30 2848 O 263.299 1.74132 -0.0484911 0
M  V30 2849 C 260.431 3.40269 -0.207276 0
M  V30 2850 H 261.624 2.44284 -1.73969 0
M  V30 2851 H 259.177 1.25102 -0.936973 0
M  V30 2852 H 259.912 3.15969 0.73036 0
M  V30 2853 H 259.697 3.81154 -0.919992 0
M  V30 2854 H 261.187 4.176 0.000667944 0
M  V30 2855 N 261.624 0.925811 1.2754 0
M  V30 2856 C 263.04 0.625767 1.46821 0
M  V30 2857 C 263.24 -0.825506 1.83814 0
M  V30 2858 O 262.296 -1.60356 1.95044 0
M  V30 2859 C 263.609 1.57402 2.56213 0
M  V30 2860 C 265.157 1.58204 2.70075 0
M  V30 2861 C 265.632 2.51721 3.82623 0
M  V30 2862 N 267.123 2.49917 3.89994 0
M  V30 2863 C 267.858 3.18968 4.76494 0
M  V30 2864 N 267.354 3.97391 5.67496 0
M  V30 2865 N 269.147 3.07996 4.70208 0
M  V30 2866 H 261.298 1.86409 1.01811 0
M  V30 2867 H 263.561 0.800213 0.508295 0
M  V30 2868 H 263.267 2.60925 2.35819 0
M  V30 2869 H 263.141 1.31428 3.53563 0
M  V30 2870 H 265.528 0.554124 2.89851 0
M  V30 2871 H 265.609 1.88226 1.73218 0
M  V30 2872 H 265.253 3.54622 3.63601 0
M  V30 2873 H 265.183 2.18996 4.78903 0
M  V30 2874 H 267.674 1.9296 3.24923 0
M  V30 2875 H 267.987 4.4707 6.30356 0
M  V30 2876 H 266.332 4.01495 5.67298 0
M  V30 2877 H 269.523 2.46223 3.9811 0
M  V30 2878 H 269.696 3.6208 5.37403 0
M  V30 2879 N 263.102 -1.41638 0.69111 0
M  V30 2880 C 264.33 -2.05628 0.22909 0
M  V30 2881 C 264.745 -1.51992 -1.11999 0
M  V30 2882 O 264.102 -0.666322 -1.69901 0
M  V30 2883 C 264.153 -3.61084 0.173283 0
M  V30 2884 O 263.874 -4.12735 1.46907 0
M  V30 2885 C 265.375 -4.42213 -0.310266 0
M  V30 2886 H 262.595 -0.662327 0.107534 0
M  V30 2887 H 265.139 -1.81489 0.942438 0
M  V30 2888 H 263.294 -3.84278 -0.490858 0
M  V30 2889 H 263.708 -5.06743 1.35322 0
M  V30 2890 H 265.182 -5.51194 -0.298196 0
M  V30 2891 H 265.659 -4.1799 -1.34838 0
M  V30 2892 H 266.265 -4.24074 0.322716 0
M  V30 2893 N 264.58 -0.43555 -1.51462 0
M  V30 2894 C 265.827 0.131514 -2.02072 0
M  V30 2895 C 266.155 1.42868 -1.31981 0
M  V30 2896 O 265.41 1.91076 -0.422883 0
M  V30 2897 C 265.709 0.39942 -3.55161 0
M  V30 2898 C 265.375 -0.81172 -4.43533 0
M  V30 2899 C 264.037 -1.14387 -4.67407 0
M  V30 2900 C 266.389 -1.61976 -4.95392 0
M  V30 2901 C 263.717 -2.28477 -5.40384 0
M  V30 2902 C 266.069 -2.75164 -5.6962 0
M  V30 2903 C 264.733 -3.08835 -5.91758 0
M  V30 2904 H 264.003 0.0481244 -0.739436 0
M  V30 2905 H 266.65 -0.58238 -1.8243 0
M  V30 2906 H 264.955 1.19519 -3.73125 0
M  V30 2907 H 266.652 0.85157 -3.91854 0
M  V30 2908 H 263.242 -0.542898 -4.25148 0
M  V30 2909 H 267.426 -1.37637 -4.76833 0
M  V30 2910 H 262.682 -2.5488 -5.55739 0
M  V30 2911 H 266.856 -3.38147 -6.08793 0
M  V30 2912 H 264.483 -3.97353 -6.48086 0
M  V30 2913 N 266.058 1.56714 -0.166846 0
M  V30 2914 C 267.298 1.98641 0.481763 0
M  V30 2915 C 267.662 1.05038 1.6072 0
M  V30 2916 O 268.863 1.36087 2.31805 0
M  V30 2917 C 267.134 3.44362 0.956517 0
M  V30 2918 S 268.693 4.08317 1.60694 0
M  V30 2919 H 265.511 0.693873 0.155116 0
M  V30 2920 H 268.113 1.93719 -0.263251 0
M  V30 2921 H 266.817 4.10204 0.126936 0
M  V30 2922 H 266.348 3.53041 1.73568 0
M  V30 2923 H 268.363 4.02999 2.89494 0
M  V30 2924 N 267.536 -0.106894 1.57237 0
M  V30 2925 C 268.783 -0.812526 1.85484 0
M  V30 2926 C 269.111 -1.79304 0.753687 0
M  V30 2927 O 268.366 -1.94047 -0.253853 0
M  V30 2928 C 268.665 -1.58628 3.20268 0
M  V30 2929 C 268.331 -0.748967 4.44636 0
M  V30 2930 C 266.993 -0.518104 4.78403 0
M  V30 2931 C 269.345 -0.166122 5.20935 0
M  V30 2932 C 266.673 0.305659 5.85903 0
M  V30 2933 C 269.025 0.644899 6.29304 0
M  V30 2934 C 267.689 0.885965 6.61594 0
M  V30 2935 H 266.959 -0.297324 0.678734 0
M  V30 2936 H 269.606 -0.0744332 1.91355 0
M  V30 2937 H 267.911 -2.39562 3.10028 0
M  V30 2938 H 269.608 -2.13643 3.39349 0
M  V30 2939 H 266.198 -0.939006 4.18187 0
M  V30 2940 H 270.382 -0.33167 4.95191 0
M  V30 2941 H 265.638 0.501528 6.0934 0
M  V30 2942 H 269.812 1.10345 6.87602 0
M  V30 2943 H 267.439 1.52609 7.44725 0
M  V30 2944 N 269.014 -1.53014 -0.377408 0
M  V30 2945 C 270.291 -1.59215 -1.13622 0
M  V30 2946 C 270.671 -0.392407 -2.07421 0
M  V30 2947 O 270.019 0.618342 -2.19975 0
M  V30 2948 C 270.229 -2.93669 -1.88573 0
M  V30 2949 C 271.577 -3.47822 -2.43526 0
M  V30 2950 O 272.601 -2.9562 -1.98715 0
M  V30 2951 O 271.46 -4.39055 -3.25412 0
M  V30 2952 H 268.554 -0.642625 -0.52054 0
M  V30 2953 H 271.1 -1.65353 -0.381625 0
M  V30 2954 H 269.872 -3.7243 -1.20048 0
M  V30 2955 H 269.495 -2.90968 -2.70968 0
M  V30 2956 N 270.492 0.636531 -1.44174 0
M  V30 2957 C 271.738 1.39649 -1.47884 0
M  V30 2958 C 272.093 1.92098 -0.107747 0
M  V30 2959 O 271.386 1.70391 0.876208 0
M  V30 2960 C 271.58 2.58309 -2.47005 0
M  V30 2961 C 271.409 2.17476 -3.93617 0
M  V30 2962 C 270.179 2.0501 -4.61843 0
M  V30 2963 C 272.377 1.76722 -4.82984 0
M  V30 2964 N 270.359 1.57683 -5.93304 0
M  V30 2965 C 271.73 1.40601 -6.03847 0
M  V30 2966 C 273.785 1.64054 -4.70096 0
M  V30 2967 C 272.488 0.930787 -7.13252 0
M  V30 2968 C 274.514 1.17937 -5.79521 0
M  V30 2969 C 273.876 0.827625 -6.99521 0
M  V30 2970 H 269.975 0.506027 -0.596205 0
M  V30 2971 H 272.559 0.730791 -1.80465 0
M  V30 2972 H 270.73 3.22514 -2.16423 0
M  V30 2973 H 272.462 3.25083 -2.41045 0
M  V30 2974 H 269.217 2.25294 -4.16581 0
M  V30 2975 H 269.641 1.36334 -6.63131 0
M  V30 2976 H 274.283 1.89882 -3.77762 0
M  V30 2977 H 272.001 0.660012 -8.054 0
M  V30 2978 H 275.587 1.08601 -5.71574 0
M  V30 2979 H 274.467 0.476231 -7.82753 0
M  V30 2980 N 271.97 1.30982 0.876444 0
M  V30 2981 C 272.88 1.2003 2.01569 0
M  V30 2982 C 273.896 0.11838 1.73597 0
M  V30 2983 O 275.072 0.33495 1.98595 0
M  V30 2984 C 272.137 0.901637 3.34771 0
M  V30 2985 C 271.198 2.06979 3.76109 0
M  V30 2986 C 270.431 1.78529 5.02954 0
M  V30 2987 O 270.654 0.717296 5.65872 0
M  V30 2988 O 269.588 2.64019 5.40905 0
M  V30 2989 H 273.414 2.15753 2.13739 0
M  V30 2990 H 270.999 1.10658 1.00375 0
M  V30 2991 H 272.881 0.750645 4.1466 0
M  V30 2992 H 271.556 -0.0256141 3.2369 0
M  V30 2993 H 270.463 2.27616 2.96887 0
M  V30 2994 H 271.796 2.97907 3.91807 0
M  V30 2995 N 273.449 -1.08991 1.13837 0
M  V30 2996 C 274.698 -1.80631 0.897509 0
M  V30 2997 C 275.011 -1.86872 -0.57777 0
M  V30 2998 O 276.217 -2.54866 -0.935701 0
M  V30 2999 C 274.673 -3.24517 1.55618 0
M  V30 3000 C 274.281 -3.26529 3.0673 0
M  V30 3001 C 276.025 -4.00882 1.3962 0
M  V30 3002 C 273.932 -4.64965 3.65461 0
M  V30 3003 H 272.862 -0.67691 0.332129 0
M  V30 3004 H 275.513 -1.2246 1.3666 0
M  V30 3005 H 273.895 -3.82778 1.01476 0
M  V30 3006 H 275.069 -2.78008 3.67489 0
M  V30 3007 H 273.384 -2.63656 3.22296 0
M  V30 3008 H 275.981 -5.03167 1.80906 0
M  V30 3009 H 276.324 -4.14896 0.341578 0
M  V30 3010 H 276.857 -3.49075 1.90766 0
M  V30 3011 H 273.596 -4.56153 4.70749 0
M  V30 3012 H 273.116 -5.13792 3.09481 0
M  V30 3013 H 274.795 -5.3394 3.654 0
M  V30 3014 N 274.927 -0.932562 -1.27047 0
M  V30 3015 C 275.837 -0.441219 -2.30414 0
M  V30 3016 C 276.853 0.480525 -1.67233 0
M  V30 3017 O 278.029 0.362151 -1.98117 0
M  V30 3018 C 275.094 0.293651 -3.45454 0
M  V30 3019 C 274.155 -0.663601 -4.2414 0
M  V30 3020 C 273.388 0.0362932 -5.33688 0
M  V30 3021 O 273.611 1.2548 -5.56427 0
M  V30 3022 O 272.545 -0.638015 -5.98509 0
M  V30 3023 H 276.371 -1.29962 -2.74488 0
M  V30 3024 H 273.956 -0.6981 -1.32087 0
M  V30 3025 H 275.838 0.707951 -4.15411 0
M  V30 3026 H 274.513 1.12758 -3.03426 0
M  V30 3027 H 273.42 -1.12768 -3.56699 0
M  V30 3028 H 274.753 -1.46489 -4.69896 0
M  V30 3029 N 276.405 1.4127 -0.698611 0
M  V30 3030 C 277.355 2.27997 -0.0119836 0
M  V30 3031 C 278.339 1.42363 0.749765 0
M  V30 3032 O 279.531 1.65607 0.624758 0
M  V30 3033 C 276.66 3.30702 0.921458 0
M  V30 3034 C 275.746 4.23814 0.155796 0
M  V30 3035 N 276.137 4.98572 -0.852015 0
M  V30 3036 C 274.435 4.44284 0.390836 0
M  V30 3037 C 275.136 5.66744 -1.3106 0
M  V30 3038 N 274.112 5.39867 -0.635944 0
M  V30 3039 H 277.914 2.83232 -0.784649 0
M  V30 3040 H 275.428 1.53518 -0.529711 0
M  V30 3041 H 277.425 3.91661 1.42854 0
M  V30 3042 H 276.085 2.77028 1.69369 0
M  V30 3043 H 277.096 5.03024 -1.23235 0
M  V30 3044 H 273.773 4.01614 1.14071 0
M  V30 3045 H 275.163 6.36672 -2.14707 0
M  V30 3046 N 277.883 0.443576 1.51229 0
M  V30 3047 C 279.132 -0.122332 2.01329 0
M  V30 3048 C 279.445 -1.43237 1.33201 0
M  V30 3049 O 280.651 -2.0816 1.74304 0
M  V30 3050 C 279.107 -0.268551 3.58897 0
M  V30 3051 C 278.715 1.03142 4.35965 0
M  V30 3052 C 280.459 -0.787894 4.17124 0
M  V30 3053 C 278.366 0.850504 5.85252 0
M  V30 3054 H 277.296 -0.0494929 0.752374 0
M  V30 3055 H 279.947 0.574289 1.74282 0
M  V30 3056 H 278.329 -1.02832 3.82415 0
M  V30 3057 H 279.503 1.80001 4.24189 0
M  V30 3058 H 277.818 1.47977 3.89219 0
M  V30 3059 H 280.415 -0.939841 5.26375 0
M  V30 3060 H 280.758 -1.77201 3.76703 0
M  V30 3061 H 281.291 -0.0862669 3.97706 0
M  V30 3062 H 278.03 1.80718 6.30096 0
M  V30 3063 H 277.55 0.121825 5.99676 0
M  V30 3064 H 279.229 0.506163 6.45017 0
M  V30 3065 N 279.361 -1.56624 0.175154 0
M  V30 3066 C 280.308 -2.18149 -0.753634 0
M  V30 3067 C 281.278 -1.12265 -1.22417 0
M  V30 3068 O 282.463 -1.40432 -1.29165 0
M  V30 3069 C 279.603 -2.82933 -1.97592 0
M  V30 3070 C 278.716 -4.03289 -1.5486 0
M  V30 3071 C 277.851 -4.55988 -2.72485 0
M  V30 3072 C 276.89 -5.68746 -2.26262 0
M  V30 3073 N 276.027 -6.15938 -3.36994 0
M  V30 3074 H 280.867 -2.9717 -0.222195 0
M  V30 3075 H 278.404 -1.46774 -0.0979422 0
M  V30 3076 H 280.362 -3.18653 -2.69288 0
M  V30 3077 H 278.992 -2.06509 -2.481 0
M  V30 3078 H 278.044 -3.73364 -0.728246 0
M  V30 3079 H 279.356 -4.849 -1.16933 0
M  V30 3080 H 278.51 -4.9391 -3.52332 0
M  V30 3081 H 277.249 -3.73443 -3.13674 0
M  V30 3082 H 276.254 -5.30372 -1.44863 0
M  V30 3083 H 277.479 -6.53095 -1.86127 0
M  V30 3084 H 275.425 -5.36321 -3.77751 0
M  V30 3085 H 275.342 -6.92548 -3.03172 0
M  V30 3086 H 276.61 -6.58511 -4.17114 0
M  V30 3087 N 280.839 0.0985539 -1.57292 0
M  V30 3088 C 281.786 1.11981 -2.01814 0
M  V30 3089 C 282.756 1.39999 -0.89384 0
M  V30 3090 O 283.941 1.5152 -1.15958 0
M  V30 3091 C 281.081 2.43577 -2.44467 0
M  V30 3092 C 280.194 2.2232 -3.70402 0
M  V30 3093 C 279.329 3.4729 -4.01949 0
M  V30 3094 C 278.368 3.2128 -5.21005 0
M  V30 3095 N 277.505 4.38507 -5.48321 0
M  V30 3096 H 282.345 0.733149 -2.88841 0
M  V30 3097 H 279.882 0.350482 -1.42864 0
M  V30 3098 H 281.84 3.20373 -2.6724 0
M  V30 3099 H 280.47 2.80097 -1.60455 0
M  V30 3100 H 279.522 1.36343 -3.55126 0
M  V30 3101 H 280.834 1.99089 -4.57345 0
M  V30 3102 H 279.988 4.32495 -4.25479 0
M  V30 3103 H 278.727 3.73572 -3.13521 0
M  V30 3104 H 277.732 2.34468 -4.97298 0
M  V30 3105 H 278.957 2.96348 -6.11028 0
M  V30 3106 H 276.903 4.64871 -4.62851 0
M  V30 3107 H 276.82 4.18455 -6.29628 0
M  V30 3108 H 278.088 5.24787 -5.76385 0
M  V30 3109 N 282.317 1.53212 0.369288 0
M  V30 3110 C 283.563 1.69466 1.11397 0
M  V30 3111 C 283.896 0.443257 1.89074 0
M  V30 3112 O 283.171 -0.559386 1.86282 0
M  V30 3113 C 283.454 2.9422 2.07621 0
M  V30 3114 C 283.307 4.29508 1.33577 0
M  V30 3115 C 284.626 3.14565 3.07794 0
M  V30 3116 H 281.745 0.616667 0.403597 0
M  V30 3117 H 284.387 1.85845 0.395179 0
M  V30 3118 H 282.537 2.80387 2.68916 0
M  V30 3119 H 284.209 4.55147 0.750955 0
M  V30 3120 H 282.452 4.29088 0.637618 0
M  V30 3121 H 283.123 5.12926 2.03989 0
M  V30 3122 H 285.599 3.2756 2.56601 0
M  V30 3123 H 284.475 4.03297 3.72348 0
M  V30 3124 H 284.736 2.29675 3.77759 0
M  V30 3125 N 283.795 -0.628877 1.44509 0
M  V30 3126 C 285.043 -1.38565 1.4712 0
M  V30 3127 C 285.364 -1.94712 0.105899 0
M  V30 3128 O 284.634 -1.75912 -0.862079 0
M  V30 3129 H 283.214 -0.514333 0.541729 0
M  V30 3130 H 285.876 -0.740018 1.80305 0
M  V30 3131 H 284.972 -2.21583 2.19789 0
M  V30 3132 N 285.273 -1.31445 -0.869486 0
M  V30 3133 C 286.203 -1.21727 -1.99261 0
M  V30 3134 C 287.184 -0.104359 -1.6978 0
M  V30 3135 O 288.369 -0.289038 -1.92037 0
M  V30 3136 C 285.499 -0.924317 -3.34774 0
M  V30 3137 C 284.453 -1.99685 -3.78563 0
M  V30 3138 C 283.779 -1.55658 -5.11541 0
M  V30 3139 C 285.079 -3.41003 -3.95619 0
M  V30 3140 H 286.773 -2.1569 -2.07649 0
M  V30 3141 H 284.319 -1.03839 -0.997675 0
M  V30 3142 H 286.272 -0.842934 -4.12883 0
M  V30 3143 H 284.996 0.0509793 -3.2656 0
M  V30 3144 H 283.655 -2.06813 -3.02694 0
M  V30 3145 H 283.303 -0.569132 -4.9977 0
M  V30 3146 H 283.003 -2.27409 -5.41811 0
M  V30 3147 H 284.527 -1.48928 -5.92159 0
M  V30 3148 H 285.941 -3.36547 -4.64122 0
M  V30 3149 H 284.338 -4.10975 -4.37286 0
M  V30 3150 H 285.408 -3.81754 -2.98985 0
M  V30 3151 N 286.751 1.08385 -1.14413 0
M  V30 3152 C 287.999 1.80419 -0.910679 0
M  V30 3153 C 288.32 1.86658 0.564243 0
M  V30 3154 O 287.59 1.35985 1.41014 0
M  V30 3155 H 286.17 0.668204 -0.333934 0
M  V30 3156 H 288.832 1.31037 -1.44275 0
M  V30 3157 H 287.928 2.83238 -1.31082 0
M  V30 3158 N 288.23 0.939286 1.26551 0
M  V30 3159 C 289.177 0.446088 2.26448 0
M  V30 3160 C 290.147 -0.493234 1.58608 0
M  V30 3161 O 291.332 -0.409857 1.86346 0
M  V30 3162 C 288.472 -0.284375 3.43926 0
M  V30 3163 C 287.585 0.690399 4.26448 0
M  V30 3164 C 286.72 -0.0610712 5.31165 0
M  V30 3165 C 285.759 0.905649 6.05363 0
M  V30 3166 N 284.896 0.186055 7.01853 0
M  V30 3167 H 289.736 1.30291 2.68008 0
M  V30 3168 H 287.273 0.65371 1.31776 0
M  V30 3169 H 289.231 -0.724313 4.10864 0
M  V30 3170 H 287.861 -1.10535 3.03285 0
M  V30 3171 H 286.913 1.24885 3.59316 0
M  V30 3172 H 288.225 1.42873 4.779 0
M  V30 3173 H 287.379 -0.56038 6.04106 0
M  V30 3174 H 286.118 -0.832297 4.80546 0
M  V30 3175 H 285.123 1.4161 5.3125 0
M  V30 3176 H 286.348 1.67685 6.58072 0
M  V30 3177 H 284.294 -0.566714 6.53548 0
M  V30 3178 H 284.211 0.863752 7.51049 0
M  V30 3179 H 285.479 -0.292221 7.78952 0
M  V30 3180 N 289.708 -1.40897 0.706093 0
M  V30 3181 C 290.956 -2.00657 0.241054 0
M  V30 3182 C 291.277 -1.56241 -1.16678 0
M  V30 3183 O 290.547 -0.79765 -1.78926 0
M  V30 3184 H 289.127 -0.742018 0.0861308 0
M  V30 3185 H 291.789 -1.72372 0.909604 0
M  V30 3186 H 290.885 -3.10958 0.266705 0
M  V30 3187 N 291.186 -0.45159 -1.50991 0
M  V30 3188 C 292.434 0.109857 -2.01801 0
M  V30 3189 C 292.755 1.41958 -1.3369 0
M  V30 3190 O 292.025 1.9003 -0.475951 0
M  V30 3191 H 290.605 0.0435884 -0.745727 0
M  V30 3192 H 293.267 -0.597557 -1.85514 0
M  V30 3193 H 292.363 0.275489 -3.10882 0
M  V30 3194 N 292.664 1.56529 -0.183458 0
M  V30 3195 C 293.889 2.02064 0.467428 0
M  V30 3196 C 294.314 1.06282 1.55196 0
M  V30 3197 O 293.672 0.0443565 1.81246 0
M  V30 3198 C 293.72 3.46122 1.01153 0
M  V30 3199 O 292.824 3.53437 2.12499 0
M  V30 3200 H 292.165 0.654726 0.110588 0
M  V30 3201 H 294.695 2.02521 -0.290917 0
M  V30 3202 H 294.705 3.85676 1.33108 0
M  V30 3203 H 293.38 4.15331 0.217533 0
M  V30 3204 H 291.957 3.2575 1.81497 0
M  V30 3205 N 294.142 -0.090211 1.57342 0
M  V30 3206 C 295.072 -1.10976 2.05443 0
M  V30 3207 C 296.053 -1.41482 0.944284 0
M  V30 3208 O 297.238 -1.51428 1.21586 0
M  V30 3209 C 294.368 -2.42831 2.48295 0
M  V30 3210 C 293.322 -2.26721 3.63018 0
M  V30 3211 C 292.648 -3.63796 3.91863 0
M  V30 3212 C 293.948 -1.7037 4.93732 0
M  V30 3213 H 295.642 -0.709564 2.9087 0
M  V30 3214 H 293.188 -0.339874 1.39932 0
M  V30 3215 H 295.141 -3.14431 2.80555 0
M  V30 3216 H 293.865 -2.84795 1.59873 0
M  V30 3217 H 292.524 -1.57565 3.31012 0
M  V30 3218 H 292.172 -4.03297 3.00601 0
M  V30 3219 H 291.872 -3.53861 4.69101 0
M  V30 3220 H 293.396 -4.36855 4.26603 0
M  V30 3221 H 294.81 -2.31816 5.24342 0
M  V30 3222 H 293.207 -1.71181 5.75167 0
M  V30 3223 H 294.277 -0.663542 4.80339 0
M  V30 3224 N 295.62 -1.53406 -0.361157 0
M  V30 3225 C 296.567 -1.80156 -1.44265 0
M  V30 3226 C 297.537 -0.646183 -1.53015 0
M  V30 3227 O 298.722 -0.888818 -1.68833 0
M  V30 3228 C 295.862 -2.00116 -2.81154 0
M  V30 3229 C 294.975 -3.27833 -2.81335 0
M  V30 3230 C 294.11 -3.37957 -4.09828 0
M  V30 3231 C 293.149 -4.59689 -4.04168 0
M  V30 3232 N 292.286 -4.66942 -5.24318 0
M  V30 3233 H 297.126 -2.72438 -1.20754 0
M  V30 3234 H 294.663 -1.34954 -0.585296 0
M  V30 3235 H 296.621 -2.09677 -3.60682 0
M  V30 3236 H 295.251 -1.11167 -3.03054 0
M  V30 3237 H 294.303 -3.27204 -1.94014 0
M  V30 3238 H 295.615 -4.17442 -2.73027 0
M  V30 3239 H 294.769 -3.46853 -4.97773 0
M  V30 3240 H 293.508 -2.46372 -4.20894 0
M  V30 3241 H 292.513 -4.50889 -3.14609 0
M  V30 3242 H 293.738 -5.5262 -3.947 0
M  V30 3243 H 291.684 -3.7826 -5.35962 0
M  V30 3244 H 291.601 -5.50462 -5.18197 0
M  V30 3245 H 292.869 -4.80127 -6.14084 0
M  V30 3246 N 297.098 0.621204 -1.44841 0
M  V30 3247 C 298.046 1.75385 -1.52784 0
M  V30 3248 C 299.04 1.64639 -0.398779 0
M  V30 3249 O 300.246 1.70598 -0.574137 0
M  V30 3250 H 296.621 0.579193 -0.479625 0
M  V30 3251 H 298.592 1.6581 -2.48092 0
M  V30 3252 C 297.341 3.13742 -1.4987 0
M  V30 3253 H 296.664 3.22663 -2.36069 0
M  V30 3254 H 298.104 3.92861 -1.59487 0
M  V30 3255 C 296.563 3.36175 -0.220973 0
M  V30 3256 O 297.093 3.95469 0.704782 0
M  V30 3257 N 295.299 2.90348 -0.120963 0
M  V30 3258 H 294.846 2.42278 -0.875162 0
M  V30 3259 H 294.804 3.05732 0.733168 0
M  V30 3260 N 298.576 1.31904 0.862503 0
M  V30 3261 C 299.804 1.24998 1.64873 0
M  V30 3262 C 300.219 -0.183425 1.87907 0
M  V30 3263 O 299.576 -1.11794 1.44251 0
M  V30 3264 C 299.627 1.99829 3.01248 0
M  V30 3265 O 299.348 3.37575 2.79239 0
M  V30 3266 C 300.849 1.99852 3.95694 0
M  V30 3267 H 298.069 0.431599 0.513773 0
M  V30 3268 H 300.613 1.73901 1.07604 0
M  V30 3269 H 298.768 1.54668 3.55185 0
M  V30 3270 H 299.182 3.75776 3.65914 0
M  V30 3271 H 300.656 2.56709 4.88676 0
M  V30 3272 H 301.133 0.982852 4.28062 0
M  V30 3273 H 301.739 2.44926 3.47694 0
M  V30 3274 N 300.054 -1.07777 1.14986 0
M  V30 3275 C 300.984 -2.16865 0.865557 0
M  V30 3276 C 301.965 -1.69123 -0.182083 0
M  V30 3277 O 303.15 -1.94164 -0.0373815 0
M  V30 3278 C 300.28 -3.45539 0.349313 0
M  V30 3279 C 299.234 -4.06708 1.33313 0
M  V30 3280 C 298.56 -5.30411 0.675918 0
M  V30 3281 C 299.86 -4.47241 2.69764 0
M  V30 3282 H 301.554 -2.40905 1.77778 0
M  V30 3283 H 299.1 -1.15781 0.856203 0
M  V30 3284 H 301.053 -4.21174 0.137983 0
M  V30 3285 H 299.777 -3.21072 -0.598362 0
M  V30 3286 H 298.436 -3.33112 1.53075 0
M  V30 3287 H 298.084 -5.02232 -0.277767 0
M  V30 3288 H 297.784 -5.72293 1.33244 0
M  V30 3289 H 299.308 -6.08755 0.474262 0
M  V30 3290 H 300.722 -5.14025 2.53873 0
M  V30 3291 H 299.119 -5.00062 3.3175 0
M  V30 3292 H 300.189 -3.58818 3.26156 0
M  V30 3293 N 301.532 -0.945985 -1.26051 0
M  V30 3294 C 302.778 -0.597002 -1.93814 0
M  V30 3295 C 303.111 0.862484 -1.73997 0
M  V30 3296 O 302.386 1.61769 -1.07986 0
M  V30 3297 C 302.669 -0.945937 -3.47454 0
M  V30 3298 C 302.522 -2.46052 -3.76535 0
M  V30 3299 C 303.841 -0.464785 -4.37639 0
M  V30 3300 H 300.96 -0.218366 -0.703907 0
M  V30 3301 H 303.602 -1.18107 -1.48831 0
M  V30 3302 H 301.752 -0.448902 -3.85898 0
M  V30 3303 H 303.424 -3.03065 -3.47778 0
M  V30 3304 H 301.667 -2.90194 -3.22444 0
M  V30 3305 H 302.338 -2.65517 -4.83947 0
M  V30 3306 H 304.814 -0.891016 -4.06448 0
M  V30 3307 H 303.69 -0.737712 -5.4392 0
M  V30 3308 H 303.951 0.635274 -4.37512 0
M  V30 3309 N 303.011 1.40521 -0.713556 0
M  V30 3310 C 303.941 2.33381 -0.0743864 0
M  V30 3311 C 304.922 1.52784 0.747735 0
M  V30 3312 O 306.107 1.81258 0.697071 0
M  V30 3313 C 303.237 3.36748 0.849598 0
M  V30 3314 C 302.191 4.27793 0.133247 0
M  V30 3315 C 301.517 5.21679 1.17281 0
M  V30 3316 C 302.817 5.12415 -1.01134 0
M  V30 3317 H 304.511 2.87081 -0.850007 0
M  V30 3318 H 302.057 1.38034 -0.410201 0
M  V30 3319 H 304.01 4.00648 1.30612 0
M  V30 3320 H 302.734 2.81439 1.65709 0
M  V30 3321 H 301.393 3.65342 -0.303426 0
M  V30 3322 H 301.041 4.62677 1.9733 0
M  V30 3323 H 300.741 5.83435 0.698397 0
M  V30 3324 H 302.265 5.88456 1.62947 0
M  V30 3325 H 303.679 5.69781 -0.634274 0
M  V30 3326 H 302.076 5.83203 -1.41399 0
M  V30 3327 H 303.146 4.48514 -1.84292 0
M  V30 3328 N 304.489 0.459591 1.5075 0
M  V30 3329 C 305.737 -0.0991532 2.01857 0
M  V30 3330 C 306.058 -1.41247 1.34441 0
M  V30 3331 O 305.328 -1.89775 0.486022 0
M  V30 3332 H 303.908 -0.039633 0.745948 0
M  V30 3333 H 306.57 0.607387 1.85194 0
M  V30 3334 H 305.666 -0.258998 3.11023 0
M  V30 3335 N 305.967 -1.56429 0.191757 0
M  V30 3336 C 306.914 -2.18936 -0.730454 0
M  V30 3337 C 307.884 -1.13557 -1.21219 0
M  V30 3338 O 309.069 -1.41794 -1.27668 0
M  V30 3339 C 306.209 -2.85013 -1.9458 0
M  V30 3340 C 305.322 -4.04909 -1.50574 0
M  V30 3341 C 304.457 -4.58853 -2.67634 0
M  V30 3342 C 303.496 -5.71114 -2.20217 0
M  V30 3343 N 302.633 -6.19478 -3.30442 0
M  V30 3344 H 307.473 -2.97389 -0.190664 0
M  V30 3345 H 305.01 -1.46869 -0.0823694 0
M  V30 3346 H 306.968 -3.21492 -2.65893 0
M  V30 3347 H 305.598 -2.09129 -2.45896 0
M  V30 3348 H 304.65 -3.74115 -0.688605 0
M  V30 3349 H 305.962 -4.86113 -1.11784 0
M  V30 3350 H 305.116 -4.97619 -3.47074 0
M  V30 3351 H 303.855 -3.76749 -3.09696 0
M  V30 3352 H 302.86 -5.31879 -1.3923 0
M  V30 3353 H 304.085 -6.55033 -1.79189 0
M  V30 3354 H 302.031 -5.40297 -3.72041 0
M  V30 3355 H 301.948 -6.95725 -2.9581 0
M  V30 3356 H 303.216 -6.62898 -4.10106 0
M  V30 3357 N 307.445 0.0818655 -1.57387 0
M  V30 3358 C 308.722 0.815343 -1.77796 0
M  V30 3359 C 309.102 1.96289 -0.77679 0
M  V30 3360 O 308.45 2.27691 0.192106 0
M  V30 3361 C 308.66 1.29765 -3.23978 0
M  V30 3362 C 310.008 1.7351 -3.8753 0
M  V30 3363 O 311.032 1.39356 -3.27808 0
M  V30 3364 O 309.891 2.36708 -4.92576 0
M  V30 3365 H 306.985 0.389914 -0.729312 0
M  V30 3366 H 309.531 0.0627213 -1.69584 0
M  V30 3367 H 308.303 0.47608 -3.88393 0
M  V30 3368 H 307.926 2.11189 -3.36875 0
M  V30 3369 N 308.923 1.53595 0.353017 0
M  V30 3370 C 309.87 1.80919 1.43308 0
M  V30 3371 C 310.84 0.654288 1.5267 0
M  V30 3372 O 312.025 0.897759 1.6836 0
M  V30 3373 C 309.165 2.01605 2.80089 0
M  V30 3374 C 308.278 3.29321 2.79593 0
M  V30 3375 C 307.413 3.40125 4.0803 0
M  V30 3376 C 306.452 4.61826 4.01725 0
M  V30 3377 N 305.589 4.69716 5.21834 0
M  V30 3378 H 310.429 2.73074 1.19308 0
M  V30 3379 H 307.966 1.35263 0.578131 0
M  V30 3380 H 309.924 2.11586 3.59565 0
M  V30 3381 H 308.554 1.12772 3.0246 0
M  V30 3382 H 307.606 3.28229 1.92276 0
M  V30 3383 H 308.918 4.18884 2.70809 0
M  V30 3384 H 308.072 3.49488 4.95927 0
M  V30 3385 H 306.811 2.48601 4.19582 0
M  V30 3386 H 305.816 4.52552 3.12213 0
M  V30 3387 H 307.041 5.54705 3.91764 0
M  V30 3388 H 304.987 3.81097 5.33948 0
M  V30 3389 H 304.904 5.53202 5.1527 0
M  V30 3390 H 306.172 4.83376 6.11529 0
M  V30 3391 N 310.401 -0.613514 1.45168 0
M  V30 3392 C 311.647 -1.37471 1.49096 0
M  V30 3393 C 311.98 -1.93765 0.129901 0
M  V30 3394 O 311.255 -1.74707 -0.854858 0
M  V30 3395 C 311.538 -2.52701 2.56542 0
M  V30 3396 C 311.391 -2.01643 4.0207 0
M  V30 3397 C 312.71 -3.54849 2.60327 0
M  V30 3398 H 309.829 -0.498502 0.54283 0
M  V30 3399 H 312.471 -0.692125 1.76945 0
M  V30 3400 H 310.621 -3.10931 2.32926 0
M  V30 3401 H 312.293 -1.48108 4.36877 0
M  V30 3402 H 310.536 -1.32688 4.13009 0
M  V30 3403 H 311.207 -2.84681 4.72928 0
M  V30 3404 H 313.683 -3.0645 2.81474 0
M  V30 3405 H 312.559 -4.32973 3.37381 0
M  V30 3406 H 312.82 -4.10079 1.6519 0
M  V30 3407 N 311.879 -1.3236 -0.855495 0
M  V30 3408 C 313.109 -1.25688 -1.6397 0
M  V30 3409 C 313.517 0.177592 -1.88365 0
M  V30 3410 O 312.86 1.12485 -1.45234 0
M  V30 3411 C 312.922 -1.94602 -3.02275 0
M  V30 3412 C 312.586 -3.43937 -3.00926 0
M  V30 3413 C 313.583 -4.39435 -2.77835 0
M  V30 3414 C 311.268 -3.85858 -3.21588 0
M  V30 3415 C 313.262 -5.74829 -2.75409 0
M  V30 3416 C 310.949 -5.21361 -3.18789 0
M  V30 3417 C 311.947 -6.15658 -2.95727 0
M  V30 3418 O 311.635 -7.48681 -2.928 0
M  V30 3419 H 311.367 -0.434972 -0.51747 0
M  V30 3420 H 313.921 -1.75023 -1.075 0
M  V30 3421 H 312.151 -1.39836 -3.60531 0
M  V30 3422 H 313.84 -1.81651 -3.62985 0
M  V30 3423 H 314.606 -4.08374 -2.6164 0
M  V30 3424 H 310.485 -3.12883 -3.38564 0
M  V30 3425 H 314.029 -6.48404 -2.57328 0
M  V30 3426 H 309.926 -5.52052 -3.34528 0
M  V30 3427 H 310.694 -7.5803 -3.0876 0
M  V30 3428 N 313.357 1.07166 -1.15556 0
M  V30 3429 C 314.305 2.16517 -0.8499 0
M  V30 3430 C 315.299 1.68468 0.177454 0
M  V30 3431 O 316.505 1.79971 0.0323026 0
M  V30 3432 H 312.88 0.706652 -0.25719 0
M  V30 3433 H 314.851 2.39514 -1.77976 0
M  V30 3434 C 313.6 3.45855 -0.357682 0
M  V30 3435 H 312.923 3.83214 -1.13961 0
M  V30 3436 H 314.363 4.23607 -0.182489 0
M  V30 3437 C 312.822 3.24062 0.921152 0
M  V30 3438 O 313.352 3.48813 1.9923 0
M  V30 3439 N 311.558 2.77539 0.86141 0
M  V30 3440 H 311.105 2.57598 -0.0104408 0
M  V30 3441 H 311.063 2.63337 1.71758 0
M  V30 3442 N 314.835 0.952656 1.25548 0
M  V30 3443 C 316.246 0.647392 1.75116 0
M  V30 3444 C 316.597 -0.837274 1.77438 0
M  V30 3445 O 315.722 -1.65525 1.39393 0
M  V30 3446 C 316.317 1.16845 3.18014 0
M  V30 3447 C 314.876 0.913382 3.6515 0
M  V30 3448 C 314.023 1.31265 2.44264 0
M  V30 3449 H 316.974 1.12968 1.11462 0
M  V30 3450 H 316.995 0.527606 3.76824 0
M  V30 3451 H 316.507 2.24902 3.16292 0
M  V30 3452 H 314.608 -0.152316 3.72289 0
M  V30 3453 H 314.721 1.54845 4.53387 0
M  V30 3454 H 313.085 0.731028 2.43984 0
M  V30 3455 H 313.868 2.40239 2.45234 0
M  V30 3456 N 316.313 -1.40141 0.720998 0
M  V30 3457 C 317.223 -2.34486 0.0731031 0
M  V30 3458 C 318.239 -1.57587 -0.737723 0
M  V30 3459 O 319.415 -1.89949 -0.669429 0
M  V30 3460 C 316.48 -3.36528 -0.833656 0
M  V30 3461 C 315.541 -4.29298 -0.0121673 0
M  V30 3462 C 314.774 -5.26466 -0.875742 0
M  V30 3463 O 314.997 -5.29745 -2.11485 0
M  V30 3464 O 313.931 -6.01092 -0.31185 0
M  V30 3465 H 317.757 -2.9152 0.851444 0
M  V30 3466 H 315.342 -1.41427 0.481527 0
M  V30 3467 H 317.224 -3.99093 -1.35289 0
M  V30 3468 H 315.899 -2.81899 -1.59105 0
M  V30 3469 H 314.806 -3.70001 0.552262 0
M  V30 3470 H 316.139 -4.87094 0.707129 0
M  V30 3471 N 317.792 -0.46758 -1.50504 0
M  V30 3472 C 319.04 0.0884469 -2.01906 0
M  V30 3473 C 319.361 1.40532 -1.35188 0
M  V30 3474 O 318.631 1.89515 -0.496079 0
M  V30 3475 H 317.211 0.0356765 -0.746148 0
M  V30 3476 H 319.873 -0.6172 -1.84869 0
M  V30 3477 H 318.969 0.2425 -3.11156 0
M  V30 3478 N 319.27 1.56325 -0.20005 0
M  V30 3479 C 320.2 2.22318 0.713916 0
M  V30 3480 C 321.181 1.18788 1.21752 0
M  V30 3481 O 322.366 1.47309 1.26545 0
M  V30 3482 C 319.496 2.88639 1.93144 0
M  V30 3483 C 318.45 3.98457 1.56255 0
M  V30 3484 C 317.776 4.51967 2.85709 0
M  V30 3485 C 319.076 5.16612 0.768747 0
M  V30 3486 H 320.77 2.98952 0.163755 0
M  V30 3487 H 318.316 1.43792 0.0773219 0
M  V30 3488 H 320.269 3.33491 2.57608 0
M  V30 3489 H 318.993 2.09419 2.50621 0
M  V30 3490 H 317.652 3.54305 0.941471 0
M  V30 3491 H 317.3 3.69503 3.41287 0
M  V30 3492 H 317 5.26071 2.6177 0
M  V30 3493 H 318.524 4.99523 3.51154 0
M  V30 3494 H 319.938 5.57977 1.3166 0
M  V30 3495 H 318.335 5.96812 0.627286 0
M  V30 3496 H 319.405 4.84358 -0.229168 0
M  V30 3497 N 320.748 -0.0735177 1.57428 0
M  V30 3498 C 322.164 -0.428264 1.53747 0
M  V30 3499 C 322.364 -1.79272 0.91998 0
M  V30 3500 O 321.42 -2.47051 0.521745 0
M  V30 3501 C 322.733 -0.370914 2.98404 0
M  V30 3502 C 324.281 -0.451224 3.0973 0
M  V30 3503 C 324.756 -0.4238 4.56035 0
M  V30 3504 N 326.247 -0.483925 4.60665 0
M  V30 3505 C 326.982 -0.484891 5.71346 0
M  V30 3506 N 326.478 -0.440775 6.91396 0
M  V30 3507 N 328.271 -0.531319 5.59583 0
M  V30 3508 H 320.422 0.819949 1.95935 0
M  V30 3509 H 322.685 0.307493 0.896745 0
M  V30 3510 H 322.391 0.564956 3.47133 0
M  V30 3511 H 322.265 -1.18176 3.5821 0
M  V30 3512 H 324.652 -1.37752 2.60976 0
M  V30 3513 H 324.733 0.388167 2.52838 0
M  V30 3514 H 324.377 0.498638 5.05446 0
M  V30 3515 H 324.307 -1.2807 5.10789 0
M  V30 3516 H 326.798 -0.522338 3.74273 0
M  V30 3517 H 327.111 -0.44539 7.71515 0
M  V30 3518 H 325.456 -0.40749 6.93804 0
M  V30 3519 H 328.647 -0.563464 4.64696 0
M  V30 3520 H 328.82 -0.528603 6.4584 0
M  V30 3521 N 322.226 -1.5378 -0.344866 0
M  V30 3522 C 323.456 -1.74646 -1.10374 0
M  V30 3523 C 323.864 -0.48491 -1.8288 0
M  V30 3524 O 323.207 0.553062 -1.75177 0
M  V30 3525 C 323.269 -2.87145 -2.16306 0
M  V30 3526 C 322.933 -4.26795 -1.63386 0
M  V30 3527 C 323.93 -5.08412 -1.08688 0
M  V30 3528 C 321.615 -4.73276 -1.68272 0
M  V30 3529 C 323.609 -6.34609 -0.595792 0
M  V30 3530 C 321.296 -5.99446 -1.18776 0
M  V30 3531 C 322.294 -6.79946 -0.645215 0
M  V30 3532 O 321.982 -8.03745 -0.157626 0
M  V30 3533 H 321.714 -0.587112 -0.335075 0
M  V30 3534 H 324.268 -2.01403 -0.403252 0
M  V30 3535 H 322.498 -2.55909 -2.89909 0
M  V30 3536 H 324.187 -2.95992 -2.77747 0
M  V30 3537 H 324.953 -4.73666 -1.04236 0
M  V30 3538 H 320.832 -4.10677 -2.09442 0
M  V30 3539 H 324.376 -6.97389 -0.171654 0
M  V30 3540 H 320.273 -6.33687 -1.22928 0
M  V30 3541 H 321.041 -8.18038 -0.275037 0
M  V30 3542 N 323.704 0.605807 -1.45491 0
M  V30 3543 C 324.614 1.74466 -1.56839 0
M  V30 3544 C 325.63 1.68006 -0.452772 0
M  V30 3545 O 326.806 1.8833 -0.713708 0
M  V30 3546 C 323.871 3.10931 -1.53371 0
M  V30 3547 C 322.932 3.28832 -2.75986 0
M  V30 3548 C 322.165 4.58787 -2.72673 0
M  V30 3549 O 322.388 5.4122 -1.80102 0
M  V30 3550 O 321.322 4.79438 -3.63899 0
M  V30 3551 H 325.148 1.67843 -2.53106 0
M  V30 3552 H 322.733 0.770108 -1.28022 0
M  V30 3553 H 324.615 3.92233 -1.54051 0
M  V30 3554 H 323.29 3.18042 -0.602572 0
M  V30 3555 H 322.197 2.47112 -2.80867 0
M  V30 3556 H 323.53 3.26599 -3.68231 0
M  V30 3557 N 325.182 1.32811 0.848464 0
M  V30 3558 C 326.13 1.22231 1.97895 0
M  V30 3559 C 327.124 0.125749 1.68933 0
M  V30 3560 O 328.33 0.289083 1.77663 0
M  V30 3561 H 324.705 0.379058 0.649476 0
M  V30 3562 H 326.676 2.17828 2.03945 0
M  V30 3563 C 325.425 0.968572 3.33937 0
M  V30 3564 H 324.748 1.80458 3.56756 0
M  V30 3565 H 326.188 0.934808 4.13567 0
M  V30 3566 C 324.647 -0.328628 3.35293 0
M  V30 3567 O 325.177 -1.33848 3.78745 0
M  V30 3568 N 323.383 -0.352788 2.88451 0
M  V30 3569 H 322.93 0.469541 2.53285 0
M  V30 3570 H 322.888 -1.22057 2.89741 0
M  V30 3571 N 326.66 -1.06551 1.16123 0
M  V30 3572 C 327.57 -2.17484 0.879662 0
M  V30 3573 C 328.586 -1.73377 -0.147104 0
M  V30 3574 O 329.762 -2.01379 0.0289128 0
M  V30 3575 C 326.827 -3.44591 0.381829 0
M  V30 3576 C 325.888 -4.0322 1.4735 0
M  V30 3577 C 325.121 -5.24261 0.999324 0
M  V30 3578 O 325.344 -5.70198 -0.151957 0
M  V30 3579 O 324.278 -5.74775 1.78653 0
M  V30 3580 H 328.104 -2.44075 1.80724 0
M  V30 3581 H 325.689 -1.16042 0.940992 0
M  V30 3582 H 327.571 -4.21254 0.111053 0
M  V30 3583 H 326.246 -3.19532 -0.51777 0
M  V30 3584 H 325.153 -3.2806 1.79798 0
M  V30 3585 H 326.486 -4.32568 2.34831 0
M  V30 3586 N 328.138 -0.959301 -1.25041 0
M  V30 3587 C 329.549 -0.65667 -1.74771 0
M  V30 3588 C 329.9 0.827852 -1.77879 0
M  V30 3589 O 329.025 1.64783 -1.40269 0
M  V30 3590 C 329.62 -1.1853 -3.1739 0
M  V30 3591 C 328.179 -0.932734 -3.6466 0
M  V30 3592 C 327.326 -1.32558 -2.43564 0
M  V30 3593 H 330.277 -1.13558 -1.10862 0
M  V30 3594 H 330.298 -0.547582 -3.76539 0
M  V30 3595 H 329.81 -2.26576 -3.15095 0
M  V30 3596 H 327.911 0.13257 -3.72364 0
M  V30 3597 H 328.024 -1.57248 -4.52559 0
M  V30 3598 H 326.388 -0.743956 -2.43593 0
M  V30 3599 H 327.171 -2.41537 -2.43957 0
M  V30 3600 N 329.616 1.39756 -0.72842 0
M  V30 3601 C 330.862 2.00942 -0.273892 0
M  V30 3602 C 331.195 1.57656 1.13394 0
M  V30 3603 O 330.47 0.802434 1.77176 0
M  V30 3604 C 330.753 3.58211 -0.368346 0
M  V30 3605 C 330.606 4.11534 -1.81548 0
M  V30 3606 C 331.925 4.39372 0.253054 0
M  V30 3607 H 329.044 0.730047 -0.100996 0
M  V30 3608 H 331.686 1.66056 -0.923337 0
M  V30 3609 H 329.836 3.88061 0.184588 0
M  V30 3610 H 331.508 3.92431 -2.42478 0
M  V30 3611 H 329.751 3.65341 -2.33898 0
M  V30 3612 H 330.422 5.20682 -1.83288 0
M  V30 3613 H 332.898 4.15527 -0.218224 0
M  V30 3614 H 331.774 5.48677 0.156585 0
M  V30 3615 H 332.035 4.21358 1.33826 0
M  V30 3616 N 331.094 0.475555 1.50254 0
M  V30 3617 C 332.51 0.12997 1.5907 0
M  V30 3618 C 332.71 -1.36385 1.48328 0
M  V30 3619 O 331.766 -2.13754 1.34407 0
M  V30 3620 C 333.079 0.684139 2.92814 0
M  V30 3621 C 334.627 0.647965 3.0622 0
M  V30 3622 C 335.102 1.17975 4.42545 0
M  V30 3623 N 336.593 1.13936 4.48969 0
M  V30 3624 C 337.328 1.52129 5.52851 0
M  V30 3625 N 336.824 1.97793 6.63965 0
M  V30 3626 N 338.617 1.43704 5.4342 0
M  V30 3627 H 330.768 1.44706 1.55479 0
M  V30 3628 H 333.031 0.598691 0.735033 0
M  V30 3629 H 332.737 1.73079 3.06164 0
M  V30 3630 H 332.611 0.130204 3.76975 0
M  V30 3631 H 334.998 -0.38979 2.92514 0
M  V30 3632 H 335.079 1.23876 2.23805 0
M  V30 3633 H 334.723 2.21616 4.57 0
M  V30 3634 H 334.653 0.565138 5.23559 0
M  V30 3635 H 337.144 0.804488 3.69238 0
M  V30 3636 H 337.457 2.25072 7.39299 0
M  V30 3637 H 335.802 2.01749 6.65073 0
M  V30 3638 H 338.993 1.07867 4.55502 0
M  V30 3639 H 339.166 1.73794 6.24259 0
M  V30 3640 N 332.573 -1.56217 0.208337 0
M  V30 3641 C 333.523 -2.16324 -0.720281 0
M  V30 3642 C 334.507 -1.10775 -1.16695 0
M  V30 3643 O 335.699 -1.36801 -1.12314 0
M  V30 3644 C 332.828 -2.83644 -1.93393 0
M  V30 3645 C 331.914 -3.96401 -1.50755 0
M  V30 3646 N 332.305 -4.99546 -0.792937 0
M  V30 3647 C 330.603 -4.08246 -1.79585 0
M  V30 3648 C 331.304 -5.78828 -0.577364 0
M  V30 3649 N 330.28 -5.31723 -1.1301 0
M  V30 3650 H 334.082 -2.93432 -0.165725 0
M  V30 3651 H 331.596 -1.62397 0.00906463 0
M  V30 3652 H 333.593 -3.25107 -2.60981 0
M  V30 3653 H 332.253 -2.08027 -2.49308 0
M  V30 3654 H 333.264 -5.15967 -0.447004 0
M  V30 3655 H 329.941 -3.4377 -2.36915 0
M  V30 3656 H 331.331 -6.71899 -0.00952956 0
M  V30 3657 N 334.051 0.0651679 -1.57465 0
M  V30 3658 C 334.998 1.07675 -2.04144 0
M  V30 3659 C 335.968 1.38071 -0.923335 0
M  V30 3660 O 337.153 1.49026 -1.19146 0
M  V30 3661 C 334.293 2.38337 -2.49579 0
M  V30 3662 C 333.406 2.14413 -3.75035 0
M  V30 3663 C 332.541 3.38686 -4.09225 0
M  V30 3664 C 331.58 3.10156 -5.27702 0
M  V30 3665 N 330.717 4.26778 -5.57499 0
M  V30 3666 H 335.557 0.671716 -2.90331 0
M  V30 3667 H 333.094 0.3201 -1.43575 0
M  V30 3668 H 335.052 3.14632 -2.73975 0
M  V30 3669 H 333.682 2.7663 -1.6636 0
M  V30 3670 H 332.734 1.2878 -3.57939 0
M  V30 3671 H 334.046 1.89344 -4.61466 0
M  V30 3672 H 333.2 4.23373 -4.34558 0
M  V30 3673 H 331.939 3.66837 -3.21374 0
M  V30 3674 H 330.944 2.23866 -5.02159 0
M  V30 3675 H 332.169 2.8332 -6.17176 0
M  V30 3676 H 330.115 4.54948 -4.72608 0
M  V30 3677 H 330.032 4.05005 -6.38362 0
M  V30 3678 H 331.3 5.12443 -5.87386 0
M  V30 3679 N 335.529 1.53961 0.336706 0
M  V30 3680 C 336.775 1.7179 1.07777 0
M  V30 3681 C 337.108 0.483263 1.88091 0
M  V30 3682 O 336.383 -0.519747 1.87427 0
M  V30 3683 C 336.666 2.98558 2.01334 0
M  V30 3684 C 336.519 4.32245 1.24437 0
M  V30 3685 C 337.838 3.21023 3.01052 0
M  V30 3686 H 334.957 0.625089 0.390426 0
M  V30 3687 H 337.599 1.86641 0.35567 0
M  V30 3688 H 335.749 2.86028 2.62908 0
M  V30 3689 H 337.421 4.56637 0.654243 0
M  V30 3690 H 335.664 4.30344 0.546458 0
M  V30 3691 H 336.335 5.17137 1.93063 0
M  V30 3692 H 338.811 3.32929 2.49595 0
M  V30 3693 H 337.687 4.11104 3.6371 0
M  V30 3694 H 337.948 2.37637 3.72802 0
M  V30 3695 N 337.007 -0.598083 1.45811 0
M  V30 3696 C 338.254 -1.35681 1.50323 0
M  V30 3697 C 338.582 -1.9393 0.148739 0
M  V30 3698 O 337.837 -1.76094 -0.853787 0
M  V30 3699 C 338.136 -2.51669 2.53766 0
M  V30 3700 C 337.802 -2.11508 3.98215 0
M  V30 3701 C 336.464 -2.0027 4.37545 0
M  V30 3702 C 338.816 -1.80308 4.89018 0
M  V30 3703 C 336.144 -1.56067 5.65562 0
M  V30 3704 C 338.496 -1.37589 6.17456 0
M  V30 3705 C 337.16 -1.24916 6.55708 0
M  V30 3706 H 336.43 -0.496492 0.550069 0
M  V30 3707 H 339.077 -0.675052 1.79207 0
M  V30 3708 H 337.382 -3.25225 2.18486 0
M  V30 3709 H 339.079 -3.09895 2.54492 0
M  V30 3710 H 335.669 -2.21185 3.67117 0
M  V30 3711 H 339.853 -1.87884 4.59362 0
M  V30 3712 H 335.109 -1.44886 5.93985 0
M  V30 3713 H 339.283 -1.12495 6.87254 0
M  V30 3714 H 336.91 -0.904386 7.54801 0
M  V30 3715 N 338.485 -1.33259 -0.841409 0
M  V30 3716 C 339.762 -1.15174 -1.58096 0
M  V30 3717 C 340.142 0.282858 -2.09196 0
M  V30 3718 O 339.49 1.28151 -1.89181 0
M  V30 3719 C 339.7 -2.1907 -2.71679 0
M  V30 3720 C 341.048 -2.53093 -3.40924 0
M  V30 3721 O 342.072 -2.17717 -2.81918 0
M  V30 3722 O 340.931 -3.1379 -4.47435 0
M  V30 3723 H 338.025 -0.445303 -0.696875 0
M  V30 3724 H 340.571 -1.44833 -0.884385 0
M  V30 3725 H 339.343 -3.15443 -2.31541 0
M  V30 3726 H 338.966 -1.90481 -3.49002 0
M  V30 3727 N 339.963 1.05934 -1.16686 0
M  V30 3728 C 340.893 2.1546 -0.899949 0
M  V30 3729 C 341.874 1.69391 0.155154 0
M  V30 3730 O 343.059 1.94199 0.00648693 0
M  V30 3731 C 340.189 3.44939 -0.404241 0
M  V30 3732 C 339.143 4.04536 -1.39767 0
M  V30 3733 C 338.469 5.29268 -0.760216 0
M  V30 3734 C 339.769 4.42893 -2.76845 0
M  V30 3735 H 341.463 2.38046 -1.81588 0
M  V30 3736 H 339.009 1.14404 -0.874514 0
M  V30 3737 H 340.962 4.20901 -0.204971 0
M  V30 3738 H 339.686 3.21983 0.547206 0
M  V30 3739 H 338.345 3.30635 -1.58355 0
M  V30 3740 H 337.993 5.02611 0.197831 0
M  V30 3741 H 337.693 5.70101 -1.42332 0
M  V30 3742 H 339.217 6.07924 -0.57105 0
M  V30 3743 H 340.631 5.09921 -2.62019 0
M  V30 3744 H 339.028 4.94721 -3.39663 0
M  V30 3745 H 340.098 3.53584 -3.31823 0
M  V30 3746 N 341.441 0.965919 1.2453 0
M  V30 3747 C 342.69 0.622437 1.91856 0
M  V30 3748 C 343.003 -0.846006 1.76358 0
M  V30 3749 O 344.209 -1.29993 2.38357 0
M  V30 3750 C 342.665 1.0626 3.43856 0
M  V30 3751 C 342.273 2.55437 3.68043 0
M  V30 3752 C 344.017 0.792183 4.17043 0
M  V30 3753 C 341.924 2.93196 5.13605 0
M  V30 3754 H 340.854 0.229092 0.718354 0
M  V30 3755 H 343.505 1.17189 1.41206 0
M  V30 3756 H 341.887 0.441476 3.93531 0
M  V30 3757 H 343.061 3.22665 3.28974 0
M  V30 3758 H 341.376 2.8007 3.08139 0
M  V30 3759 H 343.973 1.05031 5.24283 0
M  V30 3760 H 344.316 -0.271584 4.15413 0
M  V30 3761 H 344.849 1.37419 3.73311 0
M  V30 3762 H 341.588 3.98636 5.20355 0
M  V30 3763 H 341.108 2.30651 5.53679 0
M  V30 3764 H 342.787 2.83004 5.81823 0
M  V30 3765 N 342.919 -1.39368 0.735821 0
M  V30 3766 C 344.167 -2.00101 0.283562 0
M  V30 3767 C 344.488 -1.5868 -1.13338 0
M  V30 3768 O 343.758 -0.835423 -1.77193 0
M  V30 3769 H 342.338 -0.740024 0.101851 0
M  V30 3770 H 345 -1.70404 0.945962 0
M  V30 3771 H 344.096 -3.10323 0.332604 0
M  V30 3772 N 344.397 -0.483516 -1.5 0
M  V30 3773 C 345.674 0.129337 -1.95172 0
M  V30 3774 C 346.054 1.55802 -1.4244 0
M  V30 3775 O 345.402 2.19625 -0.630649 0
M  V30 3776 C 345.612 0.0599251 -3.48949 0
M  V30 3777 C 346.96 0.242617 -4.23906 0
M  V30 3778 O 347.984 0.135933 -3.55941 0
M  V30 3779 O 346.843 0.459454 -5.44565 0
M  V30 3780 H 343.937 0.104887 -0.820322 0
M  V30 3781 H 346.483 -0.544807 -1.60717 0
M  V30 3782 H 345.255 -0.937079 -3.79914 0
M  V30 3783 H 344.878 0.774984 -3.89974 0
M  V30 3784 N 345.875 1.56104 -0.216619 0
M  V30 3785 C 346.805 2.23063 0.690296 0
M  V30 3786 C 347.786 1.20072 1.20485 0
M  V30 3787 O 348.971 1.48643 1.24976 0
M  V30 3788 C 346.101 2.90672 1.90072 0
M  V30 3789 C 345.055 4.00092 1.5202 0
M  V30 3790 C 344.381 4.54972 2.80899 0
M  V30 3791 C 345.681 5.17398 0.71391 0
M  V30 3792 H 347.375 2.99109 0.132038 0
M  V30 3793 H 344.921 1.43866 0.0620664 0
M  V30 3794 H 346.874 3.36204 2.54057 0
M  V30 3795 H 345.598 2.12066 2.48386 0
M  V30 3796 H 344.257 3.55283 0.903839 0
M  V30 3797 H 343.905 3.73102 3.37348 0
M  V30 3798 H 343.605 5.28817 2.56176 0
M  V30 3799 H 345.129 5.0322 3.45836 0
M  V30 3800 H 346.543 5.59342 1.25735 0
M  V30 3801 H 344.94 5.97444 0.563951 0
M  V30 3802 H 346.01 4.84088 -0.280527 0
M  V30 3803 N 347.353 -0.0568162 1.57498 0
M  V30 3804 C 348.583 -0.764515 1.91934 0
M  V30 3805 C 348.991 -1.70877 0.81227 0
M  V30 3806 O 348.334 -1.82351 -0.222213 0
M  V30 3807 C 348.396 -1.5994 3.21962 0
M  V30 3808 C 348.06 -0.822925 4.4953 0
M  V30 3809 C 349.057 -0.135464 5.19723 0
M  V30 3810 C 346.742 -0.785666 4.96117 0
M  V30 3811 C 348.736 0.578861 6.34766 0
M  V30 3812 C 346.423 -0.0675784 6.11063 0
M  V30 3813 C 347.421 0.613471 6.80239 0
M  V30 3814 O 347.109 1.31996 7.92989 0
M  V30 3815 H 346.841 -0.221647 0.63863 0
M  V30 3816 H 349.395 -0.0268218 2.05382 0
M  V30 3817 H 347.625 -2.38026 3.04763 0
M  V30 3818 H 349.314 -2.18715 3.41934 0
M  V30 3819 H 350.08 -0.155458 4.84751 0
M  V30 3820 H 345.959 -1.30524 4.42136 0
M  V30 3821 H 349.503 1.111 6.88696 0
M  V30 3822 H 345.4 -0.0455636 6.45484 0
M  V30 3823 H 346.168 1.23077 8.09194 0
M  V30 3824 N 348.832 -1.54138 -0.328536 0
M  V30 3825 C 349.762 -1.86167 -1.40939 0
M  V30 3826 C 350.743 -0.718044 -1.54202 0
M  V30 3827 O 351.928 -0.971328 -1.68163 0
M  V30 3828 C 349.058 -2.08461 -2.77779 0
M  V30 3829 C 348.012 -3.24299 -2.7931 0
M  V30 3830 C 347.338 -3.31955 -4.19178 0
M  V30 3831 C 348.638 -4.62065 -2.43502 0
M  V30 3832 H 350.332 -2.76689 -1.14383 0
M  V30 3833 H 347.878 -1.33132 -0.548806 0
M  V30 3834 H 349.831 -2.29453 -3.53454 0
M  V30 3835 H 348.555 -1.14684 -3.05802 0
M  V30 3836 H 347.214 -3.03187 -2.0609 0
M  V30 3837 H 346.862 -2.35745 -4.44335 0
M  V30 3838 H 346.562 -4.09805 -4.2111 0
M  V30 3839 H 348.086 -3.55175 -4.96672 0
M  V30 3840 H 349.5 -4.8297 -3.08889 0
M  V30 3841 H 347.897 -5.42429 -2.56693 0
M  V30 3842 H 348.967 -4.64652 -1.38659 0
M  V30 3843 N 350.31 0.590341 -1.46126 0
M  V30 3844 C 351.24 1.71032 -1.58966 0
M  V30 3845 C 352.221 1.64302 -0.440335 0
M  V30 3846 O 353.406 1.82436 -0.665634 0
M  V30 3847 C 350.536 3.09665 -1.57241 0
M  V30 3848 C 349.49 3.31221 -2.71066 0
M  V30 3849 C 348.816 4.70303 -2.54399 0
M  V30 3850 C 350.116 3.19796 -4.1295 0
M  V30 3851 H 351.81 1.60543 -2.52718 0
M  V30 3852 H 349.356 0.770933 -1.21625 0
M  V30 3853 H 351.309 3.87831 -1.64819 0
M  V30 3854 H 350.033 3.21036 -0.600289 0
M  V30 3855 H 348.692 2.55452 -2.62944 0
M  V30 3856 H 348.34 4.78429 -1.55288 0
M  V30 3857 H 348.04 4.85679 -3.30741 0
M  V30 3858 H 349.564 5.50647 -2.63857 0
M  V30 3859 H 350.978 3.87815 -4.22223 0
M  V30 3860 H 349.375 3.46696 -4.89818 0
M  V30 3861 H 350.445 2.16983 -4.33643 0
M  V30 3862 N 351.788 1.33704 0.83433 0
M  V30 3863 C 353.036 1.25169 1.58673 0
M  V30 3864 C 353.357 -0.18127 1.94156 0
M  V30 3865 O 352.627 -1.11113 1.6134 0
M  V30 3866 H 351.207 0.4603 0.58833 0
M  V30 3867 H 353.869 1.67478 0.996847 0
M  V30 3868 H 352.965 1.84856 2.51465 0
M  V30 3869 N 353.266 -1.05314 1.17247 0
M  V30 3870 C 354.491 -1.82509 0.985148 0
M  V30 3871 C 354.916 -1.82343 -0.461788 0
M  V30 3872 O 354.274 -1.23151 -1.33055 0
M  V30 3873 C 354.322 -3.26566 1.52929 0
M  V30 3874 O 353.426 -4.05666 0.742225 0
M  V30 3875 H 352.767 -0.564347 0.349869 0
M  V30 3876 H 355.297 -1.32718 1.55715 0
M  V30 3877 H 355.307 -3.77369 1.55103 0
M  V30 3878 H 353.982 -3.26001 2.58256 0
M  V30 3879 H 352.559 -3.64397 0.791794 0
M  V30 3880 N 354.744 -0.972509 -1.24016 0
M  V30 3881 C 356.155 -0.67517 -1.74064 0
M  V30 3882 C 356.506 0.808939 -1.78747 0
M  V30 3883 O 355.631 1.63286 -1.42009 0
M  V30 3884 C 356.226 -1.21889 -3.16115 0
M  V30 3885 C 354.785 -0.971358 -3.6365 0
M  V30 3886 C 353.932 -1.35134 -2.42145 0
M  V30 3887 H 356.883 -1.14727 -1.09651 0
M  V30 3888 H 356.904 -0.587489 -3.75937 0
M  V30 3889 H 356.416 -2.29906 -3.12674 0
M  V30 3890 H 354.517 0.0930686 -3.72484 0
M  V30 3891 H 354.63 -1.62039 -4.50866 0
M  V30 3892 H 352.994 -0.769751 -2.4279 0
M  V30 3893 H 353.777 -2.4411 -2.41381 0
M  V30 3894 N 356.222 1.38976 -0.743202 0
M  V30 3895 C 357.468 2.0064 -0.295189 0
M  V30 3896 C 357.801 1.5885 1.11716 0
M  V30 3897 O 357.076 0.821181 1.76315 0
M  V30 3898 C 357.359 3.578 -0.406318 0
M  V30 3899 C 357.212 4.09586 -1.85903 0
M  V30 3900 C 358.531 4.39616 0.206439 0
M  V30 3901 H 355.65 0.728935 -0.108733 0
M  V30 3902 H 358.292 1.65067 -0.940897 0
M  V30 3903 H 356.442 3.88235 0.143419 0
M  V30 3904 H 358.114 3.89837 -2.46627 0
M  V30 3905 H 356.357 3.6284 -2.3776 0
M  V30 3906 H 357.028 5.18708 -1.888 0
M  V30 3907 H 359.504 4.15273 -0.262283 0
M  V30 3908 H 358.38 5.48812 0.0983819 0
M  V30 3909 H 358.641 4.22754 1.2935 0
M  V30 3910 N 357.7 0.491464 1.49741 0
M  V30 3911 C 358.647 -0.292027 2.28945 0
M  V30 3912 C 359.617 -0.968973 1.34908 0
M  V30 3913 O 360.802 -0.97748 1.6386 0
M  V30 3914 C 357.942 -1.35617 3.17336 0
M  V30 3915 C 357.055 -0.691957 4.26422 0
M  V30 3916 C 356.19 -1.73572 5.02042 0
M  V30 3917 C 355.229 -1.05286 6.02977 0
M  V30 3918 N 354.366 -2.0404 6.71798 0
M  V30 3919 H 359.206 0.389654 2.95442 0
M  V30 3920 H 356.743 0.204003 1.45679 0
M  V30 3921 H 358.701 -1.98502 3.66951 0
M  V30 3922 H 357.331 -2.00674 2.52844 0
M  V30 3923 H 356.383 0.0499523 3.80367 0
M  V30 3924 H 357.695 -0.153946 4.98562 0
M  V30 3925 H 356.849 -2.43987 5.55478 0
M  V30 3926 H 355.588 -2.30757 4.29654 0
M  V30 3927 H 354.593 -0.334446 5.48782 0
M  V30 3928 H 355.818 -0.487636 6.77347 0
M  V30 3929 H 353.764 -2.60205 6.02187 0
M  V30 3930 H 353.681 -1.55279 7.39881 0
M  V30 3931 H 354.949 -2.73772 7.29842 0
M  V30 3932 N 359.178 -1.55987 0.224894 0
M  V30 3933 C 360.426 -1.97998 -0.405099 0
M  V30 3934 C 360.747 -1.11387 -1.60056 0
M  V30 3935 O 360.017 -0.191645 -1.9496 0
M  V30 3936 H 358.597 -0.731235 -0.152658 0
M  V30 3937 H 361.259 -1.92279 0.318567 0
M  V30 3938 H 360.355 -3.03463 -0.729167 0
M  V30 3939 N 360.656 0.0484629 -1.57525 0
M  V30 3940 C 361.603 1.05504 -2.05275 0
M  V30 3941 C 362.573 1.37084 -0.937927 0
M  V30 3942 O 363.758 1.47754 -1.2072 0
M  V30 3943 C 360.898 2.35676 -2.52093 0
M  V30 3944 C 360.011 2.10423 -3.77288 0
M  V30 3945 C 359.146 3.34327 -4.12794 0
M  V30 3946 C 358.185 3.04542 -5.30962 0
M  V30 3947 N 357.322 4.20841 -5.61994 0
M  V30 3948 H 362.162 0.640885 -2.91027 0
M  V30 3949 H 359.699 0.304854 -1.43906 0
M  V30 3950 H 361.657 3.11709 -2.77297 0
M  V30 3951 H 360.287 2.7485 -1.69285 0
M  V30 3952 H 359.339 1.24976 -3.59284 0
M  V30 3953 H 360.651 1.84438 -4.63448 0
M  V30 3954 H 359.805 4.1874 -4.39024 0
M  V30 3955 H 358.544 3.63408 -3.25247 0
M  V30 3956 H 357.549 2.18528 -5.04505 0
M  V30 3957 H 358.774 2.76758 -6.20146 0
M  V30 3958 H 356.72 4.4991 -4.77406 0
M  V30 3959 H 356.637 3.98212 -6.42622 0
M  V30 3960 H 357.905 5.06184 -5.92789 0
M  V30 3961 N 362.134 1.5431 0.320358 0
M  V30 3962 C 363.381 1.72668 1.05792 0
M  V30 3963 C 363.709 0.502084 1.87908 0
M  V30 3964 O 362.964 -0.516149 1.88771 0
M  V30 3965 C 363.263 2.95639 2.00828 0
M  V30 3966 C 362.929 4.30265 1.34843 0
M  V30 3967 C 361.591 4.66865 1.16578 0
M  V30 3968 C 363.943 5.13801 0.875095 0
M  V30 3969 C 361.271 5.84597 0.496336 0
M  V30 3970 C 363.623 6.32219 0.219463 0
M  V30 3971 C 362.287 6.67495 0.0246915 0
M  V30 3972 H 361.557 0.631837 0.387121 0
M  V30 3973 H 364.204 1.88552 0.334735 0
M  V30 3974 H 362.509 2.74456 2.79609 0
M  V30 3975 H 364.206 3.07038 2.57932 0
M  V30 3976 H 360.796 4.01472 1.50061 0
M  V30 3977 H 364.98 4.86039 1.00398 0
M  V30 3978 H 360.236 6.10486 0.334264 0
M  V30 3979 H 364.41 6.96227 -0.155291 0
M  V30 3980 H 362.037 7.5858 -0.496065 0
M  V30 3981 N 363.613 -0.582584 1.46437 0
M  V30 3982 C 364.843 -1.36484 1.55099 0
M  V30 3983 C 365.251 -1.88233 0.191056 0
M  V30 3984 O 364.594 -1.6429 -0.821858 0
M  V30 3985 C 364.656 -2.588 2.49525 0
M  V30 3986 C 364.32 -2.28517 3.95764 0
M  V30 3987 C 365.317 -1.87346 4.84972 0
M  V30 3988 C 363.002 -2.40658 4.40896 0
M  V30 3989 C 364.996 -1.5871 6.17325 0
M  V30 3990 C 362.683 -2.11635 5.73284 0
M  V30 3991 C 363.681 -1.70725 6.61318 0
M  V30 3992 O 363.369 -1.42057 7.91249 0
M  V30 3993 H 363.101 -0.423297 0.527063 0
M  V30 3994 H 365.655 -0.715188 1.92547 0
M  V30 3995 H 363.885 -3.26571 2.07095 0
M  V30 3996 H 365.574 -3.20868 2.48593 0
M  V30 3997 H 366.34 -1.77481 4.5136 0
M  V30 3998 H 362.219 -2.71463 3.72598 0
M  V30 3999 H 365.763 -1.26704 6.85997 0
M  V30 4000 H 361.66 -2.21124 6.06444 0
M  V30 4001 H 362.428 -1.55901 8.03515 0
M  V30 4002 N 365.091 -1.34144 -0.827227 0
M  V30 4003 C 366.316 -1.29476 -1.62021 0
M  V30 4004 C 366.741 0.129292 -1.87655 0
M  V30 4005 O 366.099 1.08967 -1.449 0
M  V30 4006 C 366.147 -2.08702 -2.94068 0
M  V30 4007 O 365.251 -1.45359 -3.85933 0
M  V30 4008 H 364.592 -0.444881 -0.492927 0
M  V30 4009 H 367.122 -1.76882 -1.02829 0
M  V30 4010 H 367.132 -2.19898 -3.43669 0
M  V30 4011 H 365.807 -3.12241 -2.74734 0
M  V30 4012 H 364.384 -1.42879 -3.44442 0
M  V30 4013 N 366.569 1.04691 -1.17803 0
M  V30 4014 C 367.816 1.77782 -0.969532 0
M  V30 4015 C 368.144 1.87926 0.501401 0
M  V30 4016 O 367.399 1.37918 1.38842 0
M  V30 4017 C 367.698 3.21467 -1.56186 0
M  V30 4018 C 367.364 3.3137 -3.05786 0
M  V30 4019 C 366.026 3.3378 -3.46619 0
M  V30 4020 C 368.378 3.31976 -4.01797 0
M  V30 4021 C 365.706 3.34431 -4.82051 0
M  V30 4022 C 368.058 3.34167 -5.37136 0
M  V30 4023 C 366.722 3.34866 -5.77426 0
M  V30 4024 H 365.992 0.650549 -0.354777 0
M  V30 4025 H 368.639 1.23006 -1.46772 0
M  V30 4026 H 366.944 3.79203 -0.985515 0
M  V30 4027 H 368.641 3.76652 -1.37602 0
M  V30 4028 H 365.231 3.3021 -2.73238 0
M  V30 4029 H 369.415 3.29311 -3.71306 0
M  V30 4030 H 364.671 3.33285 -5.12573 0
M  V30 4031 H 368.845 3.33585 -6.11305 0
M  V30 4032 H 366.472 3.35124 -6.82346 0
M  V30 4033 N 368.047 0.979072 1.23499 0
M  V30 4034 C 369.463 0.687475 1.44034 0
M  V30 4035 C 369.663 -0.746801 1.8715 0
M  V30 4036 O 368.719 -1.51939 2.0167 0
M  V30 4037 C 370.032 1.68127 2.49307 0
M  V30 4038 C 371.58 1.69516 2.63122 0
M  V30 4039 C 372.055 2.67723 3.71603 0
M  V30 4040 N 373.546 2.66233 3.79044 0
M  V30 4041 C 374.281 3.38891 4.62537 0
M  V30 4042 N 373.777 4.21103 5.50131 0
M  V30 4043 N 375.57 3.27661 4.56721 0
M  V30 4044 H 367.721 1.90559 0.938135 0
M  V30 4045 H 369.984 0.821051 0.473897 0
M  V30 4046 H 369.69 2.70693 2.2454 0
M  V30 4047 H 369.564 1.46306 3.4767 0
M  V30 4048 H 371.951 0.676561 2.8724 0
M  V30 4049 H 372.032 1.95404 1.65079 0
M  V30 4050 H 371.676 3.69724 3.48233 0
M  V30 4051 H 371.606 2.39111 4.69184 0
M  V30 4052 H 374.097 2.06568 3.16446 0
M  V30 4053 H 374.41 4.73403 6.10827 0
M  V30 4054 H 372.755 4.25195 5.49759 0
M  V30 4055 H 375.946 2.62887 3.87309 0
M  V30 4056 H 376.119 3.84547 5.21562 0
M  V30 4057 N 369.525 -1.3858 0.750561 0
M  V30 4058 C 370.773 -1.99789 0.30477 0
M  V30 4059 C 371.094 -1.59874 -1.11649 0
M  V30 4060 O 370.364 -0.85417 -1.76297 0
M  V30 4061 H 368.944 -0.738902 0.109694 0
M  V30 4062 H 371.606 -1.69391 0.963983 0
M  V30 4063 H 370.702 -3.09952 0.365499 0
M  V30 4064 N 371.003 -0.499398 -1.49478 0
M  V30 4065 C 372.251 0.0455996 -2.02049 0
M  V30 4066 C 372.572 1.37633 -1.38138 0
M  V30 4067 O 371.842 1.8842 -0.536166 0
M  V30 4068 H 370.422 0.0198416 -0.746736 0
M  V30 4069 H 373.084 -0.656274 -1.83519 0
M  V30 4070 H 372.18 0.176445 -3.11601 0
M  V30 4071 N 372.481 1.55866 -0.233164 0
M  V30 4072 C 373.431 2.17442 0.685774 0
M  V30 4073 C 374.415 1.12617 1.14918 0
M  V30 4074 O 375.607 1.3857 1.10124 0
M  V30 4075 C 372.736 2.86685 1.88856 0
M  V30 4076 C 371.822 3.98749 1.4443 0
M  V30 4077 N 372.213 5.00744 0.713364 0
M  V30 4078 C 370.511 4.11052 1.73068 0
M  V30 4079 C 371.212 5.79673 0.485205 0
M  V30 4080 N 370.188 5.33454 1.04536 0
M  V30 4081 H 373.99 2.93659 0.119022 0
M  V30 4082 H 371.504 1.62362 -0.0348995 0
M  V30 4083 H 373.501 3.29218 2.55776 0
M  V30 4084 H 372.161 2.11967 2.45967 0
M  V30 4085 H 373.172 5.16613 0.364861 0
M  V30 4086 H 369.849 3.47495 2.31416 0
M  V30 4087 H 371.239 6.71829 -0.097365 0
M  V30 4088 N 373.959 -0.0401083 1.57549 0
M  V30 4089 C 375.184 -0.748931 1.93406 0
M  V30 4090 C 375.609 -1.68686 0.832274 0
M  V30 4091 O 374.967 -1.80047 -0.212818 0
M  V30 4092 C 375.015 -1.4916 3.28304 0
M  V30 4093 O 374.119 -2.6042 3.19774 0
M  V30 4094 H 373.46 -0.202212 0.63246 0
M  V30 4095 H 375.99 0.00112086 2.046 0
M  V30 4096 H 376 -1.86395 3.62934 0
M  V30 4097 H 374.675 -0.80364 4.08062 0
M  V30 4098 H 373.252 -2.25808 2.96758 0
M  V30 4099 N 375.437 -1.54477 -0.31217 0
M  V30 4100 C 376.367 -1.87652 -1.38957 0
M  V30 4101 C 377.348 -0.734358 -1.53431 0
M  V30 4102 O 378.533 -0.98911 -1.67123 0
M  V30 4103 C 375.663 -2.11396 -2.75552 0
M  V30 4104 C 374.617 -3.27243 -2.75855 0
M  V30 4105 C 373.943 -3.36382 -4.15633 0
M  V30 4106 C 375.243 -4.64622 -2.38587 0
M  V30 4107 H 376.937 -2.77887 -1.11442 0
M  V30 4108 H 374.483 -1.33707 -0.534655 0
M  V30 4109 H 376.436 -2.33189 -3.51 0
M  V30 4110 H 375.16 -1.17921 -3.04569 0
M  V30 4111 H 373.819 -3.05356 -2.02863 0
M  V30 4112 H 373.467 -2.40445 -4.41809 0
M  V30 4113 H 373.167 -4.14249 -4.1674 0
M  V30 4114 H 374.691 -3.60422 -4.92877 0
M  V30 4115 H 376.105 -4.86219 -3.03749 0
M  V30 4116 H 374.502 -5.45121 -2.50925 0
M  V30 4117 H 375.572 -4.66097 -1.33723 0
M  V30 4118 N 376.915 0.57481 -1.46744 0
M  V30 4119 C 377.863 1.70435 -1.58286 0
M  V30 4120 C 378.857 1.63287 -0.450956 0
M  V30 4121 O 380.063 1.68685 -0.628121 0
M  V30 4122 H 376.438 0.56364 -0.497809 0
M  V30 4123 H 378.409 1.57833 -2.53242 0
M  V30 4124 C 377.158 3.08815 -1.59776 0
M  V30 4125 H 376.481 3.1499 -2.46214 0
M  V30 4126 H 377.921 3.87588 -1.71905 0
M  V30 4127 C 376.38 3.35301 -0.327812 0
M  V30 4128 O 376.91 3.97511 0.57861 0
M  V30 4129 N 375.116 2.89816 -0.213274 0
M  V30 4130 H 374.663 2.39371 -0.951798 0
M  V30 4131 H 374.621 3.0791 0.63553 0
M  V30 4132 N 378.394 1.34581 0.820102 0
M  V30 4133 C 379.64 1.27285 1.57881 0
M  V30 4134 C 379.973 -0.156137 1.93571 0
M  V30 4135 O 379.248 -1.10222 1.60254 0
M  V30 4136 C 379.531 2.16639 2.87645 0
M  V30 4137 C 379.384 3.68088 2.58517 0
M  V30 4138 C 380.703 2.05378 3.8924 0
M  V30 4139 H 377.822 0.463714 0.572833 0
M  V30 4140 H 380.464 1.64859 0.944539 0
M  V30 4141 H 378.614 1.84725 3.41773 0
M  V30 4142 H 380.286 4.10382 2.10676 0
M  V30 4143 H 378.529 3.89038 1.91917 0
M  V30 4144 H 379.2 4.2598 3.51063 0
M  V30 4145 H 381.676 2.33404 3.44473 0
M  V30 4146 H 380.552 2.7012 4.77835 0
M  V30 4147 H 380.813 1.0316 4.29896 0
M  V30 4148 N 379.872 -1.04064 1.18357 0
M  V30 4149 C 380.819 -2.12077 0.910603 0
M  V30 4150 C 381.789 -1.65421 -0.15 0
M  V30 4151 O 382.974 -1.90797 -0.0103614 0
M  V30 4152 C 380.114 -3.42252 0.442472 0
M  V30 4153 C 379.227 -4.0252 1.5685 0
M  V30 4154 C 378.362 -5.20657 1.05309 0
M  V30 4155 C 377.401 -5.72955 2.1538 0
M  V30 4156 N 376.538 -6.8238 1.65233 0
M  V30 4157 H 381.378 -2.34764 1.83548 0
M  V30 4158 H 378.915 -1.15157 0.915279 0
M  V30 4159 H 380.873 -4.16921 0.152534 0
M  V30 4160 H 379.503 -3.19712 -0.445428 0
M  V30 4161 H 378.555 -3.25178 1.97391 0
M  V30 4162 H 379.867 -4.37362 2.39824 0
M  V30 4163 H 379.021 -6.0244 0.717677 0
M  V30 4164 H 377.76 -4.87318 0.19293 0
M  V30 4165 H 376.765 -4.89793 2.49766 0
M  V30 4166 H 377.99 -6.08337 3.01832 0
M  V30 4167 H 375.936 -6.50917 0.815064 0
M  V30 4168 H 375.853 -7.16286 2.41805 0
M  V30 4169 H 377.121 -7.67788 1.34619 0
M  V30 4170 N 381.35 -0.985608 -1.22978 0
M  V30 4171 C 382.28 -0.549649 -2.26939 0
M  V30 4172 C 383.261 0.419803 -1.64838 0
M  V30 4173 O 384.446 0.31203 -1.91677 0
M  V30 4174 C 381.576 0.143652 -3.47003 0
M  V30 4175 C 380.53 -0.743606 -4.21491 0
M  V30 4176 C 379.856 0.0822027 -5.34637 0
M  V30 4177 C 381.156 -2.03694 -4.80943 0
M  V30 4178 H 382.85 -1.41862 -2.63658 0
M  V30 4179 H 380.396 -0.683571 -1.26741 0
M  V30 4180 H 382.349 0.459985 -4.18882 0
M  V30 4181 H 381.073 1.04711 -3.09359 0
M  V30 4182 H 379.732 -1.04347 -3.51436 0
M  V30 4183 H 379.38 0.986359 -4.93234 0
M  V30 4184 H 379.08 -0.508377 -5.85397 0
M  V30 4185 H 380.604 0.392797 -6.09335 0
M  V30 4186 H 382.018 -1.78504 -5.44802 0
M  V30 4187 H 380.415 -2.57573 -5.42011 0
M  V30 4188 H 381.485 -2.72042 -4.01399 0
M  V30 4189 N 382.828 1.3818 -0.7579 0
M  V30 4190 C 384.074 2.00316 -0.316453 0
M  V30 4191 C 384.407 1.60026 1.10025 0
M  V30 4192 O 383.682 0.839835 1.75434 0
M  V30 4193 C 383.965 3.57349 -0.444245 0
M  V30 4194 C 383.818 4.07591 -1.90236 0
M  V30 4195 C 385.137 4.3981 0.1598 0
M  V30 4196 H 382.256 0.727741 -0.116459 0
M  V30 4197 H 384.898 1.6406 -0.958352 0
M  V30 4198 H 383.048 3.88365 0.102233 0
M  V30 4199 H 384.72 3.87199 -2.50748 0
M  V30 4200 H 382.963 3.60297 -2.41595 0
M  V30 4201 H 383.634 5.16677 -1.94291 0
M  V30 4202 H 386.11 4.14971 -0.306314 0
M  V30 4203 H 384.986 5.48885 0.0401675 0
M  V30 4204 H 385.247 4.24102 1.24859 0
M  V30 4205 N 384.306 0.507319 1.49211 0
M  V30 4206 C 385.253 -0.267728 2.29242 0
M  V30 4207 C 386.223 -0.954609 1.35928 0
M  V30 4208 O 387.408 -0.960046 1.64887 0
M  V30 4209 C 384.548 -1.32243 3.18756 0
M  V30 4210 C 383.661 -0.64669 4.27132 0
M  V30 4211 C 382.796 -1.68238 5.03855 0
M  V30 4212 C 381.835 -0.98885 6.0406 0
M  V30 4213 N 380.972 -1.96903 6.73924 0
M  V30 4214 H 385.812 0.420968 2.95012 0
M  V30 4215 H 383.349 0.219443 1.45454 0
M  V30 4216 H 385.307 -1.94599 3.69036 0
M  V30 4217 H 383.937 -1.97981 2.54958 0
M  V30 4218 H 382.989 0.0902926 3.80293 0
M  V30 4219 H 384.301 -0.101058 4.98698 0
M  V30 4220 H 383.455 -2.38081 5.58034 0
M  V30 4221 H 382.194 -2.26187 4.32077 0
M  V30 4222 H 381.199 -0.276222 5.49106 0
M  V30 4223 H 382.424 -0.415767 6.77826 0
M  V30 4224 H 380.37 -2.53803 6.04913 0
M  V30 4225 H 380.287 -1.47423 7.41487 0
M  V30 4226 H 381.555 -2.66015 7.32705 0
M  V30 4227 N 385.784 -1.5574 0.241426 0
M  V30 4228 C 386.694 -2.2479 -0.671305 0
M  V30 4229 C 387.71 -1.26217 -1.19772 0
M  V30 4230 O 388.886 -1.59079 -1.23514 0
M  V30 4231 C 385.951 -2.92966 -1.85396 0
M  V30 4232 C 385.012 -4.06935 -1.36756 0
M  V30 4233 C 384.245 -4.71851 -2.49384 0
M  V30 4234 O 384.468 -4.35823 -3.67987 0
M  V30 4235 O 383.402 -5.60467 -2.19454 0
M  V30 4236 H 387.228 -3.0349 -0.112966 0
M  V30 4237 H 384.813 -1.49397 0.0101513 0
M  V30 4238 H 386.695 -3.35927 -2.54423 0
M  V30 4239 H 385.37 -2.17211 -2.40002 0
M  V30 4240 H 384.277 -3.68503 -0.644726 0
M  V30 4241 H 385.61 -4.84492 -0.867647 0
M  V30 4242 N 387.262 0.0317525 -1.57568 0
M  V30 4243 C 388.192 1.03274 -2.0942 0
M  V30 4244 C 389.173 1.3788 -0.996143 0
M  V30 4245 O 390.358 1.46811 -1.27122 0
M  V30 4246 C 387.488 2.33448 -2.57137 0
M  V30 4247 C 386.442 2.13091 -3.71182 0
M  V30 4248 C 385.768 3.49001 -4.05095 0
M  V30 4249 C 387.068 1.51928 -4.99715 0
M  V30 4250 H 388.762 0.60112 -2.93303 0
M  V30 4251 H 386.308 0.287705 -1.41097 0
M  V30 4252 H 388.261 3.03802 -2.92032 0
M  V30 4253 H 386.985 2.78665 -1.70333 0
M  V30 4254 H 385.644 1.45171 -3.36632 0
M  V30 4255 H 385.292 3.91862 -3.15362 0
M  V30 4256 H 384.992 3.36207 -4.81911 0
M  V30 4257 H 386.516 4.20721 -4.42522 0
M  V30 4258 H 387.93 2.12196 -5.32584 0
M  V30 4259 H 386.327 1.49716 -5.81124 0
M  V30 4260 H 387.397 0.484811 -4.8247 0
M  V30 4261 N 388.74 1.54641 0.303973 0
M  V30 4262 C 389.703 1.84646 1.35789 0
M  V30 4263 C 390.703 0.7192 1.4382 0
M  V30 4264 O 391.893 0.987491 1.43507 0
M  V30 4265 C 389.025 2.02407 2.74307 0
M  V30 4266 H 390.218 2.78829 1.10429 0
M  V30 4267 H 387.771 1.46658 0.540487 0
M  V30 4268 H 388.506 1.10502 3.04893 0
M  V30 4269 H 388.291 2.84453 2.69868 0
M  V30 4270 H 389.781 2.27002 3.50514 0
M  V30 4271 N 390.218 -0.567019 1.47046 0
M  V30 4272 C 391.165 -1.67489 1.58796 0
M  V30 4273 C 392.135 -1.60399 0.43144 0
M  V30 4274 O 393.32 -1.79378 0.650233 0
M  V30 4275 C 390.46 -3.05821 1.59899 0
M  V30 4276 C 389.573 -3.2342 2.86397 0
M  V30 4277 C 388.708 -4.52093 2.789 0
M  V30 4278 C 387.747 -4.6309 4.00267 0
M  V30 4279 N 386.884 -5.83106 3.91064 0
M  V30 4280 H 391.724 -1.56785 2.53422 0
M  V30 4281 H 389.261 -0.763896 1.2571 0
M  V30 4282 H 391.219 -3.8591 1.58522 0
M  V30 4283 H 389.849 -3.15384 0.687929 0
M  V30 4284 H 388.901 -2.3683 2.97684 0
M  V30 4285 H 390.213 -3.27412 3.76301 0
M  V30 4286 H 389.367 -5.4043 2.75718 0
M  V30 4287 H 388.106 -4.50565 1.86662 0
M  V30 4288 H 387.111 -3.73168 4.03765 0
M  V30 4289 H 388.336 -4.66386 4.93621 0
M  V30 4290 H 386.282 -5.82546 3.01623 0
M  V30 4291 H 386.199 -5.88434 4.74638 0
M  V30 4292 H 387.467 -6.73831 3.91882 0
M  V30 4293 N 391.696 -1.35014 -0.812953 0
M  V30 4294 C 392.643 -1.27412 -1.92444 0
M  V30 4295 C 393.613 -0.14733 -1.65445 0
M  V30 4296 O 394.798 -0.329974 -1.87925 0
M  V30 4297 C 391.938 -1.04558 -3.28879 0
M  V30 4298 C 391.051 -2.26101 -3.68106 0
M  V30 4299 C 390.186 -1.96449 -4.9354 0
M  V30 4300 C 389.225 -3.14081 -5.25376 0
M  V30 4301 N 388.362 -2.84246 -6.41988 0
M  V30 4302 H 393.202 -2.22463 -1.98278 0
M  V30 4303 H 390.739 -1.10593 -0.969933 0
M  V30 4304 H 392.697 -0.893413 -4.07522 0
M  V30 4305 H 391.327 -0.131719 -3.22531 0
M  V30 4306 H 390.379 -2.52204 -2.84775 0
M  V30 4307 H 391.691 -3.13959 -3.87597 0
M  V30 4308 H 390.845 -1.78026 -5.79993 0
M  V30 4309 H 389.584 -1.05867 -4.76071 0
M  V30 4310 H 388.589 -3.33089 -4.37415 0
M  V30 4311 H 389.814 -4.05455 -5.44778 0
M  V30 4312 H 387.76 -1.96252 -6.25956 0
M  V30 4313 H 387.677 -3.65637 -6.61699 0
M  V30 4314 H 388.945 -2.6935 -7.31485 0
M  V30 4315 N 393.175 1.03435 -1.18907 0
M  V30 4316 C 394.107 2.1165 -0.879595 0
M  V30 4317 C 395.12 1.62316 0.125439 0
M  V30 4318 O 396.309 1.78201 -0.103245 0
M  V30 4319 C 393.409 3.37622 -0.294042 0
M  V30 4320 C 392.582 4.16166 -1.34629 0
M  V30 4321 C 391.641 5.20457 -0.775274 0
M  V30 4322 O 390.667 5.50379 -1.4516 0
M  V30 4323 N 391.869 5.78949 0.424126 0
M  V30 4324 H 394.634 2.38791 -1.81105 0
M  V30 4325 H 392.195 1.19681 -1.09032 0
M  V30 4326 H 394.187 4.04572 0.101679 0
M  V30 4327 H 392.757 3.07873 0.541575 0
M  V30 4328 H 391.977 3.44444 -1.91707 0
M  V30 4329 H 393.265 4.65432 -2.05549 0
M  V30 4330 H 392.663 5.56948 0.991209 0
M  V30 4331 H 391.22 6.47334 0.761691 0
M  V30 4332 N 394.653 0.992116 1.22453 0
M  V30 4333 C 395.6 0.541731 2.24352 0
M  V30 4334 C 396.57 -0.425519 1.60557 0
M  V30 4335 O 397.755 -0.330453 1.87917 0
M  V30 4336 C 394.895 -0.138248 3.44823 0
M  V30 4337 C 394.008 0.870649 4.23136 0
M  V30 4338 C 393.143 0.164269 5.30946 0
M  V30 4339 C 392.182 1.16159 6.00977 0
M  V30 4340 N 391.319 0.483568 7.00433 0
M  V30 4341 H 396.159 1.41541 2.62241 0
M  V30 4342 H 393.696 0.709013 1.28885 0
M  V30 4343 H 395.654 -0.5494 4.13567 0
M  V30 4344 H 394.284 -0.975721 3.077 0
M  V30 4345 H 393.336 1.40013 3.53696 0
M  V30 4346 H 394.648 1.63014 4.7141 0
M  V30 4347 H 393.802 -0.303653 6.0594 0
M  V30 4348 H 392.541 -0.627733 4.83643 0
M  V30 4349 H 391.546 1.64015 5.24766 0
M  V30 4350 H 392.771 1.95445 6.50368 0
M  V30 4351 H 390.717 -0.289012 6.55363 0
M  V30 4352 H 390.634 1.18152 7.4671 0
M  V30 4353 H 391.902 0.0384219 7.79491 0
M  V30 4354 N 396.131 -1.37776 0.765217 0
M  V30 4355 C 397.061 -2.32945 0.160953 0
M  V30 4356 C 398.042 -1.55454 -0.690516 0
M  V30 4357 O 399.227 -1.83721 -0.629318 0
M  V30 4358 C 396.357 -3.39669 -0.724031 0
M  V30 4359 C 395.311 -4.27992 0.0256173 0
M  V30 4360 C 394.637 -5.25673 -0.978383 0
M  V30 4361 C 395.937 -5.08309 1.20082 0
M  V30 4362 H 397.631 -2.83728 0.955969 0
M  V30 4363 H 395.177 -1.36416 0.461149 0
M  V30 4364 H 397.13 -4.05219 -1.15652 0
M  V30 4365 H 395.854 -2.87396 -1.5515 0
M  V30 4366 H 394.513 -3.63964 0.438812 0
M  V30 4367 H 394.161 -4.69682 -1.80022 0
M  V30 4368 H 393.861 -5.85625 -0.481378 0
M  V30 4369 H 395.385 -5.94098 -1.40995 0
M  V30 4370 H 396.799 -5.67034 0.845307 0
M  V30 4371 H 395.196 -5.77554 1.62947 0
M  V30 4372 H 396.266 -4.41365 2.00811 0
M  V30 4373 N 397.609 -0.515225 -1.4894 0
M  V30 4374 C 398.837 0.0206034 -2.0689 0
M  V30 4375 C 399.252 1.29514 -1.37374 0
M  V30 4376 O 398.609 1.76698 -0.456529 0
M  V30 4377 C 398.66 0.26351 -3.60538 0
M  V30 4378 O 398.381 -0.960517 -4.27441 0
M  V30 4379 C 399.882 0.841383 -4.35242 0
M  V30 4380 H 397.102 -0.0268608 -0.670462 0
M  V30 4381 H 399.646 -0.716651 -1.91532 0
M  V30 4382 H 397.801 0.950777 -3.75552 0
M  V30 4383 H 398.215 -0.73212 -5.19365 0
M  V30 4384 H 399.689 0.96085 -5.43573 0
M  V30 4385 H 400.166 1.8427 -3.98674 0
M  V30 4386 H 400.772 0.191143 -4.2487 0
M  V30 4387 N 399.087 1.5561 -0.249682 0
M  V30 4388 C 400.503 1.59254 0.105103 0
M  V30 4389 C 400.703 1.26685 1.56694 0
M  V30 4390 O 399.759 1.0155 2.31179 0
M  V30 4391 C 401.072 2.99687 -0.246592 0
M  V30 4392 C 402.62 3.12416 -0.191118 0
M  V30 4393 C 403.095 4.55074 -0.516885 0
M  V30 4394 N 404.586 4.60835 -0.467489 0
M  V30 4395 C 405.321 5.69201 -0.69268 0
M  V30 4396 N 404.817 6.85817 -0.981146 0
M  V30 4397 N 406.61 5.58635 -0.623198 0
M  V30 4398 H 398.761 1.75049 -1.20298 0
M  V30 4399 H 401.024 0.815003 -0.484225 0
M  V30 4400 H 400.73 3.28267 -1.26228 0
M  V30 4401 H 400.604 3.74798 0.424962 0
M  V30 4402 H 402.991 2.83615 0.815247 0
M  V30 4403 H 403.072 2.39573 -0.896563 0
M  V30 4404 H 402.716 4.84596 -1.52082 0
M  V30 4405 H 402.646 5.26181 0.210068 0
M  V30 4406 H 405.137 3.7705 -0.253373 0
M  V30 4407 H 405.45 7.64341 -1.14032 0
M  V30 4408 H 403.795 6.87494 -1.01865 0
M  V30 4409 H 406.986 4.66406 -0.397863 0
M  V30 4410 H 407.159 6.43017 -0.802093 0
M  V30 4411 N 400.565 -0.0233959 1.57583 0
M  V30 4412 C 401.842 -0.748794 1.807 0
M  V30 4413 C 402.222 -1.9327 0.849106 0
M  V30 4414 O 401.57 -2.28247 -0.107468 0
M  V30 4415 C 401.78 -1.17651 3.28571 0
M  V30 4416 C 403.128 -1.59008 3.93702 0
M  V30 4417 O 404.152 -1.27094 3.32755 0
M  V30 4418 O 403.011 -2.18264 5.01022 0
M  V30 4419 H 400.105 -0.362578 0.743281 0
M  V30 4420 H 402.651 0.000261958 1.697 0
M  V30 4421 H 401.423 -0.331603 3.89892 0
M  V30 4422 H 401.046 -1.98541 3.44481 0
M  V30 4423 N 402.043 -1.548 -0.295768 0
M  V30 4424 C 402.973 -1.89115 -1.36959 0
M  V30 4425 C 403.954 -0.75059 -1.52644 0
M  V30 4426 O 405.139 -1.00678 -1.66065 0
M  V30 4427 C 402.269 -2.14307 -2.73295 0
M  V30 4428 C 401.223 -3.30151 -2.72368 0
M  V30 4429 C 400.549 -3.40772 -4.12042 0
M  V30 4430 C 401.849 -4.67126 -2.33646 0
M  V30 4431 H 403.543 -2.79053 -1.08488 0
M  V30 4432 H 401.089 -1.34266 -0.520443 0
M  V30 4433 H 403.042 -2.36898 -3.48507 0
M  V30 4434 H 401.766 -1.21145 -3.03301 0
M  V30 4435 H 400.425 -3.0749 -1.99613 0
M  V30 4436 H 400.073 -2.45117 -4.39234 0
M  V30 4437 H 399.773 -4.18645 -4.12322 0
M  V30 4438 H 401.297 -3.6563 -4.89027 0
M  V30 4439 H 402.711 -4.89414 -2.98575 0
M  V30 4440 H 401.108 -5.47751 -2.45129 0
M  V30 4441 H 402.178 -4.67489 -1.28772 0
M  V30 4442 N 403.521 0.559213 -1.47345 0
M  V30 4443 C 404.932 1.14134 -1.47751 0
M  V30 4444 C 405.283 1.94834 -0.231103 0
M  V30 4445 O 404.408 2.05957 0.664137 0
M  V30 4446 C 405.003 2.07653 -2.67705 0
M  V30 4447 C 403.562 2.61141 -2.71076 0
M  V30 4448 C 402.709 1.3748 -2.40821 0
M  V30 4449 H 405.66 0.345917 -1.54884 0
M  V30 4450 H 405.681 2.91497 -2.44561 0
M  V30 4451 H 405.193 1.4889 -3.58404 0
M  V30 4452 H 403.294 3.23707 -1.84511 0
M  V30 4453 H 403.407 3.02272 -3.7171 0
M  V30 4454 H 401.771 1.68086 -1.91362 0
M  V30 4455 H 402.554 0.805135 -3.33725 0
M  V30 4456 N 404.999 1.35443 0.805782 0
M  V30 4457 C 405.949 1.24972 1.90699 0
M  V30 4458 C 406.933 0.144806 1.60247 0
M  V30 4459 O 408.125 0.376102 1.72958 0
M  V30 4460 C 405.254 1.02475 3.27649 0
M  V30 4461 C 404.34 2.17361 3.64164 0
M  V30 4462 N 404.731 3.42591 3.72109 0
M  V30 4463 C 403.029 2.08765 3.94123 0
M  V30 4464 C 403.73 4.18144 4.04389 0
M  V30 4465 N 402.706 3.4691 4.18515 0
M  V30 4466 H 406.508 2.19852 1.95044 0
M  V30 4467 H 404.022 1.27928 1.00041 0
M  V30 4468 H 406.019 0.930617 4.06381 0
M  V30 4469 H 404.679 0.0848009 3.24589 0
M  V30 4470 H 405.69 3.76932 3.55166 0
M  V30 4471 H 402.367 1.22629 3.99084 0
M  V30 4472 H 403.757 5.26367 4.17597 0
M  V30 4473 N 406.477 -1.02803 1.19454 0
M  V30 4474 C 407.407 -2.12999 0.956758 0
M  V30 4475 C 408.388 -1.69743 -0.110188 0
M  V30 4476 O 409.573 -1.94148 0.0450038 0
M  V30 4477 C 406.703 -3.43746 0.495553 0
M  V30 4478 C 405.657 -4.00688 1.50443 0
M  V30 4479 C 404.983 -5.27067 0.900275 0
M  V30 4480 C 406.283 -4.35397 2.8849 0
M  V30 4481 H 407.977 -2.33148 1.87836 0
M  V30 4482 H 405.523 -1.12045 0.904539 0
M  V30 4483 H 407.476 -4.2021 0.316493 0
M  V30 4484 H 406.2 -3.23321 -0.461646 0
M  V30 4485 H 404.859 -3.2632 1.67065 0
M  V30 4486 H 404.507 -5.02959 -0.064503 0
M  V30 4487 H 404.207 -5.66127 1.57397 0
M  V30 4488 H 405.731 -6.06196 0.73203 0
M  V30 4489 H 407.145 -5.02795 2.75446 0
M  V30 4490 H 405.542 -4.85541 3.52661 0
M  V30 4491 H 406.612 -3.44662 3.41081 0
M  V30 4492 N 407.956 -0.998596 -1.21925 0
M  V30 4493 C 409.367 -0.711939 -1.72593 0
M  V30 4494 C 409.718 0.770842 -1.80423 0
M  V30 4495 O 408.843 1.60237 -1.4544 0
M  V30 4496 C 409.438 -1.28567 -3.13458 0
M  V30 4497 C 407.997 -1.04828 -3.61508 0
M  V30 4498 C 407.144 -1.4024 -2.39224 0
M  V30 4499 H 410.095 -1.17027 -1.07193 0
M  V30 4500 H 410.116 -0.667098 -3.74607 0
M  V30 4501 H 409.628 -2.36486 -3.07727 0
M  V30 4502 H 407.729 0.0140383 -3.72597 0
M  V30 4503 H 407.842 -1.71566 -4.47328 0
M  V30 4504 H 406.206 -0.821077 -2.41103 0
M  V30 4505 H 406.989 -2.49176 -2.36149 0
M  V30 4506 N 409.434 1.37368 -0.772513 0
M  V30 4507 C 410.659 2.0447 -0.347386 0
M  V30 4508 C 411.084 1.57882 1.0225 0
M  V30 4509 O 410.442 0.73941 1.65537 0
M  V30 4510 C 410.49 3.58369 -0.400479 0
M  V30 4511 O 409.594 4.0803 0.598789 0
M  V30 4512 H 408.935 0.646773 -0.15027 0
M  V30 4513 H 411.465 1.75667 -1.04892 0
M  V30 4514 H 411.475 4.07183 -0.258045 0
M  V30 4515 H 410.15 3.91633 -1.39986 0
M  V30 4516 H 408.727 3.70534 0.419411 0
M  V30 4517 N 410.912 0.523116 1.48665 0
M  V30 4518 C 412.158 -0.0134963 2.02796 0
M  V30 4519 C 412.491 -1.34582 1.40004 0
M  V30 4520 O 411.766 -1.86756 0.543381 0
M  V30 4521 C 412.049 -0.14276 3.59817 0
M  V30 4522 C 411.902 1.21425 4.331 0
M  V30 4523 C 413.221 -0.872856 4.31357 0
M  V30 4524 H 410.34 -0.00343074 0.736992 0
M  V30 4525 H 412.982 0.678816 1.7746 0
M  V30 4526 H 411.132 -0.732401 3.81534 0
M  V30 4527 H 412.804 1.84447 4.2282 0
M  V30 4528 H 411.047 1.79791 3.94788 0
M  V30 4529 H 411.718 1.07687 5.41394 0
M  V30 4530 H 414.194 -0.372555 4.14429 0
M  V30 4531 H 413.07 -0.932185 5.40927 0
M  V30 4532 H 413.331 -1.92161 3.98154 0
M  V30 4533 N 412.39 -1.55475 0.257931 0
M  V30 4534 C 413.322 -2.19192 -0.669881 0
M  V30 4535 C 414.335 -1.17148 -1.1305 0
M  V30 4536 O 415.524 -1.43959 -1.05537 0
M  V30 4537 C 412.624 -2.79016 -1.92363 0
M  V30 4538 C 411.797 -4.06586 -1.61265 0
M  V30 4539 C 410.856 -4.50622 -2.7171 0
M  V30 4540 O 409.882 -5.16765 -2.38627 0
M  V30 4541 N 411.084 -4.19325 -4.01431 0
M  V30 4542 H 413.849 -2.99441 -0.124635 0
M  V30 4543 H 411.41 -1.6171 0.0783311 0
M  V30 4544 H 413.402 -3.05427 -2.65511 0
M  V30 4545 H 411.972 -2.0286 -2.37837 0
M  V30 4546 H 411.192 -3.87646 -0.715811 0
M  V30 4547 H 412.48 -4.89737 -1.37967 0
M  V30 4548 H 411.878 -3.66247 -4.31138 0
M  V30 4549 H 410.435 -4.50547 -4.7101 0
M  V30 4550 N 413.868 0.0150385 -1.57593 0
M  V30 4551 C 414.831 0.995996 -2.06428 0
M  V30 4552 C 415.831 1.2818 -0.970903 0
M  V30 4553 O 417.021 1.22949 -1.23406 0
M  V30 4554 C 414.153 2.32506 -2.49307 0
M  V30 4555 H 415.346 0.573873 -2.94358 0
M  V30 4556 H 412.899 0.262186 -1.54085 0
M  V30 4557 H 413.634 2.79438 -1.64575 0
M  V30 4558 H 413.419 2.13087 -3.29145 0
M  V30 4559 H 414.909 3.02906 -2.87468 0
M  V30 4560 N 415.346 1.54954 0.287554 0
M  V30 4561 C 416.276 1.89839 1.35954 0
M  V30 4562 C 417.257 0.758675 1.52244 0
M  V30 4563 O 418.442 1.01557 1.65529 0
M  V30 4564 C 415.572 2.15753 2.72154 0
M  V30 4565 C 414.526 3.3159 2.70614 0
M  V30 4566 C 413.852 3.42952 4.10229 0
M  V30 4567 C 415.152 4.68359 2.31165 0
M  V30 4568 H 416.846 2.79625 1.07007 0
M  V30 4569 H 414.392 1.3454 0.513316 0
M  V30 4570 H 416.345 2.38743 3.47246 0
M  V30 4571 H 415.069 1.22752 3.02654 0
M  V30 4572 H 413.728 3.08545 1.97979 0
M  V30 4573 H 413.376 2.47443 4.37928 0
M  V30 4574 H 413.076 4.20826 4.10097 0
M  V30 4575 H 414.6 3.68218 4.87081 0
M  V30 4576 H 416.014 4.9099 2.95976 0
M  V30 4577 H 414.411 5.49044 2.42221 0
M  V30 4578 H 415.481 4.68165 1.26291 0
M  V30 4579 O 416.863 -0.433401 1.55576 0
M  V30 4580 H 417.554 -1.08681 1.60337 0
M  V30 END ATOM
M  V30 BEGIN BOND
M  V30 END BOND
M  V30 END CTAB
M  END
$$$$
