drugbank_target|P52664 Beta-lactamase (DB03814)
 OpenBabel12092120283D

  0  0  0     0  0            999 V3000
M  V30 BEGIN CTAB
M  V30 COUNTS 4683 4719 0 0 0
M  V30 BEGIN ATOM
M  V30 1 H -0.908 1.98254 -0.117106 0
M  V30 2 N 0 1.576 0 0
M  V30 3 C 0.933 2.03868 1.02534 0
M  V30 4 C 1.911 0.928543 1.3348 0
M  V30 5 O 3.095 1.19667 1.45644 0
M  V30 6 C 0.222 2.43627 2.35294 0
M  V30 7 C -0.732 3.65373 2.2001 0
M  V30 8 S 0.101 5.13292 1.52614 0
M  V30 9 C 1.257 5.56322 2.86805 0
M  V30 10 H 1.49 2.90518 0.631377 0
M  V30 11 H -0.977 1.52953 0.210867 0
M  V30 12 H 0.981 2.67203 3.11629 0
M  V30 13 H -0.358 1.57376 2.7183 0
M  V30 14 H -1.165 3.90944 3.18086 0
M  V30 15 H -1.563 3.418 1.51819 0
M  V30 16 H 0.729 5.58782 3.83104 0
M  V30 17 H 1.672 6.56266 2.65933 0
M  V30 18 H 2.08 4.83886 2.90714 0
M  V30 19 N 1.4781 -0.272755 1.55222 0
M  V30 20 C 2.7061 -1.02255 1.79865 0
M  V30 21 C 3.1211 -1.79924 0.572088 0
M  V30 22 O 2.4781 -1.76638 -0.458842 0
M  V30 23 C 2.5291 -1.98094 3.02392 0
M  V30 24 O 2.2501 -1.23572 4.20311 0
M  V30 25 C 3.7511 -2.84884 3.39641 0
M  V30 26 H 0.9711 -0.302057 0.599168 0
M  V30 27 H 3.5151 -0.303465 2.02236 0
M  V30 28 H 1.6701 -2.65465 2.82147 0
M  V30 29 H 2.0841 -1.88172 4.89583 0
M  V30 30 H 3.5581 -3.47927 4.28545 0
M  V30 31 H 4.0351 -3.54665 2.59055 0
M  V30 32 H 4.6411 -2.23003 3.62146 0
M  V30 33 N 2.9562 -1.48159 -0.537278 0
M  V30 34 C 3.8892 -1.567 -1.65893 0
M  V30 35 C 4.8672 -0.41787 -1.57139 0
M  V30 36 O 6.0512 -0.628461 -1.77715 0
M  V30 37 C 3.1782 -1.48818 -3.04255 0
M  V30 38 C 2.2242 -2.68482 -3.31391 0
M  V30 39 S 3.0572 -4.30516 -3.1846 0
M  V30 40 C 4.2132 -4.2522 -4.59281 0
M  V30 41 H 4.4462 -2.5159 -1.58397 0
M  V30 42 H 1.9792 -1.36602 -0.719672 0
M  V30 43 H 3.9372 -1.44958 -3.84054 0
M  V30 44 H 2.5982 -0.552777 -3.09198 0
M  V30 45 H 1.7912 -2.59085 -4.32309 0
M  V30 46 H 1.3932 -2.69567 -2.59248 0
M  V30 47 H 3.6852 -3.94703 -5.5065 0
M  V30 48 H 4.6282 -5.26292 -4.73732 0
M  V30 49 H 5.0362 -3.55791 -4.38261 0
M  V30 50 N 4.4343 0.785586 -1.36625 0
M  V30 51 C 5.6813 1.54362 -1.31067 0
M  V30 52 C 6.0093 1.94195 0.10893 0
M  V30 53 O 5.2643 1.63262 1.07908 0
M  V30 54 C 5.5633 2.83007 -2.1827 0
M  V30 55 C 5.2293 2.62294 -3.6676 0
M  V30 56 C 3.8913 2.56353 -4.0723 0
M  V30 57 C 6.2433 2.43371 -4.6089 0
M  V30 58 C 3.5713 2.29461 -5.39967 0
M  V30 59 C 5.9233 2.18005 -5.93849 0
M  V30 60 C 4.5873 2.105 -6.3344 0
M  V30 61 H 3.8573 0.564851 -0.479609 0
M  V30 62 H 6.5043 0.906028 -1.68711 0
M  V30 63 H 4.8093 3.51253 -1.73576 0
M  V30 64 H 6.5063 3.40817 -2.11292 0
M  V30 65 H 3.0963 2.67774 -3.34656 0
M  V30 66 H 7.2803 2.46959 -4.30494 0
M  V30 67 H 2.5363 2.22135 -5.69619 0
M  V30 68 H 6.7103 2.02359 -6.66351 0
M  V30 69 H 4.3373 1.89425 -7.36222 0
M  V30 70 N 5.9124 1.20967 1.01018 0
M  V30 71 C 6.8594 0.964281 2.09691 0
M  V30 72 C 7.8294 -0.107853 1.65749 0
M  V30 73 O 9.0144 0.0381987 1.90762 0
M  V30 74 C 6.1544 0.52943 3.41015 0
M  V30 75 C 5.2674 1.67043 3.98398 0
M  V30 76 C 4.4024 1.18525 5.17808 0
M  V30 77 C 3.4414 2.29892 5.67288 0
M  V30 78 N 2.5784 1.82546 6.77954 0
M  V30 79 H 7.4184 1.89463 2.30017 0
M  V30 80 H 4.9554 0.944289 1.1279 0
M  V30 81 H 6.9134 0.258588 4.16398 0
M  V30 82 H 5.5434 -0.363919 3.20742 0
M  V30 83 H 4.5954 2.05603 3.20049 0
M  V30 84 H 5.9074 2.50877 4.31117 0
M  V30 85 H 5.0614 0.870762 6.00419 0
M  V30 86 H 3.8004 0.316887 4.86669 0
M  V30 87 H 2.8054 2.6215 4.83278 0
M  V30 88 H 4.0304 3.17216 6.00459 0
M  V30 89 H 1.9764 0.980454 6.48632 0
M  V30 90 H 1.8934 2.59956 7.09901 0
M  V30 91 H 3.1614 1.54115 7.64113 0
M  V30 92 N 7.3905 -1.2043 1.01659 0
M  V30 93 C 8.6185 -1.93777 0.725132 0
M  V30 94 C 9.0335 -1.74772 -0.714166 0
M  V30 95 O 8.3905 -1.06169 -1.4844 0
M  V30 96 C 8.4415 -3.45876 1.05129 0
M  V30 97 O 8.1625 -3.6426 2.43406 0
M  V30 98 C 9.6635 -4.36368 0.780891 0
M  V30 99 H 6.8835 -0.615901 0.266284 0
M  V30 100 H 9.4275 -1.52922 1.35776 0
M  V30 101 H 7.5825 -3.8461 0.464065 0
M  V30 102 H 7.9965 -4.58246 2.55169 0
M  V30 103 H 9.4705 -5.41743 1.05918 0
M  V30 104 H 9.9475 -4.38275 -0.284937 0
M  V30 105 H 10.5535 -4.03296 1.35027 0
M  V30 106 N 8.8686 -0.792821 -1.36206 0
M  V30 107 C 10.0966 -0.378825 -2.03402 0
M  V30 108 C 10.5116 1.00586 -1.59774 0
M  V30 109 O 9.8686 1.64574 -0.788764 0
M  V30 110 C 9.9196 -0.43683 -3.58851 0
M  V30 111 O 9.6406 -1.76691 -4.00889 0
M  V30 112 C 11.1416 -0.0138943 -4.43298 0
M  V30 113 H 8.3616 -0.155673 -0.652692 0
M  V30 114 H 10.9056 -1.07261 -1.74113 0
M  V30 115 H 9.0606 0.208575 -3.86838 0
M  V30 116 H 9.4746 -1.72011 -4.95492 0
M  V30 117 H 10.9486 -0.105615 -5.51899 0
M  V30 118 H 11.4256 1.03915 -4.2673 0
M  V30 119 H 12.0316 -0.63192 -4.20579 0
M  V30 120 N 10.3467 1.47872 -0.545128 0
M  V30 121 C 11.5937 2.02493 -0.0165858 0
M  V30 122 C 11.9217 1.42073 1.32836 0
M  V30 123 O 11.1767 0.561459 1.87473 0
M  V30 124 C 11.4757 3.57131 0.13867 0
M  V30 125 C 11.1417 4.36411 -1.13384 0
M  V30 126 C 9.8037 4.57792 -1.48256 0
M  V30 127 C 12.1557 4.82223 -1.97764 0
M  V30 128 C 9.4837 5.22233 -2.67376 0
M  V30 129 C 11.8357 5.47977 -3.16076 0
M  V30 130 C 10.4997 5.67593 -3.51275 0
M  V30 131 H 9.7697 0.740975 -0.00606918 0
M  V30 132 H 12.4167 1.77683 -0.714207 0
M  V30 133 H 10.7217 3.80865 0.919172 0
M  V30 134 H 12.4187 3.97031 0.562782 0
M  V30 135 H 9.0087 4.2004 -0.852297 0
M  V30 136 H 13.1927 4.65493 -1.72132 0
M  V30 137 H 8.4487 5.35616 -2.94831 0
M  V30 138 H 12.6227 5.8244 -3.81755 0
M  V30 139 H 10.2497 6.17298 -4.43675 0
M  V30 140 N 11.8248 0.280983 1.55075 0
M  V30 141 C 13.2408 -0.0729964 1.59433 0
M  V30 142 C 13.4408 -1.5411 1.29817 0
M  V30 143 O 12.4968 -2.29086 1.06187 0
M  V30 144 C 13.8098 0.306921 2.9913 0
M  V30 145 C 15.3578 0.254023 3.11968 0
M  V30 146 C 15.8328 0.608467 4.5394 0
M  V30 147 N 17.3238 0.560241 4.59799 0
M  V30 148 C 18.0588 0.80722 5.6769 0
M  V30 149 N 17.5548 1.11912 6.83701 0
M  V30 150 N 19.3478 0.735623 5.57266 0
M  V30 151 H 11.4988 1.238 1.7259 0
M  V30 152 H 13.7618 0.500547 0.805082 0
M  V30 153 H 13.4678 1.32816 3.25657 0
M  V30 154 H 13.3418 -0.349363 3.75579 0
M  V30 155 H 15.7288 -0.75794 2.852 0
M  V30 156 H 15.8098 0.944649 2.37718 0
M  V30 157 H 15.4538 1.61814 4.81434 0
M  V30 158 H 15.3838 -0.104013 5.26497 0
M  V30 159 H 17.8748 0.329288 3.76463 0
M  V30 160 H 18.1878 1.29409 7.61888 0
M  V30 161 H 16.5328 1.15695 6.85303 0
M  V30 162 H 19.7238 0.491752 4.6551 0
M  V30 163 H 19.8968 0.931482 6.4127 0
M  V30 164 N 13.3029 -1.57598 0.00835791 0
M  V30 165 C 14.2349 -2.05811 -1.00868 0
M  V30 166 C 15.2479 -0.977579 -1.30182 0
M  V30 167 O 16.4369 -1.25421 -1.27011 0
M  V30 168 C 13.5369 -2.45016 -2.34137 0
M  V30 169 C 12.7099 -3.75903 -2.23643 0
M  V30 170 C 11.7689 -4.01884 -3.3967 0
M  V30 171 O 10.7949 -4.72433 -3.17483 0
M  V30 172 N 11.9969 -3.50432 -4.62793 0
M  V30 173 H 14.7619 -2.93684 -0.597458 0
M  V30 174 H 12.3229 -1.60909 -0.178852 0
M  V30 175 H 14.3149 -2.59506 -3.10546 0
M  V30 176 H 12.8849 -1.62618 -2.66972 0
M  V30 177 H 12.1049 -3.7141 -1.32091 0
M  V30 178 H 13.3929 -4.61695 -2.13812 0
M  V30 179 H 12.7909 -2.93317 -4.83716 0
M  V30 180 H 11.3479 -3.70236 -5.3644 0
M  V30 181 N 14.781 0.264519 -1.55364 0
M  V30 182 C 16.009 1.013 -1.80405 0
M  V30 183 C 16.424 1.79618 -0.581622 0
M  V30 184 O 15.781 1.76879 0.449468 0
M  V30 185 C 15.832 1.96487 -3.03439 0
M  V30 186 O 15.553 1.21341 -4.20961 0
M  V30 187 C 17.054 2.83079 -3.41147 0
M  V30 188 H 14.274 0.298875 -0.600762 0
M  V30 189 H 16.818 0.292736 -2.02394 0
M  V30 190 H 14.973 2.63965 -2.83551 0
M  V30 191 H 15.387 1.85573 -4.90574 0
M  V30 192 H 16.861 3.4565 -4.30384 0
M  V30 193 H 17.338 3.53286 -2.60932 0
M  V30 194 H 17.944 2.2108 -3.63323 0
M  V30 195 N 16.2591 1.48442 0.529413 0
M  V30 196 C 17.2221 1.62524 1.61612 0
M  V30 197 C 18.2221 0.498509 1.52877 0
M  V30 198 O 19.4121 0.76431 1.56537 0
M  V30 199 C 16.5441 1.59597 3.01233 0
M  V30 200 H 17.7371 2.59423 1.50465 0
M  V30 201 H 15.2901 1.37047 0.751514 0
M  V30 202 H 16.0251 0.641781 3.17886 0
M  V30 203 H 15.8101 2.41397 3.08982 0
M  V30 204 H 17.3001 1.72646 3.80241 0
M  V30 205 N 17.7372 -0.778329 1.37039 0
M  V30 206 C 18.9652 -1.56734 1.35063 0
M  V30 207 C 19.3802 -1.88686 -0.0655597 0
M  V30 208 O 18.7372 -1.5096 -1.02554 0
M  V30 209 C 18.7882 -2.88163 2.18276 0
M  V30 210 O 18.5092 -2.57583 3.54376 0
M  V30 211 C 20.0102 -3.82422 2.24206 0
M  V30 212 H 17.2302 -0.485778 0.462883 0
M  V30 213 H 19.7742 -0.965185 1.8029 0
M  V30 214 H 17.9292 -3.44818 1.76576 0
M  V30 215 H 18.3432 -3.41699 3.97922 0
M  V30 216 H 19.8172 -4.71667 2.86765 0
M  V30 217 H 20.2942 -4.21078 1.24861 0
M  V30 218 H 20.9002 -3.31697 2.6619 0
M  V30 219 N 19.2153 -1.21501 -1.00376 0
M  V30 220 C 20.4643 -1.02718 -1.73586 0
M  V30 221 C 20.7773 0.439589 -1.90596 0
M  V30 222 O 21.9833 0.746848 -2.61026 0
M  V30 223 C 20.4393 -1.78929 -3.1227 0
M  V30 224 C 20.0473 -3.29783 -3.03228 0
M  V30 225 C 21.7913 -1.68557 -3.89601 0
M  V30 226 C 19.6983 -3.98479 -4.36999 0
M  V30 227 H 18.6283 -0.380733 -0.650814 0
M  V30 228 H 21.2793 -1.45248 -1.1214 0
M  V30 229 H 19.6613 -1.29192 -3.74333 0
M  V30 230 H 20.8353 -3.86832 -2.50395 0
M  V30 231 H 19.1503 -3.40711 -2.39385 0
M  V30 232 H 21.7473 -2.17211 -4.88593 0
M  V30 233 H 22.0903 -0.644021 -4.11288 0
M  V30 234 H 22.6233 -2.15778 -3.34193 0
M  V30 235 H 19.3623 -5.02841 -4.20513 0
M  V30 236 H 18.8823 -3.46219 -4.89788 0
M  V30 237 H 20.5613 -4.03462 -5.05794 0
M  V30 238 N 20.6934 1.19889 -1.02296 0
M  V30 239 C 21.6564 2.21116 -0.603351 0
M  V30 240 C 22.6564 1.5738 0.329884 0
M  V30 241 O 23.8464 1.73802 0.117702 0
M  V30 242 C 20.9784 3.40696 0.117992 0
M  V30 243 H 22.1714 2.59754 -1.49893 0
M  V30 244 H 19.7244 1.33463 -0.813468 0
M  V30 245 H 20.4594 3.07569 1.0282 0
M  V30 246 H 20.2444 3.88188 -0.552511 0
M  V30 247 H 21.7344 4.15692 0.398696 0
M  V30 248 N 22.1715 0.800033 1.35784 0
M  V30 249 C 23.4175 0.377901 1.99248 0
M  V30 250 C 23.7505 -1.05052 1.63333 0
M  V30 251 O 23.0255 -1.72768 0.893385 0
M  V30 252 C 23.3085 0.553922 3.55814 0
M  V30 253 C 23.1615 2.0268 4.01548 0
M  V30 254 C 24.4805 -0.0244802 4.40093 0
M  V30 255 H 21.5995 0.138782 0.723815 0
M  V30 256 H 24.2415 1.00835 1.61035 0
M  V30 257 H 22.3915 0.0172398 3.88496 0
M  V30 258 H 24.0635 2.62536 3.79305 0
M  V30 259 H 22.3065 2.5256 3.52698 0
M  V30 260 H 22.9775 2.10087 5.10458 0
M  V30 261 H 25.4535 0.433775 4.13833 0
M  V30 262 H 24.3295 0.128637 5.48749 0
M  V30 263 H 24.5905 -1.11758 4.27741 0
M  V30 264 N 23.6496 -1.47581 0.552962 0
M  V30 265 C 24.8746 -2.07378 0.0300593 0
M  V30 266 C 25.2996 -1.40355 -1.25229 0
M  V30 267 O 24.6576 -0.477099 -1.7491 0
M  V30 268 C 24.7056 -3.60274 -0.153231 0
M  V30 269 O 23.8096 -3.94041 -1.21678 0
M  V30 270 H 23.1506 -0.662158 0.0494182 0
M  V30 271 H 25.6806 -1.89662 0.767434 0
M  V30 272 H 25.6906 -4.0633 -0.368761 0
M  V30 273 H 24.3656 -4.08455 0.783397 0
M  V30 274 H 22.9426 -3.59735 -0.982079 0
M  V30 275 N 25.1277 -0.289203 -1.54924 0
M  V30 276 C 26.0577 0.58549 -2.2604 0
M  V30 277 C 27.0387 1.14753 -1.25562 0
M  V30 278 O 28.2237 1.17906 -1.54311 0
M  V30 279 C 25.3537 1.76305 -2.99222 0
M  V30 280 C 24.3077 1.33191 -4.06748 0
M  V30 281 C 23.6337 2.5937 -4.6758 0
M  V30 282 C 24.9337 0.471775 -5.20165 0
M  V30 283 H 26.6277 -0.00763532 -2.99399 0
M  V30 284 H 24.1737 -0.00511229 -1.43999 0
M  V30 285 H 26.1267 2.38097 -3.47689 0
M  V30 286 H 24.8507 2.38223 -2.23422 0
M  V30 287 H 23.5097 0.737121 -3.59113 0
M  V30 288 H 23.1577 3.19576 -3.88433 0
M  V30 289 H 22.8577 2.31228 -5.40192 0
M  V30 290 H 24.3817 3.21985 -5.18804 0
M  V30 291 H 25.7957 0.995056 -5.64599 0
M  V30 292 H 24.1927 0.284639 -5.99425 0
M  V30 293 H 25.2627 -0.506041 -4.82252 0
M  V30 294 N 26.6058 1.57591 -0.0167156 0
M  V30 295 C 27.8548 1.90461 0.663877 0
M  V30 296 C 28.1678 0.893515 1.73999 0
M  V30 297 O 29.3738 1.11302 2.47637 0
M  V30 298 C 27.8298 3.38155 1.23204 0
M  V30 299 C 27.4378 4.47597 0.189866 0
M  V30 300 C 29.1818 3.80111 1.88986 0
M  V30 301 C 27.0888 5.86379 0.768964 0
M  V30 302 H 26.0188 0.710738 0.251729 0
M  V30 303 H 28.6698 1.83326 -0.0799926 0
M  V30 304 H 27.0518 3.40182 2.02712 0
M  V30 305 H 28.2258 4.57112 -0.581846 0
M  V30 306 H 26.5408 4.14766 -0.368475 0
M  V30 307 H 29.1378 4.81145 2.33247 0
M  V30 308 H 29.4808 3.14511 2.72743 0
M  V30 309 H 30.0138 3.80454 1.16187 0
M  V30 310 H 26.7528 6.55493 -0.0301957 0
M  V30 311 H 26.2728 5.80496 1.50945 0
M  V30 312 H 27.9518 6.34563 1.26251 0
M  V30 313 N 28.0839 -0.256276 1.55502 0
M  V30 314 C 29.3089 -1.00766 1.81276 0
M  V30 315 C 29.7339 -1.78524 0.59252 0
M  V30 316 O 29.0919 -1.75413 -0.45827 0
M  V30 317 C 29.1399 -1.92869 3.04687 0
M  V30 318 O 28.2439 -3.019 2.80945 0
M  V30 319 H 27.5849 -0.287224 0.598664 0
M  V30 320 H 30.1149 -0.280109 2.02674 0
M  V30 321 H 30.1249 -2.34511 3.33869 0
M  V30 322 H 28.7999 -1.35689 3.93143 0
M  V30 323 H 27.3769 -2.64454 2.62904 0
M  V30 324 N 29.562 -1.4872 -0.521534 0
M  V30 325 C 30.492 -1.66771 -1.63431 0
M  V30 326 C 31.473 -0.516499 -1.62069 0
M  V30 327 O 32.658 -0.750013 -1.79132 0
M  V30 328 C 29.788 -1.71515 -3.01993 0
M  V30 329 C 28.742 -2.86222 -3.18216 0
M  V30 330 C 28.068 -2.76061 -4.57924 0
M  V30 331 C 29.368 -4.27419 -3.00184 0
M  V30 332 H 31.062 -2.59932 -1.48579 0
M  V30 333 H 28.608 -1.25089 -0.713358 0
M  V30 334 H 30.561 -1.82731 -3.7972 0
M  V30 335 H 29.285 -0.749393 -3.17886 0
M  V30 336 H 27.944 -2.74575 -2.42908 0
M  V30 337 H 27.592 -1.77437 -4.70665 0
M  V30 338 H 27.292 -3.53037 -4.69722 0
M  V30 339 H 28.816 -2.89256 -5.37739 0
M  V30 340 H 30.23 -4.39855 -3.67697 0
M  V30 341 H 28.627 -5.05458 -3.2347 0
M  V30 342 H 29.697 -4.43293 -1.96518 0
M  V30 343 N 31.0401 0.771051 -1.3745 0
M  V30 344 C 31.9701 1.89827 -1.3597 0
M  V30 345 C 32.9511 1.68562 -0.228216 0
M  V30 346 O 34.1361 1.8941 -0.428675 0
M  V30 347 C 31.2661 3.2712 -1.16662 0
M  V30 348 C 30.2201 3.6295 -2.2683 0
M  V30 349 C 29.5461 4.98791 -1.92644 0
M  V30 350 C 30.8461 3.69627 -3.69017 0
M  V30 351 H 32.5401 1.91323 -2.30295 0
M  V30 352 H 30.0861 0.919082 -1.10855 0
M  V30 353 H 32.0391 4.05615 -1.14256 0
M  V30 354 H 30.7631 3.26059 -0.187926 0
M  V30 355 H 29.4221 2.86763 -2.28392 0
M  V30 356 H 29.0701 4.94271 -0.933021 0
M  V30 357 H 28.7701 5.23733 -2.66416 0
M  V30 358 H 30.2941 5.79685 -1.91826 0
M  V30 359 H 31.7081 4.38273 -3.69581 0
M  V30 360 H 30.1051 4.06067 -4.41848 0
M  V30 361 H 31.1751 2.70273 -4.02592 0
M  V30 362 N 32.5182 1.22032 0.997298 0
M  V30 363 C 33.7642 1.04376 1.73878 0
M  V30 364 C 34.0972 -0.420716 1.89588 0
M  V30 365 O 33.3722 -1.31202 1.43583 0
M  V30 366 C 33.6552 1.75047 3.14691 0
M  V30 367 C 33.5082 3.29062 3.06656 0
M  V30 368 C 34.8272 1.49928 4.13775 0
M  V30 369 H 31.9462 0.380578 0.631133 0
M  V30 370 H 34.5882 1.50312 1.16217 0
M  V30 371 H 32.7382 1.35996 3.63919 0
M  V30 372 H 34.4102 3.7753 2.65083 0
M  V30 373 H 32.6532 3.58967 2.43568 0
M  V30 374 H 33.3242 3.73683 4.06282 0
M  V30 375 H 35.8002 1.83842 3.73285 0
M  V30 376 H 34.6762 2.01878 5.10428 0
M  V30 377 H 34.9372 0.430929 4.39995 0
M  V30 378 N 33.9963 -1.19345 1.0293 0
M  V30 379 C 35.2213 -1.93538 0.745511 0
M  V30 380 C 35.6463 -1.75007 -0.689511 0
M  V30 381 O 35.0043 -1.05265 -1.47611 0
M  V30 382 C 35.0523 -3.43336 1.10239 0
M  V30 383 O 34.1563 -4.11806 0.221289 0
M  V30 384 H 33.4973 -0.604193 0.275404 0
M  V30 385 H 36.0273 -1.5141 1.37609 0
M  V30 386 H 36.0373 -3.94004 1.05947 0
M  V30 387 H 34.7123 -3.56146 2.14786 0
M  V30 388 H 33.2893 -3.715 0.322842 0
M  V30 389 N 35.4744 -0.807222 -1.35358 0
M  V30 390 C 36.8854 -0.44876 -1.81226 0
M  V30 391 C 37.2364 1.02929 -1.67033 0
M  V30 392 O 36.3614 1.79991 -1.20133 0
M  V30 393 C 36.9564 -0.807774 -3.2903 0
M  V30 394 C 35.5154 -0.501901 -3.73039 0
M  V30 395 C 34.6624 -1.03304 -2.57339 0
M  V30 396 H 37.6134 -0.998808 -1.23327 0
M  V30 397 H 37.6344 -0.10554 -3.80354 0
M  V30 398 H 37.1464 -1.88357 -3.39328 0
M  V30 399 H 35.2474 0.565128 -3.68289 0
M  V30 400 H 35.3604 -1.03497 -4.67787 0
M  V30 401 H 33.7244 -0.455339 -2.50597 0
M  V30 402 H 34.5074 -2.11496 -2.70415 0
M  V30 403 N 36.9525 1.47285 -0.560781 0
M  V30 404 C 37.8855 2.27009 0.232821 0
M  V30 405 C 38.8635 1.34273 0.917039 0
M  V30 406 O 40.0475 1.63659 0.935315 0
M  V30 407 C 37.1745 3.11406 1.33206 0
M  V30 408 C 36.2205 4.19746 0.756019 0
M  V30 409 S 37.0535 5.34003 -0.400165 0
M  V30 410 C 38.2095 6.21964 0.700805 0
M  V30 411 H 38.4425 2.93971 -0.443683 0
M  V30 412 H 35.9755 1.50446 -0.347181 0
M  V30 413 H 37.9335 3.60601 1.96156 0
M  V30 414 H 36.5945 2.438 1.98041 0
M  V30 415 H 35.7875 4.78541 1.5816 0
M  V30 416 H 35.3895 3.73451 0.202619 0
M  V30 417 H 37.6815 6.58529 1.59202 0
M  V30 418 H 38.6245 7.07941 0.150126 0
M  V30 419 H 39.0325 5.5566 0.995083 0
M  V30 420 N 38.4306 0.297415 1.54768 0
M  V30 421 C 39.3606 -0.573494 2.26348 0
M  V30 422 C 40.3416 -1.14085 1.26169 0
M  V30 423 O 41.5266 -1.17086 1.54934 0
M  V30 424 C 38.6566 -1.74716 3.00153 0
M  V30 425 C 37.6106 -1.31032 4.07449 0
M  V30 426 C 36.9366 -2.56887 4.68949 0
M  V30 427 C 38.2366 -0.444183 5.20408 0
M  V30 428 H 39.9306 0.0235131 2.99391 0
M  V30 429 H 37.4766 0.0127488 1.43994 0
M  V30 430 H 39.4296 -2.3625 3.48947 0
M  V30 431 H 38.1536 -2.37035 2.24682 0
M  V30 432 H 36.8126 -0.718066 3.59499 0
M  V30 433 H 36.4606 -3.17512 3.90122 0
M  V30 434 H 36.1606 -2.2836 5.41411 0
M  V30 435 H 37.6846 -3.19229 5.20505 0
M  V30 436 H 39.0986 -0.9651 5.65118 0
M  V30 437 H 37.4956 -0.252846 5.99567 0
M  V30 438 H 38.5656 0.531609 4.81977 0
M  V30 439 N 39.9087 -1.5758 0.0250728 0
M  V30 440 C 41.1547 -1.92746 -0.649648 0
M  V30 441 C 41.5097 -0.901588 -1.69968 0
M  V30 442 O 40.8027 0.0829251 -1.9142 0
M  V30 443 C 40.9967 -3.32421 -1.31268 0
M  V30 444 C 40.8257 -4.48499 -0.328394 0
M  V30 445 C 39.5957 -5.05251 0.070284 0
M  V30 446 C 41.7937 -5.12618 0.415665 0
M  V30 447 N 39.7757 -6.04851 1.05016 0
M  V30 448 C 41.1467 -6.0728 1.24943 0
M  V30 449 C 43.2017 -4.95612 0.476803 0
M  V30 450 C 41.9047 -6.86766 2.1388 0
M  V30 451 C 43.9307 -5.75703 1.3535 0
M  V30 452 C 43.2927 -6.69978 2.17504 0
M  V30 453 H 39.3917 -0.753231 -0.210159 0
M  V30 454 H 41.9757 -1.94486 0.0912999 0
M  V30 455 H 40.1467 -3.31508 -2.02379 0
M  V30 456 H 41.8787 -3.54946 -1.94411 0
M  V30 457 H 38.6337 -4.72628 -0.303323 0
M  V30 458 H 39.0577 -6.5934 1.53622 0
M  V30 459 H 43.6997 -4.22554 -0.144105 0
M  V30 460 H 41.4177 -7.59132 2.77027 0
M  V30 461 H 45.0037 -5.64579 1.40504 0
M  V30 462 H 43.8837 -7.30873 2.84244 0
M  V30 463 N 41.3868 0.248026 -1.55636 0
M  V30 464 C 42.3498 1.29044 -1.89421 0
M  V30 465 C 43.3498 1.41134 -0.770581 0
M  V30 466 O 44.5398 1.39854 -1.03858 0
M  V30 467 C 41.6718 2.66831 -2.12165 0
M  V30 468 H 42.8648 1.00305 -2.82629 0
M  V30 469 H 40.4178 0.487265 -1.48511 0
M  V30 470 H 41.1528 3.00711 -1.21422 0
M  V30 471 H 40.9378 2.59438 -2.93997 0
M  V30 472 H 42.4278 3.42103 -2.3949 0
M  V30 473 N 42.8649 1.48995 0.513639 0
M  V30 474 C 43.8129 1.65199 1.63744 0
M  V30 475 C 44.8069 0.51809 1.61283 0
M  V30 476 O 46.0129 0.697335 1.65943 0
M  V30 477 H 42.3879 0.52069 0.542574 0
M  V30 478 H 44.3589 2.59552 1.47226 0
M  V30 479 C 43.1079 1.72409 3.01945 0
M  V30 480 H 42.4309 2.59029 3.04539 0
M  V30 481 H 43.8709 1.87785 3.80148 0
M  V30 482 C 42.3299 0.46618 3.33659 0
M  V30 483 O 42.8599 -0.413744 3.99564 0
M  V30 484 N 41.0659 0.332931 2.88687 0
M  V30 485 H 40.6129 1.04996 2.35231 0
M  V30 486 H 40.5709 -0.507665 3.10274 0
M  V30 487 N 44.343 -0.763751 1.37857 0
M  V30 488 C 45.571 -1.55293 1.36718 0
M  V30 489 C 45.986 -1.88745 -0.0455434 0
M  V30 490 O 45.343 -1.52039 -1.00947 0
M  V30 491 C 45.394 -2.85831 2.2132 0
M  V30 492 O 45.115 -2.5381 3.57089 0
M  V30 493 C 46.616 -3.80023 2.28249 0
M  V30 494 H 43.836 -0.480841 0.468009 0
M  V30 495 H 46.38 -0.946009 1.81303 0
M  V30 496 H 44.535 -3.42926 1.80223 0
M  V30 497 H 44.949 -3.37459 4.01524 0
M  V30 498 H 46.423 -4.68599 2.91752 0
M  V30 499 H 46.9 -4.1973 1.2932 0
M  V30 500 H 47.506 -3.28855 2.69693 0
M  V30 501 N 45.8211 -1.22559 -0.990812 0
M  V30 502 C 46.7691 -0.994798 -2.10253 0
M  V30 503 C 47.7631 0.0627798 -1.69284 0
M  V30 504 O 48.9691 -0.0898392 -1.79776 0
M  V30 505 H 45.3441 -0.304527 -0.687581 0
M  V30 506 H 47.3151 -1.93812 -2.26891 0
M  V30 507 C 46.0641 -0.591439 -3.42633 0
M  V30 508 H 45.3871 -1.3969 -3.74602 0
M  V30 509 H 46.8271 -0.469385 -4.21394 0
M  V30 510 C 45.2861 0.699232 -3.29564 0
M  V30 511 O 45.8161 1.75112 -3.61523 0
M  V30 512 N 44.0221 0.671182 -2.82743 0
M  V30 513 H 43.5691 -0.185136 -2.56934 0
M  V30 514 H 43.5271 1.53502 -2.7438 0
M  V30 515 N 47.2992 1.18797 -1.03562 0
M  V30 516 C 48.2472 2.24297 -0.615905 0
M  V30 517 C 49.2412 1.65643 0.354808 0
M  V30 518 O 50.4472 1.78618 0.22265 0
M  V30 519 H 46.8222 0.729909 -0.180934 0
M  V30 520 H 48.7932 2.5701 -1.5162 0
M  V30 521 C 47.5422 3.47698 0.0104735 0
M  V30 522 H 46.8652 3.93125 -0.727509 0
M  V30 523 H 48.3052 4.23159 0.266995 0
M  V30 524 C 46.7642 3.12489 1.25905 0
M  V30 525 O 47.2942 3.25761 2.35038 0
M  V30 526 N 45.5002 2.6686 1.15039 0
M  V30 527 H 45.0472 2.56261 0.262328 0
M  V30 528 H 45.0052 2.43674 1.98672 0
M  V30 529 N 48.7773 0.814389 1.34928 0
M  V30 530 C 50.0053 0.411136 2.02774 0
M  V30 531 C 50.4203 -0.980316 1.61354 0
M  V30 532 O 49.7773 -1.63299 0.814847 0
M  V30 533 C 49.8283 0.493865 3.58111 0
M  V30 534 O 49.5493 1.83047 3.98027 0
M  V30 535 C 51.0503 0.0844174 4.4322 0
M  V30 536 H 48.2703 0.166037 0.650133 0
M  V30 537 H 50.8143 1.10018 1.72384 0
M  V30 538 H 48.9693 -0.147006 3.87121 0
M  V30 539 H 49.3833 1.79872 4.92693 0
M  V30 540 H 50.8573 0.193404 5.51661 0
M  V30 541 H 51.3343 -0.97113 4.28329 0
M  V30 542 H 51.9403 0.69875 4.19521 0
M  V30 543 N 50.2554 -1.46986 0.568584 0
M  V30 544 C 51.5044 -2.01646 0.0465894 0
M  V30 545 C 51.8174 -1.44721 -1.31587 0
M  V30 546 O 53.0234 -1.91113 -1.92842 0
M  V30 547 C 51.4794 -3.59885 0.032752 0
M  V30 548 C 51.0874 -4.25804 1.39266 0
M  V30 549 C 52.8314 -4.22255 -0.436038 0
M  V30 550 C 50.7384 -5.76081 1.33732 0
M  V30 551 H 49.6684 -0.753876 0.013647 0
M  V30 552 H 52.3194 -1.68864 0.718131 0
M  V30 553 H 50.7014 -3.8968 -0.704669 0
M  V30 554 H 51.8754 -4.07637 2.1487 0
M  V30 555 H 50.1904 -3.7547 1.80032 0
M  V30 556 H 52.7874 -5.32394 -0.49602 0
M  V30 557 H 53.1304 -3.90212 -1.45053 0
M  V30 558 H 53.6634 -3.97033 0.246877 0
M  V30 559 H 50.4024 -6.12761 2.32817 0
M  V30 560 H 49.9224 -5.96553 0.623267 0
M  V30 561 H 51.6014 -6.38518 1.0442 0
M  V30 562 N 51.7335 -0.305618 -1.54608 0
M  V30 563 C 52.6435 0.57778 -2.27374 0
M  V30 564 C 53.6595 1.14451 -1.31061 0
M  V30 565 O 54.8355 1.16831 -1.6405 0
M  V30 566 C 51.9005 1.73123 -3.00382 0
M  V30 567 C 50.9615 1.19812 -4.12242 0
M  V30 568 C 50.1945 2.2966 -4.81759 0
M  V30 569 O 50.4175 3.49651 -4.50666 0
M  V30 570 O 49.3515 1.96091 -5.69062 0
M  V30 571 H 53.1775 -0.012624 -3.03697 0
M  V30 572 H 50.7625 -0.0719184 -1.49227 0
M  V30 573 H 52.6445 2.40315 -3.4616 0
M  V30 574 H 51.3195 2.30815 -2.26949 0
M  V30 575 H 50.2265 0.491798 -3.70853 0
M  V30 576 H 51.5595 0.666566 -4.87666 0
M  V30 577 N 53.2116 1.57565 -0.0334293 0
M  V30 578 C 54.1216 2.13943 0.962572 0
M  V30 579 C 55.1376 1.09276 1.35406 0
M  V30 580 O 56.3136 1.41355 1.4346 0
M  V30 581 C 53.3786 2.65887 2.22497 0
M  V30 582 C 52.4396 3.85286 1.8935 0
M  V30 583 C 51.6726 4.34743 3.09571 0
M  V30 584 O 51.8956 3.83352 4.22371 0
M  V30 585 O 50.8296 5.26538 2.91618 0
M  V30 586 H 54.6556 2.99333 0.513169 0
M  V30 587 H 52.2406 1.4822 0.18743 0
M  V30 588 H 54.1226 2.99346 2.96598 0
M  V30 589 H 52.7976 1.83578 2.6661 0
M  V30 590 H 51.7046 3.56746 1.1262 0
M  V30 591 H 53.0376 4.68771 1.5005 0
M  V30 592 N 54.6897 -0.239769 1.55765 0
M  V30 593 C 55.6217 -1.32001 1.87372 0
M  V30 594 C 56.6347 -1.43944 0.760522 0
M  V30 595 O 57.8237 -1.45167 1.0387 0
M  V30 596 C 54.9237 -2.69779 2.05115 0
M  V30 597 C 54.0967 -2.80014 3.36022 0
M  V30 598 C 53.1557 -3.98684 3.4342 0
M  V30 599 O 52.1817 -3.87877 4.16582 0
M  V30 600 N 53.3837 -5.12176 2.73232 0
M  V30 601 H 56.1487 -1.0522 2.80622 0
M  V30 602 H 53.7097 -0.429857 1.56089 0
M  V30 603 H 55.7017 -3.47517 2.07399 0
M  V30 604 H 54.2717 -2.89237 1.18577 0
M  V30 605 H 53.4917 -1.88896 3.45994 0
M  V30 606 H 54.7797 -2.83808 4.22292 0
M  V30 607 H 54.1777 -5.2385 2.13536 0
M  V30 608 H 52.7347 -5.88022 2.81199 0
M  V30 609 N 56.1678 -1.49265 -0.50573 0
M  V30 610 C 57.0978 -1.68495 -1.61653 0
M  V30 611 C 58.0788 -0.53366 -1.61512 0
M  V30 612 O 59.2638 -0.76897 -1.78327 0
M  V30 613 C 56.3938 -1.74709 -3.00157 0
M  V30 614 C 55.3478 -2.89581 -3.15162 0
M  V30 615 C 54.6738 -2.80903 -4.5497 0
M  V30 616 C 55.9738 -4.30578 -2.95634 0
M  V30 617 H 57.6678 -2.61493 -1.45814 0
M  V30 618 H 55.2138 -1.25838 -0.70005 0
M  V30 619 H 57.1668 -1.86748 -3.77761 0
M  V30 620 H 55.8908 -0.783067 -3.17074 0
M  V30 621 H 54.5498 -2.77136 -2.39982 0
M  V30 622 H 54.1978 -1.82419 -4.68756 0
M  V30 623 H 53.8978 -3.57999 -4.65951 0
M  V30 624 H 55.4218 -2.94944 -5.34641 0
M  V30 625 H 56.8358 -4.4373 -3.63011 0
M  V30 626 H 55.2328 -5.0886 -3.18091 0
M  V30 627 H 56.3028 -4.45352 -1.91806 0
M  V30 628 N 57.6459 0.756429 -1.3826 0
M  V30 629 C 58.8709 1.55077 -1.37717 0
M  V30 630 C 59.2959 1.88073 0.03164 0
M  V30 631 O 58.6539 1.50364 1.01293 0
M  V30 632 C 58.7019 2.8283 -2.23695 0
M  V30 633 O 57.8059 3.77862 -1.6521 0
M  V30 634 H 57.1469 0.469152 -0.469885 0
M  V30 635 H 59.6769 0.935019 -1.81985 0
M  V30 636 H 59.6869 3.31783 -2.37453 0
M  V30 637 H 58.3619 2.58144 -3.2609 0
M  V30 638 H 56.9389 3.36555 -1.60578 0
M  V30 639 N 59.124 1.23083 0.984299 0
M  V30 640 C 60.352 1.08714 1.76037 0
M  V30 641 C 60.767 -0.361691 1.85303 0
M  V30 642 O 60.124 -1.25034 1.32939 0
M  V30 643 C 60.175 1.70206 3.18923 0
M  V30 644 O 59.896 3.09423 3.10144 0
M  V30 645 C 61.397 1.61227 4.12941 0
M  V30 646 H 58.617 0.380664 0.552572 0
M  V30 647 H 61.161 1.62853 1.23689 0
M  V30 648 H 59.316 1.20109 3.6831 0
M  V30 649 H 59.73 3.39188 4.00065 0
M  V30 650 H 61.204 2.08962 5.10919 0
M  V30 651 H 61.681 0.570375 4.35481 0
M  V30 652 H 62.287 2.10671 3.69456 0
M  V30 653 N 60.6021 -1.18246 1.0419 0
M  V30 654 C 61.5321 -2.24127 0.654914 0
M  V30 655 C 62.5131 -1.66617 -0.342451 0
M  V30 656 O 63.6981 -1.92924 -0.222277 0
M  V30 657 C 60.8281 -3.47295 0.0183757 0
M  V30 658 C 59.7821 -4.17563 0.939414 0
M  V30 659 C 59.1081 -5.34438 0.167286 0
M  V30 660 C 60.4081 -4.70917 2.25908 0
M  V30 661 H 62.1021 -2.56753 1.54007 0
M  V30 662 H 59.6481 -1.23414 0.74195 0
M  V30 663 H 61.6011 -4.20572 -0.264082 0
M  V30 664 H 60.3251 -3.13907 -0.901664 0
M  V30 665 H 58.9841 -3.46186 1.20628 0
M  V30 666 H 58.6321 -4.97298 -0.7552 0
M  V30 667 H 58.3321 -5.82388 0.780901 0
M  V30 668 H 59.8561 -6.10504 -0.108125 0
M  V30 669 H 61.2701 -5.35882 2.03724 0
M  V30 670 H 59.6671 -5.29406 2.82577 0
M  V30 671 H 60.7371 -3.88272 2.9047 0
M  V30 672 N 62.0802 -0.821533 -1.34494 0
M  V30 673 C 62.9902 -0.244355 -2.33324 0
M  V30 674 C 64.0062 0.620527 -1.62559 0
M  V30 675 O 65.1822 0.528754 -1.94335 0
M  V30 676 C 62.2472 0.585368 -3.41723 0
M  V30 677 C 61.3082 -0.301752 -4.28238 0
M  V30 678 C 60.5412 0.488466 -5.3146 0
M  V30 679 O 60.7642 1.72186 -5.4379 0
M  V30 680 O 59.6982 -0.12848 -6.01763 0
M  V30 681 H 63.5242 -1.06231 -2.84515 0
M  V30 682 H 61.1092 -0.583645 -1.37528 0
M  V30 683 H 62.9912 1.05747 -4.07916 0
M  V30 684 H 61.6662 1.38068 -2.92778 0
M  V30 685 H 60.5732 -0.821315 -3.64973 0
M  V30 686 H 61.9062 -1.06138 -4.8062 0
M  V30 687 N 63.5583 1.46682 -0.576371 0
M  V30 688 C 64.5053 2.30241 0.160499 0
M  V30 689 C 65.4753 1.40233 0.890162 0
M  V30 690 O 66.6603 1.69186 0.882084 0
M  V30 691 C 63.8003 3.24578 1.1723 0
M  V30 692 C 62.9133 4.29684 0.446736 0
M  V30 693 C 62.0483 5.11154 1.44551 0
M  V30 694 C 61.0873 6.08015 0.70599 0
M  V30 695 N 60.2243 6.82376 1.65251 0
M  V30 696 H 65.0643 2.92727 -0.558127 0
M  V30 697 H 62.6013 1.44272 -0.287056 0
M  V30 698 H 64.5593 3.77711 1.77172 0
M  V30 699 H 63.1893 2.63916 1.85872 0
M  V30 700 H 62.2413 3.79458 -0.267594 0
M  V30 701 H 63.5533 4.98626 -0.131686 0
M  V30 702 H 62.7073 5.68533 2.11791 0
M  V30 703 H 61.4463 4.42158 2.05786 0
M  V30 704 H 60.4513 5.49796 0.0197725 0
M  V30 705 H 61.6763 6.79028 0.09912 0
M  V30 706 H 59.6223 6.16094 2.25308 0
M  V30 707 H 59.5393 7.47556 1.12673 0
M  V30 708 H 60.8073 7.44316 2.31546 0
M  V30 709 N 65.0364 0.313813 1.54444 0
M  V30 710 C 66.2664 -0.293491 2.04505 0
M  V30 711 C 66.6744 -1.47086 1.19005 0
M  V30 712 O 66.0174 -1.82481 0.211257 0
M  V30 713 C 66.0794 -0.800455 3.50475 0
M  V30 714 C 65.7434 0.253322 4.56297 0
M  V30 715 C 66.7404 1.08612 5.08428 0
M  V30 716 C 64.4254 0.398708 5.00715 0
M  V30 717 C 66.4194 2.05013 6.0353 0
M  V30 718 C 64.1064 1.36614 5.95634 0
M  V30 719 C 65.1044 2.19033 6.46926 0
M  V30 720 O 64.7924 3.14134 7.39983 0
M  V30 721 H 64.5244 -0.0658325 0.672787 0
M  V30 722 H 67.0784 0.455177 2.00293 0
M  V30 723 H 65.3084 -1.59987 3.52053 0
M  V30 724 H 66.9974 -1.32504 3.83663 0
M  V30 725 H 67.7634 0.984736 4.74898 0
M  V30 726 H 63.6424 -0.23289 4.60411 0
M  V30 727 H 67.1864 2.69382 6.4349 0
M  V30 728 H 63.0834 1.4682 6.28581 0
M  V30 729 H 63.8514 3.0926 7.57826 0
M  V30 730 N 66.5145 -1.57545 0.0417849 0
M  V30 731 C 67.7395 -1.97035 -0.647455 0
M  V30 732 C 68.1645 -0.918775 -1.64135 0
M  V30 733 O 67.5225 0.119006 -1.80909 0
M  V30 734 C 67.5705 -3.35609 -1.31905 0
M  V30 735 O 66.6745 -3.3287 -2.43457 0
M  V30 736 H 66.0155 -0.64211 -0.169086 0
M  V30 737 H 68.5455 -2.04318 0.107399 0
M  V30 738 H 68.5555 -3.72126 -1.67291 0
M  V30 739 H 67.2305 -4.11685 -0.590586 0
M  V30 740 H 65.8075 -3.08087 -2.10088 0
M  V30 741 N 67.9926 0.231505 -1.5589 0
M  V30 742 C 68.9246 1.31006 -1.8807 0
M  V30 743 C 69.9376 1.43539 -0.768145 0
M  V30 744 O 71.1266 1.44614 -1.04638 0
M  V30 745 C 68.2266 2.68688 -2.06543 0
M  V30 746 C 67.3996 2.78228 -3.37502 0
M  V30 747 C 66.4586 3.96857 -3.4553 0
M  V30 748 O 65.4846 3.85662 -4.18633 0
M  V30 749 N 66.6866 5.1072 -2.75944 0
M  V30 750 H 69.4516 1.03731 -2.81176 0
M  V30 751 H 67.0126 0.421573 -1.56315 0
M  V30 752 H 69.0046 3.46412 -2.09239 0
M  V30 753 H 67.5746 2.88605 -1.20109 0
M  V30 754 H 66.7946 1.87059 -3.46991 0
M  V30 755 H 68.0826 2.81564 -4.23791 0
M  V30 756 H 67.4806 5.2271 -2.16311 0
M  V30 757 H 66.0376 5.86523 -2.84314 0
M  V30 758 N 69.4707 1.49531 0.497807 0
M  V30 759 C 70.7187 1.58865 1.24926 0
M  V30 760 C 71.0397 0.278721 1.92998 0
M  V30 761 O 70.3097 -0.702144 1.82885 0
M  V30 762 H 68.8897 0.585343 0.464094 0
M  V30 763 H 71.5517 1.86174 0.57666 0
M  V30 764 H 70.6477 2.38633 2.01149 0
M  V30 765 N 70.9488 -0.749086 1.3866 0
M  V30 766 C 72.3648 -1.05276 1.19955 0
M  V30 767 C 72.5648 -2.01435 0.05134 0
M  V30 768 O 71.6208 -2.45232 -0.60147 0
M  V30 769 C 72.9338 -1.62853 2.52783 0
M  V30 770 C 74.4818 -1.75002 2.59506 0
M  V30 771 C 74.9568 -2.35991 3.92521 0
M  V30 772 N 76.4478 -2.43416 3.94085 0
M  V30 773 C 77.1828 -2.91511 4.9377 0
M  V30 774 N 76.6788 -3.39608 6.03853 0
M  V30 775 N 78.4718 -2.90592 4.81157 0
M  V30 776 H 70.6228 -0.111066 2.12109 0
M  V30 777 H 72.8858 -0.111901 0.941373 0
M  V30 778 H 72.5918 -0.99664 3.37283 0
M  V30 779 H 72.4658 -2.61854 2.715 0
M  V30 780 H 74.8528 -2.37317 1.75398 0
M  V30 781 H 74.9338 -0.74693 2.44652 0
M  V30 782 H 74.5778 -1.74308 4.77053 0
M  V30 783 H 74.5078 -3.3695 4.04688 0
M  V30 784 H 76.9988 -2.09405 3.14576 0
M  V30 785 H 77.3118 -3.74775 6.75843 0
M  V30 786 H 75.6568 -3.37653 6.07466 0
M  V30 787 H 78.8478 -2.52332 3.94267 0
M  V30 788 H 79.0208 -3.27762 5.58996 0
M  V30 789 N 72.4269 -1.23603 -0.977757 0
M  V30 790 C 73.3569 -1.04401 -2.0886 0
M  V30 791 C 74.3379 0.0399052 -1.70053 0
M  V30 792 O 75.5229 -0.125246 -1.93796 0
M  V30 793 C 72.6529 -0.637269 -3.41403 0
M  V30 794 C 71.6069 -1.66883 -3.94124 0
M  V30 795 C 70.9329 -1.11745 -5.22893 0
M  V30 796 C 72.2329 -3.06247 -4.23096 0
M  V30 797 H 73.9269 -1.97316 -2.25182 0
M  V30 798 H 71.4729 -0.950096 -1.08209 0
M  V30 799 H 73.4259 -0.48998 -4.18542 0
M  V30 800 H 72.1499 0.327557 -3.24953 0
M  V30 801 H 70.8089 -1.80416 -3.19133 0
M  V30 802 H 70.4569 -0.143527 -5.02795 0
M  V30 803 H 70.1569 -1.80672 -5.59134 0
M  V30 804 H 71.6809 -0.982067 -6.02651 0
M  V30 805 H 73.0949 -2.96001 -4.90975 0
M  V30 806 H 71.4919 -3.72436 -4.70544 0
M  V30 807 H 72.5619 -3.55041 -3.30263 0
M  V30 808 N 73.905 1.17692 -1.04816 0
M  V30 809 C 75.153 1.87488 -0.754497 0
M  V30 810 C 75.474 1.81205 0.720407 0
M  V30 811 O 74.744 1.23544 1.52032 0
M  V30 812 H 73.324 0.694101 -0.276102 0
M  V30 813 H 75.986 1.42793 -1.32651 0
M  V30 814 H 75.082 2.93328 -1.06606 0
M  V30 815 N 75.3831 0.828654 1.34056 0
M  V30 816 C 76.6291 0.42008 1.98402 0
M  V30 817 C 76.9621 -1.01564 1.65525 0
M  V30 818 O 76.2371 -1.70834 0.929831 0
M  V30 819 C 76.5201 0.62927 3.54559 0
M  V30 820 C 76.3731 2.11152 3.97159 0
M  V30 821 C 77.6921 0.0688756 4.40046 0
M  V30 822 H 74.8111 0.154104 0.720709 0
M  V30 823 H 77.4531 1.04228 1.5886 0
M  V30 824 H 75.6031 0.0996418 3.88372 0
M  V30 825 H 77.2751 2.70522 3.73651 0
M  V30 826 H 75.5181 2.59985 3.47261 0
M  V30 827 H 76.1891 2.20868 5.05887 0
M  V30 828 H 78.6651 0.521458 4.1282 0
M  V30 829 H 77.5411 0.245006 5.48353 0
M  V30 830 H 77.8021 -1.0266 4.30015 0
M  V30 831 N 76.8612 -1.46375 0.584142 0
M  V30 832 C 77.8242 -2.28784 -0.138108 0
M  V30 833 C 78.8242 -1.38471 -0.817462 0
M  V30 834 O 80.0142 -1.60833 -0.669199 0
M  V30 835 C 77.1462 -3.18892 -1.20503 0
M  V30 836 H 78.3392 -2.94117 0.586127 0
M  V30 837 H 75.8922 -1.52509 0.342171 0
M  V30 838 H 76.6272 -2.58309 -1.96079 0
M  V30 839 H 76.4122 -3.85388 -0.722384 0
M  V30 840 H 77.9022 -3.80914 -1.71155 0
M  V30 841 N 78.3393 -0.321999 -1.54275 0
M  V30 842 C 79.2693 0.537411 -2.27231 0
M  V30 843 C 80.2503 1.12064 -1.27968 0
M  V30 844 O 81.4353 1.14606 -1.56777 0
M  V30 845 C 78.5653 1.69919 -3.02894 0
M  V30 846 C 77.5193 1.24534 -4.09482 0
M  V30 847 C 76.8453 2.49394 -4.72977 0
M  V30 848 C 78.1453 0.361335 -5.21049 0
M  V30 849 H 79.8393 -0.0711406 -2.99315 0
M  V30 850 H 77.3853 -0.0356555 -1.43956 0
M  V30 851 H 79.3383 2.30668 -3.52662 0
M  V30 852 H 78.0623 2.33431 -2.28424 0
M  V30 853 H 76.7213 0.660782 -3.60596 0
M  V30 854 H 76.3693 3.11265 -3.95124 0
M  V30 855 H 76.0693 2.19718 -5.44975 0
M  V30 856 H 77.5933 3.10908 -5.25517 0
M  V30 857 H 79.0073 0.875072 -5.66582 0
M  V30 858 H 77.4043 0.157428 -5.99893 0
M  V30 859 H 78.4743 -0.60822 -4.8107 0
M  V30 860 N 79.8174 1.5752 -0.0501392 0
M  V30 861 C 81.0664 1.91827 0.623328 0
M  V30 862 C 81.3794 0.930222 1.72065 0
M  V30 863 O 82.5854 1.1653 2.4522 0
M  V30 864 C 81.0414 3.40692 1.16003 0
M  V30 865 C 80.6494 4.479 0.0948811 0
M  V30 866 C 82.3934 3.84034 1.80881 0
M  V30 867 C 80.3004 5.87879 0.644411 0
M  V30 868 H 79.2304 0.715918 0.236596 0
M  V30 869 H 81.8814 1.83115 -0.118861 0
M  V30 870 H 80.2634 3.44405 1.9545 0
M  V30 871 H 81.4374 4.55775 -0.678675 0
M  V30 872 H 79.7524 4.13892 -0.45637 0
M  V30 873 H 82.3494 4.85984 2.22988 0
M  V30 874 H 82.6924 3.20225 2.6601 0
M  V30 875 H 83.2254 3.82833 1.0809 0
M  V30 876 H 79.9644 6.55282 -0.169229 0
M  V30 877 H 79.4844 5.83567 1.38598 0
M  V30 878 H 81.1634 6.37098 1.12763 0
M  V30 879 N 81.2955 -0.223234 1.56011 0
M  V30 880 C 82.2435 -1.29627 1.93131 0
M  V30 881 C 83.2375 -1.48608 0.813146 0
M  V30 882 O 84.4435 -1.49802 0.997966 0
M  V30 883 H 80.8185 -0.434563 0.613726 0
M  V30 884 H 82.7895 -0.955995 2.82672 0
M  V30 885 C 81.5385 -2.63983 2.26292 0
M  V30 886 H 80.8615 -2.50185 3.11846 0
M  V30 887 H 82.3015 -3.3788 2.56151 0
M  V30 888 C 80.7605 -3.18866 1.08747 0
M  V30 889 O 81.2905 -4.00192 0.347727 0
M  V30 890 N 79.4965 -2.77217 0.871743 0
M  V30 891 H 79.0435 -2.1119 1.47501 0
M  V30 892 H 79.0015 -3.1428 0.0869905 0
M  V30 893 N 82.7736 -1.49793 -0.48987 0
M  V30 894 C 84.0016 -1.63568 -1.26701 0
M  V30 895 C 84.4166 -0.311465 -1.86213 0
M  V30 896 O 83.7736 0.704416 -1.68357 0
M  V30 897 C 83.8246 -2.71284 -2.38929 0
M  V30 898 O 83.5456 -3.9857 -1.81861 0
M  V30 899 C 85.0466 -2.95864 -3.3012 0
M  V30 900 H 82.2666 -0.550342 -0.383881 0
M  V30 901 H 84.8106 -1.95898 -0.586864 0
M  V30 902 H 82.9656 -2.417 -3.02753 0
M  V30 903 H 83.3796 -4.57993 -2.55622 0
M  V30 904 H 84.8536 -3.74941 -4.05121 0
M  V30 905 H 85.3306 -2.06206 -3.87783 0
M  V30 906 H 85.9366 -3.26907 -2.72051 0
M  V30 907 N 84.2517 0.741722 -1.39055 0
M  V30 908 C 85.1617 1.88621 -1.39496 0
M  V30 909 C 86.1777 1.71557 -0.290578 0
M  V30 910 O 87.3537 1.94275 -0.530954 0
M  V30 911 C 84.4187 3.24134 -1.23037 0
M  V30 912 C 83.4797 3.5364 -2.43387 0
M  V30 913 C 82.7127 4.82687 -2.27703 0
M  V30 914 O 82.9357 5.55922 -1.27696 0
M  V30 915 O 81.8697 5.1194 -3.16545 0
M  V30 916 H 85.6957 1.91203 -2.35956 0
M  V30 917 H 83.2807 0.888625 -1.20099 0
M  V30 918 H 85.1627 4.0513 -1.15964 0
M  V30 919 H 83.8377 3.22337 -0.296691 0
M  V30 920 H 82.7447 2.72758 -2.56035 0
M  V30 921 H 84.0777 3.60209 -3.35425 0
M  V30 922 N 85.7298 1.2412 0.971189 0
M  V30 923 C 87.0068 0.986867 1.6888 0
M  V30 924 C 87.3868 -0.491857 2.0529 0
M  V30 925 O 86.7348 -1.46531 1.75331 0
M  V30 926 C 86.9448 1.9063 2.92338 0
M  V30 927 C 88.2928 2.17515 3.64654 0
M  V30 928 O 89.3168 1.88254 3.02388 0
M  V30 929 O 88.1758 2.6719 4.7673 0
M  V30 930 H 85.2698 0.372944 0.738134 0
M  V30 931 H 87.8158 1.35203 1.02559 0
M  V30 932 H 86.5878 2.90552 2.62097 0
M  V30 933 H 86.2108 1.54408 3.66393 0
M  V30 934 N 87.2079 -1.17134 1.05439 0
M  V30 935 C 88.1559 -2.23289 0.651511 0
M  V30 936 C 89.1499 -1.66186 -0.328411 0
M  V30 937 O 90.3559 -1.78949 -0.194206 0
M  V30 938 H 86.7309 -0.726938 0.192523 0
M  V30 939 H 88.7019 -2.54565 1.55689 0
M  V30 940 C 87.4509 -3.47671 0.0448436 0
M  V30 941 H 86.7739 -3.91918 0.78996 0
M  V30 942 H 88.2139 -4.2353 -0.19964 0
M  V30 943 C 86.6729 -3.14453 -1.20918 0
M  V30 944 O 87.2029 -3.29459 -2.29825 0
M  V30 945 N 85.4089 -2.68657 -1.10779 0
M  V30 946 H 84.9559 -2.56646 -0.221526 0
M  V30 947 H 84.9139 -2.46804 -1.9477 0
M  V30 948 N 88.686 -0.835752 -1.33615 0
M  V30 949 C 89.911 -0.442389 -2.02627 0
M  V30 950 C 90.336 0.947735 -1.62479 0
M  V30 951 O 89.694 1.61907 -0.815826 0
M  V30 952 C 89.742 -0.567216 -3.56111 0
M  V30 953 O 88.846 0.407799 -4.10379 0
M  V30 954 H 88.187 -0.180278 -0.639059 0
M  V30 955 H 90.717 -1.12972 -1.70583 0
M  V30 956 H 90.727 -0.447708 -4.05536 0
M  V30 957 H 89.402 -1.58103 -3.84677 0
M  V30 958 H 87.979 0.246107 -3.72087 0
M  V30 959 N 90.1641 1.46063 -0.591896 0
M  V30 960 C 91.0961 2.28539 0.174001 0
M  V30 961 C 92.1091 1.39047 0.846753 0
M  V30 962 O 93.2981 1.63564 0.714774 0
M  V30 963 C 90.3981 3.14347 1.26645 0
M  V30 964 C 89.5711 4.32021 0.683856 0
M  V30 965 C 88.6301 4.99157 1.66518 0
M  V30 966 O 87.6561 5.56458 1.19763 0
M  V30 967 N 88.8581 4.97005 2.99943 0
M  V30 968 H 91.6231 2.94911 -0.533633 0
M  V30 969 H 89.1841 1.56077 -0.430294 0
M  V30 970 H 91.1761 3.56125 1.92242 0
M  V30 971 H 89.7461 2.49988 1.87682 0
M  V30 972 H 88.9661 3.93915 -0.1498 0
M  V30 973 H 90.2541 5.08059 0.274567 0
M  V30 974 H 89.6521 4.51714 3.40545 0
M  V30 975 H 88.2091 5.42696 3.61004 0
M  V30 976 N 91.6422 0.330177 1.54103 0
M  V30 977 C 92.8912 -0.271336 1.99867 0
M  V30 978 C 93.2042 -1.52723 1.22209 0
M  V30 979 O 94.4102 -2.20515 1.58383 0
M  V30 980 C 92.8662 -0.534032 3.55916 0
M  V30 981 C 92.4742 0.705193 4.42415 0
M  V30 982 C 94.2182 -1.09514 4.1013 0
M  V30 983 C 92.1252 0.414035 5.89949 0
M  V30 984 H 91.0552 -0.105166 0.74663 0
M  V30 985 H 93.7062 0.443429 1.78062 0
M  V30 986 H 92.0882 -1.30915 3.73734 0
M  V30 987 H 93.2622 1.4804 4.36372 0
M  V30 988 H 91.5772 1.18698 3.99124 0
M  V30 989 H 94.1742 -1.3277 5.17954 0
M  V30 990 H 94.5172 -2.04656 3.62521 0
M  V30 991 H 95.0502 -0.381038 3.95971 0
M  V30 992 H 91.7892 1.33481 6.41766 0
M  V30 993 H 91.3092 -0.323336 5.98928 0
M  V30 994 H 92.9882 0.0263105 6.46995 0
M  V30 995 N 93.1203 -1.57491 0.0584922 0
M  V30 996 C 94.3483 -1.97296 -0.623037 0
M  V30 997 C 94.7633 -0.936338 -1.63946 0
M  V30 998 O 94.1203 0.0785981 -1.82331 0
M  V30 999 C 94.1713 -3.37183 -1.30345 0
M  V30 1000 O 93.8923 -4.36872 -0.32773 0
M  V30 1001 C 95.3933 -3.91788 -2.07406 0
M  V30 1002 H 92.6133 -0.649153 -0.169826 0
M  V30 1003 H 95.1573 -2.04106 0.12696 0
M  V30 1004 H 93.3123 -3.31502 -2.00463 0
M  V30 1005 H 93.7263 -5.18141 -0.814269 0
M  V30 1006 H 95.2003 -4.91926 -2.50425 0
M  V30 1007 H 95.6773 -3.27609 -2.92521 0
M  V30 1008 H 96.2833 -4.00829 -1.42184 0
M  V30 1009 N 94.5984 0.214957 -1.56127 0
M  V30 1010 C 95.8284 0.953707 -1.8327 0
M  V30 1011 C 96.2364 1.78181 -0.636262 0
M  V30 1012 O 95.5794 1.79191 0.404516 0
M  V30 1013 C 95.6414 1.91516 -3.0424 0
M  V30 1014 C 95.3054 1.27094 -4.38972 0
M  V30 1015 C 96.3024 0.657575 -5.15725 0
M  V30 1016 C 93.9874 1.28073 -4.85698 0
M  V30 1017 C 95.9814 0.0625968 -6.37369 0
M  V30 1018 C 93.6684 0.681914 -6.07283 0
M  V30 1019 C 94.6664 0.0739046 -6.8296 0
M  V30 1020 O 94.3544 -0.515582 -8.02245 0
M  V30 1021 H 94.0864 0.284764 -0.613095 0
M  V30 1022 H 96.6404 0.233283 -2.04071 0
M  V30 1023 H 94.8704 2.67475 -2.79274 0
M  V30 1024 H 96.5594 2.52001 -3.18198 0
M  V30 1025 H 97.3254 0.642288 -4.80728 0
M  V30 1026 H 93.2044 1.74337 -4.26764 0
M  V30 1027 H 96.7484 -0.412593 -6.96379 0
M  V30 1028 H 92.6454 0.694636 -6.41752 0
M  V30 1029 H 93.4134 -0.410544 -8.1747 0
M  V30 1030 N 96.0765 1.50051 0.48192 0
M  V30 1031 C 97.4925 1.37237 0.814756 0
M  V30 1032 C 97.6925 0.420109 1.97072 0
M  V30 1033 O 96.7485 -0.141246 2.52105 0
M  V30 1034 C 98.0615 2.78375 1.13701 0
M  V30 1035 C 99.6095 2.87213 1.2441 0
M  V30 1036 C 100.084 4.29161 1.59954 0
M  V30 1037 N 101.575 4.32061 1.66967 0
M  V30 1038 C 102.31 5.38879 1.95952 0
M  V30 1039 N 101.806 6.55918 2.23031 0
M  V30 1040 N 103.599 5.26312 1.97363 0
M  V30 1041 H 95.7505 2.10546 -0.28005 0
M  V30 1042 H 98.0135 0.945921 -0.0627454 0
M  V30 1043 H 97.7195 3.49845 0.360787 0
M  V30 1044 H 97.5935 3.14941 2.07586 0
M  V30 1045 H 99.9805 2.15969 2.01101 0
M  V30 1046 H 100.061 2.54204 0.285299 0
M  V30 1047 H 99.7055 5.00938 0.838067 0
M  V30 1048 H 99.6355 4.59648 2.56966 0
M  V30 1049 H 102.126 3.47661 1.48123 0
M  V30 1050 H 102.439 7.33139 2.44391 0
M  V30 1051 H 100.784 6.59112 2.20447 0
M  V30 1052 H 103.975 4.33876 1.75697 0
M  V30 1053 H 104.148 6.09649 2.19618 0
M  V30 1054 N 97.5546 -0.734337 1.39446 0
M  V30 1055 C 98.8026 -1.49096 1.36436 0
M  V30 1056 C 99.1236 -1.94961 -0.0388255 0
M  V30 1057 O 98.3936 -1.69033 -0.990191 0
M  V30 1058 H 96.9736 -0.5531 0.502085 0
M  V30 1059 H 99.6356 -0.871725 1.74319 0
M  V30 1060 H 98.7316 -2.37276 2.02747 0
M  V30 1061 N 99.0327 -1.24633 -0.964593 0
M  V30 1062 C 99.9427 -1.05859 -2.09359 0
M  V30 1063 C 100.959 0.00148855 -1.74 0
M  V30 1064 O 102.135 -0.197346 -2.00431 0
M  V30 1065 C 99.1997 -0.668879 -3.40187 0
M  V30 1066 C 98.2607 -1.80578 -3.89474 0
M  V30 1067 C 97.4937 -1.43457 -5.14058 0
M  V30 1068 O 97.7167 -0.325775 -5.69469 0
M  V30 1069 O 96.6507 -2.2613 -5.57807 0
M  V30 1070 H 100.477 -2.00516 -2.28094 0
M  V30 1071 H 98.0617 -1.03481 -1.0776 0
M  V30 1072 H 99.9437 -0.463211 -4.18846 0
M  V30 1073 H 98.6187 0.248536 -3.22744 0
M  V30 1074 H 97.5257 -2.06623 -3.11862 0
M  V30 1075 H 98.8587 -2.70208 -4.11398 0
M  V30 1076 N 100.511 1.16574 -1.06058 0
M  V30 1077 C 101.421 2.2452 -0.680282 0
M  V30 1078 C 102.437 1.71348 0.302604 0
M  V30 1079 O 103.613 2.00822 0.152513 0
M  V30 1080 C 100.678 3.46629 -0.0700315 0
M  V30 1081 C 99.7388 4.14849 -1.10448 0
M  V30 1082 C 98.9718 5.31129 -0.523256 0
M  V30 1083 O 99.1948 5.66514 0.664709 0
M  V30 1084 O 98.1288 5.88526 -1.26179 0
M  V30 1085 H 101.955 2.59355 -1.58015 0
M  V30 1086 H 99.5398 1.24043 -0.832694 0
M  V30 1087 H 101.422 4.20543 0.268667 0
M  V30 1088 H 100.097 3.13573 0.803353 0
M  V30 1089 H 99.0038 3.42916 -1.49532 0
M  V30 1090 H 100.337 4.51954 -1.94931 0
M  V30 1091 N 101.989 0.842826 1.3317 0
M  V30 1092 C 103.405 0.531128 1.50503 0
M  V30 1093 C 103.605 -0.940734 1.78192 0
M  V30 1094 O 102.661 -1.72436 1.84451 0
M  V30 1095 C 103.974 1.40789 2.65705 0
M  V30 1096 C 105.522 1.40708 2.79589 0
M  V30 1097 C 105.997 2.26878 3.97857 0
M  V30 1098 N 107.488 2.24609 4.05099 0
M  V30 1099 C 108.223 2.88019 4.95815 0
M  V30 1100 N 107.719 3.60496 5.9162 0
M  V30 1101 N 109.512 2.77469 4.88843 0
M  V30 1102 H 101.663 1.79557 1.1346 0
M  V30 1103 H 103.926 0.766267 0.558156 0
M  V30 1104 H 103.632 2.454 2.51936 0
M  V30 1105 H 103.506 1.08677 3.61205 0
M  V30 1106 H 105.893 0.368668 2.92788 0
M  V30 1107 H 105.974 1.76829 1.84838 0
M  V30 1108 H 105.618 3.3078 3.85418 0
M  V30 1109 H 105.548 1.88096 4.91861 0
M  V30 1110 H 108.039 1.71906 3.36536 0
M  V30 1111 H 108.352 4.06076 6.57512 0
M  V30 1112 H 106.697 3.64604 5.91683 0
M  V30 1113 H 109.888 2.20406 4.12963 0
M  V30 1114 H 110.061 3.2717 5.59342 0
M  V30 1115 N 103.467 -1.45747 0.599634 0
M  V30 1116 C 104.714 -2.02292 0.0917284 0
M  V30 1117 C 105.042 -1.46906 -1.27472 0
M  V30 1118 O 104.297 -0.630652 -1.8526 0
M  V30 1119 C 104.596 -3.57399 -0.00602758 0
M  V30 1120 C 104.262 -4.31902 1.29503 0
M  V30 1121 C 102.924 -4.51974 1.65144 0
M  V30 1122 C 105.276 -4.74551 2.15525 0
M  V30 1123 C 102.604 -5.11949 2.86574 0
M  V30 1124 C 104.956 -5.35868 3.36196 0
M  V30 1125 C 103.62 -5.54165 3.72099 0
M  V30 1126 H 102.89 -0.740239 0.0335658 0
M  V30 1127 H 105.537 -1.7491 0.779661 0
M  V30 1128 H 103.842 -3.84014 -0.777183 0
M  V30 1129 H 105.539 -3.98846 -0.415038 0
M  V30 1130 H 102.129 -4.16588 1.00761 0
M  V30 1131 H 106.313 -4.58784 1.8929 0
M  V30 1132 H 101.569 -5.24305 3.14507 0
M  V30 1133 H 105.743 -5.6787 4.03109 0
M  V30 1134 H 103.37 -6.00406 4.6628 0
M  V30 1135 N 104.945 -0.338344 -1.53925 0
M  V30 1136 C 105.908 0.508299 -2.23493 0
M  V30 1137 C 106.908 1.03175 -1.23335 0
M  V30 1138 O 108.098 0.921826 -1.47811 0
M  V30 1139 C 105.23 1.70754 -2.95052 0
M  V30 1140 H 106.423 -0.100058 -2.99733 0
M  V30 1141 H 103.976 -0.0896198 -1.56043 0
M  V30 1142 H 104.711 2.35474 -2.22986 0
M  V30 1143 H 104.496 1.33946 -3.68512 0
M  V30 1144 H 105.986 2.30818 -3.48013 0
M  V30 1145 N 106.423 1.57458 -0.0668435 0
M  V30 1146 C 107.356 2.08033 0.93795 0
M  V30 1147 C 108.334 0.984321 1.29421 0
M  V30 1148 O 109.518 1.25736 1.40437 0
M  V30 1149 C 106.645 2.53388 2.24749 0
M  V30 1150 C 105.691 3.74376 2.04315 0
M  V30 1151 S 106.524 5.19303 1.30706 0
M  V30 1152 C 107.68 5.67986 2.62951 0
M  V30 1153 H 107.913 2.92935 0.50759 0
M  V30 1154 H 105.446 1.5371 0.145804 0
M  V30 1155 H 107.404 2.8018 3.00016 0
M  V30 1156 H 106.065 1.68763 2.64911 0
M  V30 1157 H 105.258 4.04083 3.01218 0
M  V30 1158 H 104.86 3.47931 1.37186 0
M  V30 1159 H 107.152 5.74528 3.5906 0
M  V30 1160 H 108.095 6.66955 2.3786 0
M  V30 1161 H 108.503 4.95781 2.69929 0
M  V30 1162 N 107.901 -0.206675 1.56239 0
M  V30 1163 C 108.864 -1.23976 1.92776 0
M  V30 1164 C 109.864 -1.39041 0.807729 0
M  V30 1165 O 111.054 -1.37051 1.0753 0
M  V30 1166 C 108.186 -2.61112 2.19165 0
M  V30 1167 H 109.379 -0.927764 2.85189 0
M  V30 1168 H 106.932 -0.447718 1.4975 0
M  V30 1169 H 107.667 -2.97386 1.29352 0
M  V30 1170 H 107.452 -2.51552 3.00772 0
M  V30 1171 H 108.942 -3.35633 2.48476 0
M  V30 1172 N 109.379 -1.50304 -0.473955 0
M  V30 1173 C 110.604 -1.65175 -1.25427 0
M  V30 1174 C 111.029 -0.333673 -1.85117 0
M  V30 1175 O 110.387 0.702114 -1.67153 0
M  V30 1176 C 110.435 -2.74295 -2.34082 0
M  V30 1177 O 109.539 -2.35349 -3.38651 0
M  V30 1178 H 108.88 -0.551944 -0.369126 0
M  V30 1179 H 111.41 -1.96662 -0.564364 0
M  V30 1180 H 111.42 -2.97285 -2.79438 0
M  V30 1181 H 110.095 -3.69959 -1.90008 0
M  V30 1182 H 108.672 -2.22794 -2.99027 0
M  V30 1183 N 110.857 0.726932 -1.39834 0
M  V30 1184 C 112.085 1.51613 -1.40787 0
M  V30 1185 C 112.5 1.88799 -0.00451505 0
M  V30 1186 O 111.857 1.54662 0.968809 0
M  V30 1187 C 111.908 2.79863 -2.28821 0
M  V30 1188 O 111.629 2.44253 -3.63692 0
M  V30 1189 C 113.13 3.73837 -2.38245 0
M  V30 1190 H 110.35 0.468264 -0.480593 0
M  V30 1191 H 112.894 0.897607 -1.83748 0
M  V30 1192 H 111.049 3.38027 -1.89252 0
M  V30 1193 H 111.463 3.26695 -4.1033 0
M  V30 1194 H 112.937 4.60699 -3.04073 0
M  V30 1195 H 113.414 4.16153 -1.40403 0
M  V30 1196 H 114.02 3.21589 -2.78317 0
M  V30 1197 N 112.336 1.25143 0.95797 0
M  V30 1198 C 113.561 1.12521 1.74223 0
M  V30 1199 C 113.986 -0.317402 1.85403 0
M  V30 1200 O 113.344 -1.2299 1.33204 0
M  V30 1201 C 113.392 1.78062 3.1357 0
M  V30 1202 O 112.496 1.058 3.98598 0
M  V30 1203 H 111.837 0.39304 0.535178 0
M  V30 1204 H 114.367 1.65641 1.201 0
M  V30 1205 H 114.377 1.84213 3.64046 0
M  V30 1206 H 113.052 2.83021 3.04749 0
M  V30 1207 H 111.629 1.07506 3.57067 0
M  V30 1208 N 113.814 -1.1601 1.06675 0
M  V30 1209 C 114.761 -2.20525 0.680967 0
M  V30 1210 C 115.731 -1.62904 -0.324283 0
M  V30 1211 O 116.916 -1.89615 -0.212294 0
M  V30 1212 C 114.056 -3.45013 0.0776551 0
M  V30 1213 C 113.169 -4.16863 1.13355 0
M  V30 1214 C 112.304 -5.2888 0.49597 0
M  V30 1215 C 111.343 -5.92537 1.53513 0
M  V30 1216 N 110.48 -6.96038 0.920631 0
M  V30 1217 H 115.32 -2.52876 1.57663 0
M  V30 1218 H 112.857 -1.24199 0.788223 0
M  V30 1219 H 114.815 -4.16193 -0.289704 0
M  V30 1220 H 113.445 -3.132 -0.781393 0
M  V30 1221 H 112.497 -3.44248 1.61857 0
M  V30 1222 H 113.809 -4.60294 1.92174 0
M  V30 1223 H 112.963 -6.06653 0.0758604 0
M  V30 1224 H 111.702 -4.86622 -0.324062 0
M  V30 1225 H 110.707 -5.13482 1.9651 0
M  V30 1226 H 111.932 -6.36873 2.35733 0
M  V30 1227 H 109.878 -6.55888 0.12138 0
M  V30 1228 H 109.795 -7.3786 1.64616 0
M  V30 1229 H 111.063 -7.77725 0.525795 0
M  V30 1230 N 115.292 -0.849877 -1.32721 0
M  V30 1231 C 116.538 -0.451591 -1.97708 0
M  V30 1232 C 116.871 0.989175 -1.6712 0
M  V30 1233 O 116.146 1.69334 -0.956891 0
M  V30 1234 C 116.429 -0.685598 -3.53513 0
M  V30 1235 C 116.282 -2.17444 -3.93749 0
M  V30 1236 C 117.601 -0.138874 -4.39881 0
M  V30 1237 H 114.72 -0.16555 -0.718166 0
M  V30 1238 H 117.362 -1.06742 -1.57182 0
M  V30 1239 H 115.512 -0.161416 -3.88165 0
M  V30 1240 H 117.184 -2.76433 -3.693 0
M  V30 1241 H 115.427 -2.65476 -3.43081 0
M  V30 1242 H 116.098 -2.28888 -5.02309 0
M  V30 1243 H 118.574 -0.587068 -4.11938 0
M  V30 1244 H 117.45 -0.332213 -5.47894 0
M  V30 1245 H 117.711 0.95806 -4.31594 0
M  V30 1246 N 116.77 1.45427 -0.607355 0
M  V30 1247 C 117.703 2.27635 0.160482 0
M  V30 1248 C 118.681 1.37122 0.873857 0
M  V30 1249 O 119.865 1.66551 0.882775 0
M  V30 1250 C 116.992 3.15486 1.23231 0
M  V30 1251 C 116.038 4.21939 0.622097 0
M  V30 1252 S 116.871 5.32459 -0.569852 0
M  V30 1253 C 118.027 6.23879 0.502577 0
M  V30 1254 H 118.26 2.9241 -0.536983 0
M  V30 1255 H 115.793 1.49265 -0.394868 0
M  V30 1256 H 117.751 3.66659 1.84585 0
M  V30 1257 H 116.412 2.49977 1.90185 0
M  V30 1258 H 115.605 4.8333 1.42856 0
M  V30 1259 H 115.207 3.73906 0.0837063 0
M  V30 1260 H 117.499 6.63261 1.38171 0
M  V30 1261 H 118.442 7.0806 -0.0751759 0
M  V30 1262 H 118.85 5.58545 0.8178 0
M  V30 1263 N 118.248 0.346503 1.53744 0
M  V30 1264 C 119.211 -0.496439 2.23759 0
M  V30 1265 C 120.211 -1.0252 1.2388 0
M  V30 1266 O 121.401 -0.913974 1.48297 0
M  V30 1267 C 118.533 -1.69187 2.95954 0
M  V30 1268 H 119.726 0.115952 2.99676 0
M  V30 1269 H 117.279 0.0978939 1.55993 0
M  V30 1270 H 118.014 -2.34288 2.24231 0
M  V30 1271 H 117.799 -1.31989 3.69217 0
M  V30 1272 H 119.289 -2.28969 3.49232 0
M  V30 1273 N 119.726 -1.57421 0.075193 0
M  V30 1274 C 120.972 -1.93905 -0.594025 0
M  V30 1275 C 121.305 -0.955701 -1.69056 0
M  V30 1276 O 120.58 0.0145373 -1.94495 0
M  V30 1277 C 120.863 -3.40638 -1.1678 0
M  V30 1278 C 120.716 -4.49733 -0.0776792 0
M  V30 1279 C 122.035 -3.88259 -2.07228 0
M  V30 1280 H 119.154 -0.705105 -0.214466 0
M  V30 1281 H 121.796 -1.8947 0.141854 0
M  V30 1282 H 119.946 -3.44549 -1.79494 0
M  V30 1283 H 121.618 -4.57942 0.555573 0
M  V30 1284 H 119.861 -4.29751 0.591286 0
M  V30 1285 H 120.532 -5.49549 -0.519603 0
M  V30 1286 H 123.008 -3.86376 -1.54445 0
M  V30 1287 H 121.884 -4.91533 -2.44308 0
M  V30 1288 H 122.145 -3.26396 -2.98191 0
M  V30 1289 N 121.204 0.198386 -1.56346 0
M  V30 1290 C 122.167 1.22952 -1.93431 0
M  V30 1291 C 123.167 1.38611 -0.815092 0
M  V30 1292 O 124.357 1.36479 -1.08255 0
M  V30 1293 C 121.489 2.59946 -2.20546 0
M  V30 1294 H 122.682 0.912626 -2.85677 0
M  V30 1295 H 120.235 0.43977 -1.49986 0
M  V30 1296 H 120.97 2.96696 -1.30927 0
M  V30 1297 H 120.755 2.49953 -3.02102 0
M  V30 1298 H 122.245 3.3431 -2.50253 0
M  V30 1299 N 122.682 1.50554 0.465978 0
M  V30 1300 C 123.645 1.69233 1.54574 0
M  V30 1301 C 124.645 0.562901 1.50626 0
M  V30 1302 O 125.835 0.830016 1.53155 0
M  V30 1303 C 122.967 1.7223 2.94193 0
M  V30 1304 H 124.16 2.65571 1.39327 0
M  V30 1305 H 121.713 1.40111 0.692711 0
M  V30 1306 H 122.448 0.77603 3.14878 0
M  V30 1307 H 122.233 2.54285 2.98466 0
M  V30 1308 H 123.723 1.88618 3.72576 0
M  V30 1309 N 124.16 -0.719506 1.40217 0
M  V30 1310 C 125.406 -1.48152 1.38488 0
M  V30 1311 C 125.739 -1.94195 -0.0141867 0
M  V30 1312 O 125.014 -1.67884 -0.982096 0
M  V30 1313 C 125.297 -2.71035 2.37091 0
M  V30 1314 C 125.15 -2.30912 3.86005 0
M  V30 1315 C 126.469 -3.73182 2.33288 0
M  V30 1316 H 123.588 -0.537395 0.504357 0
M  V30 1317 H 126.23 -0.821472 1.71324 0
M  V30 1318 H 124.38 -3.27352 2.0922 0
M  V30 1319 H 126.052 -1.80107 4.24687 0
M  V30 1320 H 124.295 -1.62958 4.02029 0
M  V30 1321 H 124.966 -3.18978 4.50508 0
M  V30 1322 H 127.442 -3.26485 2.57966 0
M  V30 1323 H 126.318 -4.56806 3.04334 0
M  V30 1324 H 126.579 -4.21202 1.34317 0
M  V30 1325 N 125.638 -1.25649 -0.95132 0
M  V30 1326 C 126.568 -1.08808 -2.06599 0
M  V30 1327 C 127.549 0.00382547 -1.701 0
M  V30 1328 O 128.734 -0.166325 -1.93486 0
M  V30 1329 C 125.864 -0.709542 -3.39975 0
M  V30 1330 C 124.818 -1.75206 -3.90496 0
M  V30 1331 C 124.144 -1.22811 -5.20405 0
M  V30 1332 C 125.444 -3.15153 -4.16504 0
M  V30 1333 H 127.138 -2.02048 -2.20946 0
M  V30 1334 H 124.684 -0.972835 -1.06169 0
M  V30 1335 H 126.637 -0.578649 -4.17408 0
M  V30 1336 H 125.361 0.258556 -3.25575 0
M  V30 1337 H 124.02 -1.87145 -3.15234 0
M  V30 1338 H 123.668 -0.250145 -5.02378 0
M  V30 1339 H 123.368 -1.92492 -5.55176 0
M  V30 1340 H 124.892 -1.10968 -6.00432 0
M  V30 1341 H 126.306 -3.06349 -4.84586 0
M  V30 1342 H 124.703 -3.82333 -4.62538 0
M  V30 1343 H 125.773 -3.61966 -3.22658 0
M  V30 1344 N 127.117 1.15442 -1.07289 0
M  V30 1345 C 128.064 2.20161 -0.692653 0
M  V30 1346 C 129.034 1.63073 0.31564 0
M  V30 1347 O 130.219 1.89725 0.202235 0
M  V30 1348 C 127.359 3.44967 -0.0959509 0
M  V30 1349 C 126.472 4.16256 -1.15564 0
M  V30 1350 C 125.607 5.28609 -0.524011 0
M  V30 1351 C 124.646 5.91715 -1.56653 0
M  V30 1352 N 123.783 6.9554 -0.957531 0
M  V30 1353 H 128.623 2.52037 -1.59002 0
M  V30 1354 H 126.16 1.2378 -0.794798 0
M  V30 1355 H 128.118 4.16341 0.267628 0
M  V30 1356 H 126.748 3.1361 0.764772 0
M  V30 1357 H 125.8 3.43385 -1.6368 0
M  V30 1358 H 127.112 4.59268 -1.94613 0
M  V30 1359 H 126.266 6.06604 -0.108032 0
M  V30 1360 H 125.005 4.86787 0.29825 0
M  V30 1361 H 124.01 5.12433 -1.9923 0
M  V30 1362 H 125.235 6.35614 -2.39107 0
M  V30 1363 H 123.181 6.55814 -0.156162 0
M  V30 1364 H 123.098 7.36977 -1.68526 0
M  V30 1365 H 124.366 7.77435 -0.567032 0
M  V30 1366 N 128.595 0.856903 1.32268 0
M  V30 1367 C 129.505 0.306131 2.32594 0
M  V30 1368 C 130.521 -0.577209 1.64147 0
M  V30 1369 O 131.697 -0.477043 1.95669 0
M  V30 1370 C 128.762 -0.494561 3.43154 0
M  V30 1371 C 127.823 0.415186 4.27288 0
M  V30 1372 C 127.056 -0.347387 5.32568 0
M  V30 1373 O 127.279 -1.57708 5.48165 0
M  V30 1374 O 126.213 0.287982 6.01211 0
M  V30 1375 H 130.039 1.13737 2.81598 0
M  V30 1376 H 127.624 0.619902 1.35932 0
M  V30 1377 H 129.506 -0.948944 4.10576 0
M  V30 1378 H 128.181 -1.30257 2.96336 0
M  V30 1379 H 127.088 0.917793 3.62667 0
M  V30 1380 H 128.421 1.18844 4.77637 0
M  V30 1381 N 130.073 -1.45103 0.615059 0
M  V30 1382 C 131.298 -2.07064 0.117988 0
M  V30 1383 C 131.723 -1.4554 -1.19163 0
M  V30 1384 O 131.081 -0.550855 -1.72729 0
M  V30 1385 C 131.129 -3.606 -0.000288387 0
M  V30 1386 O 130.233 -3.98847 -1.04856 0
M  V30 1387 H 129.574 -0.659467 0.0774581 0
M  V30 1388 H 132.104 -1.86236 0.847186 0
M  V30 1389 H 132.114 -4.07529 -0.196091 0
M  V30 1390 H 130.789 -4.04765 0.955932 0
M  V30 1391 H 129.366 -3.63577 -0.828619 0
M  V30 1392 N 131.551 -0.354651 -1.53558 0
M  V30 1393 C 132.461 0.50515 -2.29097 0
M  V30 1394 C 133.477 1.10223 -1.34636 0
M  V30 1395 O 134.653 1.11553 -1.67684 0
M  V30 1396 C 131.718 1.63479 -3.05738 0
M  V30 1397 C 130.779 1.06636 -4.15845 0
M  V30 1398 C 130.012 2.14217 -4.88822 0
M  V30 1399 O 130.235 3.35137 -4.61562 0
M  V30 1400 O 129.169 1.77887 -5.75013 0
M  V30 1401 H 132.995 -0.109237 -3.03503 0
M  V30 1402 H 130.58 -0.119357 -1.48922 0
M  V30 1403 H 132.462 2.2918 -3.5363 0
M  V30 1404 H 131.137 2.23478 -2.34178 0
M  V30 1405 H 130.044 0.373565 -3.7223 0
M  V30 1406 H 131.377 0.511081 -4.89539 0
M  V30 1407 N 133.029 1.57378 -0.0835403 0
M  V30 1408 C 133.976 2.13384 0.879539 0
M  V30 1409 C 134.946 1.04936 1.28754 0
M  V30 1410 O 136.131 1.32662 1.37133 0
M  V30 1411 C 133.271 2.70932 2.13752 0
M  V30 1412 C 132.384 3.93575 1.7811 0
M  V30 1413 C 131.519 4.39326 2.98607 0
M  V30 1414 C 130.558 5.54587 2.59037 0
M  V30 1415 N 129.695 5.95243 3.72331 0
M  V30 1416 H 134.535 2.9537 0.395076 0
M  V30 1417 H 132.072 1.45953 0.183349 0
M  V30 1418 H 134.03 3.02411 2.87408 0
M  V30 1419 H 132.66 1.91693 2.59718 0
M  V30 1420 H 131.712 3.68483 0.94469 0
M  V30 1421 H 133.024 4.77258 1.45005 0
M  V30 1422 H 132.178 4.72528 3.80529 0
M  V30 1423 H 130.917 3.5452 3.34913 0
M  V30 1424 H 129.922 5.21024 1.75539 0
M  V30 1425 H 131.147 6.41133 2.23887 0
M  V30 1426 H 129.093 5.13385 4.08378 0
M  V30 1427 H 129.01 6.73694 3.43034 0
M  V30 1428 H 130.278 6.33072 4.54797 0
M  V30 1429 N 134.507 -0.190092 1.56449 0
M  V30 1430 C 135.439 -1.25973 1.91477 0
M  V30 1431 C 136.452 -1.41452 0.805931 0
M  V30 1432 O 137.641 -1.41789 1.08435 0
M  V30 1433 C 134.741 -2.63117 2.13594 0
M  V30 1434 C 133.914 -2.69182 3.4476 0
M  V30 1435 C 132.973 -3.87557 3.5593 0
M  V30 1436 O 131.999 -3.74427 4.28711 0
M  V30 1437 N 133.201 -5.03224 2.89388 0
M  V30 1438 H 135.966 -0.962394 2.83828 0
M  V30 1439 H 133.527 -0.379981 1.57378 0
M  V30 1440 H 135.519 -3.40742 2.1835 0
M  V30 1441 H 134.089 -2.85319 1.27719 0
M  V30 1442 H 133.309 -1.77793 3.51828 0
M  V30 1443 H 134.597 -2.70229 4.31107 0
M  V30 1444 H 133.995 -5.16791 2.30094 0
M  V30 1445 H 132.552 -5.78778 2.99764 0
M  V30 1446 N 135.985 -1.50799 -0.457987 0
M  V30 1447 C 136.948 -1.7005 -1.53674 0
M  V30 1448 C 137.948 -0.570881 -1.50325 0
M  V30 1449 O 139.138 -0.838126 -1.52712 0
M  V30 1450 C 136.27 -1.73788 -2.93276 0
M  V30 1451 H 137.463 -2.66306 -1.37917 0
M  V30 1452 H 135.016 -1.40477 -0.685271 0
M  V30 1453 H 135.751 -0.792717 -3.14462 0
M  V30 1454 H 135.536 -2.55864 -2.97113 0
M  V30 1455 H 137.026 -1.90591 -3.71571 0
M  V30 1456 N 137.463 0.71206 -1.40597 0
M  V30 1457 C 138.711 1.46907 -1.38791 0
M  V30 1458 C 139.032 1.94998 0.00780391 0
M  V30 1459 O 138.302 1.70587 0.963174 0
M  V30 1460 H 136.882 0.545043 -0.51082 0
M  V30 1461 H 139.544 0.843882 -1.75683 0
M  V30 1462 H 138.64 2.34021 -2.06496 0
M  V30 1463 N 138.941 1.26152 0.944643 0
M  V30 1464 C 139.871 1.09902 2.06019 0
M  V30 1465 C 140.852 0.00519538 1.70099 0
M  V30 1466 O 142.037 0.176583 1.93396 0
M  V30 1467 C 139.167 0.727562 3.39594 0
M  V30 1468 C 138.121 1.77274 3.89561 0
M  V30 1469 C 137.447 1.25569 5.19747 0
M  V30 1470 C 138.747 3.17357 4.14827 0
M  V30 1471 H 140.441 2.03217 2.19871 0
M  V30 1472 H 137.987 0.978452 1.05652 0
M  V30 1473 H 139.94 0.600777 4.17095 0
M  V30 1474 H 138.664 -0.241287 3.25707 0
M  V30 1475 H 137.323 1.88814 3.14237 0
M  V30 1476 H 136.971 0.276783 5.02238 0
M  V30 1477 H 136.671 1.95433 5.54148 0
M  V30 1478 H 138.195 1.1415 5.99835 0
M  V30 1479 H 139.609 3.08914 4.82954 0
M  V30 1480 H 138.006 3.84781 4.60504 0
M  V30 1481 H 139.076 3.63673 3.20734 0
M  V30 1482 N 140.419 -1.14872 1.07899 0
M  V30 1483 C 141.349 -2.2193 0.725887 0
M  V30 1484 C 142.33 -1.67622 -0.28927 0
M  V30 1485 O 143.515 -1.93533 -0.160787 0
M  V30 1486 C 140.645 -3.47061 0.128856 0
M  V30 1487 C 139.599 -4.14363 1.07178 0
M  V30 1488 C 138.925 -5.33636 0.337229 0
M  V30 1489 C 140.225 -4.63492 2.40775 0
M  V30 1490 H 141.919 -2.51724 1.62097 0
M  V30 1491 H 139.465 -1.20991 0.780838 0
M  V30 1492 H 141.418 -4.21199 -0.130147 0
M  V30 1493 H 140.142 -3.16617 -0.80134 0
M  V30 1494 H 138.801 -3.42173 1.3158 0
M  V30 1495 H 138.449 -4.99449 -0.596606 0
M  V30 1496 H 138.149 -5.79609 0.965788 0
M  V30 1497 H 139.673 -6.10539 0.0861567 0
M  V30 1498 H 141.087 -5.2913 2.20669 0
M  V30 1499 H 139.484 -5.20148 2.99276 0
M  V30 1500 H 140.554 -3.78834 3.02676 0
M  V30 1501 N 141.898 -0.863906 -1.31812 0
M  V30 1502 C 143.175 -0.39275 -1.91616 0
M  V30 1503 C 143.555 1.12461 -1.7865 0
M  V30 1504 O 142.903 1.95045 -1.19037 0
M  V30 1505 C 143.113 -0.867385 -3.38049 0
M  V30 1506 C 144.461 -0.889966 -4.15168 0
M  V30 1507 O 145.485 -0.812635 -3.46806 0
M  V30 1508 O 144.344 -1.00079 -5.37258 0
M  V30 1509 H 141.438 -0.116358 -0.818773 0
M  V30 1510 H 143.984 -0.951418 -1.40521 0
M  V30 1511 H 142.756 -1.91081 -3.41473 0
M  V30 1512 H 142.379 -0.286687 -3.96565 0
M  V30 1513 N 143.376 1.44774 -0.622745 0
M  V30 1514 C 144.323 2.30635 0.0871679 0
M  V30 1515 C 145.293 1.42994 0.845097 0
M  V30 1516 O 146.478 1.71907 0.827812 0
M  V30 1517 C 143.618 3.28144 1.06844 0
M  V30 1518 C 142.731 4.30888 0.309809 0
M  V30 1519 C 141.866 5.15494 1.28215 0
M  V30 1520 C 140.905 6.09953 0.512198 0
M  V30 1521 N 140.042 6.87287 1.43458 0
M  V30 1522 H 144.882 2.90803 -0.650974 0
M  V30 1523 H 142.419 1.43286 -0.33281 0
M  V30 1524 H 144.377 3.83157 1.65066 0
M  V30 1525 H 143.007 2.69695 1.77382 0
M  V30 1526 H 142.059 3.78414 -0.388181 0
M  V30 1527 H 143.371 4.97955 -0.290254 0
M  V30 1528 H 142.525 5.74983 1.93596 0
M  V30 1529 H 141.264 4.48481 1.91614 0
M  V30 1530 H 140.269 5.49581 -0.155151 0
M  V30 1531 H 141.494 6.78999 -0.116958 0
M  V30 1532 H 139.44 6.2295 2.05594 0
M  V30 1533 H 139.357 7.50763 0.888335 0
M  V30 1534 H 140.625 7.51306 2.07749 0
M  V30 1535 N 144.854 0.36279 1.53368 0
M  V30 1536 C 145.802 -0.500155 2.27159 0
M  V30 1537 C 146.796 -1.08575 1.3003 0
M  V30 1538 O 148.002 -1.02927 1.47668 0
M  V30 1539 H 144.377 -0.180009 0.730138 0
M  V30 1540 H 146.348 0.14401 2.98052 0
M  V30 1541 C 145.097 -1.62937 3.07159 0
M  V30 1542 H 144.42 -1.18806 3.8174 0
M  V30 1543 H 145.86 -2.20795 3.61975 0
M  V30 1544 C 144.319 -2.57007 2.17829 0
M  V30 1545 O 144.849 -3.59752 1.78721 0
M  V30 1546 N 143.055 -2.26131 1.82518 0
M  V30 1547 H 142.602 -1.42616 2.14519 0
M  V30 1548 H 142.56 -2.89327 1.23034 0
M  V30 1549 N 146.332 -1.57332 0.0918853 0
M  V30 1550 C 147.581 -1.93412 -0.572249 0
M  V30 1551 C 147.894 -0.975515 -1.69538 0
M  V30 1552 O 149.1 -1.22991 -2.42045 0
M  V30 1553 C 147.556 -3.43648 -1.0693 0
M  V30 1554 C 147.164 -4.47994 0.0239049 0
M  V30 1555 C 148.908 -3.88695 -1.70635 0
M  V30 1556 C 146.815 -5.89381 -0.488319 0
M  V30 1557 H 145.745 -0.721939 -0.217532 0
M  V30 1558 H 148.396 -1.82735 0.167369 0
M  V30 1559 H 146.778 -3.49466 -1.8625 0
M  V30 1560 H 147.952 -4.53815 0.799277 0
M  V30 1561 H 146.267 -4.12536 0.565946 0
M  V30 1562 H 148.864 -4.91725 -2.10025 0
M  V30 1563 H 149.207 -3.27166 -2.57426 0
M  V30 1564 H 149.74 -3.85564 -0.979023 0
M  V30 1565 H 146.479 -6.54602 0.342906 0
M  V30 1566 H 145.999 -5.87037 -1.23077 0
M  V30 1567 H 147.678 -6.39863 -0.958317 0
M  V30 1568 N 147.81 0.181792 -1.56548 0
M  V30 1569 C 149.038 0.915947 -1.85521 0
M  V30 1570 C 149.453 1.76282 -0.676016 0
M  V30 1571 O 148.81 1.79012 0.355077 0
M  V30 1572 C 148.861 1.80126 -3.13427 0
M  V30 1573 O 148.582 0.988562 -4.26801 0
M  V30 1574 C 150.083 2.64597 -3.55673 0
M  V30 1575 H 147.303 0.26661 -0.61576 0
M  V30 1576 H 149.847 0.185039 -2.03661 0
M  V30 1577 H 148.002 2.48563 -2.97145 0
M  V30 1578 H 148.416 1.59308 -4.99721 0
M  V30 1579 H 149.89 3.2235 -4.48101 0
M  V30 1580 H 150.367 3.38958 -2.79292 0
M  V30 1581 H 150.973 2.0151 -3.74532 0
M  V30 1582 N 149.288 1.51039 0.449983 0
M  V30 1583 C 150.537 1.62317 1.19733 0
M  V30 1584 C 150.85 0.339101 1.92638 0
M  V30 1585 O 152.056 0.331069 2.69474 0
M  V30 1586 C 150.512 2.86608 2.17678 0
M  V30 1587 C 150.12 4.21972 1.50479 0
M  V30 1588 C 151.864 3.07239 2.92924 0
M  V30 1589 C 149.771 5.37426 2.46834 0
M  V30 1590 H 148.701 0.604532 0.450619 0
M  V30 1591 H 151.352 1.77494 0.465625 0
M  V30 1592 H 149.734 2.65037 2.94231 0
M  V30 1593 H 150.908 4.53878 0.795716 0
M  V30 1594 H 149.223 4.07117 0.874344 0
M  V30 1595 H 151.82 3.90668 3.65079 0
M  V30 1596 H 152.163 2.19807 3.5354 0
M  V30 1597 H 152.696 3.29091 2.23481 0
M  V30 1598 H 149.435 6.27079 1.90926 0
M  V30 1599 H 148.955 5.09912 3.15832 0
M  V30 1600 H 150.634 5.68862 3.08228 0
M  V30 1601 N 150.766 -0.704594 1.40972 0
M  V30 1602 C 151.713 -1.81862 1.42109 0
M  V30 1603 C 152.683 -1.63781 0.276593 0
M  V30 1604 O 153.868 -1.84759 0.4763 0
M  V30 1605 C 151.008 -3.19669 1.30022 0
M  V30 1606 C 150.121 -3.49246 2.54267 0
M  V30 1607 C 149.256 -4.76618 2.3454 0
M  V30 1608 C 148.295 -4.99133 3.54306 0
M  V30 1609 N 147.432 -6.17726 3.33706 0
M  V30 1610 H 152.272 -1.80226 2.37324 0
M  V30 1611 H 149.809 -0.880238 1.17857 0
M  V30 1612 H 151.767 -3.99263 1.21018 0
M  V30 1613 H 150.397 -3.20506 0.384192 0
M  V30 1614 H 149.449 -2.64125 2.73756 0
M  V30 1615 H 150.761 -3.61788 3.43381 0
M  V30 1616 H 149.915 -5.64249 2.22952 0
M  V30 1617 H 148.654 -4.66305 1.42867 0
M  V30 1618 H 147.659 -4.09953 3.66359 0
M  V30 1619 H 148.884 -5.11311 4.4692 0
M  V30 1620 H 146.83 -6.08642 2.44725 0
M  V30 1621 H 146.747 -6.30995 4.16391 0
M  V30 1622 H 148.015 -7.08115 3.25873 0
M  V30 1623 N 152.244 -1.26651 -0.937939 0
M  V30 1624 C 153.191 -1.0849 -2.03712 0
M  V30 1625 C 154.161 0.011033 -1.66096 0
M  V30 1626 O 155.346 -0.149353 -1.90215 0
M  V30 1627 C 152.486 -0.72735 -3.37348 0
M  V30 1628 C 151.599 -1.89986 -3.87981 0
M  V30 1629 C 150.734 -1.48513 -5.10017 0
M  V30 1630 C 149.773 -2.62575 -5.5292 0
M  V30 1631 N 148.91 -2.21762 -6.66158 0
M  V30 1632 H 153.75 -2.02551 -2.18579 0
M  V30 1633 H 151.287 -1.00844 -1.07093 0
M  V30 1634 H 153.245 -0.50092 -4.14182 0
M  V30 1635 H 151.875 0.176298 -3.22318 0
M  V30 1636 H 150.927 -2.23913 -3.07518 0
M  V30 1637 H 152.239 -2.75586 -4.15757 0
M  V30 1638 H 151.393 -1.21934 -5.94321 0
M  V30 1639 H 150.132 -0.60009 -4.83994 0
M  V30 1640 H 149.137 -2.8988 -4.67172 0
M  V30 1641 H 150.362 -3.51685 -5.80943 0
M  V30 1642 H 148.308 -1.35696 -6.41812 0
M  V30 1643 H 148.225 -3.00903 -6.93537 0
M  V30 1644 H 149.493 -1.98403 -7.53828 0
M  V30 1645 N 153.722 1.14298 -1.08507 0
M  V30 1646 C 154.947 1.8976 -0.837001 0
M  V30 1647 C 155.372 1.78097 0.605228 0
M  V30 1648 O 154.73 1.12188 1.4242 0
M  V30 1649 C 154.778 3.37685 -1.26495 0
M  V30 1650 O 153.882 4.10281 -0.417514 0
M  V30 1651 H 153.223 0.590365 -0.303917 0
M  V30 1652 H 155.753 1.44672 -1.44676 0
M  V30 1653 H 155.763 3.88501 -1.24625 0
M  V30 1654 H 154.438 3.45492 -2.31534 0
M  V30 1655 H 153.015 3.69536 -0.499722 0
M  V30 1656 N 155.201 0.870884 1.31352 0
M  V30 1657 C 156.478 0.402907 1.91405 0
M  V30 1658 C 156.858 -1.11512 1.79244 0
M  V30 1659 O 156.206 -1.94411 1.2007 0
M  V30 1660 C 156.416 0.885301 3.37585 0
M  V30 1661 C 157.764 0.911971 4.14691 0
M  V30 1662 O 158.788 0.831016 3.46371 0
M  V30 1663 O 157.647 1.02927 5.3672 0
M  V30 1664 H 154.741 0.120698 0.818145 0
M  V30 1665 H 157.287 0.958857 1.40014 0
M  V30 1666 H 156.059 1.92889 3.40455 0
M  V30 1667 H 155.682 0.307714 3.96407 0
M  V30 1668 N 156.679 -1.44442 0.630414 0
M  V30 1669 C 157.609 -2.33418 -0.0618083 0
M  V30 1670 C 158.59 -1.48165 -0.835541 0
M  V30 1671 O 159.775 -1.76886 -0.801564 0
M  V30 1672 C 156.905 -3.31222 -1.04449 0
M  V30 1673 C 155.859 -4.26288 -0.382436 0
M  V30 1674 C 155.185 -5.13954 -1.47497 0
M  V30 1675 C 156.485 -5.1744 0.710865 0
M  V30 1676 H 158.179 -2.91548 0.681184 0
M  V30 1677 H 155.725 -1.40191 0.329026 0
M  V30 1678 H 157.678 -3.92351 -1.53748 0
M  V30 1679 H 156.402 -2.71299 -1.81836 0
M  V30 1680 H 155.061 -3.6649 0.0899054 0
M  V30 1681 H 154.709 -4.50385 -2.2397 0
M  V30 1682 H 154.409 -5.7837 -1.03737 0
M  V30 1683 H 155.933 -5.77955 -1.96979 0
M  V30 1684 H 157.347 -5.72509 0.300996 0
M  V30 1685 H 155.744 -5.90455 1.07156 0
M  V30 1686 H 156.814 -4.58496 1.57829 0
M  V30 1687 N 158.157 -0.370918 -1.53173 0
M  V30 1688 C 159.403 0.217423 -2.01631 0
M  V30 1689 C 159.736 1.47983 -1.25756 0
M  V30 1690 O 159.011 1.91274 -0.352764 0
M  V30 1691 C 159.294 0.503982 -3.56556 0
M  V30 1692 C 159.147 -0.77243 -4.43118 0
M  V30 1693 C 160.466 1.30234 -4.20389 0
M  V30 1694 H 157.585 0.0775486 -0.732909 0
M  V30 1695 H 160.227 -0.496863 -1.83388 0
M  V30 1696 H 158.377 1.11248 -3.72231 0
M  V30 1697 H 160.049 -1.4098 -4.39229 0
M  V30 1698 H 158.292 -1.39167 -4.10871 0
M  V30 1699 H 158.963 -0.526815 -5.4948 0
M  V30 1700 H 161.439 0.787546 -4.08579 0
M  V30 1701 H 160.315 1.47158 -5.28806 0
M  V30 1702 H 160.576 2.31237 -3.76805 0
M  V30 1703 N 159.635 1.57281 -0.100228 0
M  V30 1704 C 160.598 2.13158 0.842398 0
M  V30 1705 C 161.598 1.06202 1.20738 0
M  V30 1706 O 162.788 1.32066 1.13597 0
M  V30 1707 C 159.92 2.65639 2.13655 0
M  V30 1708 H 161.113 2.97766 0.357114 0
M  V30 1709 H 158.666 1.5559 0.148823 0
M  V30 1710 H 159.401 1.84566 2.66657 0
M  V30 1711 H 159.186 3.43844 1.88451 0
M  V30 1712 H 160.676 3.08846 2.81077 0
M  V30 1713 N 161.113 -0.173488 1.56642 0
M  V30 1714 C 162.343 -0.904781 1.85734 0
M  V30 1715 C 162.751 -1.76431 0.68328 0
M  V30 1716 O 162.094 -1.802 -0.356865 0
M  V30 1717 C 162.156 -1.83382 3.09211 0
M  V30 1718 C 161.82 -1.15411 4.42187 0
M  V30 1719 C 162.817 -0.520609 5.17287 0
M  V30 1720 C 160.502 -1.15151 4.88923 0
M  V30 1721 C 162.496 0.106412 6.37311 0
M  V30 1722 C 160.183 -0.520664 6.08878 0
M  V30 1723 C 161.181 0.107196 6.82916 0
M  V30 1724 O 160.869 0.728102 8.00596 0
M  V30 1725 H 160.601 -0.268408 0.62043 0
M  V30 1726 H 163.155 -0.179096 2.04618 0
M  V30 1727 H 161.385 -2.59976 2.86268 0
M  V30 1728 H 163.074 -2.43476 3.24768 0
M  V30 1729 H 163.84 -0.514606 4.82262 0
M  V30 1730 H 159.719 -1.62961 4.31236 0
M  V30 1731 H 163.263 0.597081 6.9504 0
M  V30 1732 H 159.16 -0.524242 6.43368 0
M  V30 1733 H 159.928 0.627138 8.16094 0
M  V30 1734 N 162.591 -1.51276 -0.441967 0
M  V30 1735 C 163.816 -1.67799 -1.21895 0
M  V30 1736 C 164.241 -0.372864 -1.84367 0
M  V30 1737 O 163.599 0.666501 -1.68604 0
M  V30 1738 C 163.647 -2.79199 -2.28211 0
M  V30 1739 O 162.751 -2.42479 -3.33583 0
M  V30 1740 H 162.092 -0.559649 -0.357336 0
M  V30 1741 H 164.622 -1.97815 -0.522522 0
M  V30 1742 H 164.632 -3.03146 -2.73069 0
M  V30 1743 H 163.307 -3.73906 -1.82118 0
M  V30 1744 H 161.884 -2.29087 -2.94234 0
M  V30 1745 N 164.069 0.697108 -1.41344 0
M  V30 1746 C 165.48 1.27697 -1.36199 0
M  V30 1747 C 165.831 1.9615 -0.0443463 0
M  V30 1748 O 164.956 1.98689 0.857419 0
M  V30 1749 C 165.551 2.32223 -2.46694 0
M  V30 1750 C 164.11 2.8579 -2.44952 0
M  V30 1751 C 163.257 1.59807 -2.26621 0
M  V30 1752 H 166.208 0.491968 -1.50882 0
M  V30 1753 H 166.229 3.1348 -2.15664 0
M  V30 1754 H 165.741 1.82373 -3.42581 0
M  V30 1755 H 163.842 3.3982 -1.52817 0
M  V30 1756 H 163.955 3.36325 -3.41207 0
M  V30 1757 H 162.319 1.8556 -1.7447 0
M  V30 1758 H 163.102 1.11956 -3.24532 0
M  V30 1759 N 165.547 1.27147 0.931209 0
M  V30 1760 C 166.796 1.12664 1.67302 0
M  V30 1761 C 167.109 -0.327718 1.92835 0
M  V30 1762 O 168.315 -0.593392 2.64936 0
M  V30 1763 C 166.771 1.9683 3.01307 0
M  V30 1764 C 166.379 3.46901 2.83485 0
M  V30 1765 C 168.123 1.90985 3.79111 0
M  V30 1766 C 166.03 4.23279 4.13024 0
M  V30 1767 H 164.96 0.41803 0.627509 0
M  V30 1768 H 167.611 1.51539 1.03481 0
M  V30 1769 H 165.993 1.50797 3.66164 0
M  V30 1770 H 167.167 4.00773 2.27415 0
M  V30 1771 H 165.482 3.54088 2.19113 0
M  V30 1772 H 168.079 2.45328 4.75098 0
M  V30 1773 H 168.422 0.882718 4.06834 0
M  V30 1774 H 168.955 2.34895 3.21044 0
M  V30 1775 H 165.694 5.26503 3.90481 0
M  V30 1776 H 165.214 3.74186 4.6877 0
M  V30 1777 H 166.893 4.32265 4.81411 0
M  V30 1778 N 167.025 -1.13721 1.09112 0
M  V30 1779 C 168.253 -1.88773 0.846899 0
M  V30 1780 C 168.668 -1.7896 -0.601572 0
M  V30 1781 O 168.025 -1.15394 -1.41388 0
M  V30 1782 C 168.076 -3.3849 1.26913 0
M  V30 1783 O 167.797 -3.48043 2.66079 0
M  V30 1784 C 169.298 -4.30518 1.05682 0
M  V30 1785 H 166.518 -0.59772 0.304914 0
M  V30 1786 H 169.062 -1.43977 1.45227 0
M  V30 1787 H 167.217 -3.80881 0.707723 0
M  V30 1788 H 167.631 -4.4109 2.83795 0
M  V30 1789 H 169.105 -5.3391 1.40156 0
M  V30 1790 H 169.582 -4.392 -0.00563416 0
M  V30 1791 H 170.188 -3.93893 1.60402 0
M  V30 1792 N 168.503 -0.877838 -1.30888 0
M  V30 1793 C 169.413 -0.343096 -2.32078 0
M  V30 1794 C 170.429 0.551022 -1.65045 0
M  V30 1795 O 171.605 0.445854 -1.96403 0
M  V30 1796 C 168.67 0.439905 -3.43898 0
M  V30 1797 C 167.731 -0.483111 -4.26573 0
M  V30 1798 C 166.964 0.262616 -5.33053 0
M  V30 1799 O 167.187 1.48967 -5.50604 0
M  V30 1800 O 166.121 -0.383593 -6.00676 0
M  V30 1801 H 169.947 -1.18203 -2.79753 0
M  V30 1802 H 167.532 -0.64145 -1.34929 0
M  V30 1803 H 169.414 0.883504 -4.12034 0
M  V30 1804 H 168.089 1.25526 -2.98371 0
M  V30 1805 H 166.996 -0.975374 -3.61161 0
M  V30 1806 H 168.329 -1.26427 -4.75686 0
M  V30 1807 N 169.982 1.44106 -0.638065 0
M  V30 1808 C 170.929 2.30715 0.062701 0
M  V30 1809 C 171.899 1.43882 0.829883 0
M  V30 1810 O 173.084 1.72775 0.809532 0
M  V30 1811 C 170.224 3.29258 1.03358 0
M  V30 1812 C 169.337 4.31192 0.26409 0
M  V30 1813 C 168.472 5.16825 1.22741 0
M  V30 1814 C 167.511 6.10462 0.447475 0
M  V30 1815 N 166.648 6.8877 1.36161 0
M  V30 1816 H 171.488 2.90096 -0.681781 0
M  V30 1817 H 169.025 1.42925 -0.347988 0
M  V30 1818 H 170.983 3.84886 1.60992 0
M  V30 1819 H 169.613 2.71562 1.74511 0
M  V30 1820 H 168.665 3.77981 -0.428295 0
M  V30 1821 H 169.977 4.97619 -0.343052 0
M  V30 1822 H 169.131 5.77004 1.87487 0
M  V30 1823 H 167.87 4.50488 1.86847 0
M  V30 1824 H 166.875 5.49386 -0.213433 0
M  V30 1825 H 168.1 6.78837 -0.188968 0
M  V30 1826 H 166.046 6.25096 1.98975 0
M  V30 1827 H 165.963 7.51663 0.808656 0
M  V30 1828 H 167.231 7.53467 1.99769 0
M  V30 1829 N 171.46 0.379036 1.52974 0
M  V30 1830 C 172.41 -0.477772 2.22938 0
M  V30 1831 C 173.394 -1.03792 1.22948 0
M  V30 1832 O 174.586 -0.965725 1.48333 0
M  V30 1833 C 171.715 -1.60994 3.03209 0
M  V30 1834 C 170.801 -1.06203 4.10587 0
M  V30 1835 N 171.192 -0.238214 5.05239 0
M  V30 1836 C 169.49 -1.33554 4.25534 0
M  V30 1837 C 170.191 0.0633235 5.81666 0
M  V30 1838 N 169.167 -0.537901 5.40932 0
M  V30 1839 H 172.969 0.158295 2.93473 0
M  V30 1840 H 170.483 0.187778 1.61311 0
M  V30 1841 H 172.48 -2.23607 3.5186 0
M  V30 1842 H 171.14 -2.24893 2.34207 0
M  V30 1843 H 172.151 0.123695 5.17752 0
M  V30 1844 H 168.828 -1.97632 3.6776 0
M  V30 1845 H 170.218 0.730161 6.67921 0
M  V30 1846 N 172.938 -1.57226 0.108567 0
M  V30 1847 C 173.868 -2.17778 -0.84232 0
M  V30 1848 C 174.849 -1.11487 -1.2847 0
M  V30 1849 O 176.034 -1.39681 -1.34918 0
M  V30 1850 C 173.164 -2.76888 -2.09644 0
M  V30 1851 C 172.118 -3.88669 -1.79221 0
M  V30 1852 C 171.444 -4.34541 -3.11574 0
M  V30 1853 C 172.744 -5.11251 -1.06864 0
M  V30 1854 H 174.438 -2.97489 -0.337774 0
M  V30 1855 H 171.984 -1.43097 -0.161025 0
M  V30 1856 H 173.937 -3.17904 -2.76614 0
M  V30 1857 H 172.661 -1.94451 -2.62405 0
M  V30 1858 H 171.32 -3.48213 -1.14644 0
M  V30 1859 H 170.968 -3.48977 -3.62249 0
M  V30 1860 H 170.668 -5.09914 -2.91996 0
M  V30 1861 H 172.192 -4.782 -3.7968 0
M  V30 1862 H 173.606 -5.49352 -1.63968 0
M  V30 1863 H 172.003 -5.9214 -0.974178 0
M  V30 1864 H 173.073 -4.8487 -0.0536168 0
M  V30 1865 N 174.416 0.165178 -1.56732 0
M  V30 1866 C 175.662 0.882112 -1.82611 0
M  V30 1867 C 175.995 1.81628 -0.687378 0
M  V30 1868 O 175.27 1.92009 0.310267 0
M  V30 1869 C 175.553 1.67245 -3.18906 0
M  V30 1870 C 175.406 0.760987 -4.43316 0
M  V30 1871 C 176.725 2.63884 -3.52212 0
M  V30 1872 H 173.844 0.319242 -0.664269 0
M  V30 1873 H 176.486 0.148052 -1.89422 0
M  V30 1874 H 174.636 2.29824 -3.1323 0
M  V30 1875 H 176.308 0.147596 -4.61064 0
M  V30 1876 H 174.551 0.0694102 -4.33744 0
M  V30 1877 H 175.222 1.34962 -5.35247 0
M  V30 1878 H 177.698 2.11429 -3.58381 0
M  V30 1879 H 176.574 3.16245 -4.48643 0
M  V30 1880 H 176.835 3.44377 -2.77231 0
M  V30 1881 N 175.894 1.51508 0.433938 0
M  V30 1882 C 177.122 1.68157 1.20543 0
M  V30 1883 C 177.537 0.380362 1.84929 0
M  V30 1884 O 176.894 -0.641446 1.70856 0
M  V30 1885 C 176.945 2.79965 2.28696 0
M  V30 1886 O 176.666 4.05045 1.66943 0
M  V30 1887 C 178.167 3.07912 3.18912 0
M  V30 1888 H 175.387 0.56421 0.363191 0
M  V30 1889 H 177.931 1.97941 0.513754 0
M  V30 1890 H 176.086 2.5277 2.93574 0
M  V30 1891 H 176.5 4.67165 2.38448 0
M  V30 1892 H 177.974 3.89719 3.90926 0
M  V30 1893 H 178.451 2.20456 3.79863 0
M  V30 1894 H 179.057 3.36779 2.59731 0
M  V30 1895 N 177.372 -0.689602 1.41712 0
M  V30 1896 C 178.62 -1.4468 1.4111 0
M  V30 1897 C 178.941 -1.94986 0.0232196 0
M  V30 1898 O 178.211 -1.72097 -0.935913 0
M  V30 1899 H 176.791 -0.536847 0.519427 0
M  V30 1900 H 179.453 -0.815825 1.77004 0
M  V30 1901 H 178.549 -2.30706 2.10193 0
M  V30 1902 N 178.85 -1.27639 -0.924453 0
M  V30 1903 C 179.783 -1.04966 -2.02626 0
M  V30 1904 C 180.761 0.0309505 -1.62571 0
M  V30 1905 O 181.945 -0.114846 -1.8815 0
M  V30 1906 C 179.072 -0.59292 -3.3347 0
M  V30 1907 C 178.118 -1.66858 -3.92506 0
M  V30 1908 S 178.951 -3.2619 -4.24689 0
M  V30 1909 C 180.107 -2.82325 -5.58609 0
M  V30 1910 H 180.34 -1.98252 -2.21547 0
M  V30 1911 H 177.873 -1.11506 -1.06798 0
M  V30 1912 H 179.831 -0.336086 -4.09122 0
M  V30 1913 H 178.492 0.319939 -3.12466 0
M  V30 1914 H 177.685 -1.30038 -4.86935 0
M  V30 1915 H 177.287 -1.87766 -3.2345 0
M  V30 1916 H 179.579 -2.2783 -6.38044 0
M  V30 1917 H 180.522 -3.75511 -6.00331 0
M  V30 1918 H 180.93 -2.21367 -5.19285 0
M  V30 1919 N 180.328 1.1314 -1.09713 0
M  V30 1920 C 181.553 1.88862 -0.857081 0
M  V30 1921 C 181.978 1.78729 0.586304 0
M  V30 1922 O 181.336 1.13692 1.41222 0
M  V30 1923 C 181.384 3.36325 -1.30069 0
M  V30 1924 O 180.488 4.09815 -0.461007 0
M  V30 1925 H 179.829 0.587108 -0.310162 0
M  V30 1926 H 182.359 1.43129 -1.46203 0
M  V30 1927 H 182.369 3.87157 -1.28738 0
M  V30 1928 H 181.044 3.43017 -2.35185 0
M  V30 1929 H 179.621 3.68986 -0.538888 0
M  V30 1930 N 181.806 0.884767 1.30421 0
M  V30 1931 C 182.736 0.367574 2.30589 0
M  V30 1932 C 183.717 -0.549464 1.60981 0
M  V30 1933 O 184.902 -0.46336 1.88591 0
M  V30 1934 C 182.032 -0.418944 3.44764 0
M  V30 1935 C 180.986 0.406316 4.26067 0
M  V30 1936 C 180.312 -0.506793 5.32293 0
M  V30 1937 C 181.612 1.64832 4.95608 0
M  V30 1938 H 183.306 1.20462 2.74097 0
M  V30 1939 H 180.852 0.580695 1.31772 0
M  V30 1940 H 182.805 -0.791395 4.13902 0
M  V30 1941 H 181.529 -1.28964 3.0006 0
M  V30 1942 H 180.188 0.760903 3.58617 0
M  V30 1943 H 179.836 -1.37519 4.83836 0
M  V30 1944 H 179.536 0.0415828 5.87585 0
M  V30 1945 H 181.06 -0.875764 6.04287 0
M  V30 1946 H 182.474 1.34646 5.57264 0
M  V30 1947 H 180.871 2.13688 5.60765 0
M  V30 1948 H 181.941 2.39284 4.21748 0
M  V30 1949 N 183.284 -1.43765 0.645699 0
M  V30 1950 C 184.247 -2.29163 -0.0409488 0
M  V30 1951 C 185.247 -1.41813 -0.757996 0
M  V30 1952 O 186.437 -1.63527 -0.600382 0
M  V30 1953 C 183.569 -3.23716 -1.06869 0
M  V30 1954 H 184.762 -2.91366 0.710345 0
M  V30 1955 H 182.315 -1.5092 0.406547 0
M  V30 1956 H 183.05 -2.66393 -1.84947 0
M  V30 1957 H 182.835 -3.88105 -0.558277 0
M  V30 1958 H 184.325 -3.87831 -1.54845 0
M  V30 1959 N 184.763 -0.387143 -1.52771 0
M  V30 1960 C 185.695 0.484089 -2.2403 0
M  V30 1961 C 186.708 1.02849 -1.26198 0
M  V30 1962 O 187.897 0.931186 -1.52286 0
M  V30 1963 C 184.997 1.68337 -2.94136 0
M  V30 1964 C 184.17 1.26672 -4.18656 0
M  V30 1965 C 183.229 2.33045 -4.7178 0
M  V30 1966 O 182.255 1.94541 -5.34923 0
M  V30 1967 N 183.457 3.64929 -4.5145 0
M  V30 1968 H 186.222 -0.126404 -2.99433 0
M  V30 1969 H 183.783 -0.213392 -1.60488 0
M  V30 1970 H 185.775 2.39019 -3.26577 0
M  V30 1971 H 184.345 2.20025 -2.22053 0
M  V30 1972 H 183.565 0.388878 -3.92277 0
M  V30 1973 H 184.853 0.964964 -4.99566 0
M  V30 1974 H 184.251 3.98974 -4.01044 0
M  V30 1975 H 182.808 4.31651 -4.88386 0
M  V30 1976 N 186.241 1.57166 -0.116904 0
M  V30 1977 C 187.171 2.18222 0.830759 0
M  V30 1978 C 188.152 1.12167 1.27877 0
M  V30 1979 O 189.337 1.40394 1.34176 0
M  V30 1980 C 186.467 2.77996 2.08172 0
M  V30 1981 C 185.421 3.89614 1.77157 0
M  V30 1982 C 184.747 4.36187 3.09265 0
M  V30 1983 C 186.047 5.1181 1.04151 0
M  V30 1984 H 187.741 2.97664 0.321992 0
M  V30 1985 H 185.287 1.4318 0.153434 0
M  V30 1986 H 187.24 3.19366 2.74924 0
M  V30 1987 H 185.964 1.9584 2.6137 0
M  V30 1988 H 184.623 3.48816 1.12796 0
M  V30 1989 H 184.271 3.50893 3.60393 0
M  V30 1990 H 183.971 5.11455 2.89288 0
M  V30 1991 H 185.495 4.80207 3.77139 0
M  V30 1992 H 186.909 5.50214 1.61052 0
M  V30 1993 H 185.306 5.92648 0.942762 0
M  V30 1994 H 186.376 4.84892 0.0279022 0
M  V30 1995 N 187.719 -0.156864 1.56817 0
M  V30 1996 C 188.944 -0.890331 1.87318 0
M  V30 1997 C 189.369 -1.74394 0.704855 0
M  V30 1998 O 188.727 -1.77972 -0.345786 0
M  V30 1999 C 188.775 -1.73102 3.16336 0
M  V30 2000 O 187.879 -2.83422 2.99576 0
M  V30 2001 H 187.22 -0.24857 0.615718 0
M  V30 2002 H 189.75 -0.150649 2.04045 0
M  V30 2003 H 189.76 -2.12803 3.48107 0
M  V30 2004 H 188.435 -1.10412 4.00976 0
M  V30 2005 H 187.012 -2.47199 2.7919 0
M  V30 2006 N 189.197 -1.51736 -0.425897 0
M  V30 2007 C 190.16 -1.73271 -1.50032 0
M  V30 2008 C 191.16 -0.602639 -1.4908 0
M  V30 2009 O 192.35 -0.87033 -1.509 0
M  V30 2010 C 189.482 -1.79969 -2.89523 0
M  V30 2011 H 190.675 -2.69172 -1.32237 0
M  V30 2012 H 188.228 -1.41899 -0.65532 0
M  V30 2013 H 188.963 -0.859241 -3.1271 0
M  V30 2014 H 188.748 -2.62109 -2.91619 0
M  V30 2015 H 190.238 -1.9843 -3.67444 0
M  V30 2016 N 190.675 0.682077 -1.42076 0
M  V30 2017 C 191.638 1.77756 -1.44691 0
M  V30 2018 C 192.638 1.5726 -0.335535 0
M  V30 2019 O 193.828 1.63686 -0.596037 0
M  V30 2020 C 190.96 3.16301 -1.27146 0
M  V30 2021 H 192.153 1.76826 -2.42224 0
M  V30 2022 H 189.706 0.891012 -1.28416 0
M  V30 2023 H 190.441 3.22862 -0.305075 0
M  V30 2024 H 190.226 3.32581 -2.07683 0
M  V30 2025 H 191.716 3.96241 -1.31843 0
M  V30 2026 N 192.153 1.28127 0.917671 0
M  V30 2027 C 193.381 1.17892 1.70026 0
M  V30 2028 C 193.796 -0.262958 1.8696 0
M  V30 2029 O 193.153 -1.17811 1.3938 0
M  V30 2030 C 193.204 1.86872 3.09453 0
M  V30 2031 O 192.925 3.25428 2.93306 0
M  V30 2032 C 194.426 1.8289 4.03815 0
M  V30 2033 H 191.646 0.40942 0.531617 0
M  V30 2034 H 194.19 1.69181 1.14883 0
M  V30 2035 H 192.345 1.39464 3.61426 0
M  V30 2036 H 192.759 3.59918 3.81523 0
M  V30 2037 H 194.233 2.35751 4.99125 0
M  V30 2038 H 194.71 0.800412 4.31845 0
M  V30 2039 H 195.316 2.29959 3.57769 0
M  V30 2040 N 193.631 -1.12557 1.10312 0
M  V30 2041 C 194.561 -2.20341 0.772798 0
M  V30 2042 C 195.542 -1.68198 -0.25365 0
M  V30 2043 O 196.727 -1.93831 -0.119699 0
M  V30 2044 C 193.857 -3.46709 0.202443 0
M  V30 2045 C 192.811 -4.11996 1.15943 0
M  V30 2046 C 192.137 -5.328 0.450345 0
M  V30 2047 C 193.437 -4.5828 2.50552 0
M  V30 2048 H 195.131 -2.48229 1.674 0
M  V30 2049 H 192.677 -1.19308 0.806326 0
M  V30 2050 H 194.63 -4.2138 -0.0407752 0
M  V30 2051 H 193.354 -3.18245 -0.734001 0
M  V30 2052 H 192.013 -3.39305 1.38808 0
M  V30 2053 H 191.661 -5.00602 -0.490531 0
M  V30 2054 H 191.361 -5.7743 1.08851 0
M  V30 2055 H 192.885 -6.10219 0.215642 0
M  V30 2056 H 194.299 -5.2433 2.31843 0
M  V30 2057 H 192.696 -5.13683 3.10242 0
M  V30 2058 H 193.766 -3.72329 3.10643 0
M  V30 2059 N 195.109 -0.891671 -1.2995 0
M  V30 2060 C 196.041 -0.320695 -2.26945 0
M  V30 2061 C 197.054 0.528497 -1.53983 0
M  V30 2062 O 198.243 0.346959 -1.75096 0
M  V30 2063 C 195.343 0.562066 -3.34207 0
M  V30 2064 C 194.516 -0.259576 -4.36629 0
M  V30 2065 C 193.575 0.554739 -5.23268 0
M  V30 2066 O 192.601 -0.0249311 -5.69195 0
M  V30 2067 N 193.803 1.8625 -5.4981 0
M  V30 2068 H 196.568 -1.15432 -2.76578 0
M  V30 2069 H 194.129 -0.755336 -1.432 0
M  V30 2070 H 196.121 1.11304 -3.89093 0
M  V30 2071 H 194.691 1.29637 -2.84452 0
M  V30 2072 H 193.911 -0.991986 -3.81514 0
M  V30 2073 H 195.199 -0.822564 -5.02107 0
M  V30 2074 H 194.597 2.35628 -5.14292 0
M  V30 2075 H 193.154 2.36078 -6.07545 0
M  V30 2076 N 196.587 1.43421 -0.653314 0
M  V30 2077 C 197.817 2.05864 -0.174238 0
M  V30 2078 C 198.225 1.49052 1.16534 0
M  V30 2079 O 197.568 0.616481 1.73047 0
M  V30 2080 C 197.63 3.59499 -0.00875873 0
M  V30 2081 C 197.294 4.38893 -1.27364 0
M  V30 2082 C 198.291 4.70947 -2.20239 0
M  V30 2083 C 195.976 4.789 -1.51525 0
M  V30 2084 C 197.97 5.41916 -3.35568 0
M  V30 2085 C 195.657 5.49614 -2.67147 0
M  V30 2086 C 196.655 5.81044 -3.58994 0
M  V30 2087 O 196.343 6.50313 -4.72597 0
M  V30 2088 H 196.075 0.670345 -0.0872549 0
M  V30 2089 H 198.629 1.84913 -0.894226 0
M  V30 2090 H 196.859 3.79025 0.7666 0
M  V30 2091 H 198.548 4.0364 0.427687 0
M  V30 2092 H 199.314 4.40558 -2.02815 0
M  V30 2093 H 195.193 4.53843 -0.809158 0
M  V30 2094 H 198.737 5.66365 -4.07279 0
M  V30 2095 H 194.634 5.79419 -2.84505 0
M  V30 2096 H 195.402 6.68795 -4.71864 0
M  V30 2097 N 198.065 0.39524 1.52563 0
M  V30 2098 C 199.29 -0.187456 2.06551 0
M  V30 2099 C 199.715 -1.39249 1.26457 0
M  V30 2100 O 199.073 -1.78947 0.291151 0
M  V30 2101 C 199.121 -0.529985 3.56684 0
M  V30 2102 O 198.225 -1.62307 3.79118 0
M  V30 2103 H 197.566 -0.0202537 0.663691 0
M  V30 2104 H 200.096 0.564426 1.96661 0
M  V30 2105 H 200.106 -0.792598 4.00227 0
M  V30 2106 H 198.781 0.350987 4.14416 0
M  V30 2107 H 197.358 -1.3537 3.47461 0
M  V30 2108 N 199.544 -1.57102 0.125237 0
M  V30 2109 C 200.821 -1.86953 -0.575142 0
M  V30 2110 C 201.201 -1.02749 -1.84407 0
M  V30 2111 O 200.549 -0.108144 -2.28244 0
M  V30 2112 C 200.759 -3.38198 -0.861583 0
M  V30 2113 C 202.107 -4.06937 -1.21192 0
M  V30 2114 O 203.131 -3.43252 -0.951645 0
M  V30 2115 O 201.99 -5.19364 -1.70068 0
M  V30 2116 H 199.084 -0.774147 -0.290906 0
M  V30 2117 H 201.63 -1.68942 0.160211 0
M  V30 2118 H 200.402 -3.91282 0.0373647 0
M  V30 2119 H 200.025 -3.61661 -1.65188 0
M  V30 2120 N 201.022 0.148545 -1.56898 0
M  V30 2121 C 201.97 1.20265 -1.99096 0
M  V30 2122 C 202.964 1.44559 -0.883123 0
M  V30 2123 O 204.17 1.4487 -1.0683 0
M  V30 2124 H 200.545 0.404786 -0.63376 0
M  V30 2125 H 202.516 0.82004 -2.86911 0
M  V30 2126 C 201.265 2.52886 -2.3863 0
M  V30 2127 H 200.588 2.35021 -3.23427 0
M  V30 2128 H 202.028 3.25274 -2.7198 0
M  V30 2129 C 200.487 3.13315 -1.23837 0
M  V30 2130 O 201.017 3.98077 -0.538268 0
M  V30 2131 N 199.223 2.72742 -1.00301 0
M  V30 2132 H 198.77 2.03912 -1.5741 0
M  V30 2133 H 198.728 3.13507 -0.236838 0
M  V30 2134 N 202.5 1.5196 0.417844 0
M  V30 2135 C 203.728 1.69426 1.18753 0
M  V30 2136 C 204.143 0.399955 1.84515 0
M  V30 2137 O 203.5 -0.623288 1.71527 0
M  V30 2138 C 203.551 2.82375 2.25714 0
M  V30 2139 O 203.272 4.06793 1.62638 0
M  V30 2140 C 204.773 3.11277 3.15628 0
M  V30 2141 H 201.993 0.568031 0.357186 0
M  V30 2142 H 204.537 1.98475 0.49273 0
M  V30 2143 H 202.692 2.5587 2.90877 0
M  V30 2144 H 203.106 4.69667 2.3348 0
M  V30 2145 H 204.58 3.93843 3.86771 0
M  V30 2146 H 205.057 2.24473 3.77503 0
M  V30 2147 H 205.663 3.39515 2.56144 0
M  V30 2148 N 203.978 -0.674533 1.42435 0
M  V30 2149 C 204.941 -1.76986 1.45632 0
M  V30 2150 C 205.941 -1.5708 0.343871 0
M  V30 2151 O 207.131 -1.63367 0.604709 0
M  V30 2152 C 204.263 -3.15623 1.28822 0
M  V30 2153 H 205.456 -1.75539 2.43158 0
M  V30 2154 H 203.009 -0.884189 1.28887 0
M  V30 2155 H 203.744 -3.22696 0.322193 0
M  V30 2156 H 203.529 -3.31475 2.09444 0
M  V30 2157 H 205.019 -3.95537 1.33942 0
M  V30 2158 N 205.456 -1.28612 -0.910864 0
M  V30 2159 C 206.389 -1.07109 -2.01502 0
M  V30 2160 C 207.367 0.013706 -1.62594 0
M  V30 2161 O 208.551 -0.134796 -1.88017 0
M  V30 2162 C 205.678 -0.628255 -3.32822 0
M  V30 2163 C 204.724 -1.71012 -3.90714 0
M  V30 2164 S 205.557 -3.30676 -4.21205 0
M  V30 2165 C 206.713 -2.88234 -5.55583 0
M  V30 2166 H 206.946 -2.00591 -2.19432 0
M  V30 2167 H 204.479 -1.12633 -1.05609 0
M  V30 2168 H 206.437 -0.37946 -4.08742 0
M  V30 2169 H 205.098 0.28678 -3.12788 0
M  V30 2170 H 204.291 -1.35195 -4.85529 0
M  V30 2171 H 203.893 -1.91186 -3.21441 0
M  V30 2172 H 206.185 -2.34584 -6.35591 0
M  V30 2173 H 207.128 -3.81857 -5.96314 0
M  V30 2174 H 207.536 -2.26862 -5.16908 0
M  V30 2175 N 206.934 1.1197 -1.10907 0
M  V30 2176 C 207.882 2.19927 -0.757303 0
M  V30 2177 C 208.876 1.67564 0.248747 0
M  V30 2178 O 210.082 1.79672 0.108605 0
M  V30 2179 H 206.457 0.716925 -0.226987 0
M  V30 2180 H 208.428 2.46847 -1.67658 0
M  V30 2181 C 207.177 3.47061 -0.210671 0
M  V30 2182 H 206.5 3.87703 -0.976049 0
M  V30 2183 H 207.94 4.24 -0.0026584 0
M  V30 2184 C 206.399 3.19864 1.05777 0
M  V30 2185 O 206.929 3.40049 2.13845 0
M  V30 2186 N 205.135 2.73636 0.978349 0
M  V30 2187 H 204.682 2.5741 0.0988246 0
M  V30 2188 H 204.64 2.55815 1.82773 0
M  V30 2189 N 208.412 0.89855 1.29475 0
M  V30 2190 C 209.359 0.373819 2.27753 0
M  V30 2191 C 210.329 -0.543444 1.56958 0
M  V30 2192 O 211.514 -0.468934 1.84948 0
M  V30 2193 C 208.654 -0.393648 3.42848 0
M  V30 2194 C 207.767 0.554379 4.28428 0
M  V30 2195 C 206.902 -0.230026 5.30702 0
M  V30 2196 C 205.941 0.712599 6.07938 0
M  V30 2197 N 205.078 -0.0373283 7.0209 0
M  V30 2198 H 209.918 1.21699 2.72017 0
M  V30 2199 H 207.455 0.611456 1.33789 0
M  V30 2200 H 209.413 -0.85466 4.08352 0
M  V30 2201 H 208.043 -1.20128 2.99615 0
M  V30 2202 H 207.095 1.13391 3.63107 0
M  V30 2203 H 208.407 1.27597 4.82204 0
M  V30 2204 H 207.561 -0.752288 6.02018 0
M  V30 2205 H 206.3 -0.984758 4.77654 0
M  V30 2206 H 205.305 1.24637 5.35486 0
M  V30 2207 H 206.53 1.46664 6.63074 0
M  V30 2208 H 204.476 -0.774348 6.51414 0
M  V30 2209 H 204.393 0.624374 7.53417 0
M  V30 2210 H 205.661 -0.539891 7.77628 0
M  V30 2211 N 209.89 -1.43072 0.660911 0
M  V30 2212 C 211.139 -2.00942 0.174735 0
M  V30 2213 C 211.452 -1.52797 -1.22117 0
M  V30 2214 O 212.658 -2.02991 -1.80297 0
M  V30 2215 C 211.114 -3.58948 0.261559 0
M  V30 2216 C 210.722 -4.16085 1.66064 0
M  V30 2217 C 212.466 -4.24173 -0.166617 0
M  V30 2218 C 210.373 -5.6641 1.70098 0
M  V30 2219 H 209.303 -0.751483 0.0615631 0
M  V30 2220 H 211.954 -1.63955 0.824069 0
M  V30 2221 H 210.336 -3.93372 -0.455421 0
M  V30 2222 H 211.51 -3.93147 2.40359 0
M  V30 2223 H 209.825 -3.6326 2.03546 0
M  V30 2224 H 212.422 -5.34471 -0.156433 0
M  V30 2225 H 212.765 -3.98647 -1.19943 0
M  V30 2226 H 213.298 -3.94659 0.498875 0
M  V30 2227 H 210.037 -5.96715 2.71315 0
M  V30 2228 H 209.557 -5.91382 1.00139 0
M  V30 2229 H 211.236 -6.30585 1.44816 0
M  V30 2230 N 211.368 -0.403325 -1.52352 0
M  V30 2231 C 212.298 0.416205 -2.29761 0
M  V30 2232 C 213.279 1.05123 -1.33728 0
M  V30 2233 O 214.464 1.06134 -1.62632 0
M  V30 2234 C 211.594 1.53624 -3.11475 0
M  V30 2235 C 210.548 1.02653 -4.15507 0
M  V30 2236 C 209.874 2.23971 -4.85532 0
M  V30 2237 C 211.174 0.08463 -5.22231 0
M  V30 2238 H 212.868 -0.229701 -2.98518 0
M  V30 2239 H 210.414 -0.111913 -1.43564 0
M  V30 2240 H 212.367 2.1165 -3.64393 0
M  V30 2241 H 211.091 2.20994 -2.40477 0
M  V30 2242 H 209.75 0.46871 -3.63591 0
M  V30 2243 H 209.398 2.89883 -4.11068 0
M  V30 2244 H 209.098 1.90521 -5.55856 0
M  V30 2245 H 210.622 2.82614 -5.41259 0
M  V30 2246 H 212.036 0.573509 -5.70424 0
M  V30 2247 H 210.433 -0.160783 -5.99885 0
M  V30 2248 H 211.503 -0.86237 -4.7717 0
M  V30 2249 N 212.846 1.57033 -0.133567 0
M  V30 2250 C 214.123 1.87256 0.56522 0
M  V30 2251 C 214.503 1.03726 1.83859 0
M  V30 2252 O 213.851 0.120247 2.28183 0
M  V30 2253 C 214.061 3.3865 0.843636 0
M  V30 2254 C 215.409 4.07574 1.19032 0
M  V30 2255 O 216.433 3.43752 0.933429 0
M  V30 2256 O 215.292 5.20259 1.67312 0
M  V30 2257 H 212.386 0.775678 0.286796 0
M  V30 2258 H 214.932 1.68855 -0.169168 0
M  V30 2259 H 213.704 3.91257 -0.0581149 0
M  V30 2260 H 213.327 3.62532 1.63268 0
M  V30 2261 N 214.325 -0.140222 1.56975 0
M  V30 2262 C 215.555 -0.865181 1.87612 0
M  V30 2263 C 215.963 -1.74942 0.72055 0
M  V30 2264 O 215.306 -1.80917 -0.318561 0
M  V30 2265 C 215.368 -1.76782 3.13031 0
M  V30 2266 C 215.032 -1.06005 4.44536 0
M  V30 2267 C 216.029 -0.410768 5.18275 0
M  V30 2268 C 213.714 -1.04754 4.91255 0
M  V30 2269 C 215.708 0.241572 6.36942 0
M  V30 2270 C 213.395 -0.391394 6.09845 0
M  V30 2271 C 214.393 0.252029 6.82535 0
M  V30 2272 O 214.081 0.897757 7.98871 0
M  V30 2273 H 213.813 -0.255188 0.625983 0
M  V30 2274 H 216.367 -0.135653 2.04952 0
M  V30 2275 H 214.597 -2.53846 2.91718 0
M  V30 2276 H 216.286 -2.36533 3.29859 0
M  V30 2277 H 217.052 -0.412195 4.83245 0
M  V30 2278 H 212.931 -1.53777 4.34596 0
M  V30 2279 H 216.475 0.744375 6.93617 0
M  V30 2280 H 212.372 -0.387656 6.44335 0
M  V30 2281 H 213.14 0.800102 8.1458 0
M  V30 2282 N 215.803 -1.52179 -0.40978 0
M  V30 2283 C 216.733 -1.78435 -1.5061 0
M  V30 2284 C 217.714 -0.635295 -1.57791 0
M  V30 2285 O 218.899 -0.880823 -1.73076 0
M  V30 2286 C 216.029 -1.93444 -2.88439 0
M  V30 2287 C 214.983 -3.09038 -2.96108 0
M  V30 2288 C 214.309 -3.09268 -4.36185 0
M  V30 2289 C 215.609 -4.48508 -2.67652 0
M  V30 2290 H 217.303 -2.70237 -1.28889 0
M  V30 2291 H 214.849 -1.30036 -0.618605 0
M  V30 2292 H 216.802 -2.10394 -3.65119 0
M  V30 2293 H 215.526 -0.983129 -3.11452 0
M  V30 2294 H 214.185 -2.91837 -2.21872 0
M  V30 2295 H 213.833 -2.11861 -4.56206 0
M  V30 2296 H 213.533 -3.86907 -4.42241 0
M  V30 2297 H 215.057 -3.28348 -5.14801 0
M  V30 2298 H 216.471 -4.65918 -3.34056 0
M  V30 2299 H 214.868 -5.28059 -2.85085 0
M  V30 2300 H 215.938 -4.56649 -1.63095 0
M  V30 2301 N 217.281 0.66697 -1.42791 0
M  V30 2302 C 218.529 1.42417 -1.43394 0
M  V30 2303 C 218.85 1.94925 -0.0542373 0
M  V30 2304 O 218.12 1.73564 0.908415 0
M  V30 2305 H 216.7 0.528515 -0.527902 0
M  V30 2306 H 219.362 0.787562 -1.78279 0
M  V30 2307 H 218.458 2.27333 -2.13837 0
M  V30 2308 N 218.759 1.29093 0.90403 0
M  V30 2309 C 220.007 1.16583 1.65085 0
M  V30 2310 C 220.328 -0.283933 1.92922 0
M  V30 2311 O 219.598 -1.19509 1.55224 0
M  V30 2312 H 218.178 0.428467 0.611903 0
M  V30 2313 H 220.84 1.61959 1.08422 0
M  V30 2314 H 219.936 1.71266 2.6091 0
M  V30 2315 N 220.237 -1.11381 1.11499 0
M  V30 2316 C 221.648 -1.6465 0.880191 0
M  V30 2317 C 221.999 -1.87199 -0.587434 0
M  V30 2318 O 221.124 -1.60667 -1.44966 0
M  V30 2319 C 221.719 -2.99105 1.59128 0
M  V30 2320 C 220.278 -3.49279 1.40289 0
M  V30 2321 C 219.425 -2.24077 1.63354 0
M  V30 2322 H 222.376 -0.950123 1.27116 0
M  V30 2323 H 222.397 -3.66107 1.03664 0
M  V30 2324 H 221.909 -2.82661 2.65941 0
M  V30 2325 H 220.01 -3.70887 0.356888 0
M  V30 2326 H 220.123 -4.2803 2.15238 0
M  V30 2327 H 218.487 -2.31733 1.05698 0
M  V30 2328 H 219.27 -2.10175 2.71443 0
M  V30 2329 N 221.715 -0.905404 -1.28997 0
M  V30 2330 C 222.678 -0.392253 -2.25819 0
M  V30 2331 C 223.678 0.476753 -1.5357 0
M  V30 2332 O 224.868 0.280994 -1.71919 0
M  V30 2333 C 222 0.438588 -3.38067 0
M  V30 2334 H 223.193 -1.24743 -2.72725 0
M  V30 2335 H 220.746 -0.684051 -1.40536 0
M  V30 2336 H 221.481 1.31352 -2.96508 0
M  V30 2337 H 221.266 -0.184167 -3.91667 0
M  V30 2338 H 222.756 0.78873 -4.10084 0
M  V30 2339 N 223.193 1.4272 -0.668489 0
M  V30 2340 C 224.14 2.30796 0.0137489 0
M  V30 2341 C 225.11 1.4561 0.799177 0
M  V30 2342 O 226.295 1.74453 0.772702 0
M  V30 2343 C 223.435 3.31377 0.963507 0
M  V30 2344 C 222.548 4.31655 0.172569 0
M  V30 2345 C 221.683 5.19312 1.1175 0
M  V30 2346 C 220.722 6.11274 0.317886 0
M  V30 2347 N 219.859 6.91504 1.2152 0
M  V30 2348 H 224.699 2.88585 -0.743161 0
M  V30 2349 H 222.236 1.42154 -0.378226 0
M  V30 2350 H 224.194 3.88214 1.52792 0
M  V30 2351 H 222.824 2.75202 1.68712 0
M  V30 2352 H 221.876 3.76988 -0.508374 0
M  V30 2353 H 223.188 4.96779 -0.448527 0
M  V30 2354 H 222.342 5.80851 1.75206 0
M  V30 2355 H 221.081 4.5435 1.77249 0
M  V30 2356 H 220.086 5.48809 -0.329918 0
M  V30 2357 H 221.311 6.78283 -0.332917 0
M  V30 2358 H 219.257 6.29176 1.85671 0
M  V30 2359 H 219.174 7.53209 0.649036 0
M  V30 2360 H 220.442 7.57535 1.83742 0
M  V30 2361 N 224.671 0.411399 1.52136 0
M  V30 2362 C 225.917 -0.163888 2.02137 0
M  V30 2363 C 226.25 -1.44597 1.29636 0
M  V30 2364 O 225.525 -1.90272 0.403353 0
M  V30 2365 C 225.808 -0.40927 3.57767 0
M  V30 2366 C 225.661 0.889643 4.40914 0
M  V30 2367 C 226.98 -1.19042 4.23694 0
M  V30 2368 H 224.099 -0.0580896 0.734707 0
M  V30 2369 H 226.741 0.54531 1.82007 0
M  V30 2370 H 224.891 -1.0134 3.7505 0
M  V30 2371 H 226.563 1.52575 4.35337 0
M  V30 2372 H 224.806 1.50011 4.07037 0
M  V30 2373 H 225.477 0.672314 5.4789 0
M  V30 2374 H 227.953 -0.678942 4.10524 0
M  V30 2375 H 226.829 -1.33086 5.32522 0
M  V30 2376 H 227.09 -2.21166 3.82803 0
M  V30 2377 N 226.149 -1.5696 0.141893 0
M  V30 2378 C 227.377 -2.00322 -0.517579 0
M  V30 2379 C 227.792 -1.02193 -1.58752 0
M  V30 2380 O 227.149 -0.0181619 -1.82491 0
M  V30 2381 C 227.2 -3.43618 -1.12289 0
M  V30 2382 O 226.921 -4.37995 -0.0956929 0
M  V30 2383 C 228.422 -4.02231 -1.86347 0
M  V30 2384 H 225.642 -0.657243 -0.135177 0
M  V30 2385 H 228.186 -2.03146 0.234973 0
M  V30 2386 H 226.341 -3.41662 -1.82609 0
M  V30 2387 H 226.755 -5.21729 -0.538469 0
M  V30 2388 H 228.229 -5.04509 -2.23997 0
M  V30 2389 H 228.706 -3.42655 -2.74744 0
M  V30 2390 H 229.312 -4.07802 -1.20737 0
M  V30 2391 N 227.627 0.131896 -1.57047 0
M  V30 2392 C 228.559 1.1878 -1.9602 0
M  V30 2393 C 229.572 1.38363 -0.857875 0
M  V30 2394 O 230.761 1.37666 -1.13623 0
M  V30 2395 C 227.861 2.55008 -2.23213 0
M  V30 2396 C 227.034 2.56201 -3.54513 0
M  V30 2397 C 226.093 3.7408 -3.70069 0
M  V30 2398 O 225.119 3.58258 -4.42312 0
M  V30 2399 N 226.321 4.92137 -3.07866 0
M  V30 2400 H 229.086 0.85639 -2.87204 0
M  V30 2401 H 226.647 0.321309 -1.5868 0
M  V30 2402 H 228.639 3.32404 -2.30846 0
M  V30 2403 H 227.209 2.80382 -1.3822 0
M  V30 2404 H 226.429 1.64613 -3.58185 0
M  V30 2405 H 227.717 2.54043 -4.4084 0
M  V30 2406 H 227.115 5.07895 -2.49116 0
M  V30 2407 H 225.672 5.67254 -3.21039 0
M  V30 2408 N 229.106 1.52395 0.401703 0
M  V30 2409 C 230.353 1.66817 1.14796 0
M  V30 2410 C 230.681 0.401772 1.90305 0
M  V30 2411 O 229.936 -0.615487 1.85769 0
M  V30 2412 C 230.235 2.84578 2.16217 0
M  V30 2413 C 229.901 4.22513 1.5746 0
M  V30 2414 C 228.563 4.60029 1.41161 0
M  V30 2415 C 230.915 5.0844 1.14622 0
M  V30 2416 C 228.243 5.81144 0.80552 0
M  V30 2417 C 230.595 6.30167 0.55428 0
M  V30 2418 C 229.259 6.66426 0.378482 0
M  V30 2419 H 228.529 0.610428 0.420069 0
M  V30 2420 H 231.176 1.86512 0.434212 0
M  V30 2421 H 229.481 2.59248 2.93764 0
M  V30 2422 H 231.178 2.92933 2.73845 0
M  V30 2423 H 227.768 3.92953 1.71132 0
M  V30 2424 H 231.952 4.80034 1.26021 0
M  V30 2425 H 227.208 6.07855 0.657399 0
M  V30 2426 H 231.382 6.96071 0.213983 0
M  V30 2427 H 229.009 7.60143 -0.0932606 0
M  V30 2428 N 230.584 -0.659388 1.43143 0
M  V30 2429 C 231.547 -1.75432 1.47501 0
M  V30 2430 C 232.547 -1.56707 0.360512 0
M  V30 2431 O 233.737 -1.62717 0.622002 0
M  V30 2432 C 230.869 -3.14239 1.32162 0
M  V30 2433 H 232.062 -1.7295 2.45006 0
M  V30 2434 H 229.615 -0.870469 1.29817 0
M  V30 2435 H 230.35 -3.22336 0.356401 0
M  V30 2436 H 230.135 -3.29235 2.12948 0
M  V30 2437 H 231.625 -3.94094 1.3813 0
M  V30 2438 N 232.062 -1.29571 -0.897171 0
M  V30 2439 C 233.478 -1.07637 -1.17841 0
M  V30 2440 C 233.678 0.170713 -2.00776 0
M  V30 2441 O 232.734 0.867768 -2.3712 0
M  V30 2442 C 234.047 -2.3332 -1.8969 0
M  V30 2443 C 235.595 -2.38664 -2.02505 0
M  V30 2444 C 236.07 -3.64157 -2.77765 0
M  V30 2445 N 237.561 -3.64894 -2.85318 0
M  V30 2446 C 238.296 -4.58679 -3.44094 0
M  V30 2447 N 237.792 -5.62799 -4.04017 0
M  V30 2448 N 239.585 -4.46245 -3.41793 0
M  V30 2449 H 231.736 -2.09598 -0.343883 0
M  V30 2450 H 233.999 -0.923333 -0.214848 0
M  V30 2451 H 233.705 -3.24262 -1.36187 0
M  V30 2452 H 233.579 -2.41025 -2.9015 0
M  V30 2453 H 235.966 -1.48208 -2.55183 0
M  V30 2454 H 236.047 -2.34943 -1.01171 0
M  V30 2455 H 235.691 -4.54965 -2.25763 0
M  V30 2456 H 235.621 -3.65137 -3.7945 0
M  V30 2457 H 238.112 -2.89613 -2.42761 0
M  V30 2458 H 238.425 -6.3048 -4.46895 0
M  V30 2459 H 236.77 -5.66605 -4.02472 0
M  V30 2460 H 239.961 -3.64094 -2.94199 0
M  V30 2461 H 240.134 -5.19518 -3.87304 0
M  V30 2462 N 233.54 1.10788 -1.12088 0
M  V30 2463 C 234.765 1.87002 -0.896949 0
M  V30 2464 C 235.19 1.79933 0.548261 0
M  V30 2465 O 234.548 1.16662 1.38779 0
M  V30 2466 C 234.596 3.3349 -1.37174 0
M  V30 2467 O 233.7 4.08745 -0.547831 0
M  V30 2468 H 233.041 0.580397 -0.322545 0
M  V30 2469 H 235.571 1.39996 -1.49206 0
M  V30 2470 H 235.581 3.84339 -1.36922 0
M  V30 2471 H 234.256 3.37951 -2.42408 0
M  V30 2472 H 232.833 3.6776 -0.617034 0
M  V30 2473 N 235.018 0.912232 1.28515 0
M  V30 2474 C 236.267 0.540504 1.94323 0
M  V30 2475 C 236.58 -0.920044 1.72611 0
M  V30 2476 O 237.786 -1.39986 2.32629 0
M  V30 2477 C 236.242 0.915803 3.48053 0
M  V30 2478 C 235.85 2.39598 3.78546 0
M  V30 2479 C 237.594 0.614588 4.20027 0
M  V30 2480 C 235.501 2.71148 5.25578 0
M  V30 2481 H 234.431 0.198418 0.727424 0
M  V30 2482 H 237.082 1.11094 1.46049 0
M  V30 2483 H 235.464 0.274168 3.9505 0
M  V30 2484 H 236.638 3.08422 3.42364 0
M  V30 2485 H 234.953 2.66749 3.1974 0
M  V30 2486 H 237.55 0.827002 5.28266 0
M  V30 2487 H 237.893 -0.447531 4.13887 0
M  V30 2488 H 238.426 1.21462 3.78803 0
M  V30 2489 H 235.165 3.76207 5.36794 0
M  V30 2490 H 234.685 2.0696 5.62963 0
M  V30 2491 H 236.364 2.58072 5.93302 0
M  V30 2492 N 236.496 -1.42363 0.676048 0
M  V30 2493 C 237.444 -2.32596 -0.0131507 0
M  V30 2494 C 238.438 -1.49891 -0.789238 0
M  V30 2495 O 239.644 -1.65955 -0.697061 0
M  V30 2496 H 236.019 -0.751647 -0.0230481 0
M  V30 2497 H 237.99 -2.88421 0.765243 0
M  V30 2498 C 236.739 -3.34479 -0.949702 0
M  V30 2499 H 236.062 -3.98158 -0.361938 0
M  V30 2500 H 237.502 -4.00199 -1.4006 0
M  V30 2501 C 235.961 -2.66838 -2.05667 0
M  V30 2502 O 236.491 -2.50124 -3.14326 0
M  V30 2503 N 234.697 -2.25843 -1.82875 0
M  V30 2504 H 234.244 -2.39637 -0.945085 0
M  V30 2505 H 234.202 -1.80918 -2.5713 0
M  V30 2506 N 237.974 -0.419461 -1.51915 0
M  V30 2507 C 239.251 0.211999 -1.94448 0
M  V30 2508 C 239.631 1.61703 -1.35703 0
M  V30 2509 O 238.979 2.22102 -0.536931 0
M  V30 2510 C 239.189 0.207872 -3.4838 0
M  V30 2511 C 240.537 0.422192 -4.22496 0
M  V30 2512 O 241.561 0.286778 -3.55044 0
M  V30 2513 O 240.42 0.690009 -5.42126 0
M  V30 2514 H 237.514 0.139586 -0.815135 0
M  V30 2515 H 240.06 -0.476151 -1.62883 0
M  V30 2516 H 238.832 -0.775102 -3.83546 0
M  V30 2517 H 238.455 0.939688 -3.86336 0
M  V30 2518 N 239.452 1.56882 -0.150215 0
M  V30 2519 C 240.698 1.96518 0.500834 0
M  V30 2520 C 241.031 1.03527 1.64304 0
M  V30 2521 O 240.306 0.0782751 1.94342 0
M  V30 2522 C 240.589 3.45822 1.00395 0
M  V30 2523 C 240.442 4.49591 -0.136983 0
M  V30 2524 C 241.761 3.97704 1.88467 0
M  V30 2525 H 238.88 0.714535 0.18058 0
M  V30 2526 H 241.522 1.88577 -0.232091 0
M  V30 2527 H 239.672 3.5272 1.62851 0
M  V30 2528 H 241.344 4.5477 -0.77343 0
M  V30 2529 H 239.587 4.26441 -0.795652 0
M  V30 2530 H 240.258 5.51402 0.256815 0
M  V30 2531 H 242.734 3.93304 1.35834 0
M  V30 2532 H 241.61 5.0263 2.20578 0
M  V30 2533 H 241.871 3.40252 2.82279 0
M  V30 2534 N 240.93 -0.123565 1.57115 0
M  V30 2535 C 242.158 -0.846461 1.88793 0
M  V30 2536 C 242.573 -1.73652 0.740976 0
M  V30 2537 O 241.93 -1.80207 -0.288393 0
M  V30 2538 C 241.981 -1.6837 3.19897 0
M  V30 2539 O 241.702 -0.829477 4.30176 0
M  V30 2540 C 243.203 -2.51214 3.65248 0
M  V30 2541 H 240.423 -0.243573 0.625231 0
M  V30 2542 H 242.967 -0.109324 2.04208 0
M  V30 2543 H 241.122 -2.37364 3.06165 0
M  V30 2544 H 241.536 -1.40651 5.0529 0
M  V30 2545 H 243.01 -3.05497 4.59756 0
M  V30 2546 H 243.487 -3.28359 2.9168 0
M  V30 2547 H 244.093 -1.8747 3.81752 0
M  V30 2548 N 242.408 -1.52605 -0.393616 0
M  V30 2549 C 243.638 -1.71046 -1.15874 0
M  V30 2550 C 244.046 -0.426483 -1.84331 0
M  V30 2551 O 243.389 0.608513 -1.73329 0
M  V30 2552 C 243.451 -2.80118 -2.25332 0
M  V30 2553 C 243.115 -4.21381 -1.76881 0
M  V30 2554 C 244.112 -5.04697 -1.24808 0
M  V30 2555 C 241.797 -4.67683 -1.83244 0
M  V30 2556 C 243.791 -6.32393 -0.797387 0
M  V30 2557 C 241.478 -5.95364 -1.37787 0
M  V30 2558 C 242.476 -6.77549 -0.861208 0
M  V30 2559 O 242.164 -8.02837 -0.413252 0
M  V30 2560 H 241.896 -0.576155 -0.353583 0
M  V30 2561 H 244.45 -2.00018 -0.467123 0
M  V30 2562 H 242.68 -2.46557 -2.97904 0
M  V30 2563 H 244.369 -2.87006 -2.87023 0
M  V30 2564 H 245.135 -4.70111 -1.19252 0
M  V30 2565 H 241.014 -4.03805 -2.22401 0
M  V30 2566 H 244.558 -6.9649 -0.393437 0
M  V30 2567 H 240.455 -6.29455 -1.43026 0
M  V30 2568 H 241.223 -8.16749 -0.53515 0
M  V30 2569 N 243.887 0.651787 -1.4349 0
M  V30 2570 C 245.303 0.96762 -1.26922 0
M  V30 2571 C 245.503 2.00602 -0.189982 0
M  V30 2572 O 244.559 2.48793 0.431107 0
M  V30 2573 C 245.872 1.45052 -2.63401 0
M  V30 2574 C 247.42 1.5671 -2.70945 0
M  V30 2575 C 247.895 2.0839 -4.07845 0
M  V30 2576 N 249.386 2.1569 -4.09917 0
M  V30 2577 C 250.121 2.56804 -5.12679 0
M  V30 2578 N 249.617 2.97203 -6.25813 0
M  V30 2579 N 251.41 2.56756 -5.00033 0
M  V30 2580 H 243.561 -0.0353158 -2.12371 0
M  V30 2581 H 245.824 0.0467858 -0.946845 0
M  V30 2582 H 245.53 0.761926 -3.43348 0
M  V30 2583 H 245.404 2.42529 -2.88894 0
M  V30 2584 H 247.791 2.2467 -1.9133 0
M  V30 2585 H 247.872 0.57662 -2.49216 0
M  V30 2586 H 247.516 1.41031 -4.87927 0
M  V30 2587 H 247.446 3.08271 -4.26938 0
M  V30 2588 H 249.937 1.87237 -3.28254 0
M  V30 2589 H 250.25 3.27328 -7.00055 0
M  V30 2590 H 248.595 2.95004 -6.29283 0
M  V30 2591 H 251.786 2.24572 -4.10713 0
M  V30 2592 H 251.959 2.88475 -5.80247 0
M  V30 2593 N 245.365 1.30045 0.890287 0
M  V30 2594 C 246.295 1.18541 2.01172 0
M  V30 2595 C 247.276 0.0773356 1.69924 0
M  V30 2596 O 248.461 0.25845 1.92473 0
M  V30 2597 C 245.591 0.870941 3.36202 0
M  V30 2598 C 244.545 1.93637 3.81692 0
M  V30 2599 C 243.871 1.475 5.13953 0
M  V30 2600 C 245.171 3.34666 4.00994 0
M  V30 2601 H 246.865 2.12359 2.11054 0
M  V30 2602 H 244.411 1.02238 1.01407 0
M  V30 2603 H 246.364 0.777141 4.14172 0
M  V30 2604 H 245.088 -0.102926 3.26438 0
M  V30 2605 H 243.747 2.01972 3.05946 0
M  V30 2606 H 243.395 0.489551 5.00612 0
M  V30 2607 H 243.095 2.1876 5.4536 0
M  V30 2608 H 244.619 1.39489 5.94454 0
M  V30 2609 H 246.033 3.2912 4.69417 0
M  V30 2610 H 244.43 4.03966 4.43769 0
M  V30 2611 H 245.5 3.76949 3.05021 0
M  V30 2612 N 246.843 -1.10192 1.12674 0
M  V30 2613 C 248.12 -1.78717 0.794965 0
M  V30 2614 C 248.5 -1.98628 -0.714853 0
M  V30 2615 O 247.848 -1.58135 -1.64941 0
M  V30 2616 C 248.058 -3.11546 1.5729 0
M  V30 2617 C 249.406 -3.86382 1.76052 0
M  V30 2618 O 250.43 -3.21274 1.53823 0
M  V30 2619 O 249.289 -5.03246 2.13087 0
M  V30 2620 H 246.383 -0.774702 0.289423 0
M  V30 2621 H 248.929 -1.16819 1.23091 0
M  V30 2622 H 247.701 -2.92489 2.59935 0
M  V30 2623 H 247.324 -3.81164 1.13137 0
M  V30 2624 N 248.321 -0.919034 -1.28029 0
M  V30 2625 C 249.737 -0.617972 -1.4715 0
M  V30 2626 C 249.937 0.835242 -1.83374 0
M  V30 2627 O 248.993 1.61388 -1.94191 0
M  V30 2628 C 250.306 -1.56041 -2.57044 0
M  V30 2629 C 251.854 -1.56769 -2.7091 0
M  V30 2630 C 252.329 -2.49688 -3.83953 0
M  V30 2631 N 253.82 -2.47845 -3.91314 0
M  V30 2632 C 254.555 -3.16437 -4.78179 0
M  V30 2633 N 254.051 -3.94376 -5.69596 0
M  V30 2634 N 255.844 -3.05498 -4.71834 0
M  V30 2635 H 247.995 -1.85866 -1.02798 0
M  V30 2636 H 250.258 -0.797506 -0.512531 0
M  V30 2637 H 249.964 -2.59671 -2.372 0
M  V30 2638 H 249.838 -1.29551 -3.54255 0
M  V30 2639 H 252.225 -0.538745 -2.90141 0
M  V30 2640 H 252.306 -1.87305 -1.74214 0
M  V30 2641 H 251.95 -3.52688 -3.65477 0
M  V30 2642 H 251.88 -2.16453 -4.80058 0
M  V30 2643 H 254.371 -1.91234 -3.25941 0
M  V30 2644 H 254.684 -4.43721 -6.32718 0
M  V30 2645 H 253.029 -3.98481 -5.69419 0
M  V30 2646 H 256.22 -2.44108 -3.99411 0
M  V30 2647 H 256.393 -3.59225 -5.39316 0
M  V30 2648 N 249.799 1.42003 -0.683588 0
M  V30 2649 C 250.746 2.30798 -0.0107309 0
M  V30 2650 C 251.716 1.4645 0.783688 0
M  V30 2651 O 252.901 1.75263 0.754156 0
M  V30 2652 C 250.041 3.3238 0.928306 0
M  V30 2653 C 249.154 4.31814 0.126776 0
M  V30 2654 C 248.289 5.20468 1.06236 0
M  V30 2655 C 247.328 6.11577 0.253035 0
M  V30 2656 N 246.465 6.92754 1.14179 0
M  V30 2657 H 251.305 2.8778 -0.773727 0
M  V30 2658 H 248.842 1.41745 -0.393283 0
M  V30 2659 H 250.8 3.89813 1.48666 0
M  V30 2660 H 249.43 2.76976 1.65783 0
M  V30 2661 H 248.482 3.76427 -0.54833 0
M  V30 2662 H 249.794 4.96276 -0.501192 0
M  V30 2663 H 248.948 5.82677 1.69035 0
M  V30 2664 H 247.687 4.56204 1.7242 0
M  V30 2665 H 246.692 5.48428 -0.388108 0
M  V30 2666 H 247.917 6.77892 -0.404839 0
M  V30 2667 H 245.863 6.3111 1.78987 0
M  V30 2668 H 245.78 7.53855 0.569111 0
M  V30 2669 H 247.048 7.59441 1.75697 0
M  V30 2670 N 251.277 0.427512 1.51691 0
M  V30 2671 C 252.187 -0.39527 2.31246 0
M  V30 2672 C 253.203 -1.03674 1.39742 0
M  V30 2673 O 254.379 -1.03425 1.72816 0
M  V30 2674 C 251.444 -1.48706 3.13189 0
M  V30 2675 C 250.505 -0.866743 4.20459 0
M  V30 2676 C 249.738 -1.90651 4.98486 0
M  V30 2677 O 249.961 -3.12733 4.77026 0
M  V30 2678 O 248.895 -1.5025 5.82845 0
M  V30 2679 H 252.721 0.253918 3.02637 0
M  V30 2680 H 250.306 0.190274 1.48183 0
M  V30 2681 H 252.188 -2.12047 3.64162 0
M  V30 2682 H 250.863 -2.12051 2.44573 0
M  V30 2683 H 249.77 -0.195544 3.73589 0
M  V30 2684 H 251.103 -0.276934 4.9142 0
M  V30 2685 N 252.755 -1.56801 0.158532 0
M  V30 2686 C 254.166 -1.83189 -0.360366 0
M  V30 2687 C 254.517 -1.07778 -1.63946 0
M  V30 2688 O 253.642 -0.326718 -2.13919 0
M  V30 2689 C 254.237 -3.32297 -0.660595 0
M  V30 2690 C 252.796 -3.59227 -1.12398 0
M  V30 2691 C 251.943 -2.76877 -0.153097 0
M  V30 2692 H 254.894 -1.54008 0.383031 0
M  V30 2693 H 254.915 -3.4908 -1.51405 0
M  V30 2694 H 254.427 -3.87156 0.270527 0
M  V30 2695 H 252.528 -3.09766 -2.07064 0
M  V30 2696 H 252.641 -4.67632 -1.04197 0
M  V30 2697 H 251.005 -2.46319 -0.647983 0
M  V30 2698 H 251.788 -3.34511 0.77182 0
M  V30 2699 N 254.233 0.115231 -1.57178 0
M  V30 2700 C 255.143 1.15994 -2.03918 0
M  V30 2701 C 256.159 1.45103 -0.960268 0
M  V30 2702 O 257.335 1.56144 -1.27204 0
M  V30 2703 C 254.4 2.46568 -2.43732 0
M  V30 2704 C 253.461 2.24822 -3.65723 0
M  V30 2705 C 252.694 3.4917 -4.03629 0
M  V30 2706 O 252.917 4.56623 -3.41835 0
M  V30 2707 O 251.851 3.39949 -4.96708 0
M  V30 2708 H 255.677 0.793019 -2.93164 0
M  V30 2709 H 253.262 0.3263 -1.45793 0
M  V30 2710 H 255.144 3.23492 -2.70057 0
M  V30 2711 H 253.819 2.82726 -1.57631 0
M  V30 2712 H 252.726 1.45744 -3.44542 0
M  V30 2713 H 254.059 1.93566 -4.52541 0
M  V30 2714 N 255.711 1.52812 0.385517 0
M  V30 2715 C 256.641 1.80808 1.47752 0
M  V30 2716 C 257.622 0.660318 1.5676 0
M  V30 2717 O 258.807 0.908246 1.71652 0
M  V30 2718 C 255.937 1.98008 2.85324 0
M  V30 2719 C 254.891 3.13709 2.91154 0
M  V30 2720 C 254.217 3.16169 4.31209 0
M  V30 2721 C 255.517 4.52709 2.60483 0
M  V30 2722 H 257.211 2.72253 1.24573 0
M  V30 2723 H 254.757 1.31003 0.597839 0
M  V30 2724 H 256.71 2.16176 3.61726 0
M  V30 2725 H 255.434 1.03255 3.09848 0
M  V30 2726 H 254.093 2.95329 2.17201 0
M  V30 2727 H 253.741 2.19092 4.52778 0
M  V30 2728 H 253.441 3.93894 4.36029 0
M  V30 2729 H 254.965 3.36496 5.09512 0
M  V30 2730 H 256.379 4.71173 3.26602 0
M  V30 2731 H 254.776 5.32528 2.76648 0
M  V30 2732 H 255.846 4.59186 1.55809 0
M  V30 2733 N 257.189 -0.644168 1.43834 0
M  V30 2734 C 258.137 -1.77793 1.49974 0
M  V30 2735 C 259.131 -1.65253 0.372536 0
M  V30 2736 O 260.337 -1.7149 0.546924 0
M  V30 2737 H 256.712 -0.58675 0.47035 0
M  V30 2738 H 258.683 -1.69736 2.45423 0
M  V30 2739 C 257.432 -3.16087 1.4486 0
M  V30 2740 H 256.755 -3.26378 2.30905 0
M  V30 2741 H 258.195 -3.95349 1.53217 0
M  V30 2742 C 256.654 -3.36484 0.167463 0
M  V30 2743 O 257.184 -3.94298 -0.767609 0
M  V30 2744 N 255.39 -2.90504 0.0747556 0
M  V30 2745 H 254.937 -2.4364 0.836507 0
M  V30 2746 H 254.895 -3.04527 -0.781714 0
M  V30 2747 N 258.668 -1.30515 -0.883378 0
M  V30 2748 C 259.896 -1.22359 -1.66841 0
M  V30 2749 C 260.311 0.213296 -1.87591 0
M  V30 2750 O 259.668 1.14075 -1.42454 0
M  V30 2751 C 259.719 -1.95011 -3.04389 0
M  V30 2752 O 259.44 -3.3309 -2.84575 0
M  V30 2753 C 260.941 -1.93532 -3.98824 0
M  V30 2754 H 258.161 -0.423371 -0.520575 0
M  V30 2755 H 260.705 -1.72167 -1.10357 0
M  V30 2756 H 258.86 -1.48997 -3.57601 0
M  V30 2757 H 259.274 -3.69907 -3.71846 0
M  V30 2758 H 260.748 -2.48902 -4.92699 0
M  V30 2759 H 261.225 -0.914627 -4.29571 0
M  V30 2760 H 261.831 -2.39364 -3.51547 0
M  V30 2761 N 260.146 1.09593 -1.13257 0
M  V30 2762 C 261.109 2.14359 -0.811358 0
M  V30 2763 C 262.109 1.59808 0.178377 0
M  V30 2764 O 263.299 1.74132 -0.0484911 0
M  V30 2765 C 260.431 3.40269 -0.207276 0
M  V30 2766 H 261.624 2.44284 -1.73969 0
M  V30 2767 H 259.177 1.25102 -0.936973 0
M  V30 2768 H 259.912 3.15969 0.73036 0
M  V30 2769 H 259.697 3.81154 -0.919992 0
M  V30 2770 H 261.187 4.176 0.000667944 0
M  V30 2771 N 261.624 0.925811 1.2754 0
M  V30 2772 C 262.873 0.561084 1.93739 0
M  V30 2773 C 263.186 -0.901685 1.73577 0
M  V30 2774 O 264.392 -1.37511 2.34101 0
M  V30 2775 C 262.848 0.952668 3.47062 0
M  V30 2776 C 262.456 2.43599 3.75983 0
M  V30 2777 C 264.2 0.659103 4.19352 0
M  V30 2778 C 262.107 2.76707 5.22673 0
M  V30 2779 H 261.037 0.206122 0.725279 0
M  V30 2780 H 263.688 1.12637 1.44863 0
M  V30 2781 H 262.07 0.316053 3.94737 0
M  V30 2782 H 263.244 3.12035 3.39073 0
M  V30 2783 H 261.559 2.70125 3.16893 0
M  V30 2784 H 264.156 0.882985 5.27359 0
M  V30 2785 H 264.499 -0.403607 4.14339 0
M  V30 2786 H 265.032 1.25473 3.77494 0
M  V30 2787 H 261.771 3.8188 5.32774 0
M  V30 2788 H 261.291 2.12919 5.60737 0
M  V30 2789 H 262.97 2.6435 5.90532 0
M  V30 2790 N 263.102 -1.41638 0.69111 0
M  V30 2791 C 264.052 -2.28 -0.000107832 0
M  V30 2792 C 265.036 -1.41964 -0.757304 0
M  V30 2793 O 266.228 -1.65274 -0.633532 0
M  V30 2794 C 263.357 -3.30209 -0.938983 0
M  V30 2795 C 262.443 -4.23725 -0.17827 0
M  V30 2796 N 262.834 -4.99017 0.825563 0
M  V30 2797 C 261.132 -4.44071 -0.414392 0
M  V30 2798 C 261.833 -5.67431 1.28052 0
M  V30 2799 N 260.809 -5.40197 0.607304 0
M  V30 2800 H 264.611 -2.83644 0.769617 0
M  V30 2801 H 262.125 -1.53797 0.521562 0
M  V30 2802 H 264.122 -3.90898 -1.44929 0
M  V30 2803 H 262.782 -2.76126 -1.70836 0
M  V30 2804 H 263.793 -5.03671 1.20566 0
M  V30 2805 H 260.47 -4.01004 -1.162 0
M  V30 2806 H 261.86 -6.37801 2.11327 0
M  V30 2807 N 264.58 -0.43555 -1.51462 0
M  V30 2808 C 265.828 0.131254 -2.01673 0
M  V30 2809 C 266.149 1.43368 -1.32177 0
M  V30 2810 O 265.419 1.90524 -0.455769 0
M  V30 2811 H 263.999 0.0514954 -0.745223 0
M  V30 2812 H 266.661 -0.577847 -1.86137 0
M  V30 2813 H 265.757 0.308446 -3.10572 0
M  V30 2814 N 266.058 1.56714 -0.166846 0
M  V30 2815 C 267.335 1.88412 0.525373 0
M  V30 2816 C 267.715 1.07602 1.81618 0
M  V30 2817 O 267.063 0.168621 2.27877 0
M  V30 2818 C 267.273 3.40363 0.771613 0
M  V30 2819 C 268.621 4.10007 1.1036 0
M  V30 2820 O 269.645 3.45655 0.860304 0
M  V30 2821 O 268.504 5.2369 1.56239 0
M  V30 2822 H 265.598 0.781587 0.270278 0
M  V30 2823 H 268.144 1.68458 -0.204946 0
M  V30 2824 H 266.916 3.91046 -0.141093 0
M  V30 2825 H 266.539 3.65914 1.55541 0
M  V30 2826 N 267.536 -0.106894 1.57237 0
M  V30 2827 C 268.947 -0.662723 1.74542 0
M  V30 2828 C 269.298 -1.7971 0.787319 0
M  V30 2829 O 268.423 -2.16368 -0.0369636 0
M  V30 2830 C 269.018 -1.20896 3.16496 0
M  V30 2831 C 267.577 -1.71096 3.35266 0
M  V30 2832 C 266.724 -0.615642 2.7038 0
M  V30 2833 H 269.675 0.119106 1.58252 0
M  V30 2834 H 269.696 -2.07847 3.18716 0
M  V30 2835 H 269.208 -0.383122 3.86204 0
M  V30 2836 H 267.309 -2.56119 2.70618 0
M  V30 2837 H 267.422 -1.81208 4.43509 0
M  V30 2838 H 265.786 -1.05222 2.31949 0
M  V30 2839 H 266.569 0.199419 3.4272 0
M  V30 2840 N 269.014 -1.53014 -0.377408 0
M  V30 2841 C 270.43 -1.42523 -0.718281 0
M  V30 2842 C 270.63 -0.55487 -1.9371 0
M  V30 2843 O 269.686 -0.0327593 -2.52479 0
M  V30 2844 C 270.999 -2.85546 -0.942539 0
M  V30 2845 C 272.547 -2.95101 -1.04329 0
M  V30 2846 C 273.022 -4.3916 -1.3001 0
M  V30 2847 N 274.513 -4.42536 -1.36806 0
M  V30 2848 C 275.248 -5.51097 -1.58364 0
M  V30 2849 N 274.744 -6.69724 -1.77317 0
M  V30 2850 N 276.537 -5.38657 -1.60638 0
M  V30 2851 H 268.688 -2.08116 0.424426 0
M  V30 2852 H 270.951 -0.939352 0.127759 0
M  V30 2853 H 270.657 -3.51499 -0.118929 0
M  V30 2854 H 270.531 -3.28493 -1.85397 0
M  V30 2855 H 272.918 -2.29309 -1.85745 0
M  V30 2856 H 272.999 -2.55566 -0.109505 0
M  V30 2857 H 272.643 -5.05521 -0.490991 0
M  V30 2858 H 272.573 -4.76258 -2.24691 0
M  V30 2859 H 275.064 -3.57039 -1.23821 0
M  V30 2860 H 275.377 -7.48233 -1.93306 0
M  V30 2861 H 273.722 -6.72732 -1.74518 0
M  V30 2862 H 276.913 -4.44948 -1.45391 0
M  V30 2863 H 277.086 -6.2333 -1.77098 0
M  V30 2864 N 270.492 0.636531 -1.44174 0
M  V30 2865 C 271.769 1.39463 -1.37148 0
M  V30 2866 C 272.149 2.11082 -0.027507 0
M  V30 2867 O 271.497 2.05954 0.989716 0
M  V30 2868 C 271.707 2.36552 -2.56601 0
M  V30 2869 C 273.055 3.00048 -3.00427 0
M  V30 2870 O 274.079 2.46878 -2.56767 0
M  V30 2871 O 272.938 3.96488 -3.76111 0
M  V30 2872 H 270.032 0.623903 -0.542839 0
M  V30 2873 H 272.578 0.662039 -1.56253 0
M  V30 2874 H 271.35 1.82692 -3.46034 0
M  V30 2875 H 270.973 3.17236 -2.39681 0
M  V30 2876 N 271.97 1.30982 0.876444 0
M  V30 2877 C 273.198 1.23242 1.6619 0
M  V30 2878 C 273.613 -0.203345 1.87702 0
M  V30 2879 O 272.97 -1.13317 1.43057 0
M  V30 2880 C 273.021 1.96623 3.03351 0
M  V30 2881 O 272.742 3.34594 2.82804 0
M  V30 2882 C 274.243 1.95644 3.97792 0
M  V30 2883 H 271.463 0.426126 0.518322 0
M  V30 2884 H 274.007 1.7275 1.09442 0
M  V30 2885 H 272.162 1.50892 3.56806 0
M  V30 2886 H 272.576 3.71873 3.69879 0
M  V30 2887 H 274.05 2.51511 4.91372 0
M  V30 2888 H 274.527 0.937395 4.2908 0
M  V30 2889 H 275.133 2.41225 3.50272 0
M  V30 2890 N 273.449 -1.08991 1.13837 0
M  V30 2891 C 274.677 -1.85011 0.926202 0
M  V30 2892 C 275.092 -1.8135 -0.525127 0
M  V30 2893 O 274.449 -1.21287 -1.36366 0
M  V30 2894 C 274.5 -3.32802 1.41155 0
M  V30 2895 O 274.221 -3.36444 2.80601 0
M  V30 2896 C 275.722 -4.25649 1.23847 0
M  V30 2897 H 272.942 -0.584249 0.32999 0
M  V30 2898 H 275.486 -1.37688 1.51202 0
M  V30 2899 H 273.641 -3.77536 0.868631 0
M  V30 2900 H 274.055 -4.28657 3.02248 0
M  V30 2901 H 275.529 -5.27485 1.62675 0
M  V30 2902 H 276.006 -4.38828 0.18065 0
M  V30 2903 H 276.612 -3.86735 1.76964 0
M  V30 2904 N 274.927 -0.932562 -1.27047 0
M  V30 2905 C 276.152 -0.591474 -1.98787 0
M  V30 2906 C 276.577 0.824601 -1.69062 0
M  V30 2907 O 275.935 1.5541 -0.933677 0
M  V30 2908 C 275.983 -0.829808 -3.50922 0
M  V30 2909 O 275.087 0.102266 -4.12273 0
M  V30 2910 H 274.428 -0.227185 -0.623926 0
M  V30 2911 H 276.958 -1.25314 -1.61733 0
M  V30 2912 H 276.968 -0.747292 -4.01098 0
M  V30 2913 H 275.643 -1.86201 -3.7189 0
M  V30 2914 H 274.22 -0.0305761 -3.72887 0
M  V30 2915 N 276.405 1.4127 -0.698611 0
M  V30 2916 C 277.816 1.84187 -0.305289 0
M  V30 2917 C 278.167 1.58449 1.15708 0
M  V30 2918 O 277.292 1.05651 1.88856 0
M  V30 2919 C 277.887 3.3435 -0.547314 0
M  V30 2920 C 276.446 3.75826 -0.207878 0
M  V30 2921 C 275.593 2.64647 -0.828099 0
M  V30 2922 H 278.544 1.30778 -0.89904 0
M  V30 2923 H 278.565 3.8001 0.192998 0
M  V30 2924 H 278.077 3.53051 -1.61172 0
M  V30 2925 H 276.178 3.62725 0.852143 0
M  V30 2926 H 276.291 4.74462 -0.665021 0
M  V30 2927 H 274.655 2.53395 -0.257458 0
M  V30 2928 H 275.438 2.86165 -1.89643 0
M  V30 2929 N 277.883 0.443576 1.51229 0
M  V30 2930 C 279.132 -0.122332 2.01329 0
M  V30 2931 C 279.445 -1.43237 1.33201 0
M  V30 2932 O 280.651 -2.0816 1.74304 0
M  V30 2933 C 279.107 -0.268551 3.58897 0
M  V30 2934 C 278.715 1.03142 4.35965 0
M  V30 2935 C 280.459 -0.787894 4.17124 0
M  V30 2936 C 278.366 0.850504 5.85252 0
M  V30 2937 H 277.296 -0.0494929 0.752374 0
M  V30 2938 H 279.947 0.574289 1.74282 0
M  V30 2939 H 278.329 -1.02832 3.82415 0
M  V30 2940 H 279.503 1.80001 4.24189 0
M  V30 2941 H 277.818 1.47977 3.89219 0
M  V30 2942 H 280.415 -0.939841 5.26375 0
M  V30 2943 H 280.758 -1.77201 3.76703 0
M  V30 2944 H 281.291 -0.0862669 3.97706 0
M  V30 2945 H 278.03 1.80718 6.30096 0
M  V30 2946 H 277.55 0.121825 5.99676 0
M  V30 2947 H 279.229 0.506163 6.45017 0
M  V30 2948 N 279.361 -1.56624 0.175154 0
M  V30 2949 C 280.324 -2.16934 -0.739738 0
M  V30 2950 C 281.324 -1.11842 -1.15533 0
M  V30 2951 O 282.514 -1.37335 -1.07167 0
M  V30 2952 C 279.646 -2.75531 -2.00738 0
M  V30 2953 H 280.839 -2.99131 -0.214639 0
M  V30 2954 H 278.392 -1.56123 -0.0744197 0
M  V30 2955 H 279.127 -1.97078 -2.57548 0
M  V30 2956 H 278.912 -3.52444 -1.71831 0
M  V30 2957 H 280.402 -3.21904 -2.66021 0
M  V30 2958 N 280.839 0.0985539 -1.57292 0
M  V30 2959 C 281.772 1.15082 -1.97057 0
M  V30 2960 C 282.75 1.39025 -0.843255 0
M  V30 2961 O 283.934 1.52842 -1.10325 0
M  V30 2962 C 281.061 2.50069 -2.28437 0
M  V30 2963 C 280.107 2.42428 -3.509 0
M  V30 2964 S 280.94 1.84414 -5.02744 0
M  V30 2965 C 282.096 3.21032 -5.37298 0
M  V30 2966 H 282.329 0.811815 -2.86002 0
M  V30 2967 H 279.862 0.306102 -1.51335 0
M  V30 2968 H 281.82 3.27729 -2.47192 0
M  V30 2969 H 280.481 2.8114 -1.40069 0
M  V30 2970 H 279.674 3.41911 -3.70288 0
M  V30 2971 H 279.276 1.72896 -3.31637 0
M  V30 2972 H 281.568 4.17297 -5.33731 0
M  V30 2973 H 282.511 3.06452 -6.38352 0
M  V30 2974 H 282.919 3.20404 -4.64759 0
M  V30 2975 N 282.317 1.53212 0.369288 0
M  V30 2976 C 283.28 1.7872 1.43498 0
M  V30 2977 C 284.28 0.657554 1.46741 0
M  V30 2978 O 285.47 0.925736 1.47566 0
M  V30 2979 C 282.602 1.90591 2.82645 0
M  V30 2980 H 283.795 2.73894 1.22156 0
M  V30 2981 H 281.348 1.44233 0.602203 0
M  V30 2982 H 282.083 0.974709 3.09306 0
M  V30 2983 H 281.868 2.72751 2.8169 0
M  V30 2984 H 283.358 2.11931 3.59826 0
M  V30 2985 N 283.795 -0.628877 1.44509 0
M  V30 2986 C 284.742 -1.74074 1.51549 0
M  V30 2987 C 285.712 -1.62084 0.363021 0
M  V30 2988 O 286.897 -1.81975 0.573567 0
M  V30 2989 C 284.037 -3.12328 1.46784 0
M  V30 2990 C 283.15 -3.35277 2.72422 0
M  V30 2991 C 282.285 -4.63515 2.59475 0
M  V30 2992 C 281.324 -4.7965 3.80266 0
M  V30 2993 N 280.461 -5.99168 3.65981 0
M  V30 2994 H 285.301 -1.67392 2.46544 0
M  V30 2995 H 282.838 -0.816527 1.22357 0
M  V30 2996 H 284.796 -3.92286 1.42012 0
M  V30 2997 H 283.426 -3.18018 0.553544 0
M  V30 2998 H 282.478 -2.49242 2.87372 0
M  V30 2999 H 283.79 -3.43078 3.62076 0
M  V30 3000 H 282.944 -5.51638 2.52548 0
M  V30 3001 H 281.683 -4.58076 1.67384 0
M  V30 3002 H 280.688 -3.89957 3.87574 0
M  V30 3003 H 281.913 -4.86902 4.73395 0
M  V30 3004 H 279.859 -5.94814 2.76644 0
M  V30 3005 H 279.776 -6.08035 4.49254 0
M  V30 3006 H 281.044 -6.89846 3.6295 0
M  V30 3007 N 285.273 -1.31445 -0.869486 0
M  V30 3008 C 286.498 -1.24256 -1.66058 0
M  V30 3009 C 286.923 0.188928 -1.87149 0
M  V30 3010 O 286.281 1.13522 -1.4136 0
M  V30 3011 C 286.329 -1.9924 -3.00559 0
M  V30 3012 O 285.433 -1.33007 -3.90362 0
M  V30 3013 H 284.774 -0.428973 -0.506831 0
M  V30 3014 H 287.304 -1.73521 -1.08404 0
M  V30 3015 H 287.314 -2.08854 -3.50491 0
M  V30 3016 H 285.989 -3.03342 -2.84528 0
M  V30 3017 H 284.566 -1.31848 -3.48813 0
M  V30 3018 N 286.751 1.08385 -1.14413 0
M  V30 3019 C 287.681 2.17321 -0.854044 0
M  V30 3020 C 288.662 1.69024 0.191049 0
M  V30 3021 O 289.847 1.94141 0.0476779 0
M  V30 3022 C 286.977 3.45719 -0.330983 0
M  V30 3023 C 285.931 4.07409 -1.31155 0
M  V30 3024 C 285.257 5.30762 -0.64778 0
M  V30 3025 C 286.557 4.48665 -2.67388 0
M  V30 3026 H 288.251 2.41845 -1.76498 0
M  V30 3027 H 285.797 1.16233 -0.850051 0
M  V30 3028 H 287.75 4.21241 -0.115645 0
M  V30 3029 H 286.474 3.2075 0.615381 0
M  V30 3030 H 285.133 3.33919 -1.51306 0
M  V30 3031 H 284.781 5.02078 0.304398 0
M  V30 3032 H 284.481 5.72992 -1.30207 0
M  V30 3033 H 286.005 6.08998 -0.441972 0
M  V30 3034 H 287.419 5.15364 -2.51143 0
M  V30 3035 H 285.816 5.01814 -3.29093 0
M  V30 3036 H 286.886 3.60543 -3.24248 0
M  V30 3037 N 288.23 0.939286 1.26551 0
M  V30 3038 C 289.162 0.404704 2.25599 0
M  V30 3039 C 290.175 -0.470983 1.55838 0
M  V30 3040 O 291.364 -0.281734 1.76263 0
M  V30 3041 C 288.464 -0.43764 3.36062 0
M  V30 3042 C 287.637 0.421449 4.35365 0
M  V30 3043 C 286.696 -0.36015 5.24966 0
M  V30 3044 O 285.722 0.236167 5.6871 0
M  V30 3045 N 286.924 -1.65715 5.56344 0
M  V30 3046 H 289.689 1.25618 2.72103 0
M  V30 3047 H 287.25 0.807963 1.40298 0
M  V30 3048 H 289.242 -0.967866 3.92956 0
M  V30 3049 H 287.812 -1.18991 2.89067 0
M  V30 3050 H 287.032 1.1329 3.7757 0
M  V30 3051 H 288.32 1.00835 4.98708 0
M  V30 3052 H 287.718 -2.16378 5.22682 0
M  V30 3053 H 286.275 -2.13366 6.15888 0
M  V30 3054 N 289.708 -1.40897 0.706093 0
M  V30 3055 C 290.671 -2.29131 0.0562841 0
M  V30 3056 C 291.671 -1.44901 -0.697166 0
M  V30 3057 O 292.861 -1.65926 -0.530484 0
M  V30 3058 C 289.993 -3.27957 -0.93043 0
M  V30 3059 H 291.186 -2.88091 0.833284 0
M  V30 3060 H 288.739 -1.4906 0.470192 0
M  V30 3061 H 289.474 -2.73997 -1.73482 0
M  V30 3062 H 289.259 -3.90124 -0.393166 0
M  V30 3063 H 290.749 -3.94049 -1.38256 0
M  V30 3064 N 291.186 -0.45159 -1.50991 0
M  V30 3065 C 292.116 0.342898 -2.30969 0
M  V30 3066 C 293.097 1.00815 -1.37005 0
M  V30 3067 O 294.282 1.00907 -1.65926 0
M  V30 3068 C 291.412 1.43637 -3.16205 0
M  V30 3069 C 290.366 0.893818 -4.18563 0
M  V30 3070 C 289.692 2.08411 -4.92411 0
M  V30 3071 C 290.992 -0.0815568 -5.22236 0
M  V30 3072 H 292.686 -0.324556 -2.97636 0
M  V30 3073 H 290.232 -0.157531 -1.43136 0
M  V30 3074 H 292.185 1.9995 -3.70942 0
M  V30 3075 H 290.909 2.13232 -2.47386 0
M  V30 3076 H 289.568 0.352798 -3.64898 0
M  V30 3077 H 289.216 2.76658 -4.20082 0
M  V30 3078 H 288.916 1.72741 -5.61636 0
M  V30 3079 H 290.44 2.65251 -5.49976 0
M  V30 3080 H 291.854 0.391742 -5.7196 0
M  V30 3081 H 290.251 -0.351551 -5.99069 0
M  V30 3082 H 291.321 -1.01374 -4.74185 0
M  V30 3083 N 292.664 1.56529 -0.183458 0
M  V30 3084 C 293.892 2.01623 0.464285 0
M  V30 3085 C 294.307 1.06366 1.55986 0
M  V30 3086 O 293.664 0.0665398 1.82379 0
M  V30 3087 C 293.715 3.46475 1.03139 0
M  V30 3088 O 293.436 4.38095 -0.0204675 0
M  V30 3089 C 294.937 4.0703 1.75617 0
M  V30 3090 H 292.157 0.660596 0.117704 0
M  V30 3091 H 294.701 2.02451 -0.288751 0
M  V30 3092 H 292.856 3.46383 1.73486 0
M  V30 3093 H 293.27 5.22973 0.399952 0
M  V30 3094 H 294.744 5.10271 2.10542 0
M  V30 3095 H 295.221 3.49819 2.65563 0
M  V30 3096 H 295.827 4.1086 1.09882 0
M  V30 3097 N 294.142 -0.090211 1.57342 0
M  V30 3098 C 295.072 -1.10976 2.05443 0
M  V30 3099 C 296.053 -1.41482 0.944284 0
M  V30 3100 O 297.238 -1.51428 1.21586 0
M  V30 3101 C 294.368 -2.42831 2.48295 0
M  V30 3102 C 293.322 -2.26721 3.63018 0
M  V30 3103 C 292.648 -3.63796 3.91863 0
M  V30 3104 C 293.948 -1.7037 4.93732 0
M  V30 3105 H 295.642 -0.709564 2.9087 0
M  V30 3106 H 293.188 -0.339874 1.39932 0
M  V30 3107 H 295.141 -3.14431 2.80555 0
M  V30 3108 H 293.865 -2.84795 1.59873 0
M  V30 3109 H 292.524 -1.57565 3.31012 0
M  V30 3110 H 292.172 -4.03297 3.00601 0
M  V30 3111 H 291.872 -3.53861 4.69101 0
M  V30 3112 H 293.396 -4.36855 4.26603 0
M  V30 3113 H 294.81 -2.31816 5.24342 0
M  V30 3114 H 293.207 -1.71181 5.75167 0
M  V30 3115 H 294.277 -0.663542 4.80339 0
M  V30 3116 N 295.62 -1.53406 -0.361157 0
M  V30 3117 C 296.868 -1.69467 -1.10115 0
M  V30 3118 C 297.189 -0.451352 -1.89705 0
M  V30 3119 O 296.459 0.534636 -1.88463 0
M  V30 3120 H 295.039 -0.624749 -0.409508 0
M  V30 3121 H 297.701 -1.90609 -0.406699 0
M  V30 3122 H 296.797 -2.55774 -1.78847 0
M  V30 3123 N 297.098 0.621204 -1.44841 0
M  V30 3124 C 298.375 1.38 -1.38619 0
M  V30 3125 C 298.755 2.11041 -0.0498935 0
M  V30 3126 O 298.103 2.06992 0.967816 0
M  V30 3127 C 298.313 2.33817 -2.59096 0
M  V30 3128 C 299.661 2.96844 -3.03593 0
M  V30 3129 O 300.685 2.44141 -2.59371 0
M  V30 3130 O 299.544 3.92476 -3.80296 0
M  V30 3131 H 296.638 0.61811 -0.549426 0
M  V30 3132 H 299.184 0.645429 -1.56947 0
M  V30 3133 H 297.956 1.79012 -3.47952 0
M  V30 3134 H 297.579 3.14676 -2.43032 0
M  V30 3135 N 298.576 1.31904 0.862503 0
M  V30 3136 C 299.539 1.20131 1.95195 0
M  V30 3137 C 300.539 0.126409 1.60302 0
M  V30 3138 O 301.729 0.376234 1.70089 0
M  V30 3139 C 298.861 0.845691 3.30244 0
M  V30 3140 H 300.054 2.16943 2.07064 0
M  V30 3141 H 297.607 1.15622 1.05172 0
M  V30 3142 H 298.342 -0.120957 3.24074 0
M  V30 3143 H 298.127 1.62276 3.56944 0
M  V30 3144 H 299.617 0.787418 4.10109 0
M  V30 3145 N 300.054 -1.07777 1.14986 0
M  V30 3146 C 300.984 -2.16865 0.865557 0
M  V30 3147 C 301.965 -1.69123 -0.182083 0
M  V30 3148 O 303.15 -1.94164 -0.0373815 0
M  V30 3149 C 300.28 -3.45539 0.349313 0
M  V30 3150 C 299.234 -4.06708 1.33313 0
M  V30 3151 C 298.56 -5.30411 0.675918 0
M  V30 3152 C 299.86 -4.47241 2.69764 0
M  V30 3153 H 301.554 -2.40905 1.77778 0
M  V30 3154 H 299.1 -1.15781 0.856203 0
M  V30 3155 H 301.053 -4.21174 0.137983 0
M  V30 3156 H 299.777 -3.21072 -0.598362 0
M  V30 3157 H 298.436 -3.33112 1.53075 0
M  V30 3158 H 298.084 -5.02232 -0.277767 0
M  V30 3159 H 297.784 -5.72293 1.33244 0
M  V30 3160 H 299.308 -6.08755 0.474262 0
M  V30 3161 H 300.722 -5.14025 2.53873 0
M  V30 3162 H 299.119 -5.00062 3.3175 0
M  V30 3163 H 300.189 -3.58818 3.26156 0
M  V30 3164 N 301.532 -0.945985 -1.26051 0
M  V30 3165 C 302.78 -0.594941 -1.93145 0
M  V30 3166 C 303.101 0.86953 -1.7454 0
M  V30 3167 O 302.371 1.61838 -1.10387 0
M  V30 3168 H 300.951 -0.217044 -0.714773 0
M  V30 3169 H 303.613 -1.20235 -1.53393 0
M  V30 3170 H 302.709 -0.816835 -3.01221 0
M  V30 3171 N 303.011 1.40521 -0.713556 0
M  V30 3172 C 303.943 2.29191 -0.0203126 0
M  V30 3173 C 304.956 1.45723 0.725864 0
M  V30 3174 O 306.145 1.69033 0.573581 0
M  V30 3175 C 303.245 3.2395 0.995486 0
M  V30 3176 C 302.418 4.36262 0.315256 0
M  V30 3177 C 301.477 5.11474 1.23616 0
M  V30 3178 O 300.503 5.64606 0.721719 0
M  V30 3179 N 301.705 5.20638 2.56743 0
M  V30 3180 H 304.47 2.89327 -0.781652 0
M  V30 3181 H 302.031 1.51869 -0.561022 0
M  V30 3182 H 304.023 3.71137 1.61368 0
M  V30 3183 H 302.593 2.64995 1.6582 0
M  V30 3184 H 301.813 3.91228 -0.483106 0
M  V30 3185 H 303.101 5.08558 -0.157004 0
M  V30 3186 H 302.499 4.7895 3.01037 0
M  V30 3187 H 301.056 5.71339 3.13712 0
M  V30 3188 N 304.489 0.459591 1.5075 0
M  V30 3189 C 305.714 -0.0996819 2.0716 0
M  V30 3190 C 306.139 -1.33761 1.32249 0
M  V30 3191 O 305.497 -1.77551 0.366786 0
M  V30 3192 C 305.545 -0.378226 3.58611 0
M  V30 3193 O 304.649 -1.46081 3.85661 0
M  V30 3194 H 303.99 0.00791392 0.663953 0
M  V30 3195 H 306.52 0.647329 1.9409 0
M  V30 3196 H 306.53 -0.622135 4.03229 0
M  V30 3197 H 305.205 0.526439 4.12555 0
M  V30 3198 H 303.782 -1.20511 3.5289 0
M  V30 3199 N 305.967 -1.56429 0.191757 0
M  V30 3200 C 306.899 -2.16154 -0.762245 0
M  V30 3201 C 307.912 -1.12247 -1.17917 0
M  V30 3202 O 309.101 -1.39353 -1.11548 0
M  V30 3203 C 306.201 -2.70606 -2.04024 0
M  V30 3204 C 305.374 -3.99381 -1.78364 0
M  V30 3205 C 304.433 -4.38692 -2.90578 0
M  V30 3206 O 303.459 -5.06179 -2.6033 0
M  V30 3207 N 304.661 -4.01922 -4.18854 0
M  V30 3208 H 307.426 -2.98643 -0.251526 0
M  V30 3209 H 304.987 -1.61897 0.00967373 0
M  V30 3210 H 306.979 -2.93891 -2.78227 0
M  V30 3211 H 305.549 -1.9259 -2.46227 0
M  V30 3212 H 304.769 -3.84262 -0.879581 0
M  V30 3213 H 306.057 -4.83445 -1.58614 0
M  V30 3214 H 305.455 -3.47631 -4.46283 0
M  V30 3215 H 304.012 -4.30165 -4.89695 0
M  V30 3216 N 307.445 0.0818655 -1.57387 0
M  V30 3217 C 308.861 0.436412 -1.53517 0
M  V30 3218 C 309.061 1.79758 -0.910459 0
M  V30 3219 O 308.117 2.47324 -0.508636 0
M  V30 3220 C 309.43 0.386734 -2.98203 0
M  V30 3221 C 310.978 0.467644 -3.09487 0
M  V30 3222 C 311.453 0.447978 -4.55804 0
M  V30 3223 N 312.944 0.508348 -4.60402 0
M  V30 3224 C 313.679 0.515184 -5.71081 0
M  V30 3225 N 313.175 0.477435 -6.91153 0
M  V30 3226 N 314.968 0.560988 -5.59294 0
M  V30 3227 H 307.119 -0.809546 -1.96367 0
M  V30 3228 H 309.382 -0.302733 -0.898363 0
M  V30 3229 H 309.088 -0.546539 -3.47427 0
M  V30 3230 H 308.962 1.20075 -3.57578 0
M  V30 3231 H 311.349 1.39134 -2.60242 0
M  V30 3232 H 311.43 -0.374753 -2.5304 0
M  V30 3233 H 311.074 -0.471826 -5.05704 0
M  V30 3234 H 311.004 1.30777 -5.10103 0
M  V30 3235 H 313.495 0.54218 -3.7399 0
M  V30 3236 H 313.808 0.486299 -7.71268 0
M  V30 3237 H 312.153 0.444278 -6.93579 0
M  V30 3238 H 315.344 0.5881 -4.64391 0
M  V30 3239 H 315.517 0.562846 -6.45551 0
M  V30 3240 N 308.923 1.53595 0.353017 0
M  V30 3241 C 309.855 1.77219 1.45348 0
M  V30 3242 C 310.868 0.65324 1.49119 0
M  V30 3243 O 312.057 0.929775 1.52373 0
M  V30 3244 C 309.157 1.84841 2.84055 0
M  V30 3245 C 308.33 3.14649 3.03833 0
M  V30 3246 C 307.389 3.13351 4.22727 0
M  V30 3247 O 306.415 3.87107 4.17297 0
M  V30 3248 N 307.617 2.35052 5.30783 0
M  V30 3249 H 310.382 2.72178 1.25457 0
M  V30 3250 H 307.943 1.52528 0.542833 0
M  V30 3251 H 309.935 1.81435 3.61751 0
M  V30 3252 H 308.505 0.971114 2.97133 0
M  V30 3253 H 307.725 3.31256 2.13689 0
M  V30 3254 H 309.013 4.00411 3.13925 0
M  V30 3255 H 308.411 1.74663 5.38061 0
M  V30 3256 H 306.968 2.37453 6.07009 0
M  V30 3257 N 310.401 -0.613514 1.45168 0
M  V30 3258 C 311.333 -1.73825 1.4939 0
M  V30 3259 C 312.346 -1.58175 0.385304 0
M  V30 3260 O 313.535 -1.66165 0.652036 0
M  V30 3261 C 310.635 -3.11758 1.32891 0
M  V30 3262 C 309.808 -3.53704 2.57317 0
M  V30 3263 C 308.867 -4.70579 2.35462 0
M  V30 3264 O 307.893 -4.77996 3.09044 0
M  V30 3265 N 309.095 -5.63454 1.39644 0
M  V30 3266 H 311.86 -1.70669 2.46358 0
M  V30 3267 H 309.421 -0.79862 1.40832 0
M  V30 3268 H 311.413 -3.87692 1.1609 0
M  V30 3269 H 309.983 -3.09456 0.442218 0
M  V30 3270 H 309.203 -2.67794 2.89275 0
M  V30 3271 H 310.491 -3.78486 3.40038 0
M  V30 3272 H 309.889 -5.6017 0.789062 0
M  V30 3273 H 308.446 -6.38944 1.28816 0
M  V30 3274 N 311.879 -1.3236 -0.855495 0
M  V30 3275 C 312.809 -1.23833 -1.97958 0
M  V30 3276 C 313.79 -0.122361 -1.69659 0
M  V30 3277 O 314.975 -0.30939 -1.9172 0
M  V30 3278 C 312.105 -0.959772 -3.33775 0
M  V30 3279 C 311.059 -2.03689 -3.76424 0
M  V30 3280 C 310.385 -1.61075 -5.09862 0
M  V30 3281 C 311.685 -3.4518 -3.9198 0
M  V30 3282 H 313.379 -2.1788 -2.0535 0
M  V30 3283 H 310.925 -1.04891 -0.986605 0
M  V30 3284 H 312.878 -0.886678 -4.11966 0
M  V30 3285 H 311.602 0.0163404 -3.26596 0
M  V30 3286 H 310.261 -2.10012 -3.00484 0
M  V30 3287 H 309.909 -0.622107 -4.99138 0
M  V30 3288 H 309.609 -2.33143 -5.39368 0
M  V30 3289 H 311.133 -1.55201 -5.90546 0
M  V30 3290 H 312.547 -3.4145 -4.60526 0
M  V30 3291 H 310.944 -4.1559 -4.32903 0
M  V30 3292 H 312.014 -3.84903 -2.94919 0
M  V30 3293 N 313.357 1.07166 -1.15556 0
M  V30 3294 C 314.603 1.80065 -0.932984 0
M  V30 3295 C 314.936 1.86586 0.53845 0
M  V30 3296 O 314.211 1.35098 1.39924 0
M  V30 3297 C 314.494 3.25022 -1.55025 0
M  V30 3298 C 314.347 3.26634 -3.09242 0
M  V30 3299 C 315.666 4.22341 -1.2376 0
M  V30 3300 H 312.785 0.653697 -0.340366 0
M  V30 3301 H 315.427 1.25389 -1.4275 0
M  V30 3302 H 313.577 3.71712 -1.12972 0
M  V30 3303 H 315.249 2.88173 -3.60214 0
M  V30 3304 H 313.492 2.65539 -3.43033 0
M  V30 3305 H 314.163 4.28854 -3.47546 0
M  V30 3306 H 316.639 3.8405 -1.60139 0
M  V30 3307 H 315.515 5.22053 -1.69564 0
M  V30 3308 H 315.776 4.41828 -0.154938 0
M  V30 3309 N 314.835 0.952656 1.25548 0
M  V30 3310 C 316.063 0.623496 1.97282 0
M  V30 3311 C 316.478 -0.803987 1.70826 0
M  V30 3312 O 315.835 -1.53755 0.983147 0
M  V30 3313 C 315.886 0.870209 3.5087 0
M  V30 3314 O 315.607 2.24156 3.76412 0
M  V30 3315 C 317.108 0.553164 4.39835 0
M  V30 3316 H 314.328 0.233931 0.628902 0
M  V30 3317 H 316.872 1.27649 1.59768 0
M  V30 3318 H 315.027 0.263652 3.86502 0
M  V30 3319 H 315.441 2.31021 4.70882 0
M  V30 3320 H 316.915 0.776342 5.46513 0
M  V30 3321 H 317.392 -0.512215 4.36203 0
M  V30 3322 H 317.998 1.13896 4.09766 0
M  V30 3323 N 316.313 -1.40141 0.720998 0
M  V30 3324 C 317.559 -2.01572 0.272075 0
M  V30 3325 C 317.914 -1.5616 -1.12391 0
M  V30 3326 O 317.207 -0.774198 -1.75262 0
M  V30 3327 C 317.401 -3.56165 0.296892 0
M  V30 3328 C 317.23 -4.16584 1.69375 0
M  V30 3329 C 316 -4.49783 2.30269 0
M  V30 3330 C 318.198 -4.41076 2.64493 0
M  V30 3331 N 316.18 -4.95626 3.62254 0
M  V30 3332 C 317.551 -4.88971 3.81192 0
M  V30 3333 C 319.606 -4.23122 2.62435 0
M  V30 3334 C 318.309 -5.20796 4.96149 0
M  V30 3335 C 320.335 -4.56052 3.76524 0
M  V30 3336 C 319.697 -5.04141 4.91956 0
M  V30 3337 H 315.796 -0.768343 0.145511 0
M  V30 3338 H 318.38 -1.70287 0.943959 0
M  V30 3339 H 316.551 -3.86868 -0.344578 0
M  V30 3340 H 318.283 -4.04346 -0.169254 0
M  V30 3341 H 315.038 -4.37101 1.82318 0
M  V30 3342 H 315.462 -5.22923 4.29977 0
M  V30 3343 H 320.104 -3.85158 1.74393 0
M  V30 3344 H 317.822 -5.57672 5.84831 0
M  V30 3345 H 321.408 -4.43796 3.76213 0
M  V30 3346 H 320.288 -5.29142 5.78774 0
M  V30 3347 N 317.792 -0.46758 -1.50504 0
M  V30 3348 C 318.722 0.318381 -2.31319 0
M  V30 3349 C 319.703 0.993564 -1.38066 0
M  V30 3350 O 320.888 0.991411 -1.66987 0
M  V30 3351 C 318.018 1.40275 -3.17711 0
M  V30 3352 C 316.972 0.849373 -4.19487 0
M  V30 3353 C 316.298 2.03177 -4.94594 0
M  V30 3354 C 317.598 -0.136942 -5.2212 0
M  V30 3355 H 319.292 -0.356106 -2.97275 0
M  V30 3356 H 316.838 -0.172703 -1.42961 0
M  V30 3357 H 318.791 1.96004 -3.73042 0
M  V30 3358 H 317.515 2.10596 -2.49634 0
M  V30 3359 H 316.174 0.314076 -3.65252 0
M  V30 3360 H 315.822 2.72187 -4.22993 0
M  V30 3361 H 315.522 1.66774 -5.63436 0
M  V30 3362 H 317.046 2.59403 -5.52759 0
M  V30 3363 H 318.46 0.331056 -5.72343 0
M  V30 3364 H 316.857 -0.41507 -5.98663 0
M  V30 3365 H 317.927 -1.06398 -4.73083 0
M  V30 3366 N 319.27 1.56325 -0.20005 0
M  V30 3367 C 320.217 2.1932 0.718833 0
M  V30 3368 C 321.187 1.14198 1.20615 0
M  V30 3369 O 322.372 1.42469 1.26914 0
M  V30 3370 C 319.512 2.86041 1.93066 0
M  V30 3371 C 318.625 4.05702 1.48425 0
M  V30 3372 C 317.76 4.60266 2.65196 0
M  V30 3373 C 316.799 5.72273 2.17185 0
M  V30 3374 N 315.936 6.21221 3.27152 0
M  V30 3375 H 320.776 2.97486 0.17489 0
M  V30 3376 H 318.313 1.46911 0.0745794 0
M  V30 3377 H 320.271 3.22897 2.64184 0
M  V30 3378 H 318.901 2.1043 2.44783 0
M  V30 3379 H 317.953 3.74475 0.668755 0
M  V30 3380 H 319.265 4.86699 1.09204 0
M  V30 3381 H 318.419 4.99453 3.4443 0
M  V30 3382 H 317.158 3.78386 3.07693 0
M  V30 3383 H 316.163 5.3261 1.36407 0
M  V30 3384 H 317.388 6.55974 1.75713 0
M  V30 3385 H 315.334 5.42263 3.69171 0
M  V30 3386 H 315.251 6.97284 2.92116 0
M  V30 3387 H 316.519 6.65063 4.06585 0
M  V30 3388 N 320.748 -0.0735177 1.57428 0
M  V30 3389 C 321.996 -0.771472 1.86796 0
M  V30 3390 C 322.317 -1.78201 0.791804 0
M  V30 3391 O 321.587 -1.95074 -0.179718 0
M  V30 3392 H 320.167 -0.28791 0.689287 0
M  V30 3393 H 322.829 -0.0500161 1.94836 0
M  V30 3394 H 321.925 -1.28874 2.8425 0
M  V30 3395 N 322.226 -1.5378 -0.344866 0
M  V30 3396 C 323.174 -1.82373 -1.4437 0
M  V30 3397 C 324.168 -0.694128 -1.54526 0
M  V30 3398 O 325.374 -0.877442 -1.57165 0
M  V30 3399 H 321.749 -0.577765 -0.481344 0
M  V30 3400 H 323.72 -2.74306 -1.17468 0
M  V30 3401 C 322.469 -2.04898 -2.80913 0
M  V30 3402 H 321.792 -2.9127 -2.73865 0
M  V30 3403 H 323.232 -2.28871 -3.56923 0
M  V30 3404 C 321.691 -0.834116 -3.26411 0
M  V30 3405 O 322.221 -0.0328885 -4.01687 0
M  V30 3406 N 320.427 -0.65171 -2.83198 0
M  V30 3407 H 319.974 -1.30489 -2.22104 0
M  V30 3408 H 319.932 0.159686 -3.13994 0
M  V30 3409 N 323.704 0.605807 -1.45491 0
M  V30 3410 C 324.932 1.39136 -1.5313 0
M  V30 3411 C 325.347 1.88082 -0.164507 0
M  V30 3412 O 324.704 1.62316 0.834247 0
M  V30 3413 C 324.755 2.59463 -2.51716 0
M  V30 3414 O 324.476 2.12551 -3.83084 0
M  V30 3415 C 325.977 3.52301 -2.6907 0
M  V30 3416 H 323.197 0.425849 -0.51855 0
M  V30 3417 H 325.741 0.73865 -1.90694 0
M  V30 3418 H 323.896 3.20772 -2.17219 0
M  V30 3419 H 324.31 2.90744 -4.36541 0
M  V30 3420 H 325.784 4.33271 -3.42024 0
M  V30 3421 H 326.261 4.02757 -1.75167 0
M  V30 3422 H 326.867 2.96845 -3.04571 0
M  V30 3423 N 325.182 1.32811 0.848464 0
M  V30 3424 C 326.41 1.26739 1.63538 0
M  V30 3425 C 326.825 -0.163484 1.88091 0
M  V30 3426 O 326.182 -1.10258 1.45429 0
M  V30 3427 C 326.233 2.03013 2.99112 0
M  V30 3428 O 325.954 3.40518 2.75643 0
M  V30 3429 C 327.455 2.04038 3.93552 0
M  V30 3430 H 324.675 0.437024 0.509167 0
M  V30 3431 H 327.219 1.75033 1.05753 0
M  V30 3432 H 325.374 1.58426 3.53525 0
M  V30 3433 H 325.788 3.79635 3.61908 0
M  V30 3434 H 327.262 2.61877 4.85926 0
M  V30 3435 H 327.739 1.0282 4.26995 0
M  V30 3436 H 328.345 2.486 3.45077 0
M  V30 3437 N 326.66 -1.06551 1.16123 0
M  V30 3438 C 327.908 -1.78947 0.939267 0
M  V30 3439 C 328.229 -1.87532 -0.534476 0
M  V30 3440 O 327.499 -1.38211 -1.38833 0
M  V30 3441 H 326.079 -0.662807 0.344523 0
M  V30 3442 H 328.741 -1.28725 1.46342 0
M  V30 3443 H 327.837 -2.81117 1.35572 0
M  V30 3444 N 328.138 -0.959301 -1.25041 0
M  V30 3445 C 329.415 -0.533805 -1.88175 0
M  V30 3446 C 329.795 0.988994 -1.865 0
M  V30 3447 O 329.143 1.85677 -1.33177 0
M  V30 3448 C 329.353 -1.11575 -3.30684 0
M  V30 3449 C 330.701 -1.19548 -4.07423 0
M  V30 3450 O 331.725 -1.06765 -3.39823 0
M  V30 3451 O 330.584 -1.39656 -5.28354 0
M  V30 3452 H 327.678 -0.176772 -0.807887 0
M  V30 3453 H 330.224 -1.05303 -1.33076 0
M  V30 3454 H 328.996 -2.15884 -3.26358 0
M  V30 3455 H 328.619 -0.580059 -3.93346 0
M  V30 3456 N 329.616 1.39756 -0.72842 0
M  V30 3457 C 330.566 2.2792 -0.0603424 0
M  V30 3458 C 331.55 1.43922 0.719399 0
M  V30 3459 O 332.742 1.66895 0.589489 0
M  V30 3460 C 329.871 3.32582 0.851104 0
M  V30 3461 C 328.957 4.24049 0.0658641 0
M  V30 3462 N 329.348 4.96653 -0.957578 0
M  V30 3463 C 327.646 4.45013 0.296509 0
M  V30 3464 C 328.347 5.63836 -1.43052 0
M  V30 3465 N 327.323 5.38397 -0.750315 0
M  V30 3466 H 331.125 2.81504 -0.84455 0
M  V30 3467 H 328.639 1.5236 -0.562155 0
M  V30 3468 H 330.636 3.94603 1.34514 0
M  V30 3469 H 329.296 2.80558 1.63454 0
M  V30 3470 H 330.307 5.00297 -1.33877 0
M  V30 3471 H 326.984 4.03943 1.05527 0
M  V30 3472 H 328.374 6.31974 -2.28163 0
M  V30 3473 N 331.094 0.475555 1.50254 0
M  V30 3474 C 332.319 -0.0777042 2.07254 0
M  V30 3475 C 332.744 -1.3235 1.3366 0
M  V30 3476 O 332.102 -1.77152 0.385597 0
M  V30 3477 C 332.15 -0.340169 3.58992 0
M  V30 3478 O 331.254 -1.41982 3.87188 0
M  V30 3479 H 330.595 0.0149556 0.663832 0
M  V30 3480 H 333.125 0.667878 1.93392 0
M  V30 3481 H 333.135 -0.579332 4.03866 0
M  V30 3482 H 331.81 0.570167 4.11973 0
M  V30 3483 H 330.387 -1.16762 3.54148 0
M  V30 3484 N 332.573 -1.56217 0.208337 0
M  V30 3485 C 333.822 -1.97124 -0.427204 0
M  V30 3486 C 334.135 -1.09859 -1.61835 0
M  V30 3487 O 335.341 -1.40606 -2.32255 0
M  V30 3488 C 333.797 -3.50633 -0.811442 0
M  V30 3489 C 333.405 -4.46582 0.35615 0
M  V30 3490 C 335.149 -4.00282 -1.41332 0
M  V30 3491 C 333.056 -5.91379 -0.0497852 0
M  V30 3492 H 331.986 -0.736086 -0.163381 0
M  V30 3493 H 334.637 -1.8099 0.302456 0
M  V30 3494 H 333.019 -3.62319 -1.59815 0
M  V30 3495 H 334.193 -4.46636 1.1337 0
M  V30 3496 H 332.508 -4.07202 0.870396 0
M  V30 3497 H 335.105 -5.0595 -1.72972 0
M  V30 3498 H 335.448 -3.45359 -2.32449 0
M  V30 3499 H 335.981 -3.91764 -0.690323 0
M  V30 3500 H 332.72 -6.50255 0.827529 0
M  V30 3501 H 332.24 -5.94549 -0.791926 0
M  V30 3502 H 333.919 -6.45209 -0.481042 0
M  V30 3503 N 334.051 0.0651679 -1.57465 0
M  V30 3504 C 334.998 1.07675 -2.04144 0
M  V30 3505 C 335.968 1.38071 -0.923335 0
M  V30 3506 O 337.153 1.49026 -1.19146 0
M  V30 3507 C 334.293 2.38337 -2.49579 0
M  V30 3508 C 333.406 2.14413 -3.75035 0
M  V30 3509 C 332.541 3.38686 -4.09225 0
M  V30 3510 C 331.58 3.10156 -5.27702 0
M  V30 3511 N 330.717 4.26778 -5.57499 0
M  V30 3512 H 335.557 0.671716 -2.90331 0
M  V30 3513 H 333.094 0.3201 -1.43575 0
M  V30 3514 H 335.052 3.14632 -2.73975 0
M  V30 3515 H 333.682 2.7663 -1.6636 0
M  V30 3516 H 332.734 1.2878 -3.57939 0
M  V30 3517 H 334.046 1.89344 -4.61466 0
M  V30 3518 H 333.2 4.23373 -4.34558 0
M  V30 3519 H 331.939 3.66837 -3.21374 0
M  V30 3520 H 330.944 2.23866 -5.02159 0
M  V30 3521 H 332.169 2.8332 -6.17176 0
M  V30 3522 H 330.115 4.54948 -4.72608 0
M  V30 3523 H 330.032 4.05005 -6.38362 0
M  V30 3524 H 331.3 5.12443 -5.87386 0
M  V30 3525 N 335.529 1.53961 0.336706 0
M  V30 3526 C 336.492 1.81724 1.39675 0
M  V30 3527 C 337.492 0.688532 1.45313 0
M  V30 3528 O 338.682 0.956829 1.45569 0
M  V30 3529 C 335.814 1.96543 2.78538 0
M  V30 3530 H 337.007 2.76424 1.16318 0
M  V30 3531 H 334.56 1.45478 0.571474 0
M  V30 3532 H 335.295 1.0401 3.07168 0
M  V30 3533 H 335.08 2.78665 2.75841 0
M  V30 3534 H 336.57 2.19516 3.5525 0
M  V30 3535 N 337.007 -0.598083 1.45811 0
M  V30 3536 C 338.255 -1.35413 1.50026 0
M  V30 3537 C 338.576 -1.94444 0.147177 0
M  V30 3538 O 337.846 -1.77701 -0.824571 0
M  V30 3539 H 336.426 -0.502727 0.552517 0
M  V30 3540 H 339.088 -0.701606 1.81834 0
M  V30 3541 H 338.184 -2.16871 2.2444 0
M  V30 3542 N 338.485 -1.33259 -0.841409 0
M  V30 3543 C 339.415 -1.25926 -1.96634 0
M  V30 3544 C 340.396 -0.140349 -1.6952 0
M  V30 3545 O 341.581 -0.329707 -1.91381 0
M  V30 3546 C 338.711 -0.99512 -3.32738 0
M  V30 3547 C 337.665 -2.0767 -3.74242 0
M  V30 3548 C 336.991 -1.66474 -5.08125 0
M  V30 3549 C 338.291 -3.49318 -3.88297 0
M  V30 3550 H 339.985 -2.20046 -2.03027 0
M  V30 3551 H 337.531 -1.05931 -0.975425 0
M  V30 3552 H 339.484 -0.930323 -4.11002 0
M  V30 3553 H 338.208 -0.0183004 -3.26595 0
M  V30 3554 H 336.867 -2.13187 -2.98239 0
M  V30 3555 H 336.515 -0.675012 -4.9845 0
M  V30 3556 H 336.215 -2.3885 -5.36865 0
M  V30 3557 H 337.739 -1.61455 -5.88867 0
M  V30 3558 H 339.153 -3.46316 -4.56879 0
M  V30 3559 H 337.55 -4.20158 -4.28471 0
M  V30 3560 H 338.62 -3.8801 -2.9082 0
M  V30 3561 N 339.963 1.05934 -1.16686 0
M  V30 3562 C 341.374 1.60263 -0.957745 0
M  V30 3563 C 341.725 1.89789 0.49745 0
M  V30 3564 O 340.85 1.67401 1.37135 0
M  V30 3565 C 341.445 2.91172 -1.73218 0
M  V30 3566 C 340.004 3.42188 -1.56794 0
M  V30 3567 C 339.151 2.16028 -1.73859 0
M  V30 3568 H 342.102 0.888392 -1.31504 0
M  V30 3569 H 342.123 3.60744 -1.21014 0
M  V30 3570 H 341.635 2.6965 -2.79124 0
M  V30 3571 H 339.736 3.68762 -0.533437 0
M  V30 3572 H 339.849 4.17273 -2.35414 0
M  V30 3573 H 338.213 2.26426 -1.16633 0
M  V30 3574 H 338.996 1.96985 -2.81161 0
M  V30 3575 N 341.441 0.965919 1.2453 0
M  V30 3576 C 342.388 0.49402 2.25451 0
M  V30 3577 C 343.358 -0.45948 1.59618 0
M  V30 3578 O 344.543 -0.370238 1.87173 0
M  V30 3579 C 341.683 -0.211359 3.44452 0
M  V30 3580 C 340.796 0.7807 4.24887 0
M  V30 3581 C 339.931 0.0516105 5.31175 0
M  V30 3582 C 338.97 1.03385 6.03306 0
M  V30 3583 N 338.107 0.334887 7.01301 0
M  V30 3584 H 342.947 1.35946 2.65184 0
M  V30 3585 H 340.484 0.681515 1.3036 0
M  V30 3586 H 342.442 -0.637 4.12308 0
M  V30 3587 H 341.072 -1.04077 3.05562 0
M  V30 3588 H 340.124 1.32479 3.56586 0
M  V30 3589 H 341.436 1.52978 4.74762 0
M  V30 3590 H 340.59 -0.432114 6.05159 0
M  V30 3591 H 339.329 -0.730179 4.82203 0
M  V30 3592 H 338.334 1.52847 5.28127 0
M  V30 3593 H 339.559 1.81606 6.54367 0
M  V30 3594 H 337.505 -0.427959 6.54603 0
M  V30 3595 H 337.422 1.02287 7.49048 0
M  V30 3596 H 338.69 -0.126928 7.79397 0
M  V30 3597 N 342.919 -1.39368 0.735821 0
M  V30 3598 C 343.869 -2.27885 0.0724287 0
M  V30 3599 C 344.853 -1.44301 -0.711756 0
M  V30 3600 O 346.045 -1.67206 -0.58063 0
M  V30 3601 C 343.174 -3.33029 -0.833454 0
M  V30 3602 C 342.26 -4.24078 -0.0433749 0
M  V30 3603 N 342.651 -4.96138 0.983903 0
M  V30 3604 C 340.949 -4.45164 -0.272905 0
M  V30 3605 C 341.65 -5.63069 1.4604 0
M  V30 3606 N 340.626 -5.37991 0.778857 0
M  V30 3607 H 344.428 -2.81052 0.859467 0
M  V30 3608 H 341.942 -1.5206 0.570227 0
M  V30 3609 H 343.939 -3.95311 -1.32419 0
M  V30 3610 H 342.599 -2.81421 -1.61964 0
M  V30 3611 H 343.61 -4.9958 1.36528 0
M  V30 3612 H 340.287 -4.04497 -1.03383 0
M  V30 3613 H 341.677 -6.30755 2.31511 0
M  V30 3614 N 344.397 -0.483516 -1.5 0
M  V30 3615 C 345.643 0.0593261 -2.03313 0
M  V30 3616 C 345.998 1.36288 -1.35806 0
M  V30 3617 O 345.291 1.85519 -0.478897 0
M  V30 3618 C 345.485 0.286226 -3.56252 0
M  V30 3619 C 345.314 -0.993788 -4.38582 0
M  V30 3620 C 344.084 -1.54064 -4.81241 0
M  V30 3621 C 346.282 -1.89249 -4.78215 0
M  V30 3622 N 344.264 -2.76838 -5.47936 0
M  V30 3623 C 345.635 -2.96606 -5.44449 0
M  V30 3624 C 347.69 -1.90138 -4.60165 0
M  V30 3625 C 346.393 -4.04857 -5.94544 0
M  V30 3626 C 348.419 -2.97353 -5.1121 0
M  V30 3627 C 347.781 -4.03429 -5.77429 0
M  V30 3628 H 343.88 -0.0186322 -0.781778 0
M  V30 3629 H 346.464 -0.654489 -1.8337 0
M  V30 3630 H 344.635 0.969086 -3.76116 0
M  V30 3631 H 346.367 0.824515 -3.96212 0
M  V30 3632 H 343.122 -1.08813 -4.6093 0
M  V30 3633 H 343.546 -3.39221 -5.85882 0
M  V30 3634 H 348.188 -1.09441 -4.0839 0
M  V30 3635 H 345.906 -4.86363 -6.4535 0
M  V30 3636 H 349.492 -2.99039 -4.99066 0
M  V30 3637 H 348.372 -4.85025 -6.16214 0
M  V30 3638 N 345.875 1.56104 -0.216619 0
M  V30 3639 C 347.124 1.97348 0.416744 0
M  V30 3640 C 347.437 1.10715 1.6125 0
M  V30 3641 O 348.643 1.41836 2.31506 0
M  V30 3642 C 347.099 3.51059 0.792835 0
M  V30 3643 C 346.707 4.46387 -0.379828 0
M  V30 3644 C 348.451 4.01026 1.39208 0
M  V30 3645 C 346.358 5.91397 0.0184223 0
M  V30 3646 H 345.288 0.736942 0.159475 0
M  V30 3647 H 347.939 1.80827 -0.31205 0
M  V30 3648 H 346.321 3.63162 1.57891 0
M  V30 3649 H 347.495 4.46029 -1.15737 0
M  V30 3650 H 345.81 4.06734 -0.891979 0
M  V30 3651 H 348.407 5.0686 1.70286 0
M  V30 3652 H 348.75 3.46587 2.30614 0
M  V30 3653 H 349.283 3.92125 0.669537 0
M  V30 3654 H 346.022 6.49807 -0.862002 0
M  V30 3655 H 345.542 5.94961 0.760384 0
M  V30 3656 H 347.221 6.45455 0.446818 0
M  V30 3657 N 347.353 -0.0568162 1.57498 0
M  V30 3658 C 348.599 -0.75422 1.88253 0
M  V30 3659 C 348.932 -1.76461 0.810865 0
M  V30 3660 O 348.207 -1.93691 -0.177259 0
M  V30 3661 C 348.49 -1.44878 3.2967 0
M  V30 3662 C 348.343 -0.453789 4.47505 0
M  V30 3663 C 349.662 -2.38994 3.69554 0
M  V30 3664 H 346.781 -0.272724 0.684683 0
M  V30 3665 H 349.423 -0.0172113 1.89992 0
M  V30 3666 H 347.573 -2.077 3.28318 0
M  V30 3667 H 349.245 0.170371 4.60985 0
M  V30 3668 H 347.488 0.229552 4.33192 0
M  V30 3669 H 348.159 -0.977699 5.43273 0
M  V30 3670 H 350.635 -1.86239 3.72095 0
M  V30 3671 H 349.511 -2.84587 4.69363 0
M  V30 3672 H 349.772 -3.24461 3.00296 0
M  V30 3673 N 348.832 -1.54138 -0.328536 0
M  V30 3674 C 350.08 -1.71765 -1.06496 0
M  V30 3675 C 350.401 -0.49149 -1.88704 0
M  V30 3676 O 349.671 0.494539 -1.89555 0
M  V30 3677 H 348.251 -0.633295 -0.396164 0
M  V30 3678 H 350.913 -1.91429 -0.366176 0
M  V30 3679 H 350.009 -2.5951 -1.73381 0
M  V30 3680 N 350.31 0.590341 -1.46126 0
M  V30 3681 C 351.587 1.35029 -1.41515 0
M  V30 3682 C 351.967 2.10888 -0.0946472 0
M  V30 3683 O 351.315 2.08998 0.923693 0
M  V30 3684 C 351.525 2.28269 -2.63997 0
M  V30 3685 C 352.873 2.90338 -3.09821 0
M  V30 3686 O 353.897 2.38585 -2.64492 0
M  V30 3687 O 352.756 3.84321 -3.88535 0
M  V30 3688 H 349.85 0.606317 -0.562413 0
M  V30 3689 H 352.396 0.611994 -1.58281 0
M  V30 3690 H 351.168 1.71591 -3.51671 0
M  V30 3691 H 350.791 3.0945 -2.49652 0
M  V30 3692 N 351.788 1.33704 0.83433 0
M  V30 3693 C 352.735 1.24335 1.94447 0
M  V30 3694 C 353.705 0.120991 1.65659 0
M  V30 3695 O 354.89 0.300035 1.88426 0
M  V30 3696 C 352.03 0.993124 3.30501 0
M  V30 3697 C 351.143 2.20217 3.71657 0
M  V30 3698 C 350.278 1.88572 4.96602 0
M  V30 3699 C 349.317 3.05683 5.30306 0
M  V30 3700 N 348.454 2.73997 6.46429 0
M  V30 3701 H 353.294 2.1928 2.01792 0
M  V30 3702 H 350.831 1.09035 0.987404 0
M  V30 3703 H 352.789 0.828467 4.08892 0
M  V30 3704 H 351.419 0.0803902 3.227 0
M  V30 3705 H 350.471 2.47642 2.88752 0
M  V30 3706 H 351.783 3.07752 3.92543 0
M  V30 3707 H 350.937 1.68776 5.82752 0
M  V30 3708 H 349.676 0.982799 4.77695 0
M  V30 3709 H 348.681 3.26088 4.42659 0
M  V30 3710 H 349.906 3.96737 5.51159 0
M  V30 3711 H 347.852 1.86268 6.28999 0
M  V30 3712 H 347.769 3.55064 6.67432 0
M  V30 3713 H 349.037 2.57679 7.35678 0
M  V30 3714 N 353.266 -1.05314 1.17247 0
M  V30 3715 C 354.494 -1.81971 0.984593 0
M  V30 3716 C 354.909 -1.82929 -0.467166 0
M  V30 3717 O 354.266 -1.25564 -1.32438 0
M  V30 3718 C 354.317 -3.28143 1.51672 0
M  V30 3719 O 354.038 -3.27347 2.91163 0
M  V30 3720 C 355.539 -4.21493 1.37326 0
M  V30 3721 H 352.759 -0.573455 0.348411 0
M  V30 3722 H 355.303 -1.32808 1.55506 0
M  V30 3723 H 353.458 -3.74582 0.988302 0
M  V30 3724 H 353.872 -4.18824 3.15732 0
M  V30 3725 H 355.346 -5.22043 1.79375 0
M  V30 3726 H 355.823 -4.38031 0.320169 0
M  V30 3727 H 356.429 -3.80909 1.89178 0
M  V30 3728 N 354.744 -0.972509 -1.24016 0
M  V30 3729 C 355.992 -0.635776 -1.91839 0
M  V30 3730 C 356.313 0.832312 -1.76345 0
M  V30 3731 O 355.583 1.5946 -1.13795 0
M  V30 3732 H 354.163 -0.232157 -0.710009 0
M  V30 3733 H 356.825 -1.23462 -1.50809 0
M  V30 3734 H 355.921 -0.880545 -2.99421 0
M  V30 3735 N 356.222 1.38976 -0.743202 0
M  V30 3736 C 357.447 2.05161 -0.303936 0
M  V30 3737 C 357.872 1.55677 1.05576 0
M  V30 3738 O 357.23 0.704131 1.67068 0
M  V30 3739 C 357.278 3.59138 -0.324373 0
M  V30 3740 O 356.382 4.06668 0.685204 0
M  V30 3741 H 355.723 0.649815 -0.136518 0
M  V30 3742 H 358.253 1.77852 -1.01142 0
M  V30 3743 H 358.263 4.07639 -0.171618 0
M  V30 3744 H 356.938 3.94515 -1.31647 0
M  V30 3745 H 355.515 3.69561 0.497913 0
M  V30 3746 N 357.7 0.491464 1.49741 0
M  V30 3747 C 358.948 -0.0563141 2.02022 0
M  V30 3748 C 359.269 -1.38363 1.37407 0
M  V30 3749 O 358.539 -1.88702 0.526166 0
M  V30 3750 H 357.119 -0.0238014 0.746621 0
M  V30 3751 H 359.781 0.646533 1.83864 0
M  V30 3752 H 358.877 -0.192967 3.11503 0
M  V30 3753 N 359.178 -1.55987 0.224894 0
M  V30 3754 C 360.455 -1.90232 -0.455083 0
M  V30 3755 C 360.835 -1.14269 -1.77499 0
M  V30 3756 O 360.183 -0.253079 -2.27094 0
M  V30 3757 C 360.393 -3.42993 -0.644758 0
M  V30 3758 C 361.741 -4.13821 -0.950669 0
M  V30 3759 O 362.765 -3.4861 -0.731423 0
M  V30 3760 O 361.624 -5.29128 -1.36695 0
M  V30 3761 H 358.718 -0.79108 -0.241084 0
M  V30 3762 H 361.264 -1.67581 0.267327 0
M  V30 3763 H 360.036 -3.90252 0.28613 0
M  V30 3764 H 359.659 -3.71434 -1.41853 0
M  V30 3765 N 360.656 0.0484629 -1.57525 0
M  V30 3766 C 361.886 0.754326 -1.92337 0
M  V30 3767 C 362.294 1.70443 -0.82132 0
M  V30 3768 O 361.637 1.82466 0.21254 0
M  V30 3769 C 361.699 1.58231 -3.22805 0
M  V30 3770 C 361.363 0.799074 -4.4996 0
M  V30 3771 C 362.36 0.1079 -5.19788 0
M  V30 3772 C 360.045 0.759345 -4.96527 0
M  V30 3773 C 362.039 -0.612516 -6.3445 0
M  V30 3774 C 359.726 0.0351713 -6.1109 0
M  V30 3775 C 360.724 -0.649537 -6.79904 0
M  V30 3776 O 360.412 -1.36199 -7.92278 0
M  V30 3777 H 360.144 0.218257 -0.639797 0
M  V30 3778 H 362.698 0.0159295 -2.05394 0
M  V30 3779 H 360.928 2.36406 -3.06021 0
M  V30 3780 H 362.617 2.16898 -3.43089 0
M  V30 3781 H 363.383 0.129748 -4.84826 0
M  V30 3782 H 359.262 1.28177 -4.42822 0
M  V30 3783 H 362.806 -1.14751 -6.88097 0
M  V30 3784 H 358.703 0.0113314 -6.45499 0
M  V30 3785 H 359.471 -1.27366 -8.0853 0
M  V30 3786 N 362.134 1.5431 0.320358 0
M  V30 3787 C 363.382 1.72327 1.05583 0
M  V30 3788 C 363.703 0.50149 1.88441 0
M  V30 3789 O 362.973 -0.48448 1.89815 0
M  V30 3790 H 361.553 0.635387 0.3928 0
M  V30 3791 H 364.215 1.91621 0.356019 0
M  V30 3792 H 363.311 2.60426 1.72003 0
M  V30 3793 N 363.613 -0.582584 1.46437 0
M  V30 3794 C 364.841 -1.36682 1.55324 0
M  V30 3795 C 365.256 -1.87796 0.194409 0
M  V30 3796 O 364.613 -1.63623 -0.808318 0
M  V30 3797 C 364.664 -2.55426 2.55812 0
M  V30 3798 O 364.385 -2.0643 3.86417 0
M  V30 3799 C 365.886 -3.47976 2.74641 0
M  V30 3800 H 363.106 -0.417545 0.525259 0
M  V30 3801 H 365.65 -0.708219 1.91845 0
M  V30 3802 H 363.805 -3.17275 2.22295 0
M  V30 3803 H 364.219 -2.83762 4.41111 0
M  V30 3804 H 365.693 -4.27775 3.48874 0
M  V30 3805 H 366.17 -3.99919 1.81553 0
M  V30 3806 H 366.776 -2.91962 3.09255 0
M  V30 3807 N 365.091 -1.34144 -0.827227 0
M  V30 3808 C 366.319 -1.29325 -1.61501 0
M  V30 3809 C 366.734 0.13354 -1.88327 0
M  V30 3810 O 366.091 1.0793 -1.47164 0
M  V30 3811 C 366.142 -2.07746 -2.95844 0
M  V30 3812 O 365.863 -3.4486 -2.70191 0
M  V30 3813 C 367.364 -2.10273 -3.90256 0
M  V30 3814 H 364.584 -0.445069 -0.50215 0
M  V30 3815 H 367.128 -1.76693 -1.02955 0
M  V30 3816 H 365.283 -1.6403 -3.5096 0
M  V30 3817 H 365.697 -3.85345 -3.55822 0
M  V30 3818 H 367.171 -2.69575 -4.81698 0
M  V30 3819 H 367.648 -1.096 -4.25305 0
M  V30 3820 H 368.254 -2.54059 -3.41078 0
M  V30 3821 N 366.569 1.04691 -1.17803 0
M  V30 3822 C 367.517 2.14665 -0.895635 0
M  V30 3823 C 368.511 1.68806 0.141679 0
M  V30 3824 O 369.717 1.79999 -0.00587914 0
M  V30 3825 H 366.092 0.701038 -0.272121 0
M  V30 3826 H 368.063 2.35685 -1.83017 0
M  V30 3827 C 366.812 3.45019 -0.430962 0
M  V30 3828 H 366.135 3.8071 -1.22064 0
M  V30 3829 H 367.575 4.23125 -0.272301 0
M  V30 3830 C 366.034 3.25943 0.852207 0
M  V30 3831 O 366.564 3.5296 1.91786 0
M  V30 3832 N 364.77 2.79304 0.802346 0
M  V30 3833 H 364.317 2.57518 -0.0650788 0
M  V30 3834 H 364.275 2.66921 1.66134 0
M  V30 3835 N 368.047 0.979072 1.23499 0
M  V30 3836 C 369.324 0.563674 1.87302 0
M  V30 3837 C 369.704 -0.959199 1.88049 0
M  V30 3838 O 369.052 -1.83535 1.36114 0
M  V30 3839 C 369.262 1.16822 3.28867 0
M  V30 3840 C 370.61 1.26014 4.0547 0
M  V30 3841 O 371.634 1.12158 3.38082 0
M  V30 3842 O 370.493 1.48044 5.26066 0
M  V30 3843 H 367.587 0.189602 0.804972 0
M  V30 3844 H 370.133 1.07407 1.31384 0
M  V30 3845 H 368.905 2.21049 3.22883 0
M  V30 3846 H 368.528 0.642564 3.92373 0
M  V30 3847 N 369.525 -1.3858 0.750561 0
M  V30 3848 C 370.774 -1.99424 0.302172 0
M  V30 3849 C 371.087 -1.60254 -1.12152 0
M  V30 3850 O 372.293 -2.14046 -1.67023 0
M  V30 3851 C 370.749 -3.56558 0.489307 0
M  V30 3852 C 370.357 -4.04682 1.92189 0
M  V30 3853 C 372.101 -4.24374 0.103478 0
M  V30 3854 C 370.008 -5.54446 2.05775 0
M  V30 3855 H 368.938 -0.746046 0.10923 0
M  V30 3856 H 371.589 -1.58383 0.92667 0
M  V30 3857 H 369.971 -3.95472 -0.204329 0
M  V30 3858 H 371.145 -3.77065 2.64875 0
M  V30 3859 H 369.46 -3.4958 2.26236 0
M  V30 3860 H 372.057 -5.34384 0.183787 0
M  V30 3861 H 372.4 -4.05468 -0.943481 0
M  V30 3862 H 372.933 -3.90688 0.748854 0
M  V30 3863 H 369.672 -5.78252 3.08714 0
M  V30 3864 H 369.192 -5.83816 1.37546 0
M  V30 3865 H 370.871 -6.20099 1.84626 0
M  V30 3866 N 371.003 -0.499398 -1.49478 0
M  V30 3867 C 371.966 0.268838 -2.27618 0
M  V30 3868 C 372.966 0.895383 -1.33565 0
M  V30 3869 O 374.156 0.760164 -1.56739 0
M  V30 3870 C 371.288 1.38559 -3.11471 0
M  V30 3871 H 372.481 -0.416812 -2.96989 0
M  V30 3872 H 370.034 -0.254313 -1.54217 0
M  V30 3873 H 370.769 2.10544 -2.46661 0
M  V30 3874 H 370.554 0.941797 -3.80621 0
M  V30 3875 H 372.044 1.92678 -3.70493 0
M  V30 3876 N 372.481 1.55866 -0.233164 0
M  V30 3877 C 373.727 1.98897 0.395959 0
M  V30 3878 C 374.06 1.12091 1.58585 0
M  V30 3879 O 373.335 0.181182 1.93654 0
M  V30 3880 C 373.618 3.50658 0.819224 0
M  V30 3881 C 373.471 4.48233 -0.375109 0
M  V30 3882 C 374.79 4.07135 1.67121 0
M  V30 3883 H 371.909 0.723102 0.142451 0
M  V30 3884 H 374.551 1.87082 -0.331725 0
M  V30 3885 H 372.701 3.60857 1.43925 0
M  V30 3886 H 374.373 4.50031 -1.01341 0
M  V30 3887 H 372.616 4.21624 -1.02058 0
M  V30 3888 H 373.287 5.51988 -0.0358328 0
M  V30 3889 H 375.763 3.99952 1.14795 0
M  V30 3890 H 374.639 5.13615 1.93625 0
M  V30 3891 H 374.9 3.54736 2.63846 0
M  V30 3892 N 373.959 -0.0401083 1.57549 0
M  V30 3893 C 375.208 -0.732108 1.87944 0
M  V30 3894 C 375.521 -1.77107 0.830206 0
M  V30 3895 O 376.727 -2.51488 1.02302 0
M  V30 3896 C 375.183 -1.35315 3.33494 0
M  V30 3897 C 374.791 -0.351105 4.46622 0
M  V30 3898 C 376.535 -2.02566 3.73051 0
M  V30 3899 C 374.442 -0.979859 5.83226 0
M  V30 3900 H 373.372 -0.277188 0.701201 0
M  V30 3901 H 376.023 0.0138501 1.83495 0
M  V30 3902 H 374.405 -2.14844 3.32653 0
M  V30 3903 H 375.579 0.416674 4.58912 0
M  V30 3904 H 373.894 0.218708 4.15825 0
M  V30 3905 H 376.491 -2.50441 4.72423 0
M  V30 3906 H 376.834 -2.83904 3.04474 0
M  V30 3907 H 377.367 -1.29827 3.76018 0
M  V30 3908 H 374.106 -0.206135 6.55176 0
M  V30 3909 H 373.626 -1.71774 5.74677 0
M  V30 3910 H 375.305 -1.49046 6.29599 0
M  V30 3911 N 375.437 -1.54477 -0.31217 0
M  V30 3912 C 376.683 -1.74417 -1.04644 0
M  V30 3913 C 377.038 -0.517641 -1.85306 0
M  V30 3914 O 376.331 0.489973 -1.85229 0
M  V30 3915 C 376.525 -2.967 -1.99258 0
M  V30 3916 C 376.354 -4.31128 -1.27901 0
M  V30 3917 C 375.124 -4.95087 -1.01079 0
M  V30 3918 C 377.322 -5.09662 -0.689119 0
M  V30 3919 N 375.304 -6.13322 -0.266323 0
M  V30 3920 C 376.675 -6.19952 -0.0768523 0
M  V30 3921 C 378.73 -4.94355 -0.593061 0
M  V30 3922 C 377.433 -7.16604 0.622165 0
M  V30 3923 C 379.459 -5.91328 0.0922792 0
M  V30 3924 C 378.821 -7.00978 0.693443 0
M  V30 3925 H 374.92 -0.69094 -0.366231 0
M  V30 3926 H 377.504 -1.91946 -0.326319 0
M  V30 3927 H 375.675 -2.80616 -2.68532 0
M  V30 3928 H 377.407 -3.05216 -2.65755 0
M  V30 3929 H 374.162 -4.55235 -1.30607 0
M  V30 3930 H 374.586 -6.76937 0.0920973 0
M  V30 3931 H 379.228 -4.09719 -1.04355 0
M  V30 3932 H 376.946 -8.0079 1.08445 0
M  V30 3933 H 380.532 -5.81562 0.166396 0
M  V30 3934 H 379.412 -7.74725 1.21533 0
M  V30 3935 N 376.915 0.57481 -1.46744 0
M  V30 3936 C 378.326 1.15695 -1.46532 0
M  V30 3937 C 378.677 1.95068 -0.210425 0
M  V30 3938 O 377.802 2.05241 0.685944 0
M  V30 3939 C 378.397 2.1048 -2.65487 0
M  V30 3940 C 376.956 2.64002 -2.68291 0
M  V30 3941 C 376.103 1.40026 -2.39349 0
M  V30 3942 H 379.054 0.362325 -1.54509 0
M  V30 3943 H 379.075 2.94074 -2.41455 0
M  V30 3944 H 378.587 1.52683 -3.56805 0
M  V30 3945 H 376.688 3.25646 -1.81067 0
M  V30 3946 H 376.801 3.06197 -3.68483 0
M  V30 3947 H 375.165 1.70106 -1.89568 0
M  V30 3948 H 375.948 0.840485 -3.32852 0
M  V30 3949 N 378.394 1.34581 0.820102 0
M  V30 3950 C 379.341 1.2639 1.93117 0
M  V30 3951 C 380.311 0.138554 1.65521 0
M  V30 3952 O 381.496 0.320004 1.88097 0
M  V30 3953 C 378.636 1.02812 3.29429 0
M  V30 3954 C 377.749 2.24146 3.693 0
M  V30 3955 C 376.884 1.93829 4.94574 0
M  V30 3956 C 375.923 3.1129 5.27034 0
M  V30 3957 N 375.06 2.80838 6.43486 0
M  V30 3958 H 379.9 2.21408 1.99455 0
M  V30 3959 H 377.437 1.10077 0.975784 0
M  V30 3960 H 379.395 0.871788 4.0799 0
M  V30 3961 H 378.025 0.114612 3.22596 0
M  V30 3962 H 377.077 2.50691 2.86109 0
M  V30 3963 H 378.389 3.11899 3.89257 0
M  V30 3964 H 377.543 1.74948 5.80929 0
M  V30 3965 H 376.282 1.03341 4.76626 0
M  V30 3966 H 375.287 3.30764 4.39175 0
M  V30 3967 H 376.512 4.02561 5.4692 0
M  V30 3968 H 374.458 1.92929 6.26988 0
M  V30 3969 H 374.375 3.62123 6.63629 0
M  V30 3970 H 375.643 2.65467 7.32903 0
M  V30 3971 N 379.872 -1.04064 1.18357 0
M  V30 3972 C 380.82 -2.14187 0.907007 0
M  V30 3973 C 381.814 -1.68879 -0.132725 0
M  V30 3974 O 383.02 -1.79993 0.0154248 0
M  V30 3975 H 379.395 -0.699585 0.275835 0
M  V30 3976 H 381.366 -2.34711 1.84264 0
M  V30 3977 C 380.115 -3.44785 0.449254 0
M  V30 3978 H 379.438 -3.80058 1.24081 0
M  V30 3979 H 380.878 -4.22974 0.294737 0
M  V30 3980 C 379.337 -3.26391 -0.834909 0
M  V30 3981 O 379.867 -3.53973 -1.89911 0
M  V30 3982 N 378.073 -2.79726 -0.787523 0
M  V30 3983 H 377.62 -2.5748 0.0787347 0
M  V30 3984 H 377.578 -2.67798 -1.64716 0
M  V30 3985 N 381.35 -0.985608 -1.22978 0
M  V30 3986 C 382.3 -0.50118 -2.22423 0
M  V30 3987 C 383.284 0.426649 -1.5514 0
M  V30 3988 O 384.476 0.254656 -1.75159 0
M  V30 3989 C 381.605 0.190003 -3.42774 0
M  V30 3990 C 380.691 -0.757703 -4.17276 0
M  V30 3991 N 381.082 -1.90251 -4.68656 0
M  V30 3992 C 379.38 -0.57209 -4.42316 0
M  V30 3993 C 380.081 -2.49676 -5.25392 0
M  V30 3994 N 379.057 -1.78013 -5.13627 0
M  V30 3995 H 382.859 -1.37441 -2.59783 0
M  V30 3996 H 380.373 -0.846941 -1.38567 0
M  V30 3997 H 382.37 0.55439 -4.13197 0
M  V30 3998 H 381.03 1.05946 -3.06929 0
M  V30 3999 H 382.041 -2.28354 -4.64839 0
M  V30 4000 H 378.718 0.251909 -4.16739 0
M  V30 4001 H 380.108 -3.46384 -5.75732 0
M  V30 4002 N 382.828 1.3818 -0.7579 0
M  V30 4003 C 383.791 2.28764 -0.141286 0
M  V30 4004 C 384.791 1.47388 0.642907 0
M  V30 4005 O 385.981 1.67781 0.468536 0
M  V30 4006 C 383.113 3.31184 0.808069 0
M  V30 4007 H 384.306 2.848 -0.939633 0
M  V30 4008 H 381.859 1.47212 -0.525191 0
M  V30 4009 H 382.594 2.80247 1.63193 0
M  V30 4010 H 382.379 3.91314 0.248104 0
M  V30 4011 H 383.869 3.98909 1.23536 0
M  V30 4012 N 384.306 0.507319 1.49211 0
M  V30 4013 C 385.717 0.0611118 1.866 0
M  V30 4014 C 386.068 -1.35488 1.41907 0
M  V30 4015 O 385.193 -2.0108 0.799726 0
M  V30 4016 C 385.788 0.104125 3.3864 0
M  V30 4017 C 384.347 -0.28677 3.75306 0
M  V30 4018 C 383.494 0.473893 2.73221 0
M  V30 4019 H 386.445 0.719775 1.41439 0
M  V30 4020 H 386.466 -0.689672 3.74198 0
M  V30 4021 H 385.978 1.13482 3.71138 0
M  V30 4022 H 384.079 -1.32046 3.48417 0
M  V30 4023 H 384.192 0.0370745 4.79086 0
M  V30 4024 H 382.556 -0.0770644 2.54583 0
M  V30 4025 H 383.339 1.50478 3.08563 0
M  V30 4026 N 385.784 -1.5574 0.241426 0
M  V30 4027 C 386.714 -2.24133 -0.654722 0
M  V30 4028 C 387.695 -1.21974 -1.1856 0
M  V30 4029 O 388.88 -1.50612 -1.22595 0
M  V30 4030 C 386.01 -2.93659 -1.85423 0
M  V30 4031 C 384.964 -4.0246 -1.45636 0
M  V30 4032 C 384.29 -4.59383 -2.73626 0
M  V30 4033 C 385.59 -5.18468 -0.631506 0
M  V30 4034 H 387.284 -2.99281 -0.0844353 0
M  V30 4035 H 384.83 -1.43947 -0.0391707 0
M  V30 4036 H 386.783 -3.40203 -2.48676 0
M  V30 4037 H 385.507 -2.15991 -2.44981 0
M  V30 4038 H 384.166 -3.56676 -0.847202 0
M  V30 4039 H 383.814 -3.78422 -3.3137 0
M  V30 4040 H 383.514 -5.32826 -2.4773 0
M  V30 4041 H 385.038 -5.08658 -3.37786 0
M  V30 4042 H 386.452 -5.61272 -1.1682 0
M  V30 4043 H 384.849 -5.98266 -0.468831 0
M  V30 4044 H 385.919 -4.8358 0.357506 0
M  V30 4045 N 387.262 0.0317525 -1.57568 0
M  V30 4046 C 388.511 0.722131 -1.8833 0
M  V30 4047 C 388.824 1.76664 -0.839587 0
M  V30 4048 O 390.03 2.50942 -1.03635 0
M  V30 4049 C 388.486 1.33544 -3.34207 0
M  V30 4050 C 388.094 0.327415 -4.46802 0
M  V30 4051 C 389.838 2.00585 -3.7412 0
M  V30 4052 C 387.745 0.948915 -5.83738 0
M  V30 4053 H 386.675 0.273466 -0.702661 0
M  V30 4054 H 389.326 -0.0235811 -1.83485 0
M  V30 4055 H 387.708 2.13077 -3.33788 0
M  V30 4056 H 388.882 -0.441006 -4.58685 0
M  V30 4057 H 387.197 -0.240758 -4.15703 0
M  V30 4058 H 389.794 2.47932 -4.73744 0
M  V30 4059 H 390.137 2.82285 -3.05975 0
M  V30 4060 H 390.67 1.27831 -3.76702 0
M  V30 4061 H 387.409 0.171387 -6.55276 0
M  V30 4062 H 386.929 1.68724 -5.7558 0
M  V30 4063 H 388.608 1.45705 -6.3038 0
M  V30 4064 N 388.74 1.54641 0.303973 0
M  V30 4065 C 389.67 1.88386 1.3796 0
M  V30 4066 C 390.651 0.742485 1.5304 0
M  V30 4067 O 391.836 0.997959 1.66597 0
M  V30 4068 C 388.966 2.12854 2.74427 0
M  V30 4069 C 387.92 3.28702 2.74115 0
M  V30 4070 C 387.246 3.38582 4.13844 0
M  V30 4071 C 388.546 4.65881 2.3612 0
M  V30 4072 H 390.24 2.78474 1.09966 0
M  V30 4073 H 387.786 1.33988 0.527556 0
M  V30 4074 H 389.739 2.35047 3.49758 0
M  V30 4075 H 388.463 1.19535 3.03939 0
M  V30 4076 H 387.122 3.06428 2.0124 0
M  V30 4077 H 386.77 2.42784 4.40528 0
M  V30 4078 H 386.47 4.16453 4.14537 0
M  V30 4079 H 387.994 3.63031 4.90959 0
M  V30 4080 H 389.408 4.87823 3.01167 0
M  V30 4081 H 387.805 5.46444 2.48031 0
M  V30 4082 H 388.875 4.66799 1.3125 0
M  V30 4083 N 390.218 -0.567019 1.47046 0
M  V30 4084 C 391.464 -1.32658 1.53394 0
M  V30 4085 C 391.797 -1.93254 0.19148 0
M  V30 4086 O 391.072 -1.77338 -0.798844 0
M  V30 4087 C 391.355 -2.44412 2.64452 0
M  V30 4088 C 391.208 -1.88749 4.08282 0
M  V30 4089 C 392.527 -3.46387 2.71485 0
M  V30 4090 H 389.646 -0.48098 0.558415 0
M  V30 4091 H 392.288 -0.635481 1.79058 0
M  V30 4092 H 390.438 -3.03363 2.427 0
M  V30 4093 H 392.11 -1.34134 4.41368 0
M  V30 4094 H 390.353 -1.19481 4.17021 0
M  V30 4095 H 391.024 -2.69491 4.81745 0
M  V30 4096 H 393.5 -2.9734 2.91081 0
M  V30 4097 H 392.376 -4.2202 3.50985 0
M  V30 4098 H 392.637 -4.04616 1.78153 0
M  V30 4099 N 391.696 -1.35014 -0.812953 0
M  V30 4100 C 392.942 -1.2812 -1.57204 0
M  V30 4101 C 393.275 0.145869 -1.93651 0
M  V30 4102 O 392.55 1.0937 -1.60836 0
M  V30 4103 C 392.833 -2.18162 -2.86492 0
M  V30 4104 C 392.686 -3.69454 -2.56561 0
M  V30 4105 C 394.005 -2.07439 -3.88145 0
M  V30 4106 H 391.124 -0.466746 -0.570366 0
M  V30 4107 H 393.766 -1.65357 -0.935783 0
M  V30 4108 H 391.916 -1.86535 -3.40789 0
M  V30 4109 H 393.588 -4.11493 -2.08497 0
M  V30 4110 H 391.831 -3.9005 -1.89851 0
M  V30 4111 H 392.502 -4.27835 -3.48799 0
M  V30 4112 H 394.978 -2.35228 -3.4323 0
M  V30 4113 H 393.854 -2.7265 -4.76396 0
M  V30 4114 H 394.115 -1.05439 -4.29343 0
M  V30 4115 N 393.175 1.03435 -1.18907 0
M  V30 4116 C 394.405 1.8012 -1.01195 0
M  V30 4117 C 394.813 1.8395 0.442613 0
M  V30 4118 O 394.156 1.27836 1.31923 0
M  V30 4119 C 394.218 3.26792 -1.49823 0
M  V30 4120 C 393.882 3.46609 -2.97844 0
M  V30 4121 C 394.879 3.37278 -3.95651 0
M  V30 4122 C 392.564 3.73001 -3.36416 0
M  V30 4123 C 394.558 3.54054 -5.30023 0
M  V30 4124 C 392.245 3.89423 -4.70949 0
M  V30 4125 C 393.243 3.79951 -5.67562 0
M  V30 4126 O 392.931 3.95895 -6.99659 0
M  V30 4127 H 392.663 0.573865 -0.357289 0
M  V30 4128 H 395.217 1.31207 -1.58031 0
M  V30 4129 H 393.447 3.76703 -0.873578 0
M  V30 4130 H 395.136 3.85055 -1.28404 0
M  V30 4131 H 395.902 3.16846 -3.67197 0
M  V30 4132 H 391.781 3.79469 -2.61772 0
M  V30 4133 H 395.325 3.46577 -6.05417 0
M  V30 4134 H 391.222 4.09351 -4.99101 0
M  V30 4135 H 391.99 4.13019 -7.06653 0
M  V30 4136 N 394.653 0.992116 1.22453 0
M  V30 4137 C 395.9 0.667534 1.91181 0
M  V30 4138 C 396.228 -0.800317 1.77271 0
M  V30 4139 O 395.483 -1.59421 1.13505 0
M  V30 4140 C 395.782 1.01832 3.42586 0
M  V30 4141 C 395.448 2.47831 3.76684 0
M  V30 4142 C 394.11 2.87729 3.85701 0
M  V30 4143 C 396.462 3.42466 3.92895 0
M  V30 4144 C 393.79 4.21252 4.08367 0
M  V30 4145 C 396.142 4.75648 4.17064 0
M  V30 4146 C 394.806 5.15288 4.24305 0
M  V30 4147 H 394.076 0.244268 0.699581 0
M  V30 4148 H 396.723 1.24816 1.45235 0
M  V30 4149 H 395.028 0.355769 3.90181 0
M  V30 4150 H 396.725 0.745228 3.94014 0
M  V30 4151 H 393.315 2.15905 3.70247 0
M  V30 4152 H 397.499 3.12814 3.85307 0
M  V30 4153 H 392.755 4.51554 4.122 0
M  V30 4154 H 396.929 5.48924 4.2855 0
M  V30 4155 H 394.556 6.18769 4.41621 0
M  V30 4156 N 396.131 -1.37776 0.765217 0
M  V30 4157 C 397.359 -2.04124 0.337767 0
M  V30 4158 C 397.774 -1.57715 -1.03785 0
M  V30 4159 O 397.131 -0.755447 -1.6613 0
M  V30 4160 C 397.182 -3.59658 0.364442 0
M  V30 4161 O 396.903 -4.04367 1.68579 0
M  V30 4162 C 398.404 -4.43236 -0.0754221 0
M  V30 4163 H 395.624 -0.655696 0.142491 0
M  V30 4164 H 398.168 -1.76238 1.03732 0
M  V30 4165 H 396.323 -3.86339 -0.286471 0
M  V30 4166 H 396.737 -4.98857 1.61993 0
M  V30 4167 H 398.211 -5.52 -0.00560067 0
M  V30 4168 H 398.688 -4.2455 -1.12491 0
M  V30 4169 H 399.294 -4.21767 0.547055 0
M  V30 4170 N 397.609 -0.515225 -1.4894 0
M  V30 4171 C 398.541 0.292481 -2.27326 0
M  V30 4172 C 399.554 0.917838 -1.3446 0
M  V30 4173 O 400.743 0.798772 -1.5963 0
M  V30 4174 C 397.843 1.42803 -3.07344 0
M  V30 4175 C 397.016 0.907347 -4.27885 0
M  V30 4176 C 396.075 1.92222 -4.89834 0
M  V30 4177 O 395.101 1.48506 -5.49486 0
M  V30 4178 N 396.303 3.25355 -4.80754 0
M  V30 4179 H 399.068 -0.379721 -2.97285 0
M  V30 4180 H 396.629 -0.348638 -1.58102 0
M  V30 4181 H 398.621 2.10481 -3.45658 0
M  V30 4182 H 397.191 2.00414 -2.39902 0
M  V30 4183 H 396.411 0.0550218 -3.94162 0
M  V30 4184 H 397.699 0.538108 -5.05946 0
M  V30 4185 H 397.097 3.6355 -4.33414 0
M  V30 4186 H 395.654 3.88707 -5.23211 0
M  V30 4187 N 399.087 1.5561 -0.249682 0
M  V30 4188 C 400.019 2.18834 0.681496 0
M  V30 4189 C 401.032 1.16546 1.1367 0
M  V30 4190 O 402.221 1.43397 1.06299 0
M  V30 4191 C 399.321 2.77992 1.9384 0
M  V30 4192 C 398.494 4.05725 1.63419 0
M  V30 4193 C 397.553 4.49174 2.74096 0
M  V30 4194 O 396.579 5.15492 2.41364 0
M  V30 4195 N 397.781 4.17191 4.03649 0
M  V30 4196 H 400.546 2.9937 0.140514 0
M  V30 4197 H 398.107 1.6175 -0.0697541 0
M  V30 4198 H 400.099 3.04015 2.67127 0
M  V30 4199 H 398.669 2.01596 2.38909 0
M  V30 4200 H 397.889 3.87261 0.736358 0
M  V30 4201 H 399.177 4.88999 1.40562 0
M  V30 4202 H 398.575 3.63955 4.33074 0
M  V30 4203 H 397.132 4.48043 4.73393 0
M  V30 4204 N 400.565 -0.0233959 1.57583 0
M  V30 4205 C 401.475 -1.03907 2.10334 0
M  V30 4206 C 402.491 -1.39257 1.04323 0
M  V30 4207 O 403.667 -1.48462 1.36091 0
M  V30 4208 C 400.732 -2.31938 2.57693 0
M  V30 4209 C 399.793 -2.03117 3.78209 0
M  V30 4210 C 399.026 -3.25043 4.233 0
M  V30 4211 O 399.249 -4.35916 3.67876 0
M  V30 4212 O 398.183 -3.10411 5.15683 0
M  V30 4213 H 402.009 -0.620748 2.97288 0
M  V30 4214 H 399.594 -0.240743 1.47448 0
M  V30 4215 H 401.476 -3.07196 2.88458 0
M  V30 4216 H 400.151 -2.73055 1.73847 0
M  V30 4217 H 399.058 -1.25408 3.52454 0
M  V30 4218 H 400.391 -1.66852 4.63056 0
M  V30 4219 N 402.043 -1.548 -0.295768 0
M  V30 4220 C 402.975 -1.82492 -1.3867 0
M  V30 4221 C 403.988 -0.708134 -1.46592 0
M  V30 4222 O 405.177 -0.985686 -1.48817 0
M  V30 4223 C 402.277 -1.95256 -2.76999 0
M  V30 4224 C 401.45 -3.25709 -2.91946 0
M  V30 4225 C 400.509 -3.28824 -4.10806 0
M  V30 4226 O 399.535 -4.02328 -4.02643 0
M  V30 4227 N 400.737 -2.5459 -5.21694 0
M  V30 4228 H 403.502 -2.76646 -1.15269 0
M  V30 4229 H 401.063 -1.54438 -0.485849 0
M  V30 4230 H 403.055 -1.94736 -3.54768 0
M  V30 4231 H 401.625 -1.08072 -2.93324 0
M  V30 4232 H 400.845 -3.38959 -2.01247 0
M  V30 4233 H 402.133 -4.11786 -2.98847 0
M  V30 4234 H 401.531 -1.94512 -5.31208 0
M  V30 4235 H 400.088 -2.59818 -5.97778 0
M  V30 4236 N 403.521 0.559213 -1.47345 0
M  V30 4237 C 404.798 1.31997 -1.44348 0
M  V30 4238 C 405.178 2.1064 -0.139358 0
M  V30 4239 O 404.526 2.1091 0.879153 0
M  V30 4240 C 404.736 2.22618 -2.68779 0
M  V30 4241 C 406.084 2.83701 -3.1591 0
M  V30 4242 O 407.108 2.32921 -2.69493 0
M  V30 4243 O 405.967 3.75993 -3.966 0
M  V30 4244 H 403.061 0.594251 -0.575147 0
M  V30 4245 H 405.607 0.578282 -1.59543 0
M  V30 4246 H 404.379 1.64093 -3.55231 0
M  V30 4247 H 404.002 3.04085 -2.5616 0
M  V30 4248 N 404.999 1.35443 0.805782 0
M  V30 4249 C 405.962 1.28301 1.89925 0
M  V30 4250 C 406.962 0.194285 1.59622 0
M  V30 4251 O 408.152 0.448036 1.6834 0
M  V30 4252 C 405.284 0.984997 3.2636 0
M  V30 4253 H 406.477 2.2553 1.97677 0
M  V30 4254 H 404.03 1.19979 1.00173 0
M  V30 4255 H 404.765 0.016603 3.24296 0
M  V30 4256 H 404.55 1.77269 3.4974 0
M  V30 4257 H 406.04 0.960651 4.064 0
M  V30 4258 N 406.477 -1.02803 1.19454 0
M  V30 4259 C 407.424 -2.11099 0.933046 0
M  V30 4260 C 408.394 -1.65571 -0.132447 0
M  V30 4261 O 409.579 -1.90797 0.00987576 0
M  V30 4262 C 406.719 -3.41763 0.478747 0
M  V30 4263 C 405.832 -4.00833 1.6111 0
M  V30 4264 C 404.967 -5.19511 1.10825 0
M  V30 4265 C 404.006 -5.70639 2.21445 0
M  V30 4266 N 403.143 -6.80589 1.72461 0
M  V30 4267 H 407.983 -2.32804 1.86028 0
M  V30 4268 H 405.52 -1.14179 0.927441 0
M  V30 4269 H 407.478 -4.16736 0.196745 0
M  V30 4270 H 406.108 -3.20166 -0.411493 0
M  V30 4271 H 405.16 -3.23066 2.00829 0
M  V30 4272 H 406.472 -4.34794 2.4445 0
M  V30 4273 H 405.626 -6.01645 0.781533 0
M  V30 4274 H 404.365 -4.87086 0.244606 0
M  V30 4275 H 403.37 -4.87116 2.54947 0
M  V30 4276 H 404.595 -6.05102 3.08267 0
M  V30 4277 H 402.541 -6.50016 0.884056 0
M  V30 4278 H 402.458 -7.13681 2.49389 0
M  V30 4279 H 403.726 -7.66317 1.42755 0
M  V30 4280 N 407.956 -0.998596 -1.21925 0
M  V30 4281 C 409.186 -0.695276 -1.94549 0
M  V30 4282 C 409.594 0.745079 -1.73911 0
M  V30 4283 O 408.937 1.51507 -1.03881 0
M  V30 4284 C 408.999 -0.928485 -3.47303 0
M  V30 4285 C 408.663 -2.35443 -3.91683 0
M  V30 4286 C 409.66 -3.33428 -3.98901 0
M  V30 4287 C 407.345 -2.69038 -4.24174 0
M  V30 4288 C 409.339 -4.63079 -4.37992 0
M  V30 4289 C 407.026 -3.98906 -4.62944 0
M  V30 4290 C 408.024 -4.95738 -4.69822 0
M  V30 4291 O 407.712 -6.23285 -5.07711 0
M  V30 4292 H 407.444 -0.255902 -0.625692 0
M  V30 4293 H 409.998 -1.33767 -1.5587 0
M  V30 4294 H 408.228 -0.228917 -3.86022 0
M  V30 4295 H 409.917 -0.619539 -4.01144 0
M  V30 4296 H 410.683 -3.08807 -3.73983 0
M  V30 4297 H 406.562 -1.94367 -4.18022 0
M  V30 4298 H 410.106 -5.38658 -4.43275 0
M  V30 4299 H 406.003 -4.23314 -4.87314 0
M  V30 4300 H 406.771 -6.27306 -5.25766 0
M  V30 4301 N 409.434 1.37368 -0.772513 0
M  V30 4302 C 410.85 1.53059 -0.452231 0
M  V30 4303 C 411.05 1.73065 1.03203 0
M  V30 4304 O 410.106 1.75245 1.81784 0
M  V30 4305 C 411.419 2.72659 -1.26797 0
M  V30 4306 C 412.967 2.86521 -1.25995 0
M  V30 4307 C 413.442 4.09105 -2.05905 0
M  V30 4308 N 414.933 4.16219 -2.03263 0
M  V30 4309 C 415.668 5.10107 -2.61875 0
M  V30 4310 N 415.164 6.09547 -3.29278 0
M  V30 4311 N 416.957 5.02596 -2.51701 0
M  V30 4312 H 409.108 1.22634 -1.7342 0
M  V30 4313 H 411.371 0.597206 -0.736239 0
M  V30 4314 H 411.077 2.64343 -2.31982 0
M  V30 4315 H 410.951 3.66363 -0.897672 0
M  V30 4316 H 413.338 2.94308 -0.216081 0
M  V30 4317 H 413.419 1.93774 -1.66989 0
M  V30 4318 H 413.063 4.0208 -3.10313 0
M  V30 4319 H 412.993 5.00968 -1.62292 0
M  V30 4320 H 415.484 3.45012 -1.54192 0
M  V30 4321 H 415.797 6.77718 -3.71374 0
M  V30 4322 H 414.142 6.09824 -3.33377 0
M  V30 4323 H 417.333 4.23855 -1.98657 0
M  V30 4324 H 417.506 5.75582 -2.97673 0
M  V30 4325 N 410.912 0.523116 1.48665 0
M  V30 4326 C 411.859 -0.243398 2.29513 0
M  V30 4327 C 412.829 -0.940139 1.36933 0
M  V30 4328 O 414.014 -0.942503 1.65896 0
M  V30 4329 C 411.154 -1.28855 3.20141 0
M  V30 4330 C 410.267 -0.60135 4.27794 0
M  V30 4331 C 409.402 -1.62884 5.05611 0
M  V30 4332 C 408.441 -0.924726 6.05075 0
M  V30 4333 N 407.578 -1.89744 6.75975 0
M  V30 4334 H 412.418 0.452234 2.94549 0
M  V30 4335 H 409.955 0.234858 1.45213 0
M  V30 4336 H 411.913 -1.90674 3.71079 0
M  V30 4337 H 410.543 -1.95266 2.57043 0
M  V30 4338 H 409.595 0.130623 3.80176 0
M  V30 4339 H 410.907 -0.0481585 4.98777 0
M  V30 4340 H 410.061 -2.32149 5.60528 0
M  V30 4341 H 408.8 -2.21592 4.34452 0
M  V30 4342 H 407.805 -0.217966 5.49368 0
M  V30 4343 H 409.03 -0.343851 6.78229 0
M  V30 4344 H 406.976 -2.47373 6.07571 0
M  V30 4345 H 406.893 -1.3955 7.43009 0
M  V30 4346 H 408.161 -2.58229 7.35485 0
M  V30 4347 N 412.39 -1.55475 0.257931 0
M  V30 4348 C 413.667 -1.91155 -0.414629 0
M  V30 4349 C 414.047 -1.18008 -1.75035 0
M  V30 4350 O 413.395 -0.301193 -2.26506 0
M  V30 4351 C 413.605 -3.44283 -0.571859 0
M  V30 4352 C 414.953 -4.15744 -0.862678 0
M  V30 4353 O 415.977 -3.50083 -0.657314 0
M  V30 4354 O 414.836 -5.31909 -1.2544 0
M  V30 4355 H 411.93 -0.796016 -0.22425 0
M  V30 4356 H 414.476 -1.66976 0.302814 0
M  V30 4357 H 413.248 -3.89558 0.368844 0
M  V30 4358 H 412.871 -3.7436 -1.33943 0
M  V30 4359 N 413.868 0.0150385 -1.57593 0
M  V30 4360 C 415.117 0.702115 -1.89085 0
M  V30 4361 C 415.43 1.75764 -0.858277 0
M  V30 4362 O 416.636 2.49829 -1.0629 0
M  V30 4363 C 415.092 1.29992 -3.35604 0
M  V30 4364 C 414.7 0.280007 -4.47124 0
M  V30 4365 C 416.444 1.96606 -3.76227 0
M  V30 4366 C 414.351 0.886949 -5.84711 0
M  V30 4367 H 413.281 0.265997 -0.705522 0
M  V30 4368 H 415.932 -0.0430408 -1.8345 0
M  V30 4369 H 414.314 2.09525 -3.36029 0
M  V30 4370 H 415.488 -0.489631 -4.58191 0
M  V30 4371 H 413.803 -0.284835 -4.15425 0
M  V30 4372 H 416.4 2.42893 -4.76347 0
M  V30 4373 H 416.743 2.79024 -3.08952 0
M  V30 4374 H 417.276 1.23828 -3.78036 0
M  V30 4375 H 414.015 0.101876 -6.55421 0
M  V30 4376 H 413.535 1.6261 -5.77337 0
M  V30 4377 H 415.214 1.39011 -6.3189 0
M  V30 4378 N 415.346 1.54954 0.287554 0
M  V30 4379 C 416.595 1.74081 1.01877 0
M  V30 4380 C 416.908 0.541135 1.87966 0
M  V30 4381 O 418.114 0.614491 2.64455 0
M  V30 4382 C 416.57 3.08042 1.86113 0
M  V30 4383 C 416.178 4.35531 1.04961 0
M  V30 4384 C 417.922 3.36523 2.58752 0
M  V30 4385 C 415.829 5.60538 1.88551 0
M  V30 4386 H 414.759 0.64884 0.384087 0
M  V30 4387 H 417.41 1.81426 0.275101 0
M  V30 4388 H 415.792 2.94696 2.64519 0
M  V30 4389 H 416.966 4.59751 0.31074 0
M  V30 4390 H 415.281 4.14085 0.43843 0
M  V30 4391 H 417.878 4.27122 3.21668 0
M  V30 4392 H 418.221 2.56 3.28283 0
M  V30 4393 H 418.754 3.50901 1.87386 0
M  V30 4394 H 415.493 6.43767 1.23466 0
M  V30 4395 H 415.013 5.40483 2.60074 0
M  V30 4396 H 416.692 5.98297 2.46273 0
M  V30 4397 N 416.824 -0.551391 1.4764 0
M  V30 4398 C 418.07 -1.31024 1.54792 0
M  V30 4399 C 418.403 -1.9304 0.211967 0
M  V30 4400 O 417.678 -1.78175 -0.77999 0
M  V30 4401 C 417.961 -2.41593 2.67029 0
M  V30 4402 C 417.814 -1.84408 4.10261 0
M  V30 4403 C 419.133 -3.43488 2.75143 0
M  V30 4404 H 416.252 -0.475031 0.563485 0
M  V30 4405 H 418.894 -0.616454 1.79722 0
M  V30 4406 H 417.044 -3.00772 2.45904 0
M  V30 4407 H 418.716 -1.29445 4.42766 0
M  V30 4408 H 416.959 -1.15051 4.18265 0
M  V30 4409 H 417.63 -2.64367 4.84576 0
M  V30 4410 H 420.106 -2.94236 2.94218 0
M  V30 4411 H 418.982 -4.18274 3.55441 0
M  V30 4412 H 419.243 -4.02703 1.82435 0
M  V30 4413 N 418.302 -1.35869 -0.798587 0
M  V30 4414 C 419.249 -1.29446 -1.91082 0
M  V30 4415 C 420.219 -0.16487 -1.6528 0
M  V30 4416 O 421.404 -0.349888 -1.87564 0
M  V30 4417 C 418.544 -1.0804 -3.27752 0
M  V30 4418 C 417.657 -2.29993 -3.65687 0
M  V30 4419 C 416.792 -2.01673 -4.91428 0
M  V30 4420 C 415.831 -3.19636 -5.22015 0
M  V30 4421 N 414.968 -2.91039 -6.38937 0
M  V30 4422 H 419.808 -2.24553 -1.95907 0
M  V30 4423 H 417.345 -1.11615 -0.958148 0
M  V30 4424 H 419.303 -0.936586 -4.06551 0
M  V30 4425 H 417.933 -0.16592 -3.22373 0
M  V30 4426 H 416.985 -2.55211 -2.82085 0
M  V30 4427 H 418.297 -3.18052 -3.84245 0
M  V30 4428 H 417.451 -1.84168 -5.78072 0
M  V30 4429 H 416.19 -1.10911 -4.74921 0
M  V30 4430 H 415.195 -3.37709 -4.33858 0
M  V30 4431 H 416.42 -4.11211 -5.40447 0
M  V30 4432 H 414.366 -2.0288 -6.2384 0
M  V30 4433 H 414.283 -3.72635 -6.57784 0
M  V30 4434 H 415.551 -2.77093 -7.28587 0
M  V30 4435 N 419.78 1.02168 -1.19998 0
M  V30 4436 C 420.743 2.08765 -0.94604 0
M  V30 4437 C 421.743 1.60618 0.0763846 0
M  V30 4438 O 422.933 1.73472 -0.159135 0
M  V30 4439 C 420.065 3.38262 -0.423255 0
M  V30 4440 H 421.258 2.32726 -1.89153 0
M  V30 4441 H 418.811 1.1889 -1.01464 0
M  V30 4442 H 419.546 3.19974 0.527938 0
M  V30 4443 H 419.331 3.74532 -1.16053 0
M  V30 4444 H 420.821 4.16759 -0.264911 0
M  V30 4445 N 421.258 1.00505 1.21394 0
M  V30 4446 C 422.486 0.706609 1.9446 0
M  V30 4447 C 422.901 -0.73081 1.74082 0
M  V30 4448 O 422.258 -1.49446 1.04747 0
M  V30 4449 C 422.309 1.01824 3.46863 0
M  V30 4450 O 422.03 2.39919 3.66566 0
M  V30 4451 C 423.531 0.739216 4.37093 0
M  V30 4452 H 420.751 0.260394 0.618414 0
M  V30 4453 H 423.295 1.34311 1.54211 0
M  V30 4454 H 421.45 0.427343 3.85036 0
M  V30 4455 H 421.864 2.50784 4.6066 0
M  V30 4456 H 423.338 1.00744 5.42729 0
M  V30 4457 H 423.815 -0.326746 4.37983 0
M  V30 4458 H 424.421 1.31173 4.04566 0
M  V30 4459 N 422.737 -1.36956 0.779787 0
M  V30 4460 C 423.647 -2.33965 0.172491 0
M  V30 4461 C 424.663 -1.60574 -0.670222 0
M  V30 4462 O 425.839 -1.92617 -0.588263 0
M  V30 4463 C 422.904 -3.39761 -0.690173 0
M  V30 4464 C 421.965 -4.28964 0.169924 0
M  V30 4465 C 421.198 -5.29707 -0.651662 0
M  V30 4466 O 421.421 -5.38238 -1.88827 0
M  V30 4467 O 420.355 -6.01873 -0.0566264 0
M  V30 4468 H 424.181 -2.87647 0.974321 0
M  V30 4469 H 421.766 -1.39258 0.541078 0
M  V30 4470 H 423.648 -4.04471 -1.1824 0
M  V30 4471 H 422.323 -2.88394 -1.47006 0
M  V30 4472 H 421.23 -3.67326 0.708696 0
M  V30 4473 H 422.563 -4.83656 0.913085 0
M  V30 4474 N 424.215 -0.530993 -1.48385 0
M  V30 4475 C 425.464 0.00474348 -2.01699 0
M  V30 4476 C 425.777 1.35227 -1.41325 0
M  V30 4477 O 426.983 1.97643 -1.86144 0
M  V30 4478 C 425.439 0.0588473 -3.59852 0
M  V30 4479 C 425.047 -1.28385 -4.2921 0
M  V30 4480 C 426.791 0.543358 -4.21008 0
M  V30 4481 C 424.698 -1.19028 -5.79298 0
M  V30 4482 H 423.628 0.00554317 -0.75398 0
M  V30 4483 H 426.279 -0.674924 -1.70637 0
M  V30 4484 H 424.661 0.803612 -3.8776 0
M  V30 4485 H 425.835 -2.04426 -4.12973 0
M  V30 4486 H 424.15 -1.70418 -3.7993 0
M  V30 4487 H 426.747 0.631351 -5.3096 0
M  V30 4488 H 427.09 1.54937 -3.86394 0
M  V30 4489 H 427.623 -0.145754 -3.97533 0
M  V30 4490 H 424.362 -2.17147 -6.18488 0
M  V30 4491 H 423.882 -0.471246 -5.97946 0
M  V30 4492 H 425.561 -0.881365 -6.40969 0
M  V30 4493 N 425.693 1.55336 -0.266172 0
M  V30 4494 C 426.939 1.99692 0.353681 0
M  V30 4495 C 427.272 1.1543 1.56172 0
M  V30 4496 O 426.547 0.222218 1.93226 0
M  V30 4497 C 426.83 3.52316 0.74466 0
M  V30 4498 C 426.683 4.47337 -0.470101 0
M  V30 4499 C 428.002 4.10588 1.58447 0
M  V30 4500 H 425.121 0.725961 0.12708 0
M  V30 4501 H 427.763 1.86336 -0.371333 0
M  V30 4502 H 425.913 3.63829 1.36239 0
M  V30 4503 H 427.585 4.4778 -1.10864 0
M  V30 4504 H 425.828 4.19364 -1.10978 0
M  V30 4505 H 426.499 5.51788 -0.15291 0
M  V30 4506 H 428.975 4.02297 1.06286 0
M  V30 4507 H 427.851 5.17607 1.82686 0
M  V30 4508 H 428.112 3.60253 2.56262 0
M  V30 4509 N 427.171 -0.0066808 1.57599 0
M  V30 4510 C 428.399 -0.704087 1.94551 0
M  V30 4511 C 428.814 -1.67677 0.867746 0
M  V30 4512 O 428.171 -1.8185 -0.153925 0
M  V30 4513 C 428.222 -1.44177 3.31505 0
M  V30 4514 O 427.943 -0.508097 4.35144 0
M  V30 4515 C 429.444 -2.23429 3.82876 0
M  V30 4516 H 426.664 -0.196523 0.641576 0
M  V30 4517 H 429.208 0.042453 2.04456 0
M  V30 4518 H 427.363 -2.13999 3.22929 0
M  V30 4519 H 427.777 -1.02782 5.14331 0
M  V30 4520 H 429.251 -2.70552 4.8115 0
M  V30 4521 H 429.728 -3.05818 3.15233 0
M  V30 4522 H 430.334 -1.58636 3.94607 0
M  V30 4523 N 428.649 -1.55105 -0.279332 0
M  V30 4524 C 429.596 -1.8755 -1.34513 0
M  V30 4525 C 430.566 -0.726384 -1.49375 0
M  V30 4526 O 431.751 -0.977063 -1.63884 0
M  V30 4527 C 428.891 -2.14738 -2.70151 0
M  V30 4528 C 428.004 -3.42285 -2.63562 0
M  V30 4529 C 427.139 -3.59206 -3.91337 0
M  V30 4530 C 426.178 -4.80467 -3.79233 0
M  V30 4531 N 425.315 -4.94079 -4.98829 0
M  V30 4532 H 430.155 -2.78456 -1.06143 0
M  V30 4533 H 427.692 -1.37867 -0.512936 0
M  V30 4534 H 429.65 -2.28501 -3.49061 0
M  V30 4535 H 428.28 -1.27075 -2.96735 0
M  V30 4536 H 427.332 -3.37029 -1.76397 0
M  V30 4537 H 428.644 -4.31328 -2.50515 0
M  V30 4538 H 427.798 -3.72751 -4.78687 0
M  V30 4539 H 426.537 -2.68337 -4.07243 0
M  V30 4540 H 425.542 -4.66932 -2.90266 0
M  V30 4541 H 426.767 -5.72765 -3.64852 0
M  V30 4542 H 424.713 -4.06139 -5.15158 0
M  V30 4543 H 424.63 -5.77156 -4.8829 0
M  V30 4544 H 425.898 -5.12003 -5.8777 0
M  V30 4545 N 430.127 0.543554 -1.4793 0
M  V30 4546 C 431.037 1.67657 -1.64098 0
M  V30 4547 C 432.053 1.65934 -0.523622 0
M  V30 4548 O 433.229 1.85133 -0.792943 0
M  V30 4549 C 430.294 3.04146 -1.66421 0
M  V30 4550 C 429.355 3.16831 -2.89684 0
M  V30 4551 C 428.588 4.46809 -2.91886 0
M  V30 4552 O 428.811 5.33095 -2.02895 0
M  V30 4553 O 427.745 4.63573 -3.83906 0
M  V30 4554 H 431.571 1.56957 -2.59997 0
M  V30 4555 H 429.156 0.715116 -1.31173 0
M  V30 4556 H 431.038 3.85346 -1.70548 0
M  V30 4557 H 429.713 3.152 -0.736923 0
M  V30 4558 H 428.62 2.34977 -2.91095 0
M  V30 4559 H 429.953 3.10687 -3.81752 0
M  V30 4560 N 431.605 1.3629 0.791371 0
M  V30 4561 C 432.854 1.29742 1.54434 0
M  V30 4562 C 433.167 -0.121729 1.95221 0
M  V30 4563 O 434.373 -0.309579 2.69729 0
M  V30 4564 C 432.829 2.27623 2.78776 0
M  V30 4565 C 432.437 3.74963 2.45166 0
M  V30 4566 C 434.181 2.30047 3.56761 0
M  V30 4567 C 432.088 4.64626 3.65891 0
M  V30 4568 H 431.018 0.482113 0.579727 0
M  V30 4569 H 433.669 1.61642 0.868565 0
M  V30 4570 H 432.051 1.88714 3.48142 0
M  V30 4571 H 433.225 4.22596 1.83709 0
M  V30 4572 H 431.54 3.75295 1.80396 0
M  V30 4573 H 434.137 2.94247 4.46456 0
M  V30 4574 H 434.48 1.30846 3.95203 0
M  V30 4575 H 435.013 2.67563 2.94372 0
M  V30 4576 H 431.752 5.64883 3.32547 0
M  V30 4577 H 431.272 4.2171 4.26521 0
M  V30 4578 H 432.951 4.80801 4.32943 0
M  V30 4579 N 433.083 -1.0153 1.20538 0
M  V30 4580 C 434.308 -1.79283 1.04271 0
M  V30 4581 C 434.733 -1.8372 -0.403544 0
M  V30 4582 O 434.091 -1.27321 -1.2907 0
M  V30 4583 C 434.139 -3.21535 1.63241 0
M  V30 4584 O 433.243 -4.03099 0.870908 0
M  V30 4585 H 432.584 -0.55293 0.367647 0
M  V30 4586 H 435.114 -1.27696 1.59859 0
M  V30 4587 H 435.124 -3.72243 1.6703 0
M  V30 4588 H 433.799 -3.1762 2.68497 0
M  V30 4589 H 432.376 -3.61693 0.907323 0
M  V30 4590 N 434.561 -1.01147 -1.20859 0
M  V30 4591 C 435.509 -0.57059 -2.25493 0
M  V30 4592 C 436.503 0.388109 -1.64894 0
M  V30 4593 O 437.709 0.258592 -1.78133 0
M  V30 4594 H 434.084 -0.166191 -0.733406 0
M  V30 4595 H 436.055 -1.46411 -2.60012 0
M  V30 4596 C 434.804 0.0805241 -3.47607 0
M  V30 4597 H 434.127 -0.648156 -3.94511 0
M  V30 4598 H 435.567 0.352197 -4.22535 0
M  V30 4599 C 434.026 1.32175 -3.09889 0
M  V30 4600 O 434.556 2.41553 -3.20959 0
M  V30 4601 N 432.762 1.20392 -2.64488 0
M  V30 4602 H 432.309 0.313905 -2.5568 0
M  V30 4603 H 432.267 2.03541 -2.39621 0
M  V30 4604 N 436.039 1.36541 -0.78704 0
M  V30 4605 C 437.264 2.0409 -0.369053 0
M  V30 4606 C 437.689 1.58957 1.00569 0
M  V30 4607 O 437.047 0.756926 1.64743 0
M  V30 4608 C 437.095 3.57924 -0.438466 0
M  V30 4609 O 436.199 4.08642 0.555479 0
M  V30 4610 H 435.54 0.645142 -0.157122 0
M  V30 4611 H 438.07 1.74545 -1.06749 0
M  V30 4612 H 438.08 4.06887 -0.301218 0
M  V30 4613 H 436.755 3.90127 -1.44132 0
M  V30 4614 H 435.332 3.70958 0.380088 0
M  V30 4615 N 437.518 0.538854 1.48102 0
M  V30 4616 C 438.929 0.100679 1.86428 0
M  V30 4617 C 439.28 -1.32447 1.44749 0
M  V30 4618 O 438.405 -1.99339 0.842199 0
M  V30 4619 C 439 0.175933 3.38343 0
M  V30 4620 C 437.559 -0.207098 3.7583 0
M  V30 4621 C 436.706 0.531741 2.72154 0
M  V30 4622 H 439.657 0.749614 1.3988 0
M  V30 4623 H 439.678 -0.610144 3.75576 0
M  V30 4624 H 439.19 1.21328 3.68648 0
M  V30 4625 H 437.291 -1.24626 3.5114 0
M  V30 4626 H 437.404 0.138687 4.78899 0
M  V30 4627 H 435.768 -0.0230462 2.5469 0
M  V30 4628 H 436.551 1.56989 3.05302 0
M  V30 4629 N 438.996 -1.55193 0.274407 0
M  V30 4630 C 439.928 -2.1989 -0.646595 0
M  V30 4631 C 440.941 -1.1834 -1.11801 0
M  V30 4632 O 442.13 -1.4507 -1.04004 0
M  V30 4633 C 439.23 -2.8104 -1.89393 0
M  V30 4634 C 438.403 -4.08274 -1.56943 0
M  V30 4635 C 437.462 -4.53478 -2.66916 0
M  V30 4636 O 436.488 -5.19267 -2.33132 0
M  V30 4637 N 437.69 -4.2356 -3.9696 0
M  V30 4638 H 440.455 -2.99556 -0.0928686 0
M  V30 4639 H 438.016 -1.61618 0.0954783 0
M  V30 4640 H 440.008 -3.08226 -2.62257 0
M  V30 4641 H 438.578 -2.05372 -2.35672 0
M  V30 4642 H 437.798 -3.88384 -0.674655 0
M  V30 4643 H 439.086 -4.91173 -1.32764 0
M  V30 4644 H 438.484 -3.70799 -4.27229 0
M  V30 4645 H 437.041 -4.55518 -4.66205 0
M  V30 4646 N 440.474 -0.00167713 -1.576 0
M  V30 4647 C 441.702 0.693759 -1.94922 0
M  V30 4648 C 442.117 1.67215 -0.876626 0
M  V30 4649 O 441.474 1.81929 0.144279 0
M  V30 4650 C 441.525 1.42416 -3.32265 0
M  V30 4651 O 441.246 0.485014 -4.35407 0
M  V30 4652 C 442.747 2.21395 -3.84056 0
M  V30 4653 H 439.967 0.193118 -0.642609 0
M  V30 4654 H 442.511 -0.0532952 -2.04431 0
M  V30 4655 H 440.666 2.12284 -3.24059 0
M  V30 4656 H 441.08 1.00053 -5.14868 0
M  V30 4657 H 442.554 2.67996 -4.82578 0
M  V30 4658 H 443.031 3.04142 -3.16851 0
M  V30 4659 H 443.637 1.56542 -3.95443 0
M  V30 4660 N 441.952 1.55251 0.271103 0
M  V30 4661 C 442.899 1.88261 1.33516 0
M  V30 4662 C 443.869 0.734296 1.48988 0
M  V30 4663 O 445.054 0.985741 1.63364 0
M  V30 4664 C 442.194 2.16168 2.69008 0
M  V30 4665 C 441.307 3.43678 2.61743 0
M  V30 4666 C 440.442 3.61276 3.89427 0
M  V30 4667 C 439.481 4.82472 3.7668 0
M  V30 4668 N 438.618 4.96717 4.96202 0
M  V30 4669 H 443.458 2.79015 1.04665 0
M  V30 4670 H 440.995 1.38137 0.505618 0
M  V30 4671 H 442.953 2.30349 3.47844 0
M  V30 4672 H 441.583 1.28646 2.96057 0
M  V30 4673 H 440.635 3.37959 1.74607 0
M  V30 4674 H 441.947 4.3265 2.48224 0
M  V30 4675 H 441.101 3.75284 4.76704 0
M  V30 4676 H 439.84 2.70492 4.05814 0
M  V30 4677 H 438.845 4.68465 2.87786 0
M  V30 4678 H 440.07 5.74692 3.61809 0
M  V30 4679 H 438.016 4.08865 5.12997 0
M  V30 4680 H 437.933 5.79738 4.85222 0
M  V30 4681 H 439.201 5.15113 5.85046 0
M  V30 4682 O 443.469 -0.416875 1.56027 0
M  V30 4683 H 444.16 -1.06974 1.61481 0
M  V30 END ATOM
M  V30 BEGIN BOND
M  V30 END BOND
M  V30 END CTAB
M  END
$$$$
