drugbank_target|Q02763 Angiopoietin-1 receptor (DB00415; DB05294; DB08221; DB08896; DB08901; DB12010; DB14840)
 OpenBabel12092120313D

  0  0  0     0  0            999 V3000
M  V30 BEGIN CTAB
M  V30 COUNTS 17593 17796 0 0 0
M  V30 BEGIN ATOM
M  V30 1 H -0.908 1.98254 -0.117106 0
M  V30 2 N 0 1.576 0 0
M  V30 3 C 0.933 2.03868 1.02534 0
M  V30 4 C 1.911 0.928543 1.3348 0
M  V30 5 O 3.095 1.19667 1.45644 0
M  V30 6 C 0.222 2.43627 2.35294 0
M  V30 7 C -0.732 3.65373 2.2001 0
M  V30 8 S 0.101 5.13292 1.52614 0
M  V30 9 C 1.257 5.56322 2.86805 0
M  V30 10 H 1.49 2.90518 0.631377 0
M  V30 11 H -0.977 1.52953 0.210867 0
M  V30 12 H 0.981 2.67203 3.11629 0
M  V30 13 H -0.358 1.57376 2.7183 0
M  V30 14 H -1.165 3.90944 3.18086 0
M  V30 15 H -1.563 3.418 1.51819 0
M  V30 16 H 0.729 5.58782 3.83104 0
M  V30 17 H 1.672 6.56266 2.65933 0
M  V30 18 H 2.08 4.83886 2.90714 0
M  V30 19 N 1.4781 -0.272755 1.55222 0
M  V30 20 C 2.7551 -1.02562 1.66555 0
M  V30 21 C 3.1351 -2.04282 0.532189 0
M  V30 22 O 2.4831 -2.23662 -0.467717 0
M  V30 23 C 2.6931 -1.6822 3.05782 0
M  V30 24 C 4.0411 -2.19373 3.63539 0
M  V30 25 O 5.0651 -1.78206 3.08417 0
M  V30 26 O 3.9241 -2.94883 4.60115 0
M  V30 27 H 1.0181 -0.475755 0.676451 0
M  V30 28 H 3.5641 -0.268593 1.67561 0
M  V30 29 H 2.3361 -0.945112 3.79715 0
M  V30 30 H 1.9591 -2.50609 3.08676 0
M  V30 31 N 2.9562 -1.48159 -0.537278 0
M  V30 32 C 4.1812 -1.59707 -1.32319 0
M  V30 33 C 4.6062 -0.254859 -1.86365 0
M  V30 34 O 3.9642 0.772378 -1.64024 0
M  V30 35 C 4.0122 -2.6412 -2.45505 0
M  V30 36 O 3.1162 -2.20774 -3.48328 0
M  V30 37 H 2.4572 -0.535791 -0.392204 0
M  V30 38 H 4.9872 -1.94092 -0.647268 0
M  V30 39 H 4.9972 -2.85166 -2.91795 0
M  V30 40 H 3.6722 -3.61567 -2.05528 0
M  V30 41 H 2.2492 -2.09911 -3.08207 0
M  V30 42 N 4.4343 0.785586 -1.36625 0
M  V30 43 C 5.3643 1.91259 -1.33949 0
M  V30 44 C 6.3453 1.68795 -0.210325 0
M  V30 45 O 7.5303 1.89854 -0.408561 0
M  V30 46 C 4.6603 3.28339 -1.13186 0
M  V30 47 C 3.6143 3.65335 -2.22967 0
M  V30 48 C 2.9403 5.00806 -1.87342 0
M  V30 49 C 4.2403 3.7352 -3.65075 0
M  V30 50 H 5.9343 1.93755 -2.28253 0
M  V30 51 H 3.4803 0.930788 -1.09874 0
M  V30 52 H 5.4333 4.06804 -1.09948 0
M  V30 53 H 4.1573 3.2624 -0.153332 0
M  V30 54 H 2.8163 2.89169 -2.25337 0
M  V30 55 H 2.4643 4.95233 -0.880545 0
M  V30 56 H 2.1643 5.26529 -2.60846 0
M  V30 57 H 3.6883 5.81687 -1.85667 0
M  V30 58 H 5.1023 4.42168 -3.64911 0
M  V30 59 H 3.4993 4.10731 -4.37516 0
M  V30 60 H 4.5693 2.74527 -3.99703 0
M  V30 61 N 5.9124 1.20967 1.01018 0
M  V30 62 C 6.8754 0.965918 2.07853 0
M  V30 63 C 7.8754 -0.0610545 1.60684 0
M  V30 64 O 9.0654 0.175681 1.73312 0
M  V30 65 C 6.1974 0.455513 3.37843 0
M  V30 66 H 7.3904 1.91365 2.3091 0
M  V30 67 H 4.9434 1.02594 1.17916 0
M  V30 68 H 5.6784 -0.497381 3.20463 0
M  V30 69 H 5.4634 1.19622 3.73407 0
M  V30 70 H 6.9534 0.304667 4.16487 0
M  V30 71 N 7.3905 -1.2043 1.01659 0
M  V30 72 C 8.6155 -1.94318 0.724942 0
M  V30 73 C 9.0405 -1.74266 -0.708034 0
M  V30 74 O 8.3985 -1.03694 -1.48719 0
M  V30 75 C 8.4465 -3.44486 1.06591 0
M  V30 76 O 7.5505 -4.12017 0.177599 0
M  V30 77 H 6.8915 -0.60708 0.26898 0
M  V30 78 H 9.4215 -1.52861 1.35995 0
M  V30 79 H 9.4315 -3.95106 1.01762 0
M  V30 80 H 8.1065 -3.58404 2.10997 0
M  V30 81 H 6.6835 -3.71821 0.283421 0
M  V30 82 N 8.8686 -0.792821 -1.36206 0
M  V30 83 C 9.7986 -0.207853 -2.32573 0
M  V30 84 C 10.7796 0.659055 -1.56813 0
M  V30 85 O 11.9646 0.592176 -1.84951 0
M  V30 86 C 9.0946 0.655449 -3.41059 0
M  V30 87 C 8.0486 -0.111842 -4.27854 0
M  V30 88 C 7.3746 0.872274 -5.27537 0
M  V30 89 C 8.6746 -1.30299 -5.05786 0
M  V30 90 H 10.3686 -1.01294 -2.81744 0
M  V30 91 H 7.9146 -0.48854 -1.3546 0
M  V30 92 H 9.8676 1.07464 -4.07467 0
M  V30 93 H 8.5916 1.49328 -2.90463 0
M  V30 94 H 7.2506 -0.512053 -3.63006 0
M  V30 95 H 6.8986 1.70523 -4.73214 0
M  V30 96 H 6.5986 0.363291 -5.86476 0
M  V30 97 H 8.1226 1.28996 -5.96818 0
M  V30 98 H 9.5366 -0.959379 -5.65216 0
M  V30 99 H 7.9336 -1.7455 -5.74154 0
M  V30 100 H 9.0036 -2.09663 -4.37229 0
M  V30 101 N 10.3467 1.47872 -0.545128 0
M  V30 102 C 11.5927 2.02793 -0.0166104 0
M  V30 103 C 11.9257 1.41987 1.32489 0
M  V30 104 O 11.2007 0.571045 1.85928 0
M  V30 105 C 11.4837 3.59989 0.0893294 0
M  V30 106 C 11.3367 4.3125 -1.27841 0
M  V30 107 C 12.6557 4.32606 0.808724 0
M  V30 108 H 9.7747 0.736962 -0.00751035 0
M  V30 109 H 12.4167 1.76433 -0.705085 0
M  V30 110 H 10.5667 3.82579 0.675681 0
M  V30 111 H 12.2387 4.20035 -1.90704 0
M  V30 112 H 10.4817 3.92076 -1.85632 0
M  V30 113 H 11.1527 5.39736 -1.15713 0
M  V30 114 H 13.6287 4.14936 0.310992 0
M  V30 115 H 12.5047 5.42251 0.851782 0
M  V30 116 H 12.7657 4.00963 1.86229 0
M  V30 117 N 11.8248 0.280983 1.55075 0
M  V30 118 C 12.7548 -0.597469 2.25727 0
M  V30 119 C 13.7358 -1.15417 1.24952 0
M  V30 120 O 14.9208 -1.18722 1.53684 0
M  V30 121 C 12.0508 -1.7789 2.98283 0
M  V30 122 C 11.0048 -1.35347 4.06036 0
M  V30 123 C 10.3308 -2.61846 4.66198 0
M  V30 124 C 11.6308 -0.499354 5.19907 0
M  V30 125 H 13.3248 -0.00824265 2.99399 0
M  V30 126 H 10.8708 -0.0025244 1.44 0
M  V30 127 H 12.8238 -2.39937 3.46422 0
M  V30 128 H 11.5478 -2.39405 2.22155 0
M  V30 129 H 10.2068 -0.756156 3.58717 0
M  V30 130 H 9.8548 -3.21632 3.86732 0
M  V30 131 H 9.5548 -2.3409 5.38958 0
M  V30 132 H 11.0788 -3.24732 5.1709 0
M  V30 133 H 12.4928 -1.02498 5.64063 0
M  V30 134 H 10.8898 -0.316424 5.99265 0
M  V30 135 H 11.9598 0.480459 4.82514 0
M  V30 136 N 13.3029 -1.57598 0.00835791 0
M  V30 137 C 14.5429 -1.92788 -0.679136 0
M  V30 138 C 14.9069 -0.883378 -1.70471 0
M  V30 139 O 16.1079 -1.12079 -2.44319 0
M  V30 140 C 14.3789 -3.32994 -1.29807 0
M  V30 141 S 15.9379 -3.90082 -2.00952 0
M  V30 142 H 12.7559 -0.67475 -0.224127 0
M  V30 143 H 15.3579 -1.95385 0.0670497 0
M  V30 144 H 14.0619 -4.06846 -0.538922 0
M  V30 145 H 13.5929 -3.33791 -2.082 0
M  V30 146 H 15.6079 -3.71834 -3.28563 0
M  V30 147 N 14.781 0.264519 -1.55364 0
M  V30 148 C 16.029 0.993021 -1.76021 0
M  V30 149 C 16.35 1.86511 -0.569099 0
M  V30 150 O 15.62 1.91438 0.415735 0
M  V30 151 H 14.2 0.369639 -0.649135 0
M  V30 152 H 16.862 0.286707 -1.9278 0
M  V30 153 H 15.958 1.62502 -2.66457 0
M  V30 154 N 16.2591 1.48442 0.529413 0
M  V30 155 C 17.5051 1.5672 1.28711 0
M  V30 156 C 17.8381 0.2406 1.92704 0
M  V30 157 O 17.1131 -0.753454 1.79313 0
M  V30 158 C 17.3961 2.70587 2.37603 0
M  V30 159 C 17.2491 4.12953 1.78297 0
M  V30 160 C 18.5681 2.80212 3.39366 0
M  V30 161 H 15.6871 0.570474 0.466613 0
M  V30 162 H 18.3291 1.80617 0.589706 0
M  V30 163 H 16.4791 2.50342 2.97088 0
M  V30 164 H 18.1511 4.44639 1.22858 0
M  V30 165 H 16.3941 4.19927 1.0883 0
M  V30 166 H 17.0651 4.88448 2.57144 0
M  V30 167 H 19.5411 2.98553 2.89836 0
M  V30 168 H 18.4171 3.61611 4.12951 0
M  V30 169 H 18.6781 1.88393 3.99951 0
M  V30 170 N 17.7372 -0.778329 1.37039 0
M  V30 171 C 18.9622 -1.57248 1.35233 0
M  V30 172 C 19.3872 -1.87999 -0.0615568 0
M  V30 173 O 18.7452 -1.48734 -1.03672 0
M  V30 174 C 18.7932 -2.86353 2.19167 0
M  V30 175 O 17.8972 -3.80442 1.59178 0
M  V30 176 H 17.2382 -0.476569 0.462362 0
M  V30 177 H 19.7682 -0.963853 1.80474 0
M  V30 178 H 19.7782 -3.35519 2.32145 0
M  V30 179 H 18.4532 -2.63299 3.21942 0
M  V30 180 H 17.0302 -3.39067 1.55203 0
M  V30 181 N 19.2153 -1.21501 -1.00376 0
M  V30 182 C 20.1453 -0.999478 -2.11028 0
M  V30 183 C 21.1263 0.0759671 -1.6993 0
M  V30 184 O 22.3113 -0.0841106 -1.94018 0
M  V30 185 C 19.4413 -0.564709 -3.42678 0
M  V30 186 C 18.3953 -1.58486 -3.97576 0
M  V30 187 C 17.7213 -1.00628 -5.25146 0
M  V30 188 C 19.0213 -2.97204 -4.29496 0
M  V30 189 H 20.7153 -1.92495 -2.29317 0
M  V30 190 H 18.2613 -0.92693 -1.102 0
M  V30 191 H 20.2143 -0.401091 -4.19487 0
M  V30 192 H 18.9383 0.396411 -3.24185 0
M  V30 193 H 17.5973 -1.73606 -3.22888 0
M  V30 194 H 17.2453 -0.0368439 -5.02987 0
M  V30 195 H 16.9453 -1.68771 -5.62841 0
M  V30 196 H 18.4693 -0.854015 -6.04598 0
M  V30 197 H 19.8833 -2.8552 -4.97143 0
M  V30 198 H 18.2803 -3.62372 -4.78338 0
M  V30 199 H 19.3503 -3.47956 -3.3772 0
M  V30 200 N 20.6934 1.19889 -1.02296 0
M  V30 201 C 21.6234 2.25141 -0.619174 0
M  V30 202 C 22.6044 1.66051 0.368915 0
M  V30 203 O 23.7894 1.92546 0.252941 0
M  V30 204 C 20.9194 3.4728 0.0368783 0
M  V30 205 C 19.8734 4.19005 -0.872865 0
M  V30 206 C 19.1994 5.34637 -0.0822402 0
M  V30 207 C 20.4994 4.74452 -2.18387 0
M  V30 208 H 22.1934 2.59171 -1.49903 0
M  V30 209 H 19.7394 1.24579 -0.722222 0
M  V30 210 H 21.6924 4.20098 0.330958 0
M  V30 211 H 20.4164 3.12433 0.95149 0
M  V30 212 H 19.0754 3.48061 -1.15105 0
M  V30 213 H 18.7234 4.96034 0.83422 0
M  V30 214 H 18.4234 5.83557 -0.688149 0
M  V30 215 H 19.9474 6.10255 0.205238 0
M  V30 216 H 21.3614 5.39055 -1.95172 0
M  V30 217 H 19.7584 5.33834 -2.74119 0
M  V30 218 H 20.8284 3.92844 -2.84257 0
M  V30 219 N 22.1715 0.800033 1.35784 0
M  V30 220 C 23.1015 0.220184 2.3246 0
M  V30 221 C 24.0825 -0.65073 1.57161 0
M  V30 222 O 25.2675 -0.582359 1.85263 0
M  V30 223 C 22.3975 -0.637353 3.41402 0
M  V30 224 C 21.3515 0.134531 4.27789 0
M  V30 225 C 20.6775 -0.844285 5.27992 0
M  V30 226 C 21.9775 1.32979 5.05088 0
M  V30 227 H 23.6715 1.02787 2.81203 0
M  V30 228 H 21.2175 0.495717 1.35199 0
M  V30 229 H 23.1705 -1.05302 4.08031 0
M  V30 230 H 21.8945 -1.47785 2.91251 0
M  V30 231 H 20.5535 0.531296 3.6273 0
M  V30 232 H 20.2015 -1.68011 4.74111 0
M  V30 233 H 19.9015 -0.332184 5.8666 0
M  V30 234 H 21.4255 -1.2583 5.97494 0
M  V30 235 H 22.8395 0.98934 5.64699 0
M  V30 236 H 21.2365 1.77593 5.7322 0
M  V30 237 H 22.3065 2.11978 4.36111 0
M  V30 238 N 23.6496 -1.47581 0.552962 0
M  V30 239 C 24.8746 -2.07378 0.0300593 0
M  V30 240 C 25.2996 -1.40355 -1.25229 0
M  V30 241 O 24.6576 -0.477099 -1.7491 0
M  V30 242 C 24.7056 -3.60274 -0.153231 0
M  V30 243 O 23.8096 -3.94041 -1.21678 0
M  V30 244 H 23.1506 -0.662158 0.0494182 0
M  V30 245 H 25.6806 -1.89662 0.767434 0
M  V30 246 H 25.6906 -4.0633 -0.368761 0
M  V30 247 H 24.3656 -4.08455 0.783397 0
M  V30 248 H 22.9426 -3.59735 -0.982079 0
M  V30 249 N 25.1277 -0.289203 -1.54924 0
M  V30 250 C 26.3757 0.322879 -1.99504 0
M  V30 251 C 26.6967 1.55313 -1.1791 0
M  V30 252 O 25.9667 1.94001 -0.272097 0
M  V30 253 H 24.5467 0.122291 -0.736922 0
M  V30 254 H 27.2087 -0.397802 -1.90797 0
M  V30 255 H 26.3047 0.603061 -3.06218 0
M  V30 256 N 26.6058 1.57591 -0.0167156 0
M  V30 257 C 27.8338 1.95575 0.675128 0
M  V30 258 C 28.2488 0.892542 1.6637 0
M  V30 259 O 27.6058 -0.126912 1.82058 0
M  V30 260 C 27.6568 3.33608 1.39239 0
M  V30 261 O 27.3778 4.3585 0.443444 0
M  V30 262 C 28.8788 3.86151 2.17721 0
M  V30 263 H 26.0988 0.644423 0.186978 0
M  V30 264 H 28.6428 2.0437 -0.0728 0
M  V30 265 H 26.7978 3.2607 2.09182 0
M  V30 266 H 27.2118 5.158 0.951358 0
M  V30 267 H 28.6858 4.85114 2.63379 0
M  V30 268 H 29.1628 3.19738 3.01105 0
M  V30 269 H 29.7688 3.96918 1.52761 0
M  V30 270 N 28.0839 -0.256276 1.55502 0
M  V30 271 C 29.3299 -0.987079 1.77157 0
M  V30 272 C 29.6629 -1.85327 0.580315 0
M  V30 273 O 28.9379 -1.89874 -0.421686 0
M  V30 274 C 29.2209 -1.85553 3.08613 0
M  V30 275 C 29.0739 -1.01816 4.38125 0
M  V30 276 C 30.3929 -2.8397 3.36228 0
M  V30 277 H 27.5119 -0.357428 0.644526 0
M  V30 278 H 30.1539 -0.258239 1.88237 0
M  V30 279 H 28.3039 -2.47695 2.99298 0
M  V30 280 H 29.9759 -0.416159 4.59419 0
M  V30 281 H 28.2189 -0.322178 4.32602 0
M  V30 282 H 28.8899 -1.65939 5.26468 0
M  V30 283 H 31.3659 -2.31964 3.45445 0
M  V30 284 H 30.2419 -3.41864 4.29442 0
M  V30 285 H 30.5029 -3.59955 2.56681 0
M  V30 286 N 29.562 -1.4872 -0.521534 0
M  V30 287 C 30.472 -1.66569 -1.65203 0
M  V30 288 C 31.488 -0.548197 -1.65139 0
M  V30 289 O 32.664 -0.820339 -1.83936 0
M  V30 290 C 29.729 -1.70917 -3.01642 0
M  V30 291 C 28.79 -2.94356 -3.12495 0
M  V30 292 C 28.023 -2.98487 -4.42426 0
M  V30 293 O 28.246 -2.10786 -5.30024 0
M  V30 294 O 27.18 -3.90746 -4.57822 0
M  V30 295 H 31.006 -2.62298 -1.5308 0
M  V30 296 H 28.591 -1.3222 -0.695565 0
M  V30 297 H 30.473 -1.7625 -3.82771 0
M  V30 298 H 29.148 -0.783633 -3.14071 0
M  V30 299 H 28.055 -2.94552 -2.3063 0
M  V30 300 H 29.388 -3.86322 -3.04986 0
M  V30 301 N 31.0401 0.771051 -1.3745 0
M  V30 302 C 32.2881 1.52661 -1.32435 0
M  V30 303 C 32.6091 1.9479 0.0905024 0
M  V30 304 O 31.8791 1.66348 1.03466 0
M  V30 305 H 30.4591 0.566218 -0.487244 0
M  V30 306 H 33.1211 0.917636 -1.71946 0
M  V30 307 H 32.2171 2.42568 -1.96385 0
M  V30 308 N 32.5182 1.22032 0.997298 0
M  V30 309 C 33.4812 0.987909 2.06816 0
M  V30 310 C 34.4812 -0.0440084 1.6074 0
M  V30 311 O 35.6712 0.194053 1.73116 0
M  V30 312 C 32.8032 0.49132 3.37341 0
M  V30 313 H 33.9962 1.93803 2.28868 0
M  V30 314 H 31.5492 1.03838 1.16822 0
M  V30 315 H 32.2842 -0.463364 3.20973 0
M  V30 316 H 32.0692 1.23575 3.72118 0
M  V30 317 H 33.5592 0.348824 4.16141 0
M  V30 318 N 33.9963 -1.19345 1.0293 0
M  V30 319 C 34.9293 -2.21347 0.555029 0
M  V30 320 C 35.9073 -1.57492 -0.404351 0
M  V30 321 O 37.0913 -1.85741 -0.321352 0
M  V30 322 C 34.2183 -3.38163 -0.19064 0
M  V30 323 C 33.2643 -4.20375 0.720236 0
M  V30 324 S 34.0973 -4.88371 2.19668 0
M  V30 325 C 35.2533 -6.08597 1.46153 0
M  V30 326 H 35.4863 -2.61235 1.41929 0
M  V30 327 H 33.0193 -1.29598 0.839272 0
M  V30 328 H 34.9773 -4.05871 -0.614724 0
M  V30 329 H 33.6383 -2.9671 -1.03063 0
M  V30 330 H 32.8313 -5.03793 0.14455 0
M  V30 331 H 32.4333 -3.57987 1.08266 0
M  V30 332 H 34.7253 -6.73354 0.748357 0
M  V30 333 H 35.6683 -6.7065 2.27233 0
M  V30 334 H 36.0763 -5.56297 0.958842 0
M  V30 335 N 35.4744 -0.807222 -1.35358 0
M  V30 336 C 36.7514 -0.311126 -1.9311 0
M  V30 337 C 37.1314 1.19937 -1.73719 0
M  V30 338 O 36.4794 1.99918 -1.10657 0
M  V30 339 C 36.6894 -0.723226 -3.41424 0
M  V30 340 C 38.0374 -0.713078 -4.18569 0
M  V30 341 O 39.0614 -0.664811 -3.49941 0
M  V30 342 O 37.9204 -0.772022 -5.41019 0
M  V30 343 H 35.0144 -0.081526 -0.822972 0
M  V30 344 H 37.5604 -0.890962 -1.4443 0
M  V30 345 H 36.3324 -1.76426 -3.4927 0
M  V30 346 H 35.9554 -0.118232 -3.97424 0
M  V30 347 N 36.9525 1.47285 -0.560781 0
M  V30 348 C 37.8825 2.32857 0.173105 0
M  V30 349 C 38.8635 1.44009 0.905281 0
M  V30 350 O 40.0485 1.7286 0.885046 0
M  V30 351 C 37.1785 3.25861 1.20133 0
M  V30 352 C 36.1325 4.23978 0.585388 0
M  V30 353 C 35.4585 5.06332 1.7185 0
M  V30 354 C 36.7585 5.20242 -0.463178 0
M  V30 355 H 38.4525 2.94466 -0.541307 0
M  V30 356 H 35.9985 1.41601 -0.261764 0
M  V30 357 H 37.9515 3.84569 1.72293 0
M  V30 358 H 36.6755 2.62315 1.94573 0
M  V30 359 H 35.3345 3.66501 0.085054 0
M  V30 360 H 34.9825 4.39186 2.45203 0
M  V30 361 H 34.6825 5.72762 1.31213 0
M  V30 362 H 36.2065 5.67899 2.24329 0
M  V30 363 H 37.6205 5.73293 -0.027502 0
M  V30 364 H 36.0175 5.94896 -0.788627 0
M  V30 365 H 37.0875 4.65504 -1.35773 0
M  V30 366 N 38.4306 0.297415 1.54768 0
M  V30 367 C 39.6796 -0.313669 1.99246 0
M  V30 368 C 39.9926 -1.55281 1.18942 0
M  V30 369 O 41.1986 -2.23825 1.5367 0
M  V30 370 C 39.6546 -0.609407 3.54703 0
M  V30 371 C 39.2626 0.611192 4.43811 0
M  V30 372 C 41.0066 -1.18188 4.07715 0
M  V30 373 C 38.9136 0.288805 5.90694 0
M  V30 374 H 37.8436 -0.120979 0.744231 0
M  V30 375 H 40.4946 0.40556 1.78962 0
M  V30 376 H 38.8766 -1.38813 3.70873 0
M  V30 377 H 40.0506 1.3875 4.39414 0
M  V30 378 H 38.3656 1.10205 4.01552 0
M  V30 379 H 40.9626 -1.43727 5.15021 0
M  V30 380 H 41.3056 -2.12299 3.58099 0
M  V30 381 H 41.8386 -0.464944 3.95074 0
M  V30 382 H 38.5776 1.19838 6.44453 0
M  V30 383 H 38.0976 -0.450305 5.98107 0
M  V30 384 H 39.7766 -0.110933 6.46905 0
M  V30 385 N 39.9087 -1.5758 0.0250728 0
M  V30 386 C 40.8387 -2.13007 -0.956575 0
M  V30 387 C 41.8197 -1.0452 -1.342 0
M  V30 388 O 43.0047 -1.32332 -1.42133 0
M  V30 389 C 40.1347 -2.65386 -2.24026 0
M  V30 390 C 39.0887 -3.78623 -1.99571 0
M  V30 391 C 38.4147 -4.17414 -3.3417 0
M  V30 392 C 39.7147 -5.04867 -1.33814 0
M  V30 393 H 41.4087 -2.9528 -0.494991 0
M  V30 394 H 38.9547 -1.42042 -0.236651 0
M  V30 395 H 40.9077 -3.02794 -2.93076 0
M  V30 396 H 39.6317 -1.80268 -2.72343 0
M  V30 397 H 38.2907 -3.41646 -1.32941 0
M  V30 398 H 37.9387 -3.29284 -3.80238 0
M  V30 399 H 37.6387 -4.93719 -3.18615 0
M  V30 400 H 39.1627 -4.57402 -4.04495 0
M  V30 401 H 40.5767 -5.39888 -1.92857 0
M  V30 402 H 38.9737 -5.86144 -1.28669 0
M  V30 403 H 40.0437 -4.83904 -0.310561 0
M  V30 404 N 41.3868 0.248026 -1.55636 0
M  V30 405 C 42.6358 0.974134 -1.76617 0
M  V30 406 C 42.9488 1.86528 -0.588796 0
M  V30 407 O 44.1548 2.62805 -0.681594 0
M  V30 408 C 42.6108 1.78213 -3.12679 0
M  V30 409 C 42.2188 0.93843 -4.38061 0
M  V30 410 C 43.9628 2.50104 -3.42999 0
M  V30 411 C 41.8698 1.74225 -5.65155 0
M  V30 412 H 40.7998 0.36745 -0.658405 0
M  V30 413 H 43.4508 0.22884 -1.82067 0
M  V30 414 H 41.8328 2.56933 -3.01333 0
M  V30 415 H 43.0068 0.193635 -4.60393 0
M  V30 416 H 41.3218 0.332905 -4.15067 0
M  V30 417 H 43.9188 3.10694 -4.3517 0
M  V30 418 H 44.2618 3.21662 -2.64271 0
M  V30 419 H 44.7948 1.78395 -3.55556 0
M  V30 420 H 41.5338 1.07043 -6.46701 0
M  V30 421 H 41.0538 2.46235 -5.46926 0
M  V30 422 H 42.7328 2.30967 -6.0437 0
M  V30 423 N 42.8649 1.48995 0.513639 0
M  V30 424 C 43.8129 1.65199 1.63744 0
M  V30 425 C 44.8069 0.51809 1.61283 0
M  V30 426 O 46.0129 0.697335 1.65943 0
M  V30 427 H 42.3879 0.52069 0.542574 0
M  V30 428 H 44.3589 2.59552 1.47226 0
M  V30 429 C 43.1079 1.72409 3.01945 0
M  V30 430 H 42.4309 2.59029 3.04539 0
M  V30 431 H 43.8709 1.87785 3.80148 0
M  V30 432 C 42.3299 0.46618 3.33659 0
M  V30 433 O 42.8599 -0.413744 3.99564 0
M  V30 434 N 41.0659 0.332931 2.88687 0
M  V30 435 H 40.6129 1.04996 2.35231 0
M  V30 436 H 40.5709 -0.507665 3.10274 0
M  V30 437 N 44.343 -0.763751 1.37857 0
M  V30 438 C 45.568 -1.55805 1.36893 0
M  V30 439 C 45.993 -1.88054 -0.0416135 0
M  V30 440 O 45.351 -1.49825 -1.02089 0
M  V30 441 C 45.399 -2.84012 2.22192 0
M  V30 442 O 44.503 -3.78732 1.63204 0
M  V30 443 H 43.844 -0.471638 0.46739 0
M  V30 444 H 46.374 -0.944657 1.81487 0
M  V30 445 H 46.384 -3.33037 2.35691 0
M  V30 446 H 45.059 -2.59869 3.24716 0
M  V30 447 H 43.636 -3.37402 1.58791 0
M  V30 448 N 45.8211 -1.22559 -0.990812 0
M  V30 449 C 46.7511 -1.0218 -2.09956 0
M  V30 450 C 47.7321 0.0579394 -1.70001 0
M  V30 451 O 48.9171 -0.104684 -1.93918 0
M  V30 452 C 46.0471 -0.601023 -3.4206 0
M  V30 453 C 45.0011 -1.62694 -3.95872 0
M  V30 454 C 44.3271 -1.06193 -5.24049 0
M  V30 455 C 45.6271 -3.01743 -4.2632 0
M  V30 456 H 47.3211 -1.94916 -2.27262 0
M  V30 457 H 44.8671 -0.938566 -1.09211 0
M  V30 458 H 46.8201 -0.445561 -4.19038 0
M  V30 459 H 45.5441 0.362005 -3.24588 0
M  V30 460 H 44.2031 -1.77021 -3.21028 0
M  V30 461 H 43.8511 -0.0901903 -5.02919 0
M  V30 462 H 43.5511 -1.74732 -5.61019 0
M  V30 463 H 45.0751 -0.918092 -6.03658 0
M  V30 464 H 46.4891 -2.90777 -4.94087 0
M  V30 465 H 44.8861 -3.67425 -4.74467 0
M  V30 466 H 45.9561 -3.51518 -3.34011 0
M  V30 467 N 47.2992 1.18797 -1.03562 0
M  V30 468 C 48.7102 1.70322 -0.764676 0
M  V30 469 C 49.0612 1.82708 0.714996 0
M  V30 470 O 48.1862 1.50299 1.55689 0
M  V30 471 C 48.7812 3.09356 -1.38145 0
M  V30 472 C 47.3402 3.58114 -1.15895 0
M  V30 473 C 46.4872 2.34798 -1.4753 0
M  V30 474 H 49.4382 1.03543 -1.20268 0
M  V30 475 H 49.4592 3.72378 -0.781977 0
M  V30 476 H 48.9712 3.00309 -2.45837 0
M  V30 477 H 47.0722 3.72464 -0.100544 0
M  V30 478 H 47.1852 4.4184 -1.8524 0
M  V30 479 H 45.5492 2.38464 -0.894829 0
M  V30 480 H 46.3322 2.28375 -2.56319 0
M  V30 481 N 48.7773 0.814389 1.34928 0
M  V30 482 C 49.7073 0.244827 2.32213 0
M  V30 483 C 50.6883 -0.634024 1.57842 0
M  V30 484 O 51.8733 -0.562676 1.8587 0
M  V30 485 C 49.0033 -0.601106 3.42058 0
M  V30 486 C 47.9573 0.179896 4.27622 0
M  V30 487 C 47.2833 -0.788237 5.28858 0
M  V30 488 C 48.5833 1.38329 5.03649 0
M  V30 489 H 50.2773 1.05763 2.80097 0
M  V30 490 H 47.8233 0.510029 1.34665 0
M  V30 491 H 49.7763 -1.00968 4.09125 0
M  V30 492 H 48.5003 -1.44688 2.92802 0
M  V30 493 H 47.1593 0.569739 3.62146 0
M  V30 494 H 46.8073 -1.62973 4.75866 0
M  V30 495 H 46.5073 -0.269942 5.8698 0
M  V30 496 H 48.0313 -1.19485 5.98795 0
M  V30 497 H 49.4453 1.04918 5.63618 0
M  V30 498 H 47.8423 1.83662 5.71304 0
M  V30 499 H 48.9123 2.16592 4.33839 0
M  V30 500 N 50.2554 -1.46986 0.568584 0
M  V30 501 C 51.5014 -2.02741 0.0488709 0
M  V30 502 C 51.8344 -1.44077 -1.30214 0
M  V30 503 O 51.1094 -0.600552 -1.84996 0
M  V30 504 C 51.3924 -3.60086 -0.032047 0
M  V30 505 C 51.2454 -4.29162 1.34686 0
M  V30 506 C 52.5644 -4.33838 -0.739798 0
M  V30 507 H 49.6834 -0.736749 0.0192338 0
M  V30 508 H 52.3254 -1.75289 0.733065 0
M  V30 509 H 50.4754 -3.83606 -0.61473 0
M  V30 510 H 52.1474 -4.16948 1.97362 0
M  V30 511 H 50.3904 -3.89073 1.91846 0
M  V30 512 H 51.0614 -5.37826 1.24285 0
M  V30 513 H 53.5374 -4.15378 -0.244939 0
M  V30 514 H 52.4134 -5.43537 -0.765406 0
M  V30 515 H 52.6744 -4.03875 -1.79827 0
M  V30 516 N 51.7335 -0.305618 -1.54608 0
M  V30 517 C 52.9585 0.307562 -2.05107 0
M  V30 518 C 53.3835 1.46385 -1.18123 0
M  V30 519 O 52.7415 1.8034 -0.186324 0
M  V30 520 C 52.7895 0.73704 -3.52987 0
M  V30 521 O 51.8935 1.84134 -3.6901 0
M  V30 522 H 51.2345 0.0589143 -0.661381 0
M  V30 523 H 53.7645 -0.448807 -1.99617 0
M  V30 524 H 53.7745 1.02459 -3.94925 0
M  V30 525 H 52.4495 -0.108773 -4.15758 0
M  V30 526 H 51.0265 1.55398 -3.38978 0
M  V30 527 N 53.2116 1.57565 -0.0334293 0
M  V30 528 C 54.4886 1.83282 0.683163 0
M  V30 529 C 54.8686 0.91823 1.90084 0
M  V30 530 O 54.2166 -0.025113 2.28486 0
M  V30 531 C 54.4266 3.32599 1.0573 0
M  V30 532 C 55.7746 3.99179 1.44711 0
M  V30 533 O 56.7986 3.3712 1.15015 0
M  V30 534 O 55.6576 5.08565 2.0006 0
M  V30 535 H 52.7516 0.755869 0.335546 0
M  V30 536 H 55.2976 1.69589 -0.0614402 0
M  V30 537 H 54.0696 3.90834 0.190828 0
M  V30 538 H 53.6926 3.51415 1.85993 0
M  V30 539 N 54.6897 -0.239769 1.55765 0
M  V30 540 C 55.6527 -1.28038 1.90103 0
M  V30 541 C 56.6527 -1.40723 0.778055 0
M  V30 542 O 57.8427 -1.39301 1.04599 0
M  V30 543 C 54.9747 -2.65702 2.13577 0
M  V30 544 H 56.1677 -0.988048 2.83157 0
M  V30 545 H 53.7207 -0.479382 1.48767 0
M  V30 546 H 54.4557 -3.00063 1.23015 0
M  V30 547 H 54.2407 -2.57875 2.95369 0
M  V30 548 H 55.7307 -3.40828 2.41301 0
M  V30 549 N 56.1678 -1.49265 -0.50573 0
M  V30 550 C 57.0778 -1.68312 -1.63427 0
M  V30 551 C 58.0938 -0.565682 -1.64548 0
M  V30 552 O 59.2698 -0.839801 -1.83055 0
M  V30 553 C 56.3348 -1.74107 -2.99813 0
M  V30 554 C 55.3958 -2.97653 -3.09356 0
M  V30 555 C 54.6288 -3.03163 -4.39236 0
M  V30 556 O 54.8518 -2.16396 -5.27758 0
M  V30 557 O 53.7858 -3.9558 -4.53652 0
M  V30 558 H 57.6118 -2.63907 -1.50289 0
M  V30 559 H 55.1968 -1.32951 -0.681502 0
M  V30 560 H 57.0788 -1.803 -3.80881 0
M  V30 561 H 55.7538 -0.816901 -3.13223 0
M  V30 562 H 54.6608 -2.96981 -2.27493 0
M  V30 563 H 55.9938 -3.89535 -3.00871 0
M  V30 564 N 57.6459 0.756429 -1.3826 0
M  V30 565 C 58.8739 1.54565 -1.3754 0
M  V30 566 C 59.2889 1.88767 0.0355331 0
M  V30 567 O 58.6459 1.52572 1.0014 0
M  V30 568 C 58.6969 2.84654 -2.22833 0
M  V30 569 O 58.4179 2.51912 -3.5843 0
M  V30 570 C 59.9189 3.78807 -2.30261 0
M  V30 571 H 57.1389 0.478353 -0.470553 0
M  V30 572 H 59.6829 0.936381 -1.81803 0
M  V30 573 H 57.8379 3.41965 -1.8204 0
M  V30 574 H 58.2519 3.35325 -4.03308 0
M  V30 575 H 59.7259 4.67045 -2.94233 0
M  V30 576 H 60.2029 4.19038 -1.31545 0
M  V30 577 H 60.8089 3.2742 -2.71433 0
M  V30 578 N 59.124 1.23083 0.984299 0
M  V30 579 C 60.349 1.088 1.76571 0
M  V30 580 C 60.774 -0.356657 1.84688 0
M  V30 581 O 60.132 -1.25788 1.30565 0
M  V30 582 C 60.18 1.71371 3.17277 0
M  V30 583 O 59.284 0.973213 4.00752 0
M  V30 584 H 58.625 0.381599 0.543395 0
M  V30 585 H 61.155 1.63057 1.23587 0
M  V30 586 H 61.165 1.76449 3.67872 0
M  V30 587 H 59.84 2.76493 3.10684 0
M  V30 588 H 58.417 0.999078 3.59267 0
M  V30 589 N 60.6021 -1.18246 1.0419 0
M  V30 590 C 61.5321 -2.24127 0.654914 0
M  V30 591 C 62.5131 -1.66617 -0.342451 0
M  V30 592 O 63.6981 -1.92924 -0.222277 0
M  V30 593 C 60.8281 -3.47295 0.0183757 0
M  V30 594 C 59.7821 -4.17563 0.939414 0
M  V30 595 C 59.1081 -5.34438 0.167286 0
M  V30 596 C 60.4081 -4.70917 2.25908 0
M  V30 597 H 62.1021 -2.56753 1.54007 0
M  V30 598 H 59.6481 -1.23414 0.74195 0
M  V30 599 H 61.6011 -4.20572 -0.264082 0
M  V30 600 H 60.3251 -3.13907 -0.901664 0
M  V30 601 H 58.9841 -3.46186 1.20628 0
M  V30 602 H 58.6321 -4.97298 -0.7552 0
M  V30 603 H 58.3321 -5.82388 0.780901 0
M  V30 604 H 59.8561 -6.10504 -0.108125 0
M  V30 605 H 61.2701 -5.35882 2.03724 0
M  V30 606 H 59.6671 -5.29406 2.82577 0
M  V30 607 H 60.7371 -3.88272 2.9047 0
M  V30 608 N 62.0802 -0.821533 -1.34494 0
M  V30 609 C 63.3082 -0.421884 -2.02553 0
M  V30 610 C 63.7232 0.971745 -1.61872 0
M  V30 611 O 63.0802 1.62864 -0.823496 0
M  V30 612 C 63.1312 -0.51285 -3.57844 0
M  V30 613 O 62.8522 -1.85155 -3.97051 0
M  V30 614 C 64.3532 -0.107921 -4.43169 0
M  V30 615 H 61.5732 -0.169482 -0.649243 0
M  V30 616 H 64.1172 -1.1093 -1.71798 0
M  V30 617 H 62.2722 0.126474 -3.87193 0
M  V30 618 H 62.6862 -1.82482 -4.91732 0
M  V30 619 H 64.1602 -0.222657 -5.51551 0
M  V30 620 H 64.6372 0.948401 -4.28838 0
M  V30 621 H 65.2432 -0.720989 -4.19144 0
M  V30 622 N 63.5583 1.46682 -0.576371 0
M  V30 623 C 64.7983 2.04306 -0.0621356 0
M  V30 624 C 65.1623 1.4389 1.2712 0
M  V30 625 O 66.3633 1.92675 1.87429 0
M  V30 626 C 64.6343 3.57399 0.00927922 0
M  V30 627 S 66.1933 4.36309 0.466859 0
M  V30 628 H 63.0113 0.710167 -0.0344016 0
M  V30 629 H 65.6133 1.79807 -0.767437 0
M  V30 630 H 64.3173 3.98889 -0.965178 0
M  V30 631 H 63.8483 3.86424 0.737547 0
M  V30 632 H 65.8633 4.6533 1.72287 0
M  V30 633 N 65.0364 0.313813 1.54444 0
M  V30 634 C 66.2854 -0.292519 1.99568 0
M  V30 635 C 66.5984 -1.54011 1.20582 0
M  V30 636 O 67.8044 -2.22183 1.56035 0
M  V30 637 C 66.2604 -0.571752 3.55329 0
M  V30 638 C 65.8684 0.658229 4.43138 0
M  V30 639 C 67.6124 -1.13857 4.08946 0
M  V30 640 C 65.5194 0.351439 5.90355 0
M  V30 641 H 64.4494 -0.113079 0.745472 0
M  V30 642 H 67.1004 0.424518 1.78522 0
M  V30 643 H 65.4824 -1.34872 3.72325 0
M  V30 644 H 66.6564 1.43403 4.37918 0
M  V30 645 H 64.9714 1.14458 4.0036 0
M  V30 646 H 67.5684 -1.38257 5.16516 0
M  V30 647 H 67.9114 -2.08489 3.6033 0
M  V30 648 H 68.4444 -0.423015 3.95544 0
M  V30 649 H 65.1834 1.26667 6.43145 0
M  V30 650 H 64.7034 -0.386842 5.98551 0
M  V30 651 H 66.3824 -0.0423134 6.46986 0
M  V30 652 N 66.5145 -1.57545 0.0417849 0
M  V30 653 C 67.4775 -2.09885 -0.92093 0
M  V30 654 C 68.4775 -1.01648 -1.24596 0
M  V30 655 O 69.6675 -1.27759 -1.1842 0
M  V30 656 C 66.7995 -2.57527 -2.23367 0
M  V30 657 H 67.9925 -2.96236 -0.467382 0
M  V30 658 H 65.5455 -1.5493 -0.206467 0
M  V30 659 H 66.2805 -1.74542 -2.73323 0
M  V30 660 H 66.0655 -3.36613 -2.01083 0
M  V30 661 H 67.5555 -2.98201 -2.92346 0
M  V30 662 N 67.9926 0.231505 -1.5589 0
M  V30 663 C 69.2176 0.978689 -1.82856 0
M  V30 664 C 69.6426 1.77559 -0.620846 0
M  V30 665 O 69.0006 1.76119 0.430305 0
M  V30 666 C 69.0486 1.87997 -3.07716 0
M  V30 667 O 68.1526 2.97393 -2.85712 0
M  V30 668 H 67.4936 0.277663 -0.603158 0
M  V30 669 H 70.0236 0.24783 -2.03093 0
M  V30 670 H 70.0336 2.2917 -3.37558 0
M  V30 671 H 68.7086 1.29417 -3.95252 0
M  V30 672 H 67.2856 2.60238 -2.67078 0
M  V30 673 N 69.4707 1.49531 0.497807 0
M  V30 674 C 70.7187 1.58865 1.24926 0
M  V30 675 C 71.0397 0.278721 1.92998 0
M  V30 676 O 70.3097 -0.702144 1.82885 0
M  V30 677 H 68.8897 0.585343 0.464094 0
M  V30 678 H 71.5517 1.86174 0.57666 0
M  V30 679 H 70.6477 2.38633 2.01149 0
M  V30 680 N 70.9488 -0.749086 1.3866 0
M  V30 681 C 72.1948 -1.50959 1.36319 0
M  V30 682 C 72.5498 -1.92347 -0.0452451 0
M  V30 683 O 71.8428 -1.6289 -1.00884 0
M  V30 684 C 72.0368 -2.7712 2.25697 0
M  V30 685 C 71.8658 -2.48067 3.7509 0
M  V30 686 C 70.6358 -2.41062 4.44091 0
M  V30 687 C 72.8338 -2.14544 4.67414 0
M  V30 688 N 70.8158 -2.04331 5.78897 0
M  V30 689 C 72.1868 -1.88141 5.90765 0
M  V30 690 C 74.2418 -2.00892 4.55573 0
M  V30 691 C 72.9448 -1.49463 7.036 0
M  V30 692 C 74.9708 -1.63616 5.68317 0
M  V30 693 C 74.3328 -1.38088 6.90732 0
M  V30 694 H 70.4318 -0.551804 0.554108 0
M  V30 695 H 73.0158 -0.871886 1.74087 0
M  V30 696 H 71.1868 -3.38693 1.9011 0
M  V30 697 H 72.9188 -3.4321 2.1445 0
M  V30 698 H 69.6738 -2.57685 3.9736 0
M  V30 699 H 70.0978 -1.88598 6.502 0
M  V30 700 H 74.7398 -2.19301 3.61479 0
M  V30 701 H 72.4578 -1.29794 7.97608 0
M  V30 702 H 76.0438 -1.53678 5.61137 0
M  V30 703 H 74.9238 -1.09674 7.76493 0
M  V30 704 N 72.4269 -1.23603 -0.977757 0
M  V30 705 C 73.8429 -0.999251 -1.24447 0
M  V30 706 C 74.0429 0.298053 -1.99283 0
M  V30 707 O 73.0989 1.01681 -2.31122 0
M  V30 708 C 74.4119 -2.20784 -2.04144 0
M  V30 709 C 75.9599 -2.25303 -2.17273 0
M  V30 710 C 76.4349 -3.45755 -3.00362 0
M  V30 711 N 77.9259 -3.4601 -3.07947 0
M  V30 712 C 78.6609 -4.35868 -3.72568 0
M  V30 713 N 78.1569 -5.35966 -4.38991 0
M  V30 714 N 79.9499 -4.23605 -3.6948 0
M  V30 715 H 72.1009 -2.06986 -0.476483 0
M  V30 716 H 74.3639 -0.907801 -0.273134 0
M  V30 717 H 74.0699 -3.14945 -1.56533 0
M  V30 718 H 73.9439 -2.22085 -3.04891 0
M  V30 719 H 76.3309 -1.3168 -2.64092 0
M  V30 720 H 76.4119 -2.28033 -1.15907 0
M  V30 721 H 76.0559 -4.39687 -2.5424 0
M  V30 722 H 75.9859 -3.40266 -4.01904 0
M  V30 723 H 78.4769 -2.73588 -2.60688 0
M  V30 724 H 78.7899 -6.00783 -4.86086 0
M  V30 725 H 77.1349 -5.39863 -4.37691 0
M  V30 726 H 80.3259 -3.44647 -3.16759 0
M  V30 727 H 80.4989 -4.93836 -4.1956 0
M  V30 728 N 73.905 1.17692 -1.04816 0
M  V30 729 C 75.316 1.69501 -0.782698 0
M  V30 730 C 75.667 1.83456 0.695577 0
M  V30 731 O 74.792 1.51942 1.54086 0
M  V30 732 C 75.387 3.07874 -1.41419 0
M  V30 733 C 73.946 3.56864 -1.19686 0
M  V30 734 C 73.093 2.3322 -1.50012 0
M  V30 735 H 76.044 1.02262 -1.2136 0
M  V30 736 H 76.065 3.71528 -0.821428 0
M  V30 737 H 75.577 2.97685 -2.49009 0
M  V30 738 H 73.678 3.72337 -0.140043 0
M  V30 739 H 73.791 4.39851 -1.89916 0
M  V30 740 H 72.155 2.37501 -0.920071 0
M  V30 741 H 72.938 2.25644 -2.58727 0
M  V30 742 N 75.3831 0.828654 1.34056 0
M  V30 743 C 76.3331 0.226828 2.26869 0
M  V30 744 C 77.3171 -0.612243 1.48796 0
M  V30 745 O 78.5091 -0.465884 1.70759 0
M  V30 746 C 75.6381 -0.605654 3.37915 0
M  V30 747 C 74.7241 0.244361 4.23395 0
M  V30 748 N 75.1151 1.31815 4.88322 0
M  V30 749 C 73.4131 0.0296616 4.4599 0
M  V30 750 C 74.1141 1.83895 5.51867 0
M  V30 751 N 73.0901 1.14196 5.3147 0
M  V30 752 H 76.8921 1.04811 2.74576 0
M  V30 753 H 74.4061 0.67205 1.47842 0
M  V30 754 H 76.4031 -1.05302 4.03382 0
M  V30 755 H 75.0631 -1.42504 2.91758 0
M  V30 756 H 76.0741 1.70099 4.8917 0
M  V30 757 H 72.7511 -0.757097 4.10578 0
M  V30 758 H 74.1411 2.7376 6.136 0
M  V30 759 N 76.8612 -1.46375 0.584142 0
M  V30 760 C 77.7712 -2.34115 -0.150728 0
M  V30 761 C 78.7872 -1.49838 -0.884567 0
M  V30 762 O 79.9632 -1.82704 -0.847429 0
M  V30 763 C 77.0282 -3.2705 -1.15062 0
M  V30 764 C 76.0892 -4.27228 -0.421293 0
M  V30 765 C 75.3222 -5.15722 -1.37355 0
M  V30 766 O 75.5452 -5.07176 -2.61014 0
M  V30 767 O 74.4792 -5.95383 -0.883355 0
M  V30 768 H 78.3052 -2.98309 0.569708 0
M  V30 769 H 75.8902 -1.45373 0.344535 0
M  V30 770 H 77.7722 -3.84381 -1.72712 0
M  V30 771 H 76.4472 -2.65451 -1.8525 0
M  V30 772 H 75.3542 -3.7358 0.197085 0
M  V30 773 H 76.6872 -4.91616 0.239641 0
M  V30 774 N 78.3393 -0.321999 -1.54275 0
M  V30 775 C 79.7503 0.166384 -1.85957 0
M  V30 776 C 80.1013 1.51747 -1.24367 0
M  V30 777 O 79.2263 2.09317 -0.549124 0
M  V30 778 C 79.8213 0.308681 -3.37391 0
M  V30 779 C 78.3803 0.741286 -3.69028 0
M  V30 780 C 77.5273 -0.137937 -2.76957 0
M  V30 781 H 80.4783 -0.542335 -1.49146 0
M  V30 782 H 80.4993 1.13984 -3.63026 0
M  V30 783 H 80.0113 -0.674809 -3.82188 0
M  V30 784 H 78.1123 1.73458 -3.29762 0
M  V30 785 H 78.2253 0.546118 -4.75977 0
M  V30 786 H 76.5893 0.386251 -2.51754 0
M  V30 787 H 77.3723 -1.11816 -3.2458 0
M  V30 788 N 79.8174 1.5752 -0.0501392 0
M  V30 789 C 81.0664 1.91827 0.623328 0
M  V30 790 C 81.3794 0.930222 1.72065 0
M  V30 791 O 82.5854 1.1653 2.4522 0
M  V30 792 C 81.0414 3.40692 1.16003 0
M  V30 793 C 80.6494 4.479 0.0948811 0
M  V30 794 C 82.3934 3.84034 1.80881 0
M  V30 795 C 80.3004 5.87879 0.644411 0
M  V30 796 H 79.2304 0.715918 0.236596 0
M  V30 797 H 81.8814 1.83115 -0.118861 0
M  V30 798 H 80.2634 3.44405 1.9545 0
M  V30 799 H 81.4374 4.55775 -0.678675 0
M  V30 800 H 79.7524 4.13892 -0.45637 0
M  V30 801 H 82.3494 4.85984 2.22988 0
M  V30 802 H 82.6924 3.20225 2.6601 0
M  V30 803 H 83.2254 3.82833 1.0809 0
M  V30 804 H 79.9644 6.55282 -0.169229 0
M  V30 805 H 79.4844 5.83567 1.38598 0
M  V30 806 H 81.1634 6.37098 1.12763 0
M  V30 807 N 81.2955 -0.223234 1.56011 0
M  V30 808 C 82.5235 -0.964812 1.83027 0
M  V30 809 C 82.9385 -1.78013 0.62904 0
M  V30 810 O 82.2955 -1.78008 -0.402414 0
M  V30 811 C 82.3465 -1.88373 3.08542 0
M  V30 812 O 82.0675 -1.10137 4.2403 0
M  V30 813 C 83.5685 -2.73934 3.48533 0
M  V30 814 H 80.7885 -0.282842 0.608475 0
M  V30 815 H 83.3325 -0.238971 2.03099 0
M  V30 816 H 81.4875 -2.56354 2.9045 0
M  V30 817 H 81.9015 -1.72501 4.95322 0
M  V30 818 H 83.3755 -3.34117 4.39397 0
M  V30 819 H 83.8525 -3.46244 2.70207 0
M  V30 820 H 84.4585 -2.11369 3.69057 0
M  V30 821 N 82.7736 -1.49793 -0.48987 0
M  V30 822 C 84.0226 -1.59085 -1.23995 0
M  V30 823 C 84.3356 -0.287907 -1.9347 0
M  V30 824 O 85.5416 -0.259506 -2.70257 0
M  V30 825 C 83.9976 -2.80736 -2.252 0
M  V30 826 C 83.6056 -4.17833 -1.61614 0
M  V30 827 C 85.3496 -2.99364 -3.00967 0
M  V30 828 C 83.2566 -5.30693 -2.60996 0
M  V30 829 H 82.1866 -0.592372 -0.466488 0
M  V30 830 H 84.8376 -1.76197 -0.51252 0
M  V30 831 H 83.2196 -2.57142 -3.01154 0
M  V30 832 H 84.3936 -4.51608 -0.915774 0
M  V30 833 H 82.7086 -4.04656 -0.981977 0
M  V30 834 H 85.3056 -3.80851 -3.75308 0
M  V30 835 H 85.6486 -2.10356 -3.59244 0
M  V30 836 H 86.1816 -3.2305 -2.32128 0
M  V30 837 H 82.9206 -6.21796 -2.07485 0
M  V30 838 H 82.4406 -5.01359 -3.2924 0
M  V30 839 H 84.1196 -5.6049 -3.23202 0
M  V30 840 N 84.2517 0.741722 -1.39055 0
M  V30 841 C 85.4997 1.49818 -1.35643 0
M  V30 842 C 85.8207 1.94938 0.0491642 0
M  V30 843 O 85.0907 1.68505 0.999141 0
M  V30 844 H 83.6707 0.555755 -0.499144 0
M  V30 845 H 86.3327 0.880957 -1.73854 0
M  V30 846 H 85.4287 2.38348 -2.01486 0
M  V30 847 N 85.7298 1.2412 0.971189 0
M  V30 848 C 87.1458 1.00584 1.23916 0
M  V30 849 C 87.3458 -0.287481 1.99439 0
M  V30 850 O 86.4018 -1.00454 2.31658 0
M  V30 851 C 87.7148 2.21864 2.0297 0
M  V30 852 C 89.2628 2.26452 2.16076 0
M  V30 853 C 89.7378 3.47343 2.98524 0
M  V30 854 N 91.2288 3.47639 3.06107 0
M  V30 855 C 91.9638 4.37837 3.70251 0
M  V30 856 N 91.4598 5.38286 4.36142 0
M  V30 857 N 93.2528 4.25558 3.67228 0
M  V30 858 H 85.4038 2.07236 0.465499 0
M  V30 859 H 87.6668 0.909236 0.268315 0
M  V30 860 H 87.3728 3.15771 1.54861 0
M  V30 861 H 87.2468 2.23698 3.03709 0
M  V30 862 H 89.6338 1.33078 2.6339 0
M  V30 863 H 89.7148 2.28645 1.14696 0
M  V30 864 H 89.3588 4.41029 2.51905 0
M  V30 865 H 89.2888 3.42393 4.00093 0
M  V30 866 H 91.7798 2.74966 2.59233 0
M  V30 867 H 92.0928 6.03352 4.82894 0
M  V30 868 H 90.4378 5.42176 4.34822 0
M  V30 869 H 93.6288 3.46322 3.14927 0
M  V30 870 H 93.8018 4.96054 4.16935 0
M  V30 871 N 87.2079 -1.17134 1.05439 0
M  V30 872 C 88.4849 -1.83411 0.679699 0
M  V30 873 C 88.8649 -1.9368 -0.839726 0
M  V30 874 O 88.2129 -1.47325 -1.74664 0
M  V30 875 C 88.4229 -3.20918 1.37159 0
M  V30 876 C 89.7709 -3.96796 1.51123 0
M  V30 877 O 90.7949 -3.30406 1.3308 0
M  V30 878 O 89.6539 -5.15778 1.80651 0
M  V30 879 H 86.7479 -0.79154 0.239569 0
M  V30 880 H 89.2939 -1.24411 1.15413 0
M  V30 881 H 88.0659 -3.08428 2.40807 0
M  V30 882 H 87.6889 -3.87587 0.886674 0
M  V30 883 N 88.686 -0.835752 -1.33615 0
M  V30 884 C 89.933 -0.429959 -1.97883 0
M  V30 885 C 90.261 1.01006 -1.66217 0
M  V30 886 O 89.516 1.72047 -0.93265 0
M  V30 887 C 89.815 -0.593925 -3.52431 0
M  V30 888 C 89.481 -2.00158 -4.04039 0
M  V30 889 C 88.143 -2.38662 -4.17844 0
M  V30 890 C 90.495 -2.92117 -4.31644 0
M  V30 891 C 87.823 -3.68435 -4.56588 0
M  V30 892 C 90.175 -4.21368 -4.71838 0
M  V30 893 C 88.839 -4.59833 -4.83849 0
M  V30 894 H 88.109 -0.157333 -0.724104 0
M  V30 895 H 90.756 -1.06217 -1.59343 0
M  V30 896 H 89.061 0.121619 -3.91611 0
M  V30 897 H 90.758 -0.260282 -4.00154 0
M  V30 898 H 87.348 -1.69252 -3.93766 0
M  V30 899 H 91.532 -2.63608 -4.20505 0
M  V30 900 H 86.788 -3.98046 -4.64079 0
M  V30 901 H 90.962 -4.92703 -4.92155 0
M  V30 902 H 88.589 -5.60438 -5.13627 0
M  V30 903 N 90.1641 1.46063 -0.591896 0
M  V30 904 C 91.0741 2.34192 0.13831 0
M  V30 905 C 92.0901 1.50305 0.876608 0
M  V30 906 O 93.2661 1.8315 0.837728 0
M  V30 907 C 90.3311 3.27656 1.13326 0
M  V30 908 C 89.3921 4.27445 0.39863 0
M  V30 909 C 88.6251 5.16443 1.34618 0
M  V30 910 O 88.8481 5.08553 2.58321 0
M  V30 911 O 87.7821 5.95843 0.851768 0
M  V30 912 H 91.6081 2.98002 -0.58552 0
M  V30 913 H 89.1931 1.45188 -0.352239 0
M  V30 914 H 91.0751 3.85291 1.70671 0
M  V30 915 H 89.7501 2.6643 1.83839 0
M  V30 916 H 88.6571 3.73471 -0.216895 0
M  V30 917 H 89.9901 4.91482 -0.265709 0
M  V30 918 N 91.6422 0.330177 1.54103 0
M  V30 919 C 92.6052 -0.520144 2.2322 0
M  V30 920 C 93.6052 -1.03828 1.22786 0
M  V30 921 O 94.7952 -0.929652 1.4732 0
M  V30 922 C 91.9272 -1.72317 2.94142 0
M  V30 923 H 93.1202 0.0841605 2.99782 0
M  V30 924 H 90.6732 0.0813433 1.56088 0
M  V30 925 H 91.4082 -2.36653 2.21734 0
M  V30 926 H 91.1932 -1.35898 3.67796 0
M  V30 927 H 92.6832 -2.3266 3.46784 0
M  V30 928 N 93.1203 -1.57491 0.0584922 0
M  V30 929 C 94.0503 -2.14988 -0.911178 0
M  V30 930 C 95.0313 -1.07343 -1.31952 0
M  V30 931 O 96.2163 -1.35318 -1.39294 0
M  V30 932 C 93.3463 -2.70078 -2.18347 0
M  V30 933 C 92.3003 -3.82771 -1.91495 0
M  V30 934 C 91.6263 -4.24408 -3.25241 0
M  V30 935 C 92.9263 -5.07592 -1.23075 0
M  V30 936 H 94.6203 -2.96263 -0.432246 0
M  V30 937 H 92.1663 -1.42512 -0.206469 0
M  V30 938 H 94.1193 -3.08943 -2.86587 0
M  V30 939 H 92.8433 -1.86005 -2.68458 0
M  V30 940 H 91.5023 -3.44389 -1.25664 0
M  V30 941 H 91.1503 -3.37275 -3.73168 0
M  V30 942 H 90.8503 -5.00366 -3.08071 0
M  V30 943 H 92.3743 -4.65879 -3.94701 0
M  V30 944 H 93.7883 -5.43857 -1.81362 0
M  V30 945 H 92.1853 -5.88741 -1.16207 0
M  V30 946 H 93.2553 -4.84454 -0.207847 0
M  V30 947 N 94.5984 0.214957 -1.56127 0
M  V30 948 C 95.5314 1.29382 -1.87977 0
M  V30 949 C 96.5094 1.44897 -0.737807 0
M  V30 950 O 97.6934 1.60605 -0.986833 0
M  V30 951 C 94.8204 2.66325 -2.09258 0
M  V30 952 C 93.8664 2.67789 -3.31951 0
M  V30 953 S 94.6994 2.21198 -4.8768 0
M  V30 954 C 95.8554 3.60003 -5.12004 0
M  V30 955 H 96.0884 1.02173 -2.79192 0
M  V30 956 H 93.6214 0.417516 -1.48648 0
M  V30 957 H 95.5794 3.45162 -2.22201 0
M  V30 958 H 94.2404 2.90755 -1.18829 0
M  V30 959 H 93.4334 3.68436 -3.43906 0
M  V30 960 H 93.0354 1.9702 -3.17898 0
M  V30 961 H 95.3274 4.55739 -5.01307 0
M  V30 962 H 96.2704 3.52959 -6.13861 0
M  V30 963 H 96.6784 3.53996 -4.39712 0
M  V30 964 N 96.0765 1.50051 0.48192 0
M  V30 965 C 97.0245 1.68635 1.60203 0
M  V30 966 C 98.0185 0.552184 1.60148 0
M  V30 967 O 99.2245 0.732377 1.64427 0
M  V30 968 H 95.5995 0.532081 0.531407 0
M  V30 969 H 97.5705 2.62616 1.41688 0
M  V30 970 C 96.3195 1.78775 2.9822 0
M  V30 971 H 95.6425 2.6543 2.98976 0
M  V30 972 H 97.0825 1.95806 3.7608 0
M  V30 973 C 95.5415 0.536849 3.32595 0
M  V30 974 O 96.0715 -0.328897 4.00351 0
M  V30 975 N 94.2775 0.394091 2.87915 0
M  V30 976 H 93.8245 1.09962 2.32951 0
M  V30 977 H 93.7825 -0.441737 3.11281 0
M  V30 978 N 97.5546 -0.734337 1.39446 0
M  V30 979 C 98.4866 -1.85861 1.34121 0
M  V30 980 C 99.4996 -1.60871 0.249864 0
M  V30 981 O 100.689 -1.71093 0.508865 0
M  V30 982 C 97.7886 -3.21899 1.05991 0
M  V30 983 C 96.9616 -3.74239 2.26415 0
M  V30 984 C 96.0206 -4.88841 1.94733 0
M  V30 985 O 95.0466 -5.02468 2.67422 0
M  V30 986 N 96.2486 -5.73261 0.913884 0
M  V30 987 H 99.0136 -1.90934 2.31007 0
M  V30 988 H 96.5746 -0.915102 1.33557 0
M  V30 989 H 98.5666 -3.96136 0.828147 0
M  V30 990 H 97.1366 -3.12091 0.178361 0
M  V30 991 H 96.3566 -2.91347 2.65539 0
M  V30 992 H 97.6446 -4.05942 3.06738 0
M  V30 993 H 97.0426 -5.64842 0.311476 0
M  V30 994 H 95.5996 -6.47563 0.742015 0
M  V30 995 N 99.0327 -1.24633 -0.964593 0
M  V30 996 C 99.9827 -1.00841 -2.04487 0
M  V30 997 C 100.967 0.0512468 -1.60818 0
M  V30 998 O 102.159 -0.162865 -1.76249 0
M  V30 999 C 99.2877 -0.618474 -3.37683 0
M  V30 1000 C 98.3737 -1.71437 -3.87905 0
M  V30 1001 N 98.7647 -2.9477 -4.11029 0
M  V30 1002 C 97.0627 -1.5926 -4.16596 0
M  V30 1003 C 97.7637 -3.65834 -4.52261 0
M  V30 1004 N 96.7397 -2.9341 -4.57615 0
M  V30 1005 H 100.542 -1.94487 -2.20345 0
M  V30 1006 H 98.0557 -1.14805 -1.14863 0
M  V30 1007 H 100.053 -0.429247 -4.14684 0
M  V30 1008 H 98.7127 0.310766 -3.23209 0
M  V30 1009 H 99.7237 -3.30917 -3.9839 0
M  V30 1010 H 96.4007 -0.731606 -4.1104 0
M  V30 1011 H 97.7907 -4.71646 -4.78539 0
M  V30 1012 N 100.511 1.16574 -1.06058 0
M  V30 1013 C 101.443 2.2045 -0.627239 0
M  V30 1014 C 102.456 1.59752 0.313534 0
M  V30 1015 O 103.645 1.78192 0.104896 0
M  V30 1016 C 100.745 3.3875 0.100974 0
M  V30 1017 C 99.9178 4.29008 -0.852687 0
M  V30 1018 C 98.9768 5.25944 -0.164152 0
M  V30 1019 O 98.0028 5.63535 -0.801047 0
M  V30 1020 N 99.2048 5.70075 1.09518 0
M  V30 1021 H 101.97 2.58249 -1.52077 0
M  V30 1022 H 99.5308 1.3156 -0.943594 0
M  V30 1023 H 101.523 4.00638 0.57194 0
M  V30 1024 H 100.093 2.99476 0.89628 0
M  V30 1025 H 99.3128 3.64419 -1.50308 0
M  V30 1026 H 100.601 4.86195 -1.49972 0
M  V30 1027 H 99.9988 5.41624 1.6328 0
M  V30 1028 H 98.5558 6.34067 1.51006 0
M  V30 1029 N 101.989 0.842826 1.3317 0
M  V30 1030 C 103.266 0.362216 1.92217 0
M  V30 1031 C 103.646 -1.15289 1.76838 0
M  V30 1032 O 102.994 -1.96914 1.15919 0
M  V30 1033 C 103.204 0.813495 3.39387 0
M  V30 1034 C 104.552 0.823804 4.16532 0
M  V30 1035 O 105.576 0.757358 3.48055 0
M  V30 1036 O 104.435 0.915193 5.38782 0
M  V30 1037 H 101.529 0.103317 0.820521 0
M  V30 1038 H 104.075 0.928942 1.42017 0
M  V30 1039 H 102.847 1.85624 3.4447 0
M  V30 1040 H 102.47 0.223561 3.96971 0
M  V30 1041 N 103.467 -1.45747 0.599634 0
M  V30 1042 C 104.878 -1.85853 0.177681 0
M  V30 1043 C 105.229 -1.50102 -1.26348 0
M  V30 1044 O 104.354 -0.923905 -1.95686 0
M  V30 1045 C 104.949 -3.37326 0.315688 0
M  V30 1046 C 103.508 -3.76365 -0.0515144 0
M  V30 1047 C 102.655 -2.69722 0.643822 0
M  V30 1048 H 105.606 -1.36661 0.806814 0
M  V30 1049 H 105.627 -3.77778 -0.454321 0
M  V30 1050 H 105.139 -3.63315 1.36468 0
M  V30 1051 H 103.24 -3.55993 -1.09999 0
M  V30 1052 H 103.353 -4.77916 0.336594 0
M  V30 1053 H 101.717 -2.54567 0.0822881 0
M  V30 1054 H 102.5 -2.98549 1.6948 0
M  V30 1055 N 104.945 -0.338344 -1.53925 0
M  V30 1056 C 105.875 0.51328 -2.27789 0
M  V30 1057 C 106.856 1.107 -1.29149 0
M  V30 1058 O 108.041 1.12937 -1.57984 0
M  V30 1059 C 105.171 1.66697 -3.04679 0
M  V30 1060 C 104.125 1.20183 -4.1078 0
M  V30 1061 C 103.451 2.44363 -4.75595 0
M  V30 1062 C 104.751 0.30605 -5.21403 0
M  V30 1063 H 106.445 -0.102883 -2.99223 0
M  V30 1064 H 103.991 -0.0509219 -1.4391 0
M  V30 1065 H 105.944 2.26915 -3.55088 0
M  V30 1066 H 104.668 2.30995 -2.30887 0
M  V30 1067 H 103.327 0.622499 -3.61276 0
M  V30 1068 H 102.975 3.07057 -3.98403 0
M  V30 1069 H 102.675 2.13925 -5.47275 0
M  V30 1070 H 104.199 3.05317 -5.28786 0
M  V30 1071 H 105.613 0.814929 -5.67478 0
M  V30 1072 H 104.01 0.0937929 -6.00027 0
M  V30 1073 H 105.08 -0.65921 -4.80398 0
M  V30 1074 N 106.423 1.57458 -0.0668435 0
M  V30 1075 C 107.333 2.15937 0.916975 0
M  V30 1076 C 108.349 1.12123 1.33058 0
M  V30 1077 O 109.525 1.44366 1.40429 0
M  V30 1078 C 106.59 2.70547 2.16807 0
M  V30 1079 C 105.651 3.89215 1.81135 0
M  V30 1080 C 104.884 4.41211 3.0028 0
M  V30 1081 O 105.107 3.92225 4.14144 0
M  V30 1082 O 104.041 5.32605 2.80384 0
M  V30 1083 H 107.867 3.00354 0.449561 0
M  V30 1084 H 105.452 1.48584 0.155949 0
M  V30 1085 H 107.334 3.0557 2.90181 0
M  V30 1086 H 106.009 1.89192 2.62656 0
M  V30 1087 H 104.916 3.59054 1.05028 0
M  V30 1088 H 106.249 4.71848 1.40073 0
M  V30 1089 N 107.901 -0.206675 1.56239 0
M  V30 1090 C 109.147 -0.930218 1.80208 0
M  V30 1091 C 109.48 -1.83387 0.638981 0
M  V30 1092 O 108.755 -1.91119 -0.361066 0
M  V30 1093 C 109.038 -1.75641 3.1436 0
M  V30 1094 C 108.891 -0.878257 4.41142 0
M  V30 1095 C 110.21 -2.73129 3.45092 0
M  V30 1096 H 107.329 -0.336742 0.655571 0
M  V30 1097 H 109.971 -0.198222 1.88963 0
M  V30 1098 H 108.121 -2.38048 3.07027 0
M  V30 1099 H 109.793 -0.269787 4.6051 0
M  V30 1100 H 108.036 -0.184385 4.33408 0
M  V30 1101 H 108.707 -1.49106 5.3148 0
M  V30 1102 H 111.183 -2.20856 3.52649 0
M  V30 1103 H 110.059 -3.28028 4.40101 0
M  V30 1104 H 110.32 -3.51606 2.68003 0
M  V30 1105 N 109.379 -1.50304 -0.473955 0
M  V30 1106 C 110.607 -1.64902 -1.24959 0
M  V30 1107 C 111.022 -0.331198 -1.85872 0
M  V30 1108 O 110.379 0.68652 -1.69095 0
M  V30 1109 C 110.43 -2.73803 -2.36038 0
M  V30 1110 O 110.151 -4.00477 -1.77624 0
M  V30 1111 C 111.652 -2.99349 -3.26964 0
M  V30 1112 H 108.872 -0.554383 -0.378022 0
M  V30 1113 H 111.416 -1.9651 -0.566054 0
M  V30 1114 H 109.571 -2.44898 -3.00173 0
M  V30 1115 H 109.985 -4.60678 -2.5075 0
M  V30 1116 H 111.459 -3.79217 -4.01121 0
M  V30 1117 H 111.936 -2.10307 -3.85574 0
M  V30 1118 H 112.542 -3.29774 -2.68569 0
M  V30 1119 N 110.857 0.726932 -1.39834 0
M  V30 1120 C 111.789 1.85147 -1.35104 0
M  V30 1121 C 112.802 1.60736 -0.258392 0
M  V30 1122 O 113.991 1.70821 -0.517931 0
M  V30 1123 C 111.091 3.21332 -1.07697 0
M  V30 1124 C 110.264 3.73033 -2.28396 0
M  V30 1125 C 109.323 4.87802 -1.97322 0
M  V30 1126 O 108.349 5.01043 -2.70083 0
M  V30 1127 N 109.551 5.72768 -0.944273 0
M  V30 1128 H 112.316 1.89706 -2.32017 0
M  V30 1129 H 109.877 0.908006 -1.3404 0
M  V30 1130 H 111.869 3.95691 -0.849144 0
M  V30 1131 H 110.439 3.11992 -0.194909 0
M  V30 1132 H 109.659 2.89934 -2.6708 0
M  V30 1133 H 110.947 4.0431 -3.08887 0
M  V30 1134 H 110.345 5.64669 -0.341427 0
M  V30 1135 H 108.902 6.4716 -0.776346 0
M  V30 1136 N 112.336 1.25143 0.95797 0
M  V30 1137 C 113.613 1.00472 1.67823 0
M  V30 1138 C 113.993 -0.470056 2.058 0
M  V30 1139 O 113.341 -1.44663 1.76875 0
M  V30 1140 C 113.551 1.9372 2.90299 0
M  V30 1141 C 114.899 2.21371 3.62326 0
M  V30 1142 O 115.923 1.91451 3.00375 0
M  V30 1143 O 114.782 2.72231 4.7387 0
M  V30 1144 H 111.876 0.380752 0.734137 0
M  V30 1145 H 114.422 1.36283 1.01119 0
M  V30 1146 H 113.194 2.93316 2.59001 0
M  V30 1147 H 112.817 1.58286 3.64735 0
M  V30 1148 N 113.814 -1.1601 1.06675 0
M  V30 1149 C 115.06 -1.86909 0.786945 0
M  V30 1150 C 115.393 -1.81717 -0.685018 0
M  V30 1151 O 114.668 -1.23551 -1.50218 0
M  V30 1152 C 114.951 -3.36313 1.28707 0
M  V30 1153 C 114.804 -3.50175 2.82308 0
M  V30 1154 C 116.123 -4.3084 0.898071 0
M  V30 1155 H 113.242 -0.678677 0.287343 0
M  V30 1156 H 115.884 -1.36336 1.32334 0
M  V30 1157 H 114.034 -3.79513 0.830768 0
M  V30 1158 H 115.706 -3.15886 3.36175 0
M  V30 1159 H 113.949 -2.91959 3.20847 0
M  V30 1160 H 114.62 -4.55116 3.12368 0
M  V30 1161 H 117.096 -3.95561 1.29114 0
M  V30 1162 H 115.972 -5.33876 1.27543 0
M  V30 1163 H 116.233 -4.41662 -0.196651 0
M  V30 1164 N 115.292 -0.849877 -1.32721 0
M  V30 1165 C 116.52 -0.464754 -2.01613 0
M  V30 1166 C 116.935 0.937191 -1.63897 0
M  V30 1167 O 116.292 1.61081 -0.857856 0
M  V30 1168 C 116.343 -0.588638 -3.56675 0
M  V30 1169 O 116.064 -1.93535 -3.93034 0
M  V30 1170 C 117.565 -0.2019 -4.4284 0
M  V30 1171 H 114.785 -0.183215 -0.645502 0
M  V30 1172 H 117.329 -1.1455 -1.69407 0
M  V30 1173 H 115.484 0.0443159 -3.87375 0
M  V30 1174 H 115.898 -1.92871 -4.87751 0
M  V30 1175 H 117.372 -0.339599 -5.50954 0
M  V30 1176 H 117.849 0.857224 -4.30753 0
M  V30 1177 H 118.455 -0.809733 -4.17521 0
M  V30 1178 N 116.77 1.45427 -0.607355 0
M  V30 1179 C 118.186 1.57283 -0.270985 0
M  V30 1180 C 118.386 1.59875 1.22647 0
M  V30 1181 O 117.442 1.52893 2.00948 0
M  V30 1182 C 118.755 2.85566 -0.941952 0
M  V30 1183 C 120.303 2.9924 -0.917849 0
M  V30 1184 C 120.778 4.30293 -1.56882 0
M  V30 1185 N 122.269 4.37051 -1.5343 0
M  V30 1186 C 123.004 5.37123 -2.00715 0
M  V30 1187 N 122.5 6.43734 -2.56084 0
M  V30 1188 N 124.293 5.28479 -1.91484 0
M  V30 1189 H 116.444 1.41988 -1.57966 0
M  V30 1190 H 118.707 0.67885 -0.661715 0
M  V30 1191 H 118.413 2.8955 -1.99633 0
M  V30 1192 H 118.287 3.74322 -0.465096 0
M  V30 1193 H 120.674 2.94822 0.127984 0
M  V30 1194 H 120.755 2.11895 -1.43297 0
M  V30 1195 H 120.399 4.35469 -2.61398 0
M  V30 1196 H 120.329 5.16454 -1.02873 0
M  V30 1197 H 122.82 3.60615 -1.12982 0
M  V30 1198 H 123.133 7.16341 -2.89958 0
M  V30 1199 H 121.478 6.44485 -2.60122 0
M  V30 1200 H 124.669 4.44098 -1.47967 0
M  V30 1201 H 124.842 6.0632 -2.28648 0
M  V30 1202 N 118.248 0.346503 1.53744 0
M  V30 1203 C 119.158 -0.517293 2.28826 0
M  V30 1204 C 120.174 -1.10935 1.3405 0
M  V30 1205 O 121.35 -1.1244 1.6709 0
M  V30 1206 C 118.415 -1.65098 3.04866 0
M  V30 1207 C 117.476 -1.0884 4.15274 0
M  V30 1208 C 116.709 -2.16806 4.87679 0
M  V30 1209 O 116.932 -3.3758 4.59778 0
M  V30 1210 O 115.866 -1.80934 5.74061 0
M  V30 1211 H 119.692 0.0931396 3.03557 0
M  V30 1212 H 117.277 0.111458 1.48984 0
M  V30 1213 H 119.159 -2.31053 3.5241 0
M  V30 1214 H 117.834 -2.24717 2.32989 0
M  V30 1215 H 116.741 -0.3933 3.72027 0
M  V30 1216 H 118.074 -0.537036 4.89261 0
M  V30 1217 N 119.726 -1.57421 0.075193 0
M  V30 1218 C 120.972 -1.94716 -0.587998 0
M  V30 1219 C 121.327 -0.955205 -1.67014 0
M  V30 1220 O 120.62 0.0219842 -1.91587 0
M  V30 1221 C 120.814 -3.36428 -1.20626 0
M  V30 1222 C 120.643 -4.49317 -0.185541 0
M  V30 1223 C 119.413 -5.04772 0.23099 0
M  V30 1224 C 121.611 -5.11036 0.57854 0
M  V30 1225 N 119.593 -6.01204 1.24206 0
M  V30 1226 C 120.964 -6.02998 1.44199 0
M  V30 1227 C 123.019 -4.93844 0.634237 0
M  V30 1228 C 121.722 -6.79614 2.3562 0
M  V30 1229 C 123.748 -5.71106 1.53597 0
M  V30 1230 C 123.11 -6.6272 2.38709 0
M  V30 1231 H 119.209 -0.759536 -0.186089 0
M  V30 1232 H 121.793 -1.94097 0.153128 0
M  V30 1233 H 119.964 -3.37778 -1.9173 0
M  V30 1234 H 121.696 -3.60951 -1.8302 0
M  V30 1235 H 118.451 -4.73353 -0.152807 0
M  V30 1236 H 118.875 -6.54119 1.74521 0
M  V30 1237 H 123.517 -4.22799 -0.00960004 0
M  V30 1238 H 121.235 -7.49934 3.01038 0
M  V30 1239 H 124.821 -5.59824 1.58394 0
M  V30 1240 H 123.701 -7.2146 3.07352 0
M  V30 1241 N 121.204 0.198386 -1.56346 0
M  V30 1242 C 122.167 1.22952 -1.93431 0
M  V30 1243 C 123.167 1.38611 -0.815092 0
M  V30 1244 O 124.357 1.36479 -1.08255 0
M  V30 1245 C 121.489 2.59946 -2.20546 0
M  V30 1246 H 122.682 0.912626 -2.85677 0
M  V30 1247 H 120.235 0.43977 -1.49986 0
M  V30 1248 H 120.97 2.96696 -1.30927 0
M  V30 1249 H 120.755 2.49953 -3.02102 0
M  V30 1250 H 122.245 3.3431 -2.50253 0
M  V30 1251 N 122.682 1.50554 0.465978 0
M  V30 1252 C 123.629 1.6979 1.56333 0
M  V30 1253 C 124.599 0.539239 1.57103 0
M  V30 1254 O 125.784 0.770401 1.74555 0
M  V30 1255 C 122.924 1.80273 2.94271 0
M  V30 1256 C 122.037 3.07674 3.0325 0
M  V30 1257 C 121.172 3.08922 4.32135 0
M  V30 1258 C 120.211 4.30755 4.34875 0
M  V30 1259 N 119.348 4.29714 5.55239 0
M  V30 1260 H 124.188 2.63472 1.39235 0
M  V30 1261 H 121.725 1.30602 0.676873 0
M  V30 1262 H 123.683 1.84332 3.74269 0
M  V30 1263 H 122.313 0.900258 3.09992 0
M  V30 1264 H 121.365 3.13062 2.16094 0
M  V30 1265 H 122.677 3.97642 3.01135 0
M  V30 1266 H 121.831 3.11738 5.20485 0
M  V30 1267 H 120.57 2.16792 4.36866 0
M  V30 1268 H 119.575 4.28146 3.44922 0
M  V30 1269 H 120.8 5.24117 4.31831 0
M  V30 1270 H 118.746 3.4044 5.60746 0
M  V30 1271 H 118.663 5.13456 5.54886 0
M  V30 1272 H 119.931 4.36683 6.457 0
M  V30 1273 N 124.16 -0.719506 1.40217 0
M  V30 1274 C 125.107 -1.83359 1.40172 0
M  V30 1275 C 126.077 -1.64065 0.259206 0
M  V30 1276 O 127.262 -1.85254 0.456677 0
M  V30 1277 C 124.402 -3.2103 1.26624 0
M  V30 1278 C 123.515 -3.51923 2.50548 0
M  V30 1279 C 122.65 -4.79079 2.29471 0
M  V30 1280 C 121.689 -5.02863 3.48992 0
M  V30 1281 N 120.826 -6.2123 3.27135 0
M  V30 1282 H 125.666 -1.82733 2.35399 0
M  V30 1283 H 123.203 -0.892688 1.16917 0
M  V30 1284 H 125.161 -4.00524 1.16776 0
M  V30 1285 H 123.791 -3.20895 0.350176 0
M  V30 1286 H 122.843 -2.67014 2.70939 0
M  V30 1287 H 124.155 -3.6541 3.39525 0
M  V30 1288 H 123.309 -5.66582 2.16955 0
M  V30 1289 H 122.048 -4.67794 1.37913 0
M  V30 1290 H 121.053 -4.13816 3.6199 0
M  V30 1291 H 122.278 -5.16023 4.41472 0
M  V30 1292 H 120.224 -6.11204 2.38256 0
M  V30 1293 H 120.141 -6.35375 4.09675 0
M  V30 1294 H 121.409 -7.11532 3.18344 0
M  V30 1295 N 125.638 -1.25649 -0.95132 0
M  V30 1296 C 126.884 -1.10757 -1.69884 0
M  V30 1297 C 127.217 0.350061 -1.91019 0
M  V30 1298 O 126.492 1.25783 -1.48354 0
M  V30 1299 C 126.775 -1.86606 -3.07978 0
M  V30 1300 C 126.628 -3.40217 -2.94232 0
M  V30 1301 C 127.947 -1.65182 -4.07925 0
M  V30 1302 H 125.066 -0.40374 -0.616574 0
M  V30 1303 H 127.708 -1.54521 -1.10558 0
M  V30 1304 H 125.858 -1.49409 -3.58621 0
M  V30 1305 H 127.53 -3.87108 -2.50889 0
M  V30 1306 H 125.773 -3.67759 -2.30078 0
M  V30 1307 H 126.444 -3.88505 -3.92133 0
M  V30 1308 H 128.92 -1.9757 -3.66204 0
M  V30 1309 H 127.796 -2.20683 -5.02583 0
M  V30 1310 H 128.057 -0.593933 -4.38092 0
M  V30 1311 N 127.117 1.15442 -1.07289 0
M  V30 1312 C 128.363 1.86489 -0.796846 0
M  V30 1313 C 128.696 1.82078 0.675371 0
M  V30 1314 O 127.971 1.24346 1.4956 0
M  V30 1315 C 128.254 3.35626 -1.30489 0
M  V30 1316 C 128.107 3.48673 -2.84161 0
M  V30 1317 C 129.426 4.30357 -0.920907 0
M  V30 1318 H 126.545 0.677144 -0.290939 0
M  V30 1319 H 129.187 1.35633 -1.33056 0
M  V30 1320 H 127.337 3.79068 -0.850883 0
M  V30 1321 H 129.009 3.14099 -3.37846 0
M  V30 1322 H 127.252 2.90253 -3.22391 0
M  V30 1323 H 127.923 4.53453 -3.14777 0
M  V30 1324 H 130.399 3.94871 -1.3121 0
M  V30 1325 H 129.275 5.33193 -1.30372 0
M  V30 1326 H 129.536 4.4176 0.173226 0
M  V30 1327 N 128.595 0.856903 1.32268 0
M  V30 1328 C 129.841 0.471355 1.97863 0
M  V30 1329 C 130.196 -0.962896 1.66572 0
M  V30 1330 O 129.489 -1.66686 0.944797 0
M  V30 1331 C 129.683 0.649919 3.51441 0
M  V30 1332 C 129.512 2.09997 3.97657 0
M  V30 1333 C 128.282 2.73893 4.2463 0
M  V30 1334 C 130.48 3.07081 4.1256 0
M  V30 1335 N 128.462 4.09786 4.57109 0
M  V30 1336 C 129.833 4.27968 4.48602 0
M  V30 1337 C 131.888 3.03247 3.949 0
M  V30 1338 C 130.591 5.45521 4.68827 0
M  V30 1339 C 132.617 4.20046 4.16311 0
M  V30 1340 C 131.979 5.39692 4.52672 0
M  V30 1341 H 128.078 0.221263 0.750044 0
M  V30 1342 H 130.662 1.10876 1.60045 0
M  V30 1343 H 128.833 0.0421938 3.88377 0
M  V30 1344 H 130.565 0.234044 4.04023 0
M  V30 1345 H 127.32 2.24918 4.16784 0
M  V30 1346 H 127.744 4.7989 4.7753 0
M  V30 1347 H 132.386 2.11863 3.65888 0
M  V30 1348 H 130.104 6.37434 4.96693 0
M  V30 1349 H 133.69 4.18517 4.04147 0
M  V30 1350 H 132.57 6.28566 4.68907 0
M  V30 1351 N 130.073 -1.45103 0.615059 0
M  V30 1352 C 131.02 -2.30586 -0.0993978 0
M  V30 1353 C 131.99 -1.42544 -0.852669 0
M  V30 1354 O 133.175 -1.71465 -0.836917 0
M  V30 1355 C 130.315 -3.27572 -1.08583 0
M  V30 1356 C 129.428 -4.30717 -0.332656 0
M  V30 1357 C 128.563 -5.14807 -1.30947 0
M  V30 1358 C 127.602 -6.09673 -0.544538 0
M  V30 1359 N 126.739 -6.86517 -1.47101 0
M  V30 1360 H 131.579 -2.91144 0.635542 0
M  V30 1361 H 129.116 -1.4346 0.325206 0
M  V30 1362 H 131.074 -3.82276 -1.67095 0
M  V30 1363 H 129.704 -2.68751 -1.78809 0
M  V30 1364 H 128.756 -3.78615 0.368107 0
M  V30 1365 H 130.068 -4.98102 0.263842 0
M  V30 1366 H 129.222 -5.73948 -1.96643 0
M  V30 1367 H 127.961 -4.47458 -1.9399 0
M  V30 1368 H 126.966 -5.49656 0.126003 0
M  V30 1369 H 128.191 -6.79052 0.080947 0
M  V30 1370 H 126.137 -6.21851 -2.08895 0
M  V30 1371 H 126.054 -7.50281 -0.928137 0
M  V30 1372 H 127.322 -7.50194 -2.11731 0
M  V30 1373 N 131.551 -0.354651 -1.53558 0
M  V30 1374 C 132.967 -0.00315426 -1.596 0
M  V30 1375 C 133.167 1.47741 -1.37021 0
M  V30 1376 O 132.223 2.23759 -1.16996 0
M  V30 1377 C 133.536 -0.44929 -2.97325 0
M  V30 1378 C 135.084 -0.402578 -3.104 0
M  V30 1379 C 135.559 -0.824355 -4.5052 0
M  V30 1380 N 137.05 -0.778979 -4.56603 0
M  V30 1381 C 137.785 -1.07715 -5.63192 0
M  V30 1382 N 137.281 -1.44405 -6.77583 0
M  V30 1383 N 139.074 -1.00066 -5.53121 0
M  V30 1384 H 131.225 -1.31893 -1.66487 0
M  V30 1385 H 133.488 -0.538388 -0.780284 0
M  V30 1386 H 133.194 -1.48202 -3.1895 0
M  V30 1387 H 133.068 0.169772 -3.76818 0
M  V30 1388 H 135.455 0.621004 -2.88492 0
M  V30 1389 H 135.536 -1.05699 -2.32941 0
M  V30 1390 H 135.18 -1.846 -4.73165 0
M  V30 1391 H 135.11 -0.147304 -5.26394 0
M  V30 1392 H 137.601 -0.508528 -3.74463 0
M  V30 1393 H 137.914 -1.65612 -7.54846 0
M  V30 1394 H 136.259 -1.4826 -6.79002 0
M  V30 1395 H 139.45 -0.713293 -4.62633 0
M  V30 1396 H 139.623 -1.23638 -6.36096 0
M  V30 1397 N 133.029 1.57378 -0.0835403 0
M  V30 1398 C 133.939 2.16897 0.894021 0
M  V30 1399 C 134.955 1.13528 1.31861 0
M  V30 1400 O 136.131 1.45848 1.3889 0
M  V30 1401 C 133.196 2.72831 2.13925 0
M  V30 1402 C 132.257 3.91115 1.76997 0
M  V30 1403 C 131.49 4.44371 2.95584 0
M  V30 1404 O 131.713 3.96596 4.09961 0
M  V30 1405 O 130.647 5.35549 2.74719 0
M  V30 1406 H 134.473 3.00814 0.417679 0
M  V30 1407 H 132.058 1.48741 0.140181 0
M  V30 1408 H 133.94 3.0863 2.86924 0
M  V30 1409 H 132.615 1.91967 2.60635 0
M  V30 1410 H 131.522 3.60148 1.01214 0
M  V30 1411 H 132.855 4.73307 1.3506 0
M  V30 1412 N 134.507 -0.190092 1.56449 0
M  V30 1413 C 135.454 -1.23557 1.94942 0
M  V30 1414 C 136.424 -1.44972 0.810696 0
M  V30 1415 O 137.609 -1.58023 1.06927 0
M  V30 1416 C 134.749 -2.57416 2.2985 0
M  V30 1417 C 133.862 -2.43537 3.5681 0
M  V30 1418 C 132.997 -3.70134 3.81017 0
M  V30 1419 C 132.036 -3.51109 5.01387 0
M  V30 1420 N 131.173 -4.6973 5.21822 0
M  V30 1421 H 136.013 -0.900304 2.84075 0
M  V30 1422 H 133.55 -0.43318 1.40577 0
M  V30 1423 H 135.508 -3.35409 2.48106 0
M  V30 1424 H 134.138 -2.88975 1.43852 0
M  V30 1425 H 133.19 -1.56816 3.46573 0
M  V30 1426 H 134.502 -2.25415 4.4496 0
M  V30 1427 H 133.656 -4.56566 3.9954 0
M  V30 1428 H 132.395 -3.91215 2.91207 0
M  V30 1429 H 131.4 -2.63063 4.82782 0
M  V30 1430 H 132.625 -3.31468 5.9271 0
M  V30 1431 H 130.571 -4.91065 4.34961 0
M  V30 1432 H 130.488 -4.54452 6.0416 0
M  V30 1433 H 131.756 -5.57499 5.44808 0
M  V30 1434 N 135.985 -1.50799 -0.457987 0
M  V30 1435 C 136.948 -1.7005 -1.53674 0
M  V30 1436 C 137.948 -0.570881 -1.50325 0
M  V30 1437 O 139.138 -0.838126 -1.52712 0
M  V30 1438 C 136.27 -1.73788 -2.93276 0
M  V30 1439 H 137.463 -2.66306 -1.37917 0
M  V30 1440 H 135.016 -1.40477 -0.685271 0
M  V30 1441 H 135.751 -0.792717 -3.14462 0
M  V30 1442 H 135.536 -2.55864 -2.97113 0
M  V30 1443 H 137.026 -1.90591 -3.71571 0
M  V30 1444 N 137.463 0.71206 -1.40597 0
M  V30 1445 C 138.688 1.50617 -1.42581 0
M  V30 1446 C 139.113 1.88079 -0.0282102 0
M  V30 1447 O 138.471 1.53511 0.964579 0
M  V30 1448 C 138.519 2.7557 -2.3258 0
M  V30 1449 O 137.623 3.72414 -1.77148 0
M  V30 1450 H 136.964 0.453966 -0.484573 0
M  V30 1451 H 139.494 0.876649 -1.84868 0
M  V30 1452 H 139.504 3.2406 -2.47889 0
M  V30 1453 H 138.179 2.47639 -3.34138 0
M  V30 1454 H 136.756 3.31276 -1.71204 0
M  V30 1455 N 138.941 1.26152 0.944643 0
M  V30 1456 C 139.888 1.07408 2.04285 0
M  V30 1457 C 140.858 -0.0198413 1.66088 0
M  V30 1458 O 142.043 0.139264 1.90291 0
M  V30 1459 C 139.183 0.70945 3.37729 0
M  V30 1460 C 138.296 1.87926 3.88983 0
M  V30 1461 C 137.431 1.45807 5.10797 0
M  V30 1462 C 136.47 2.5964 5.54305 0
M  V30 1463 N 135.607 2.18226 6.67324 0
M  V30 1464 H 140.447 2.01389 2.1965 0
M  V30 1465 H 137.984 1.00275 1.07626 0
M  V30 1466 H 139.942 0.478948 4.14442 0
M  V30 1467 H 138.572 -0.193389 3.2222 0
M  V30 1468 H 137.624 2.22279 3.08701 0
M  V30 1469 H 138.936 2.73377 4.17213 0
M  V30 1470 H 138.09 1.18781 5.94959 0
M  V30 1471 H 136.829 0.574414 4.84305 0
M  V30 1472 H 135.834 2.87399 4.68702 0
M  V30 1473 H 137.059 3.48599 5.828 0
M  V30 1474 H 135.005 1.3229 6.42523 0
M  V30 1475 H 134.922 2.97221 6.95123 0
M  V30 1476 H 136.19 1.94403 7.54869 0
M  V30 1477 N 140.419 -1.14872 1.07899 0
M  V30 1478 C 141.668 -1.85135 0.800499 0
M  V30 1479 C 141.981 -1.83547 -0.676014 0
M  V30 1480 O 143.187 -2.49548 -1.06948 0
M  V30 1481 C 141.643 -3.3231 1.38197 0
M  V30 1482 C 141.251 -3.42329 2.8899 0
M  V30 1483 C 142.995 -4.0772 1.18174 0
M  V30 1484 C 140.902 -4.83684 3.403 0
M  V30 1485 H 139.832 -0.693563 0.29578 0
M  V30 1486 H 142.483 -1.29532 1.29976 0
M  V30 1487 H 140.865 -3.87618 0.810431 0
M  V30 1488 H 142.039 -2.97097 3.52236 0
M  V30 1489 H 140.354 -2.80369 3.07867 0
M  V30 1490 H 142.951 -5.12049 1.5398 0
M  V30 1491 H 143.294 -4.16124 0.12117 0
M  V30 1492 H 143.827 -3.58696 1.71994 0
M  V30 1493 H 140.566 -4.80465 4.45907 0
M  V30 1494 H 140.086 -5.29474 2.81811 0
M  V30 1495 H 141.765 -5.52558 3.36584 0
M  V30 1496 N 141.898 -0.863906 -1.31812 0
M  V30 1497 C 142.846 -0.30422 -2.30602 0
M  V30 1498 C 143.84 0.577419 -1.59255 0
M  V30 1499 O 145.046 0.464194 -1.73912 0
M  V30 1500 H 141.421 -0.0796877 -0.747766 0
M  V30 1501 H 143.392 -1.15148 -2.75288 0
M  V30 1502 C 142.141 0.484617 -3.44306 0
M  V30 1503 H 141.464 -0.18451 -3.99374 0
M  V30 1504 H 142.904 0.841664 -4.15562 0
M  V30 1505 C 141.363 1.6735 -2.92396 0
M  V30 1506 O 141.893 2.77273 -2.90659 0
M  V30 1507 N 140.099 1.50362 -2.48676 0
M  V30 1508 H 139.646 0.609402 -2.50288 0
M  V30 1509 H 139.604 2.30051 -2.14299 0
M  V30 1510 N 143.376 1.44774 -0.622745 0
M  V30 1511 C 144.624 2.01721 -0.123655 0
M  V30 1512 C 144.945 1.49172 1.25589 0
M  V30 1513 O 144.215 0.691974 1.83272 0
M  V30 1514 H 142.795 0.745777 -0.0427225 0
M  V30 1515 H 145.457 1.77382 -0.807559 0
M  V30 1516 H 144.553 3.11984 -0.0849534 0
M  V30 1517 N 144.854 0.36279 1.53368 0
M  V30 1518 C 145.817 -0.472679 2.24273 0
M  V30 1519 C 146.817 -1.012 1.24961 0
M  V30 1520 O 148.007 -0.898194 1.49259 0
M  V30 1521 C 145.139 -1.66039 2.97731 0
M  V30 1522 H 146.332 0.14773 2.99536 0
M  V30 1523 H 143.885 0.114434 1.55881 0
M  V30 1524 H 144.62 -2.31896 2.26704 0
M  V30 1525 H 144.405 -1.28066 3.70596 0
M  V30 1526 H 145.895 -2.25252 3.51641 0
M  V30 1527 N 146.332 -1.57332 0.0918853 0
M  V30 1528 C 147.562 -1.98286 -0.580205 0
M  V30 1529 C 147.97 -0.969713 -1.6246 0
M  V30 1530 O 147.313 0.0493501 -1.83634 0
M  V30 1531 C 147.375 -3.35603 -1.28882 0
M  V30 1532 C 147.039 -4.55285 -0.395559 0
M  V30 1533 C 148.036 -5.18687 0.355002 0
M  V30 1534 C 145.721 -5.01314 -0.314556 0
M  V30 1535 C 147.715 -6.26484 1.17458 0
M  V30 1536 C 145.402 -6.08979 0.508677 0
M  V30 1537 C 146.4 -6.71429 1.2519 0
M  V30 1538 O 146.088 -7.77018 2.06151 0
M  V30 1539 H 145.82 -0.656678 -0.160466 0
M  V30 1540 H 148.374 -2.04721 0.16688 0
M  V30 1541 H 146.604 -3.25842 -2.08241 0
M  V30 1542 H 148.293 -3.61026 -1.85512 0
M  V30 1543 H 149.059 -4.84058 0.302134 0
M  V30 1544 H 144.938 -4.5247 -0.882697 0
M  V30 1545 H 148.482 -6.75159 1.75518 0
M  V30 1546 H 144.379 -6.4304 0.563037 0
M  V30 1547 H 145.147 -7.93991 1.98799 0
M  V30 1548 N 147.81 0.181792 -1.56548 0
M  V30 1549 C 149.057 0.900097 -1.81396 0
M  V30 1550 C 149.385 1.82695 -0.667281 0
M  V30 1551 O 148.64 1.92614 0.346146 0
M  V30 1552 C 148.939 1.73728 -3.12335 0
M  V30 1553 C 148.605 0.960255 -4.40556 0
M  V30 1554 C 147.267 0.745766 -4.75386 0
M  V30 1555 C 149.619 0.414477 -5.19549 0
M  V30 1556 C 146.947 -0.0257694 -5.86694 0
M  V30 1557 C 149.299 -0.343916 -6.31664 0
M  V30 1558 C 147.963 -0.569301 -6.65068 0
M  V30 1559 H 147.233 0.329369 -0.663775 0
M  V30 1560 H 149.88 0.165647 -1.90782 0
M  V30 1561 H 148.185 2.54081 -2.98245 0
M  V30 1562 H 149.882 2.29591 -3.28769 0
M  V30 1563 H 146.472 1.13746 -4.13231 0
M  V30 1564 H 150.656 0.567554 -4.93044 0
M  V30 1565 H 145.912 -0.210233 -6.11038 0
M  V30 1566 H 150.086 -0.774133 -6.92084 0
M  V30 1567 H 147.713 -1.16903 -7.51158 0
M  V30 1568 N 149.288 1.51039 0.449983 0
M  V30 1569 C 150.528 1.64732 1.21007 0
M  V30 1570 C 150.892 0.349865 1.88785 0
M  V30 1571 O 152.093 0.362431 2.66345 0
M  V30 1572 C 150.364 2.80902 2.20973 0
M  V30 1573 S 151.923 3.14851 3.05638 0
M  V30 1574 H 148.741 0.5805 0.410538 0
M  V30 1575 H 151.343 1.88901 0.503634 0
M  V30 1576 H 150.047 3.73627 1.69796 0
M  V30 1577 H 149.578 2.58882 2.96215 0
M  V30 1578 H 151.593 2.60306 4.22439 0
M  V30 1579 N 150.766 -0.704594 1.40972 0
M  V30 1580 C 151.676 -1.84856 1.44448 0
M  V30 1581 C 152.692 -1.70726 0.335961 0
M  V30 1582 O 153.868 -1.92799 0.582276 0
M  V30 1583 C 150.933 -3.20758 1.31587 0
M  V30 1584 C 149.994 -3.47063 2.52677 0
M  V30 1585 C 149.227 -4.76481 2.4042 0
M  V30 1586 O 149.45 -5.52341 1.42391 0
M  V30 1587 O 148.384 -5.03367 3.30007 0
M  V30 1588 H 152.21 -1.8488 2.40942 0
M  V30 1589 H 149.795 -0.85647 1.22413 0
M  V30 1590 H 151.677 -4.01913 1.26665 0
M  V30 1591 H 150.352 -3.21438 0.382049 0
M  V30 1592 H 149.259 -2.65873 2.63177 0
M  V30 1593 H 150.592 -3.5119 3.44858 0
M  V30 1594 N 152.244 -1.26651 -0.937939 0
M  V30 1595 C 153.492 -1.12165 -1.68118 0
M  V30 1596 C 153.813 0.334983 -1.92101 0
M  V30 1597 O 153.083 1.23583 -1.52 0
M  V30 1598 H 151.663 -0.412093 -0.623048 0
M  V30 1599 H 154.325 -1.59027 -1.12678 0
M  V30 1600 H 153.421 -1.64289 -2.6536 0
M  V30 1601 N 153.722 1.14298 -1.08507 0
M  V30 1602 C 155.138 1.37347 -0.812901 0
M  V30 1603 C 155.338 1.93052 0.577325 0
M  V30 1604 O 154.394 2.14389 1.33393 0
M  V30 1605 C 155.707 2.33359 -1.89642 0
M  V30 1606 C 157.255 2.46996 -1.92255 0
M  V30 1607 C 157.73 3.46309 -2.99724 0
M  V30 1608 N 159.221 3.53853 -2.98902 0
M  V30 1609 C 159.956 4.3055 -3.787 0
M  V30 1610 N 159.452 5.10482 -4.6838 0
M  V30 1611 N 161.245 4.25757 -3.66998 0
M  V30 1612 H 153.396 0.764867 -1.9815 0
M  V30 1613 H 155.659 0.398966 -0.859959 0
M  V30 1614 H 155.365 1.99565 -2.89597 0
M  V30 1615 H 155.239 3.33274 -1.76659 0
M  V30 1616 H 157.626 2.80081 -0.929445 0
M  V30 1617 H 157.707 1.47039 -2.09316 0
M  V30 1618 H 157.351 3.13957 -3.99241 0
M  V30 1619 H 157.281 4.46049 -2.79907 0
M  V30 1620 H 159.772 2.96812 -2.33904 0
M  V30 1621 H 160.085 5.66284 -5.25873 0
M  V30 1622 H 158.43 5.09747 -4.72422 0
M  V30 1623 H 161.621 3.62383 -2.96304 0
M  V30 1624 H 161.794 4.85279 -4.29427 0
M  V30 1625 N 155.201 0.870884 1.31352 0
M  V30 1626 C 156.447 0.482987 1.96965 0
M  V30 1627 C 156.78 -0.962462 1.68672 0
M  V30 1628 O 156.055 -1.6779 0.98371 0
M  V30 1629 C 156.338 0.741752 3.52378 0
M  V30 1630 C 156.191 2.2368 3.9024 0
M  V30 1631 C 157.51 0.208838 4.39604 0
M  V30 1632 H 154.629 0.176955 0.715441 0
M  V30 1633 H 157.271 1.09229 1.55464 0
M  V30 1634 H 155.421 0.223149 3.87859 0
M  V30 1635 H 157.093 2.82273 3.64856 0
M  V30 1636 H 155.336 2.70901 3.38814 0
M  V30 1637 H 156.007 2.3685 4.98604 0
M  V30 1638 H 158.483 0.652529 4.10952 0
M  V30 1639 H 157.359 0.419336 5.47296 0
M  V30 1640 H 157.62 -0.889275 4.33064 0
M  V30 1641 N 156.679 -1.44442 0.630414 0
M  V30 1642 C 158.095 -1.56832 0.295973 0
M  V30 1643 C 158.295 -1.61806 -1.20088 0
M  V30 1644 O 157.351 -1.5607 -1.9849 0
M  V30 1645 C 158.664 -2.84031 0.987264 0
M  V30 1646 C 160.212 -2.97742 0.96534 0
M  V30 1647 C 160.687 -4.27743 1.63708 0
M  V30 1648 N 162.178 -4.34555 1.60364 0
M  V30 1649 C 162.913 -5.33862 2.09234 0
M  V30 1650 N 162.409 -6.39578 2.66292 0
M  V30 1651 N 164.202 -5.25366 1.99867 0
M  V30 1652 H 156.353 -1.39457 1.60205 0
M  V30 1653 H 158.616 -0.668237 0.672431 0
M  V30 1654 H 158.322 -2.86338 2.04215 0
M  V30 1655 H 158.196 -3.73534 0.524588 0
M  V30 1656 H 160.583 -2.94989 -0.0810639 0
M  V30 1657 H 160.664 -2.09589 1.4665 0
M  V30 1658 H 160.308 -4.31255 2.68293 0
M  V30 1659 H 160.238 -5.14752 1.11076 0
M  V30 1660 H 162.729 -3.58772 1.18705 0
M  V30 1661 H 163.042 -7.11637 3.01317 0
M  V30 1662 H 161.387 -6.40265 2.70343 0
M  V30 1663 H 164.578 -4.41688 1.55013 0
M  V30 1664 H 164.751 -6.02606 2.38265 0
M  V30 1665 N 158.157 -0.370918 -1.53173 0
M  V30 1666 C 159.405 0.216673 -2.00935 0
M  V30 1667 C 159.726 1.48845 -1.25977 0
M  V30 1668 O 158.996 1.92286 -0.374551 0
M  V30 1669 H 157.576 0.0830565 -0.742368 0
M  V30 1670 H 160.238 -0.49838 -1.8842 0
M  V30 1671 H 159.334 0.439893 -3.08984 0
M  V30 1672 N 159.635 1.57281 -0.100228 0
M  V30 1673 C 160.545 2.17833 0.870965 0
M  V30 1674 C 161.561 1.14921 1.30649 0
M  V30 1675 O 162.737 1.47313 1.37335 0
M  V30 1676 C 159.802 2.75085 2.1102 0
M  V30 1677 C 158.863 3.9297 1.72838 0
M  V30 1678 C 158.096 4.47482 2.90854 0
M  V30 1679 O 158.319 4.00922 4.05731 0
M  V30 1680 O 157.253 5.38433 2.69023 0
M  V30 1681 H 161.079 3.0124 0.38575 0
M  V30 1682 H 158.664 1.48881 0.124397 0
M  V30 1683 H 160.546 3.11656 2.83634 0
M  V30 1684 H 159.221 1.94721 2.58584 0
M  V30 1685 H 158.128 3.61201 0.973883 0
M  V30 1686 H 159.461 4.74713 1.30033 0
M  V30 1687 N 161.113 -0.173488 1.56642 0
M  V30 1688 C 162.076 -1.19859 1.95362 0
M  V30 1689 C 163.076 -1.37296 0.83704 0
M  V30 1690 O 164.266 -1.34739 1.10413 0
M  V30 1691 C 161.398 -2.56405 2.24654 0
M  V30 1692 H 162.591 -0.867062 2.87092 0
M  V30 1693 H 160.144 -0.415853 1.50666 0
M  V30 1694 H 160.879 -2.94576 1.35631 0
M  V30 1695 H 160.664 -2.45115 3.06041 0
M  V30 1696 H 162.154 -3.30287 2.5554 0
M  V30 1697 N 162.591 -1.51276 -0.441967 0
M  V30 1698 C 163.84 -1.6295 -1.18871 0
M  V30 1699 C 164.153 -0.349312 -1.92456 0
M  V30 1700 O 165.359 -0.345355 -2.69295 0
M  V30 1701 C 163.815 -2.87759 -2.16155 0
M  V30 1702 C 163.423 -4.22764 -1.48239 0
M  V30 1703 C 165.167 -3.08788 -2.91291 0
M  V30 1704 C 163.074 -5.38728 -2.4398 0
M  V30 1705 H 162.004 -0.606913 -0.447406 0
M  V30 1706 H 164.655 -1.77739 -0.456205 0
M  V30 1707 H 163.037 -2.66593 -2.92821 0
M  V30 1708 H 164.211 -4.54293 -0.771635 0
M  V30 1709 H 162.526 -4.07575 -0.852741 0
M  V30 1710 H 165.123 -3.92599 -3.63002 0
M  V30 1711 H 165.466 -2.21679 -3.5237 0
M  V30 1712 H 165.999 -3.30272 -2.21733 0
M  V30 1713 H 162.738 -6.28082 -1.87598 0
M  V30 1714 H 162.258 -5.1158 -3.13123 0
M  V30 1715 H 163.937 -5.70489 -3.05207 0
M  V30 1716 N 164.069 0.697108 -1.41344 0
M  V30 1717 C 165.485 1.00751 -1.2378 0
M  V30 1718 C 165.685 2.01105 -0.126066 0
M  V30 1719 O 164.741 2.47295 0.51004 0
M  V30 1720 C 166.054 1.53359 -2.58653 0
M  V30 1721 C 167.602 1.6525 -2.65822 0
M  V30 1722 C 168.077 2.2126 -4.01009 0
M  V30 1723 N 169.568 2.28622 -4.02847 0
M  V30 1724 C 170.303 2.72984 -5.04249 0
M  V30 1725 N 169.799 3.16962 -6.16041 0
M  V30 1726 N 171.592 2.72534 -4.91611 0
M  V30 1727 H 163.743 0.0322662 -2.12375 0
M  V30 1728 H 166.006 0.0768853 -0.944877 0
M  V30 1729 H 165.712 0.870773 -3.4075 0
M  V30 1730 H 165.586 2.51597 -2.81032 0
M  V30 1731 H 167.973 2.30644 -1.84086 0
M  V30 1732 H 168.054 0.655614 -2.47256 0
M  V30 1733 H 167.698 1.56482 -4.83193 0
M  V30 1734 H 167.628 3.21698 -4.16915 0
M  V30 1735 H 170.119 1.97585 -3.22131 0
M  V30 1736 H 170.432 3.49434 -6.89287 0
M  V30 1737 H 168.777 3.14875 -6.1958 0
M  V30 1738 H 171.968 2.37525 -4.0336 0
M  V30 1739 H 172.141 3.06789 -5.70775 0
M  V30 1740 N 165.547 1.27147 0.931209 0
M  V30 1741 C 166.796 1.12664 1.67302 0
M  V30 1742 C 167.109 -0.327718 1.92835 0
M  V30 1743 O 168.315 -0.593392 2.64936 0
M  V30 1744 C 166.771 1.9683 3.01307 0
M  V30 1745 C 166.379 3.46901 2.83485 0
M  V30 1746 C 168.123 1.90985 3.79111 0
M  V30 1747 C 166.03 4.23279 4.13024 0
M  V30 1748 H 164.96 0.41803 0.627509 0
M  V30 1749 H 167.611 1.51539 1.03481 0
M  V30 1750 H 165.993 1.50797 3.66164 0
M  V30 1751 H 167.167 4.00773 2.27415 0
M  V30 1752 H 165.482 3.54088 2.19113 0
M  V30 1753 H 168.079 2.45328 4.75098 0
M  V30 1754 H 168.422 0.882718 4.06834 0
M  V30 1755 H 168.955 2.34895 3.21044 0
M  V30 1756 H 165.694 5.26503 3.90481 0
M  V30 1757 H 165.214 3.74186 4.6877 0
M  V30 1758 H 166.893 4.32265 4.81411 0
M  V30 1759 N 167.025 -1.13721 1.09112 0
M  V30 1760 C 168.441 -1.36914 0.820174 0
M  V30 1761 C 168.641 -1.93356 -0.567079 0
M  V30 1762 O 167.697 -2.15093 -1.32255 0
M  V30 1763 C 169.01 -2.3235 1.90877 0
M  V30 1764 C 170.558 -2.45973 1.93562 0
M  V30 1765 C 171.033 -3.44714 3.01556 0
M  V30 1766 N 172.524 -3.52263 3.00775 0
M  V30 1767 C 173.259 -4.28536 3.80978 0
M  V30 1768 N 172.755 -5.07991 4.71081 0
M  V30 1769 N 174.548 -4.23804 3.69251 0
M  V30 1770 H 166.699 -0.754348 1.98553 0
M  V30 1771 H 168.962 -0.3944 0.862063 0
M  V30 1772 H 168.668 -1.98027 2.90651 0
M  V30 1773 H 168.542 -3.32332 1.78424 0
M  V30 1774 H 170.929 -2.79584 0.944286 0
M  V30 1775 H 171.01 -1.45926 2.10093 0
M  V30 1776 H 170.654 -3.11835 4.00901 0
M  V30 1777 H 170.584 -4.44558 2.82269 0
M  V30 1778 H 173.075 -2.95567 2.35475 0
M  V30 1779 H 173.388 -5.63487 5.28869 0
M  V30 1780 H 171.733 -5.07235 4.75119 0
M  V30 1781 H 174.924 -3.60806 2.98222 0
M  V30 1782 H 175.097 -4.82995 4.31995 0
M  V30 1783 N 168.503 -0.877838 -1.30888 0
M  V30 1784 C 169.731 -0.507414 -2.00581 0
M  V30 1785 C 170.146 0.902216 -1.65848 0
M  V30 1786 O 169.503 1.59225 -0.891831 0
M  V30 1787 C 169.554 -0.664162 -3.55347 0
M  V30 1788 O 169.275 -2.01829 -3.8884 0
M  V30 1789 C 170.776 -0.295787 -4.42312 0
M  V30 1790 H 167.996 -0.196866 -0.641471 0
M  V30 1791 H 170.54 -1.18117 -1.66939 0
M  V30 1792 H 168.695 -0.0378619 -3.87381 0
M  V30 1793 H 169.109 -2.03174 -4.8355 0
M  V30 1794 H 170.583 -0.456388 -5.5011 0
M  V30 1795 H 171.06 0.765663 -4.32475 0
M  V30 1796 H 171.666 -0.898113 -4.15709 0
M  V30 1797 N 169.982 1.44106 -0.638065 0
M  V30 1798 C 170.915 2.27924 0.112161 0
M  V30 1799 C 171.893 1.38945 0.844574 0
M  V30 1800 O 173.077 1.68386 0.847248 0
M  V30 1801 C 170.204 3.18029 1.16512 0
M  V30 1802 C 169.25 4.23163 0.532458 0
M  V30 1803 S 170.083 5.31131 -0.682666 0
M  V30 1804 C 171.239 6.24805 0.37013 0
M  V30 1805 H 171.472 2.91205 -0.598887 0
M  V30 1806 H 169.005 1.48394 -0.426441 0
M  V30 1807 H 170.963 3.70492 1.76766 0
M  V30 1808 H 169.624 2.53955 1.8484 0
M  V30 1809 H 168.817 4.86252 1.32571 0
M  V30 1810 H 168.419 3.74 0.00437644 0
M  V30 1811 H 170.711 6.66042 1.24071 0
M  V30 1812 H 171.654 7.07741 -0.225349 0
M  V30 1813 H 172.062 5.60154 0.699141 0
M  V30 1814 N 171.46 0.379036 1.52974 0
M  V30 1815 C 172.407 -0.461048 2.26148 0
M  V30 1816 C 173.377 -1.06637 1.27349 0
M  V30 1817 O 174.562 -1.09633 1.56157 0
M  V30 1818 C 171.702 -1.58782 3.06402 0
M  V30 1819 C 170.815 -1.00636 4.20115 0
M  V30 1820 C 169.95 -2.10334 4.87784 0
M  V30 1821 C 168.989 -1.49724 5.93506 0
M  V30 1822 N 168.126 -2.5331 6.54812 0
M  V30 1823 H 172.966 0.169429 2.97518 0
M  V30 1824 H 170.503 0.0953806 1.4679 0
M  V30 1825 H 172.461 -2.25174 3.51215 0
M  V30 1826 H 171.091 -2.18876 2.37261 0
M  V30 1827 H 170.143 -0.232332 3.7969 0
M  V30 1828 H 171.455 -0.523343 4.96047 0
M  V30 1829 H 170.609 -2.84519 5.35849 0
M  V30 1830 H 169.348 -2.61992 4.11353 0
M  V30 1831 H 168.353 -0.740598 5.44789 0
M  V30 1832 H 169.578 -0.988732 6.71864 0
M  V30 1833 H 167.524 -3.04156 5.81227 0
M  V30 1834 H 167.441 -2.09734 7.26325 0
M  V30 1835 H 168.709 -3.27155 7.07524 0
M  V30 1836 N 172.938 -1.57226 0.108567 0
M  V30 1837 C 173.871 -2.10447 -0.882464 0
M  V30 1838 C 174.849 -1.01829 -1.26766 0
M  V30 1839 O 176.033 -1.29415 -1.37054 0
M  V30 1840 C 173.16 -2.59258 -2.17952 0
M  V30 1841 C 172.206 -3.79662 -1.94318 0
M  V30 1842 S 173.039 -5.22586 -1.16892 0
M  V30 1843 C 174.195 -5.74758 -2.47799 0
M  V30 1844 H 174.428 -2.94178 -0.429745 0
M  V30 1845 H 171.961 -1.54043 -0.105 0
M  V30 1846 H 173.919 -2.88036 -2.92482 0
M  V30 1847 H 172.58 -1.75728 -2.60343 0
M  V30 1848 H 171.773 -4.11928 -2.90399 0
M  V30 1849 H 171.375 -3.51446 -1.27913 0
M  V30 1850 H 173.667 -5.83846 -3.43701 0
M  V30 1851 H 174.61 -6.73027 -2.20093 0
M  V30 1852 H 175.018 -5.02763 -2.56689 0
M  V30 1853 N 174.416 0.165178 -1.56732 0
M  V30 1854 C 175.832 0.517174 -1.50988 0
M  V30 1855 C 176.032 1.84331 -0.813894 0
M  V30 1856 O 175.088 2.49672 -0.37682 0
M  V30 1857 C 176.401 0.544261 -2.95733 0
M  V30 1858 C 177.949 0.631039 -3.06573 0
M  V30 1859 C 178.424 0.68896 -4.52788 0
M  V30 1860 N 179.915 0.751683 -4.5706 0
M  V30 1861 C 180.65 0.817177 -5.67547 0
M  V30 1862 N 180.146 0.843129 -6.8765 0
M  V30 1863 N 181.939 0.856668 -5.55534 0
M  V30 1864 H 174.09 -0.704318 -2.00382 0
M  V30 1865 H 176.353 -0.254687 -0.913148 0
M  V30 1866 H 176.059 -0.361607 -3.49836 0
M  V30 1867 H 175.933 1.3886 -3.5071 0
M  V30 1868 H 178.32 1.52733 -2.52501 0
M  V30 1869 H 178.401 -0.240095 -2.54671 0
M  V30 1870 H 178.045 -0.2031 -5.07494 0
M  V30 1871 H 177.975 1.57633 -5.02454 0
M  V30 1872 H 180.466 0.739661 -3.70591 0
M  V30 1873 H 180.779 0.894448 -7.67606 0
M  V30 1874 H 179.124 0.811304 -6.90248 0
M  V30 1875 H 182.315 0.833437 -4.60621 0
M  V30 1876 H 182.488 0.904247 -6.4166 0
M  V30 1877 N 175.894 1.51508 0.433938 0
M  V30 1878 C 176.826 1.69266 1.54537 0
M  V30 1879 C 177.839 0.573276 1.52373 0
M  V30 1880 O 179.028 0.847698 1.57087 0
M  V30 1881 C 176.128 1.69524 2.93453 0
M  V30 1882 C 175.301 2.98101 3.20085 0
M  V30 1883 C 174.36 2.90502 4.38742 0
M  V30 1884 O 173.386 3.64442 4.3723 0
M  V30 1885 N 174.588 2.06586 5.42496 0
M  V30 1886 H 177.353 2.65145 1.39708 0
M  V30 1887 H 174.914 1.49437 0.622922 0
M  V30 1888 H 176.906 1.62004 3.70859 0
M  V30 1889 H 175.476 0.812245 3.01863 0
M  V30 1890 H 174.696 3.19464 2.30947 0
M  V30 1891 H 175.984 3.83207 3.34708 0
M  V30 1892 H 175.382 1.45896 5.46563 0
M  V30 1893 H 173.939 2.04943 6.18742 0
M  V30 1894 N 177.372 -0.689602 1.41712 0
M  V30 1895 C 178.304 -1.815 1.39966 0
M  V30 1896 C 179.317 -1.59995 0.300917 0
M  V30 1897 O 180.506 -1.69387 0.563039 0
M  V30 1898 C 177.606 -3.18364 1.16179 0
M  V30 1899 C 176.779 -3.66847 2.38206 0
M  V30 1900 C 175.838 -4.82398 2.10186 0
M  V30 1901 O 174.864 -4.93706 2.83272 0
M  V30 1902 N 176.066 -5.70064 1.0958 0
M  V30 1903 H 178.831 -1.83488 2.36965 0
M  V30 1904 H 176.392 -0.872149 1.36401 0
M  V30 1905 H 178.384 -3.93301 0.953756 0
M  V30 1906 H 176.954 -3.11365 0.27756 0
M  V30 1907 H 176.174 -2.82751 2.74673 0
M  V30 1908 H 177.462 -3.95978 3.19498 0
M  V30 1909 H 176.86 -5.63565 0.491019 0
M  V30 1910 H 175.417 -6.44874 0.947656 0
M  V30 1911 N 178.85 -1.27639 -0.924453 0
M  V30 1912 C 179.813 -1.10681 -2.00705 0
M  V30 1913 C 180.813 -0.0497823 -1.60723 0
M  V30 1914 O 182.003 -0.294654 -1.7169 0
M  V30 1915 C 179.135 -0.687164 -3.33902 0
M  V30 1916 H 180.328 -2.06817 -2.17179 0
M  V30 1917 H 177.881 -1.10473 -1.10569 0
M  V30 1918 H 178.616 0.275439 -3.23128 0
M  V30 1919 H 178.401 -1.45061 -3.6428 0
M  V30 1920 H 179.891 -0.590853 -4.13399 0
M  V30 1921 N 180.328 1.1314 -1.09713 0
M  V30 1922 C 181.553 1.88862 -0.857081 0
M  V30 1923 C 181.978 1.78729 0.586304 0
M  V30 1924 O 181.336 1.13692 1.41222 0
M  V30 1925 C 181.384 3.36325 -1.30069 0
M  V30 1926 O 180.488 4.09815 -0.461007 0
M  V30 1927 H 179.829 0.587108 -0.310162 0
M  V30 1928 H 182.359 1.43129 -1.46203 0
M  V30 1929 H 182.369 3.87157 -1.28738 0
M  V30 1930 H 181.044 3.43017 -2.35185 0
M  V30 1931 H 179.621 3.68986 -0.538888 0
M  V30 1932 N 181.806 0.884767 1.30421 0
M  V30 1933 C 183.053 0.503105 1.96151 0
M  V30 1934 C 183.381 -0.947676 1.69851 0
M  V30 1935 O 182.636 -1.68467 0.995861 0
M  V30 1936 C 182.935 0.724318 3.49983 0
M  V30 1937 C 182.601 2.15015 3.96332 0
M  V30 1938 C 181.263 2.54005 4.08699 0
M  V30 1939 C 183.615 3.07936 4.20505 0
M  V30 1940 C 180.943 3.85128 4.42599 0
M  V30 1941 C 183.295 4.3859 4.55874 0
M  V30 1942 C 181.959 4.77474 4.66449 0
M  V30 1943 H 181.229 0.184099 0.717766 0
M  V30 1944 H 183.876 1.12058 1.55291 0
M  V30 1945 H 182.181 0.0238086 3.91793 0
M  V30 1946 H 183.878 0.408617 3.98913 0
M  V30 1947 H 180.468 1.8375 3.87213 0
M  V30 1948 H 184.652 2.79033 4.10431 0
M  V30 1949 H 179.908 4.14996 4.48986 0
M  V30 1950 H 184.082 5.10629 4.7353 0
M  V30 1951 H 181.709 5.79115 4.92473 0
M  V30 1952 N 183.284 -1.43765 0.645699 0
M  V30 1953 C 184.214 -2.33471 -0.0370477 0
M  V30 1954 C 185.195 -1.49042 -0.819779 0
M  V30 1955 O 186.38 -1.77726 -0.782758 0
M  V30 1956 C 183.51 -3.32311 -1.0093 0
M  V30 1957 C 182.464 -4.2667 -0.337201 0
M  V30 1958 C 181.79 -5.1549 -1.42037 0
M  V30 1959 C 183.09 -5.16657 0.765706 0
M  V30 1960 H 184.784 -2.90809 0.712069 0
M  V30 1961 H 182.33 -1.39834 0.343876 0
M  V30 1962 H 184.283 -3.9396 -1.49578 0
M  V30 1963 H 183.007 -2.73213 -1.78948 0
M  V30 1964 H 181.666 -3.66374 0.128771 0
M  V30 1965 H 181.314 -4.52735 -2.1918 0
M  V30 1966 H 181.014 -5.79438 -0.975966 0
M  V30 1967 H 182.538 -5.80012 -1.90838 0
M  V30 1968 H 183.952 -5.72158 0.361702 0
M  V30 1969 H 182.349 -5.89286 1.13413 0
M  V30 1970 H 183.419 -4.56796 1.62683 0
M  V30 1971 N 184.763 -0.387143 -1.52771 0
M  V30 1972 C 186.174 0.0873634 -1.86495 0
M  V30 1973 C 186.525 1.46336 -1.30691 0
M  V30 1974 O 185.65 2.068 -0.637409 0
M  V30 1975 C 186.245 0.165305 -3.38396 0
M  V30 1976 C 184.804 0.584101 -3.7184 0
M  V30 1977 C 183.951 -0.255279 -2.76122 0
M  V30 1978 H 186.902 -0.605104 -1.46711 0
M  V30 1979 H 186.923 0.984848 -3.67534 0
M  V30 1980 H 186.435 -0.836301 -3.78982 0
M  V30 1981 H 184.536 1.59315 -3.36823 0
M  V30 1982 H 184.649 0.343749 -4.77865 0
M  V30 1983 H 183.013 0.279126 -2.53166 0
M  V30 1984 H 183.796 -1.25482 -3.19545 0
M  V30 1985 N 186.241 1.57166 -0.116904 0
M  V30 1986 C 187.204 2.14039 0.819742 0
M  V30 1987 C 188.204 1.07477 1.19605 0
M  V30 1988 O 189.394 1.33263 1.1219 0
M  V30 1989 C 186.526 2.67891 2.10826 0
M  V30 1990 H 187.719 2.98128 0.325511 0
M  V30 1991 H 185.272 1.55739 0.132312 0
M  V30 1992 H 186.007 1.87384 2.64685 0
M  V30 1993 H 185.792 3.45823 1.84793 0
M  V30 1994 H 187.282 3.11809 2.77785 0
M  V30 1995 N 187.719 -0.156864 1.56817 0
M  V30 1996 C 188.947 -0.886316 1.86955 0
M  V30 1997 C 189.362 -1.75185 0.703975 0
M  V30 1998 O 188.719 -1.79555 -0.326552 0
M  V30 1999 C 188.77 -1.75117 3.16253 0
M  V30 2000 O 188.491 -0.920537 4.2832 0
M  V30 2001 C 189.992 -2.58905 3.59837 0
M  V30 2002 H 187.212 -0.25678 0.619923 0
M  V30 2003 H 189.756 -0.152615 2.0393 0
M  V30 2004 H 187.911 -2.43805 3.01062 0
M  V30 2005 H 188.325 -1.51337 5.02192 0
M  V30 2006 H 189.799 -3.1518 4.53172 0
M  V30 2007 H 190.276 -3.34472 2.84649 0
M  V30 2008 H 190.882 -1.95526 3.7769 0
M  V30 2009 N 189.197 -1.51736 -0.425897 0
M  V30 2010 C 190.127 -1.76827 -1.52494 0
M  V30 2011 C 191.108 -0.618524 -1.58456 0
M  V30 2012 O 192.293 -0.862416 -1.74 0
M  V30 2013 C 189.423 -1.90374 -2.90474 0
M  V30 2014 C 188.377 -3.0588 -2.99369 0
M  V30 2015 C 187.703 -3.04625 -4.3944 0
M  V30 2016 C 189.003 -4.45644 -2.72394 0
M  V30 2017 H 190.697 -2.68855 -1.31748 0
M  V30 2018 H 188.243 -1.29372 -0.632362 0
M  V30 2019 H 190.196 -2.0651 -3.6733 0
M  V30 2020 H 188.92 -0.95004 -3.12477 0
M  V30 2021 H 187.579 -2.89467 -2.24954 0
M  V30 2022 H 187.227 -2.0701 -4.58428 0
M  V30 2023 H 186.927 -3.82195 -4.46319 0
M  V30 2024 H 188.451 -3.22869 -5.18255 0
M  V30 2025 H 189.865 -4.62348 -3.38979 0
M  V30 2026 H 188.262 -5.25006 -2.9067 0
M  V30 2027 H 189.332 -4.54893 -1.67929 0
M  V30 2028 N 190.675 0.682077 -1.42076 0
M  V30 2029 C 191.903 1.47057 -1.4554 0
M  V30 2030 C 192.318 1.8869 -0.0645779 0
M  V30 2031 O 191.675 1.57666 0.919115 0
M  V30 2032 C 191.726 2.72442 -2.37609 0
M  V30 2033 O 191.447 2.32559 -3.71279 0
M  V30 2034 C 192.948 3.66069 -2.50017 0
M  V30 2035 H 190.168 0.452737 -0.495248 0
M  V30 2036 H 192.712 0.838695 -1.8651 0
M  V30 2037 H 190.867 3.31835 -1.9991 0
M  V30 2038 H 191.281 3.13475 -4.20516 0
M  V30 2039 H 192.755 4.50792 -3.18576 0
M  V30 2040 H 193.232 4.11476 -1.53572 0
M  V30 2041 H 193.838 3.12572 -2.88407 0
M  V30 2042 N 192.153 1.28127 0.917671 0
M  V30 2043 C 193.086 1.06039 2.02067 0
M  V30 2044 C 194.064 -0.0223285 1.62585 0
M  V30 2045 O 195.248 0.124823 1.88086 0
M  V30 2046 C 192.375 0.610596 3.33151 0
M  V30 2047 C 191.421 1.68937 3.91615 0
M  V30 2048 S 192.254 3.28437 4.22953 0
M  V30 2049 C 193.41 2.85283 5.57103 0
M  V30 2050 H 193.643 1.99425 2.20493 0
M  V30 2051 H 191.176 1.12071 1.06205 0
M  V30 2052 H 193.134 0.357778 4.08938 0
M  V30 2053 H 191.795 -0.303364 3.12632 0
M  V30 2054 H 190.988 1.32619 4.86239 0
M  V30 2055 H 190.59 1.89478 3.2245 0
M  V30 2056 H 192.882 2.3121 6.36827 0
M  V30 2057 H 193.825 3.7869 5.98331 0
M  V30 2058 H 194.233 2.24118 5.18104 0
M  V30 2059 N 193.631 -1.12557 1.10312 0
M  V30 2060 C 194.859 -1.87864 0.866873 0
M  V30 2061 C 195.274 -1.79588 -0.582557 0
M  V30 2062 O 194.631 -1.16887 -1.40156 0
M  V30 2063 C 194.682 -3.37125 1.30496 0
M  V30 2064 O 194.403 -3.45201 2.69755 0
M  V30 2065 C 195.904 -4.29373 1.10243 0
M  V30 2066 H 193.124 -0.594452 0.311236 0
M  V30 2067 H 195.668 -1.42429 1.46745 0
M  V30 2068 H 193.823 -3.80109 0.748081 0
M  V30 2069 H 194.237 -4.38056 2.88457 0
M  V30 2070 H 195.711 -5.32394 1.45811 0
M  V30 2071 H 196.188 -4.39181 0.0409492 0
M  V30 2072 H 196.794 -3.92169 1.64571 0
M  V30 2073 N 195.109 -0.891671 -1.2995 0
M  V30 2074 C 196.355 -0.514261 -1.96171 0
M  V30 2075 C 196.688 0.935506 -1.70182 0
M  V30 2076 O 195.963 1.66204 -1.01028 0
M  V30 2077 C 196.246 -0.797719 -3.51153 0
M  V30 2078 C 196.099 -2.2986 -3.86632 0
M  V30 2079 C 197.418 -0.278749 -4.39216 0
M  V30 2080 H 194.537 -0.188314 -0.712535 0
M  V30 2081 H 197.179 -1.11689 -1.53706 0
M  V30 2082 H 195.329 -0.284826 -3.87455 0
M  V30 2083 H 197.001 -2.88042 -3.60319 0
M  V30 2084 H 195.244 -2.76257 -3.34462 0
M  V30 2085 H 195.915 -2.44753 -4.94773 0
M  V30 2086 H 198.391 -0.717825 -4.09862 0
M  V30 2087 H 197.267 -0.506353 -5.46559 0
M  V30 2088 H 197.528 0.820266 -4.34424 0
M  V30 2089 N 196.587 1.43421 -0.653314 0
M  V30 2090 C 197.864 1.95361 -0.0966581 0
M  V30 2091 C 198.244 1.59461 1.38331 0
M  V30 2092 O 197.592 0.879777 2.10884 0
M  V30 2093 C 197.802 3.47311 -0.342988 0
M  V30 2094 C 199.15 4.23875 -0.24798 0
M  V30 2095 O 200.174 3.55133 -0.275553 0
M  V30 2096 O 199.033 5.4623 -0.171771 0
M  V30 2097 H 196.127 0.826945 0.00956291 0
M  V30 2098 H 198.673 1.5336 -0.726558 0
M  V30 2099 H 197.445 3.66569 -1.36906 0
M  V30 2100 H 197.068 3.9631 0.319975 0
M  V30 2101 N 198.065 0.39524 1.52563 0
M  V30 2102 C 199.012 -0.437036 2.26624 0
M  V30 2103 C 199.982 -1.05281 1.28472 0
M  V30 2104 O 201.167 -1.07971 1.57311 0
M  V30 2105 C 198.307 -1.55524 3.08069 0
M  V30 2106 C 197.42 -0.961745 4.21158 0
M  V30 2107 C 196.555 -2.05149 4.89987 0
M  V30 2108 C 195.594 -1.4342 5.95061 0
M  V30 2109 N 194.731 -2.46351 6.57462 0
M  V30 2110 H 199.571 0.200976 2.97322 0
M  V30 2111 H 197.108 0.110944 1.46681 0
M  V30 2112 H 199.066 -2.21437 3.53584 0
M  V30 2113 H 197.696 -2.16348 2.3957 0
M  V30 2114 H 196.748 -0.192048 3.79915 0
M  V30 2115 H 198.06 -0.470701 4.96574 0
M  V30 2116 H 197.214 -2.78819 5.38837 0
M  V30 2117 H 195.953 -2.57615 4.14109 0
M  V30 2118 H 194.958 -0.682774 5.45544 0
M  V30 2119 H 196.183 -0.917416 6.72875 0
M  V30 2120 H 194.129 -2.97975 5.8442 0
M  V30 2121 H 194.046 -2.02019 7.28508 0
M  V30 2122 H 195.314 -3.19633 7.10954 0
M  V30 2123 N 199.544 -1.57102 0.125237 0
M  V30 2124 C 200.792 -1.95021 -0.530198 0
M  V30 2125 C 201.113 -1.00982 -1.66816 0
M  V30 2126 O 200.383 -0.0672693 -1.95784 0
M  V30 2127 H 198.963 -0.720046 -0.198853 0
M  V30 2128 H 201.625 -1.93916 0.19564 0
M  V30 2129 H 200.721 -2.98211 -0.920681 0
M  V30 2130 N 201.022 0.148545 -1.56898 0
M  V30 2131 C 202.299 0.890019 -1.74178 0
M  V30 2132 C 202.679 1.99407 -0.692839 0
M  V30 2133 O 202.027 2.26671 0.288505 0
M  V30 2134 C 202.237 1.43389 -3.18183 0
M  V30 2135 C 203.585 1.89791 -3.79822 0
M  V30 2136 O 204.609 1.53134 -3.21603 0
M  V30 2137 O 203.468 2.57387 -4.82093 0
M  V30 2138 H 200.562 0.420496 -0.712118 0
M  V30 2139 H 203.108 0.134591 -1.69165 0
M  V30 2140 H 201.88 0.640383 -3.86024 0
M  V30 2141 H 201.503 2.25287 -3.27615 0
M  V30 2142 N 202.5 1.5196 0.417844 0
M  V30 2143 C 203.448 1.75278 1.52907 0
M  V30 2144 C 204.442 0.619611 1.57662 0
M  V30 2145 O 205.648 0.801457 1.61173 0
M  V30 2146 H 202.023 0.554141 0.508362 0
M  V30 2147 H 203.994 2.68389 1.30422 0
M  V30 2148 C 202.743 1.91262 2.90369 0
M  V30 2149 H 202.066 2.77872 2.8745 0
M  V30 2150 H 203.506 2.11581 3.67436 0
M  V30 2151 C 201.965 0.677431 3.30019 0
M  V30 2152 O 202.495 -0.158799 4.01386 0
M  V30 2153 N 200.701 0.515851 2.85985 0
M  V30 2154 H 200.248 1.19744 2.28077 0
M  V30 2155 H 200.206 -0.309315 3.12875 0
M  V30 2156 N 203.978 -0.674533 1.42435 0
M  V30 2157 C 205.224 -1.43671 1.43131 0
M  V30 2158 C 205.557 -1.94142 0.0476021 0
M  V30 2159 O 204.832 -1.70924 -0.928188 0
M  V30 2160 C 205.115 -2.63355 2.45594 0
M  V30 2161 C 204.968 -2.18514 3.93156 0
M  V30 2162 C 206.287 -3.65571 2.45043 0
M  V30 2163 H 203.406 -0.521077 0.521198 0
M  V30 2164 H 206.048 -0.766551 1.7385 0
M  V30 2165 H 204.198 -3.2053 2.19528 0
M  V30 2166 H 205.87 -1.66504 4.30202 0
M  V30 2167 H 204.113 -1.50086 4.07009 0
M  V30 2168 H 204.784 -3.04484 4.60428 0
M  V30 2169 H 207.26 -3.18113 2.68223 0
M  V30 2170 H 206.136 -4.46893 3.18713 0
M  V30 2171 H 206.397 -4.16716 1.47649 0
M  V30 2172 N 205.456 -1.28612 -0.910864 0
M  V30 2173 C 206.404 -1.1265 -2.03501 0
M  V30 2174 C 207.398 -0.0450054 -1.6934 0
M  V30 2175 O 208.604 -0.203988 -1.7884 0
M  V30 2176 H 204.979 -0.347639 -0.666822 0
M  V30 2177 H 206.95 -2.07849 -2.14106 0
M  V30 2178 C 205.699 -0.808143 -3.38178 0
M  V30 2179 H 205.022 -1.63231 -3.6496 0
M  V30 2180 H 206.462 -0.736426 -4.17556 0
M  V30 2181 C 204.921 0.488226 -3.33344 0
M  V30 2182 O 205.451 1.51766 -3.71927 0
M  V30 2183 N 203.657 0.490009 -2.86439 0
M  V30 2184 H 203.204 -0.348161 -2.55236 0
M  V30 2185 H 203.162 1.35741 -2.83587 0
M  V30 2186 N 206.934 1.1197 -1.10907 0
M  V30 2187 C 208.183 1.82947 -0.849302 0
M  V30 2188 C 208.496 1.85275 0.627112 0
M  V30 2189 O 209.702 2.52296 1.00295 0
M  V30 2190 C 208.158 3.28529 -1.46959 0
M  V30 2191 C 207.766 3.34546 -2.97965 0
M  V30 2192 C 209.51 4.04443 -1.28942 0
M  V30 2193 C 207.417 4.74491 -3.53004 0
M  V30 2194 H 206.347 0.685477 -0.314065 0
M  V30 2195 H 208.998 1.2604 -1.33365 0
M  V30 2196 H 207.38 3.85333 -0.912917 0
M  V30 2197 H 208.554 2.87654 -3.59989 0
M  V30 2198 H 206.869 2.72108 -3.15192 0
M  V30 2199 H 209.466 5.07787 -1.67502 0
M  V30 2200 H 209.809 4.15656 -0.231456 0
M  V30 2201 H 210.342 3.5401 -1.81443 0
M  V30 2202 H 207.081 4.68474 -4.58489 0
M  V30 2203 H 206.601 5.21816 -2.9575 0
M  V30 2204 H 208.28 5.4344 -3.51115 0
M  V30 2205 N 208.412 0.89855 1.29475 0
M  V30 2206 C 209.637 0.538561 2.00285 0
M  V30 2207 C 210.062 -0.869135 1.66816 0
M  V30 2208 O 209.42 -1.57831 0.892145 0
M  V30 2209 C 209.468 0.736475 3.52999 0
M  V30 2210 O 208.572 -0.211537 4.11857 0
M  V30 2211 H 207.913 0.210563 0.62973 0
M  V30 2212 H 210.443 1.20982 1.64998 0
M  V30 2213 H 210.453 0.640685 4.02938 0
M  V30 2214 H 209.128 1.76276 3.76696 0
M  V30 2215 H 207.705 -0.0682991 3.72837 0
M  V30 2216 N 209.89 -1.43072 0.660911 0
M  V30 2217 C 211.137 -2.01721 0.177445 0
M  V30 2218 C 211.465 -1.5218 -1.21126 0
M  V30 2219 O 210.72 -0.708659 -1.82419 0
M  V30 2220 C 211.019 -3.57103 0.145563 0
M  V30 2221 C 210.685 -4.26021 1.47705 0
M  V30 2222 C 209.347 -4.44563 1.84165 0
M  V30 2223 C 211.699 -4.64983 2.35458 0
M  V30 2224 C 209.027 -4.99334 3.0803 0
M  V30 2225 C 211.379 -5.21127 3.58622 0
M  V30 2226 C 210.043 -5.37884 3.95268 0
M  V30 2227 H 209.313 -0.73815 0.0649317 0
M  V30 2228 H 211.96 -1.71446 0.853144 0
M  V30 2229 H 210.265 -3.86965 -0.61361 0
M  V30 2230 H 211.962 -4.00248 -0.2455 0
M  V30 2231 H 208.552 -4.11939 1.18339 0
M  V30 2232 H 212.736 -4.50343 2.08579 0
M  V30 2233 H 207.992 -5.10493 3.36462 0
M  V30 2234 H 212.166 -5.50262 4.26831 0
M  V30 2235 H 209.793 -5.80089 4.91325 0
M  V30 2236 N 211.368 -0.403325 -1.52352 0
M  V30 2237 C 212.315 0.425011 -2.26853 0
M  V30 2238 C 213.285 1.04598 -1.29029 0
M  V30 2239 O 214.47 1.07135 -1.57882 0
M  V30 2240 C 211.61 1.53888 -3.08889 0
M  V30 2241 C 210.723 0.939396 -4.21663 0
M  V30 2242 C 209.858 2.02547 -4.91068 0
M  V30 2243 C 208.897 1.40263 -5.95813 0
M  V30 2244 N 208.034 2.4286 -6.58759 0
M  V30 2245 H 212.874 -0.21674 -2.97211 0
M  V30 2246 H 210.411 -0.118722 -1.4662 0
M  V30 2247 H 212.369 2.19558 -3.54753 0
M  V30 2248 H 210.999 2.15074 -2.40714 0
M  V30 2249 H 210.051 0.171898 -3.80011 0
M  V30 2250 H 211.363 0.44436 -4.96817 0
M  V30 2251 H 210.517 2.75958 -5.40308 0
M  V30 2252 H 209.256 2.55415 -4.15469 0
M  V30 2253 H 208.261 0.653833 -5.45898 0
M  V30 2254 H 209.486 0.881719 -6.73352 0
M  V30 2255 H 207.432 2.94871 -5.85992 0
M  V30 2256 H 207.349 1.98152 -7.2957 0
M  V30 2257 H 208.617 3.15858 -7.12639 0
M  V30 2258 N 212.846 1.57033 -0.133567 0
M  V30 2259 C 213.793 2.16074 0.811208 0
M  V30 2260 C 214.763 1.08979 1.2535 0
M  V30 2261 O 215.948 1.36958 1.32843 0
M  V30 2262 C 213.088 2.77595 2.05024 0
M  V30 2263 C 212.201 3.99042 1.65498 0
M  V30 2264 C 211.336 4.48603 2.84479 0
M  V30 2265 C 210.375 5.62547 2.41262 0
M  V30 2266 N 209.512 6.06787 3.53206 0
M  V30 2267 H 214.352 2.96477 0.300906 0
M  V30 2268 H 211.889 1.46462 0.136822 0
M  V30 2269 H 213.847 3.11402 2.77642 0
M  V30 2270 H 212.477 1.99859 2.53488 0
M  V30 2271 H 211.529 3.71302 0.826981 0
M  V30 2272 H 212.841 4.81629 1.29748 0
M  V30 2273 H 211.995 4.84395 3.65303 0
M  V30 2274 H 210.734 3.64995 3.23465 0
M  V30 2275 H 209.739 5.26345 1.58874 0
M  V30 2276 H 210.964 6.47931 2.03377 0
M  V30 2277 H 208.91 5.26117 3.91838 0
M  V30 2278 H 208.827 6.84266 3.21427 0
M  V30 2279 H 210.095 6.4722 4.34427 0
M  V30 2280 N 214.325 -0.140222 1.56975 0
M  V30 2281 C 215.571 -0.852949 1.83991 0
M  V30 2282 C 215.904 -1.80512 0.716187 0
M  V30 2283 O 215.179 -1.92479 -0.279681 0
M  V30 2284 C 215.462 -1.6215 3.21527 0
M  V30 2285 C 215.315 -0.690363 4.4447 0
M  V30 2286 C 216.634 -2.58247 3.56366 0
M  V30 2287 H 213.753 -0.308634 0.669264 0
M  V30 2288 H 216.395 -0.117898 1.89634 0
M  V30 2289 H 214.545 -2.24812 3.16847 0
M  V30 2290 H 216.217 -0.0742264 4.6124 0
M  V30 2291 H 214.46 -0.000396433 4.338 0
M  V30 2292 H 215.131 -1.2643 5.37326 0
M  V30 2293 H 217.607 -2.05701 3.61699 0
M  V30 2294 H 216.483 -3.09067 4.53617 0
M  V30 2295 H 216.744 -3.39923 2.82674 0
M  V30 2296 N 215.803 -1.52179 -0.40978 0
M  V30 2297 C 216.733 -1.78435 -1.5061 0
M  V30 2298 C 217.714 -0.635295 -1.57791 0
M  V30 2299 O 218.899 -0.880823 -1.73076 0
M  V30 2300 C 216.029 -1.93444 -2.88439 0
M  V30 2301 C 214.983 -3.09038 -2.96108 0
M  V30 2302 C 214.309 -3.09268 -4.36185 0
M  V30 2303 C 215.609 -4.48508 -2.67652 0
M  V30 2304 H 217.303 -2.70237 -1.28889 0
M  V30 2305 H 214.849 -1.30036 -0.618605 0
M  V30 2306 H 216.802 -2.10394 -3.65119 0
M  V30 2307 H 215.526 -0.983129 -3.11452 0
M  V30 2308 H 214.185 -2.91837 -2.21872 0
M  V30 2309 H 213.833 -2.11861 -4.56206 0
M  V30 2310 H 213.533 -3.86907 -4.42241 0
M  V30 2311 H 215.057 -3.28348 -5.14801 0
M  V30 2312 H 216.471 -4.65918 -3.34056 0
M  V30 2313 H 214.868 -5.28059 -2.85085 0
M  V30 2314 H 215.938 -4.56649 -1.63095 0
M  V30 2315 N 217.281 0.66697 -1.42791 0
M  V30 2316 C 218.53 1.42278 -1.42968 0
M  V30 2317 C 218.843 1.9553 -0.0524489 0
M  V30 2318 O 220.049 2.71414 0.068363 0
M  V30 2319 C 218.505 2.57418 -2.51524 0
M  V30 2320 C 218.113 2.10832 -3.9529 0
M  V30 2321 C 219.857 3.34878 -2.60877 0
M  V30 2322 C 217.764 3.23101 -4.95338 0
M  V30 2323 H 216.694 0.534533 -0.531781 0
M  V30 2324 H 219.345 0.721302 -1.68729 0
M  V30 2325 H 217.727 3.29971 -2.18941 0
M  V30 2326 H 218.901 1.4538 -4.37266 0
M  V30 2327 H 217.216 1.46289 -3.89857 0
M  V30 2328 H 219.813 4.18505 -3.32802 0
M  V30 2329 H 220.156 3.81993 -1.6549 0
M  V30 2330 H 220.689 2.69398 -2.92693 0
M  V30 2331 H 217.428 2.80969 -5.9223 0
M  V30 2332 H 216.948 3.87309 -4.57987 0
M  V30 2333 H 218.627 3.88447 -5.17415 0
M  V30 2334 N 218.759 1.29093 0.90403 0
M  V30 2335 C 219.706 1.13853 2.00764 0
M  V30 2336 C 220.676 0.0330084 1.66067 0
M  V30 2337 O 221.861 0.199733 1.89752 0
M  V30 2338 C 219.001 0.816537 3.35301 0
M  V30 2339 C 218.114 2.00206 3.82807 0
M  V30 2340 C 217.249 1.61983 5.059 0
M  V30 2341 C 216.288 2.77143 5.45764 0
M  V30 2342 N 215.425 2.39346 6.60044 0
M  V30 2343 H 220.265 2.08276 2.13132 0
M  V30 2344 H 217.802 1.03648 1.04381 0
M  V30 2345 H 219.76 0.610557 4.12708 0
M  V30 2346 H 218.39 -0.090779 3.22672 0
M  V30 2347 H 217.442 2.31988 3.01473 0
M  V30 2348 H 218.754 2.86512 4.08304 0
M  V30 2349 H 217.908 1.37649 5.90879 0
M  V30 2350 H 216.647 0.728202 4.82233 0
M  V30 2351 H 215.652 3.02165 4.59322 0
M  V30 2352 H 216.877 3.66964 5.71414 0
M  V30 2353 H 214.823 1.52665 6.37989 0
M  V30 2354 H 214.74 3.19185 6.85315 0
M  V30 2355 H 216.008 2.1832 7.48303 0
M  V30 2356 N 220.237 -1.11381 1.11499 0
M  V30 2357 C 221.147 -2.21019 0.786628 0
M  V30 2358 C 222.163 -1.72597 -0.220507 0
M  V30 2359 O 223.339 -2.01321 -0.0565251 0
M  V30 2360 C 220.404 -3.459 0.235333 0
M  V30 2361 C 219.465 -4.09107 1.30115 0
M  V30 2362 C 218.698 -5.28027 0.776068 0
M  V30 2363 O 218.921 -5.6904 -0.393661 0
M  V30 2364 O 217.855 -5.81835 1.54114 0
M  V30 2365 H 221.681 -2.51521 1.70209 0
M  V30 2366 H 219.266 -1.19928 0.890928 0
M  V30 2367 H 221.148 -4.21346 -0.067715 0
M  V30 2368 H 219.823 -3.17049 -0.652828 0
M  V30 2369 H 218.73 -3.35391 1.65722 0
M  V30 2370 H 220.063 -4.42139 2.16273 0
M  V30 2371 N 221.715 -0.905404 -1.28997 0
M  V30 2372 C 222.625 -0.392246 -2.31298 0
M  V30 2373 C 223.641 0.515889 -1.66176 0
M  V30 2374 O 224.817 0.404093 -1.97304 0
M  V30 2375 C 221.882 0.36686 -3.44754 0
M  V30 2376 C 220.943 -0.573485 -4.25452 0
M  V30 2377 C 220.176 0.149488 -5.33491 0
M  V30 2378 O 220.399 1.37255 -5.5364 0
M  V30 2379 O 219.333 -0.510919 -5.99728 0
M  V30 2380 H 223.159 -1.2411 -2.77183 0
M  V30 2381 H 220.744 -0.669926 -1.33538 0
M  V30 2382 H 222.626 0.795907 -4.13816 0
M  V30 2383 H 221.301 1.19169 -3.00966 0
M  V30 2384 H 220.208 -1.05176 -3.59011 0
M  V30 2385 H 221.541 -1.36489 -4.72897 0
M  V30 2386 N 223.193 1.4272 -0.668489 0
M  V30 2387 C 224.47 1.95248 -0.117373 0
M  V30 2388 C 224.85 1.60919 1.36632 0
M  V30 2389 O 224.198 0.902095 2.09939 0
M  V30 2390 C 224.408 3.46927 -0.379806 0
M  V30 2391 C 225.756 4.23588 -0.292923 0
M  V30 2392 O 226.78 3.5482 -0.313204 0
M  V30 2393 O 225.639 5.46017 -0.229697 0
M  V30 2394 H 222.733 0.827 0.00079152 0
M  V30 2395 H 225.279 1.52581 -0.742783 0
M  V30 2396 H 224.051 3.65096 -1.40786 0
M  V30 2397 H 223.674 3.96627 0.277923 0
M  V30 2398 N 224.671 0.411399 1.52136 0
M  V30 2399 C 225.634 -0.401089 2.25663 0
M  V30 2400 C 226.634 -0.971732 1.28117 0
M  V30 2401 O 227.824 -0.850254 1.52041 0
M  V30 2402 C 224.956 -1.56483 3.02863 0
M  V30 2403 H 226.149 0.24295 2.98914 0
M  V30 2404 H 223.702 0.163968 1.55438 0
M  V30 2405 H 224.437 -2.24567 2.33967 0
M  V30 2406 H 224.222 -1.16211 3.74483 0
M  V30 2407 H 225.712 -2.13951 3.58629 0
M  V30 2408 N 226.149 -1.5696 0.141893 0
M  V30 2409 C 227.395 -1.9625 -0.511248 0
M  V30 2410 C 227.728 -1.02654 -1.64851 0
M  V30 2411 O 227.003 -0.0679676 -1.94381 0
M  V30 2412 C 227.286 -3.45285 -1.02227 0
M  V30 2413 C 227.139 -4.49658 0.113138 0
M  V30 2414 C 228.458 -3.96698 -1.90574 0
M  V30 2415 H 225.577 -0.713567 -0.184367 0
M  V30 2416 H 228.219 -1.88698 0.222087 0
M  V30 2417 H 226.369 -3.51852 -1.64719 0
M  V30 2418 H 228.041 -4.55174 0.749302 0
M  V30 2419 H 226.284 -4.26857 0.773026 0
M  V30 2420 H 226.955 -5.51258 -0.286053 0
M  V30 2421 H 229.431 -3.92578 -1.37918 0
M  V30 2422 H 228.307 -5.01453 -2.2324 0
M  V30 2423 H 228.568 -3.3875 -2.84079 0
M  V30 2424 N 227.627 0.131896 -1.57047 0
M  V30 2425 C 228.876 0.84044 -1.83356 0
M  V30 2426 C 229.189 1.81646 -0.725535 0
M  V30 2427 O 230.395 2.57025 -0.874659 0
M  V30 2428 C 228.851 1.54528 -3.25037 0
M  V30 2429 C 228.459 0.610902 -4.43815 0
M  V30 2430 C 230.203 2.23972 -3.60606 0
M  V30 2431 C 228.11 1.31823 -5.76521 0
M  V30 2432 H 227.04 0.317599 -0.683847 0
M  V30 2433 H 229.691 0.0931561 -1.83263 0
M  V30 2434 H 228.073 2.33873 -3.19561 0
M  V30 2435 H 229.247 -0.148407 -4.60561 0
M  V30 2436 H 227.562 0.0241016 -4.16393 0
M  V30 2437 H 230.159 2.77558 -4.57018 0
M  V30 2438 H 230.502 3.01173 -2.87403 0
M  V30 2439 H 231.035 1.51529 -3.6781 0
M  V30 2440 H 227.774 0.587771 -6.52859 0
M  V30 2441 H 227.294 2.04987 -5.63685 0
M  V30 2442 H 228.973 1.855 -6.19838 0
M  V30 2443 N 229.106 1.52395 0.401703 0
M  V30 2444 C 230.336 1.70429 1.1678 0
M  V30 2445 C 230.744 0.416702 1.84554 0
M  V30 2446 O 230.087 -0.617697 1.73003 0
M  V30 2447 C 230.149 2.78919 2.26814 0
M  V30 2448 C 229.813 4.20437 1.79113 0
M  V30 2449 C 230.81 5.04028 1.27482 0
M  V30 2450 C 228.495 4.66704 1.85722 0
M  V30 2451 C 230.489 6.31961 0.830913 0
M  V30 2452 C 228.176 5.94625 1.40942 0
M  V30 2453 C 229.174 6.77082 0.897128 0
M  V30 2454 O 228.862 8.02607 0.455822 0
M  V30 2455 H 228.594 0.574272 0.356634 0
M  V30 2456 H 231.148 1.99767 0.477724 0
M  V30 2457 H 229.378 2.44973 2.99207 0
M  V30 2458 H 231.067 2.8548 2.88541 0
M  V30 2459 H 231.833 4.69471 1.21744 0
M  V30 2460 H 227.712 4.0262 2.24539 0
M  V30 2461 H 231.256 6.96271 0.430368 0
M  V30 2462 H 227.153 6.28688 1.46362 0
M  V30 2463 H 227.921 8.16453 0.578457 0
M  V30 2464 N 230.584 -0.659388 1.43143 0
M  V30 2465 C 231.531 -1.77249 1.47822 0
M  V30 2466 C 232.501 -1.62818 0.328558 0
M  V30 2467 O 233.686 -1.83151 0.534838 0
M  V30 2468 C 230.826 -3.15371 1.40126 0
M  V30 2469 C 229.939 -3.4098 2.65249 0
M  V30 2470 C 229.074 -4.68915 2.49584 0
M  V30 2471 C 228.113 -4.87608 3.70006 0
M  V30 2472 N 227.25 -6.06796 3.53189 0
M  V30 2473 H 232.09 -1.72584 2.42938 0
M  V30 2474 H 229.627 -0.842297 1.20598 0
M  V30 2475 H 231.585 -3.9521 1.33659 0
M  V30 2476 H 230.215 -3.19121 0.485964 0
M  V30 2477 H 229.267 -2.55282 2.8202 0
M  V30 2478 H 230.579 -3.50681 3.54717 0
M  V30 2479 H 229.733 -5.56871 2.4079 0
M  V30 2480 H 228.472 -4.61524 1.5763 0
M  V30 2481 H 227.477 -3.9809 3.79215 0
M  V30 2482 H 228.702 -4.96834 4.62961 0
M  V30 2483 H 226.648 -6.00549 2.63965 0
M  V30 2484 H 226.565 -6.17428 4.36255 0
M  V30 2485 H 227.833 -6.9739 3.48236 0
M  V30 2486 N 232.062 -1.29571 -0.897171 0
M  V30 2487 C 233.01 -1.14802 -2.02295 0
M  V30 2488 C 234.004 -0.0629637 -1.69283 0
M  V30 2489 O 235.21 -0.222945 -1.78614 0
M  V30 2490 H 231.585 -0.354692 -0.663097 0
M  V30 2491 H 233.556 -2.10108 -2.11889 0
M  V30 2492 C 232.305 -0.843966 -3.37302 0
M  V30 2493 H 231.628 -1.67093 -3.63208 0
M  V30 2494 H 233.068 -0.780672 -4.16751 0
M  V30 2495 C 231.527 0.452843 -3.33843 0
M  V30 2496 O 232.057 1.47813 -3.73516 0
M  V30 2497 N 230.263 0.459601 -2.86943 0
M  V30 2498 H 229.81 -0.375213 -2.54853 0
M  V30 2499 H 229.768 1.32726 -2.85011 0
M  V30 2500 N 233.54 1.10788 -1.12088 0
M  V30 2501 C 234.788 1.8231 -0.872205 0
M  V30 2502 C 235.109 1.85419 0.603709 0
M  V30 2503 O 234.379 1.32963 1.43867 0
M  V30 2504 H 232.959 0.675137 -0.319686 0
M  V30 2505 H 235.621 1.34068 -1.41463 0
M  V30 2506 H 234.717 2.85955 -1.25045 0
M  V30 2507 N 235.018 0.912232 1.28515 0
M  V30 2508 C 236.243 0.559774 1.99703 0
M  V30 2509 C 236.668 -0.851393 1.67729 0
M  V30 2510 O 236.026 -1.56875 0.908834 0
M  V30 2511 C 236.074 0.773874 3.52198 0
M  V30 2512 O 235.178 -0.167842 4.12058 0
M  V30 2513 H 234.519 0.21723 0.627461 0
M  V30 2514 H 237.049 1.22725 1.63706 0
M  V30 2515 H 237.059 0.683386 4.02236 0
M  V30 2516 H 235.734 1.80261 3.74805 0
M  V30 2517 H 234.311 -0.0287509 3.72889 0
M  V30 2518 N 236.496 -1.42363 0.676048 0
M  V30 2519 C 237.743 -2.01522 0.19883 0
M  V30 2520 C 238.071 -1.53456 -1.19505 0
M  V30 2521 O 237.326 -0.727967 -1.81657 0
M  V30 2522 C 237.625 -3.56929 0.183431 0
M  V30 2523 C 237.291 -4.24431 1.52215 0
M  V30 2524 C 235.953 -4.42585 1.8887 0
M  V30 2525 C 238.305 -4.62459 2.40377 0
M  V30 2526 C 235.633 -4.96039 3.13309 0
M  V30 2527 C 237.985 -5.17294 3.64129 0
M  V30 2528 C 236.649 -5.33661 4.00951 0
M  V30 2529 H 235.919 -0.737419 0.0727571 0
M  V30 2530 H 238.566 -1.70531 0.871281 0
M  V30 2531 H 236.871 -3.87594 -0.572532 0
M  V30 2532 H 238.568 -4.00486 -0.203035 0
M  V30 2533 H 235.158 -4.10661 1.22701 0
M  V30 2534 H 239.342 -4.48105 2.13343 0
M  V30 2535 H 234.598 -5.06896 3.41857 0
M  V30 2536 H 238.772 -5.45704 4.32644 0
M  V30 2537 H 236.399 -5.74845 4.9745 0
M  V30 2538 N 237.974 -0.419461 -1.51915 0
M  V30 2539 C 239.223 0.154346 -2.01109 0
M  V30 2540 C 239.536 1.45338 -1.30905 0
M  V30 2541 O 240.742 2.10906 -1.7097 0
M  V30 2542 C 239.198 0.325615 -3.58424 0
M  V30 2543 C 238.806 -0.961934 -4.37551 0
M  V30 2544 C 240.55 0.854155 -4.15818 0
M  V30 2545 C 238.457 -0.757287 -5.86531 0
M  V30 2546 H 237.387 0.0614563 -0.751491 0
M  V30 2547 H 240.038 -0.54649 -1.75173 0
M  V30 2548 H 238.42 1.08903 -3.80731 0
M  V30 2549 H 239.594 -1.7323 -4.26999 0
M  V30 2550 H 237.909 -1.41766 -3.91524 0
M  V30 2551 H 240.506 1.02346 -5.24814 0
M  V30 2552 H 240.849 1.83172 -3.73837 0
M  V30 2553 H 241.382 0.149528 -3.97519 0
M  V30 2554 H 238.121 -1.70671 -6.32892 0
M  V30 2555 H 237.641 -0.0264061 -5.99794 0
M  V30 2556 H 239.32 -0.403482 -6.45741 0
M  V30 2557 N 239.452 1.56882 -0.150215 0
M  V30 2558 C 240.402 2.13501 0.800071 0
M  V30 2559 C 241.386 1.06368 1.20726 0
M  V30 2560 O 242.578 1.32538 1.17314 0
M  V30 2561 C 239.707 2.76271 2.03787 0
M  V30 2562 C 238.793 3.90533 1.65364 0
M  V30 2563 N 239.184 4.96259 0.977794 0
M  V30 2564 C 237.482 4.013 1.94613 0
M  V30 2565 C 238.183 5.76286 0.791794 0
M  V30 2566 N 237.159 5.27163 1.32666 0
M  V30 2567 H 240.961 2.92615 0.274517 0
M  V30 2568 H 238.475 1.62319 0.0512144 0
M  V30 2569 H 240.472 3.15197 2.72867 0
M  V30 2570 H 239.132 1.98631 2.56857 0
M  V30 2571 H 240.143 5.13953 0.638193 0
M  V30 2572 H 236.82 3.3474 2.4951 0
M  V30 2573 H 238.21 6.71401 0.258894 0
M  V30 2574 N 240.93 -0.123565 1.57115 0
M  V30 2575 C 242.155 -0.850398 1.89164 0
M  V30 2576 C 242.58 -1.7286 0.741688 0
M  V30 2577 O 241.938 -1.78665 -0.307958 0
M  V30 2578 C 241.986 -1.66353 3.19936 0
M  V30 2579 O 241.09 -2.77004 3.0552 0
M  V30 2580 H 240.431 -0.235454 0.620852 0
M  V30 2581 H 242.961 -0.107335 2.04318 0
M  V30 2582 H 242.971 -2.05372 3.52543 0
M  V30 2583 H 241.646 -1.01881 4.03228 0
M  V30 2584 H 240.223 -2.41221 2.84371 0
M  V30 2585 N 242.408 -1.52605 -0.393616 0
M  V30 2586 C 243.654 -1.67672 -1.14079 0
M  V30 2587 C 243.987 -0.413121 -1.89755 0
M  V30 2588 O 243.262 0.588952 -1.85369 0
M  V30 2589 C 243.545 -2.9088 -2.12276 0
M  V30 2590 C 243.398 -4.27329 -1.40394 0
M  V30 2591 C 244.717 -3.09628 -3.12759 0
M  V30 2592 H 241.836 -0.610168 -0.413356 0
M  V30 2593 H 244.478 -1.85193 -0.424696 0
M  V30 2594 H 242.628 -2.76073 -2.73342 0
M  V30 2595 H 244.3 -4.53894 -0.82327 0
M  V30 2596 H 242.543 -4.2802 -0.705801 0
M  V30 2597 H 243.214 -5.09615 -2.12123 0
M  V30 2598 H 245.69 -3.23436 -2.61779 0
M  V30 2599 H 244.566 -3.97322 -3.78717 0
M  V30 2600 H 244.827 -2.23637 -3.81365 0
M  V30 2601 N 243.887 0.651787 -1.4349 0
M  V30 2602 C 245.298 1.233 -1.40193 0
M  V30 2603 C 245.649 1.9591 -0.106727 0
M  V30 2604 O 244.774 2.01316 0.793773 0
M  V30 2605 C 245.369 2.24257 -2.53957 0
M  V30 2606 C 243.928 2.77852 -2.5392 0
M  V30 2607 C 243.075 1.52517 -2.3159 0
M  V30 2608 H 246.026 0.443717 -1.52371 0
M  V30 2609 H 246.047 3.0646 -2.25528 0
M  V30 2610 H 245.559 1.71382 -3.4821 0
M  V30 2611 H 243.66 3.34786 -1.63551 0
M  V30 2612 H 243.773 3.25299 -3.51735 0
M  V30 2613 H 242.137 1.79915 -1.80285 0
M  V30 2614 H 242.92 1.01574 -3.27929 0
M  V30 2615 N 245.365 1.30045 0.890287 0
M  V30 2616 C 246.781 1.08261 1.17268 0
M  V30 2617 C 246.981 -0.160063 2.00863 0
M  V30 2618 O 246.037 -0.855181 2.37577 0
M  V30 2619 C 247.35 2.34323 1.8845 0
M  V30 2620 C 248.898 2.39735 2.01237 0
M  V30 2621 C 249.373 3.65625 2.7583 0
M  V30 2622 N 250.864 3.66402 2.83379 0
M  V30 2623 C 251.599 4.60498 3.41657 0
M  V30 2624 N 251.095 5.64933 4.01026 0
M  V30 2625 N 252.888 4.48051 3.39421 0
M  V30 2626 H 245.039 2.09777 0.332762 0
M  V30 2627 H 247.302 0.92446 0.209948 0
M  V30 2628 H 247.008 3.2498 1.34465 0
M  V30 2629 H 246.882 2.4256 2.88867 0
M  V30 2630 H 249.269 1.4956 2.54393 0
M  V30 2631 H 249.35 2.35476 0.999232 0
M  V30 2632 H 248.994 4.56156 2.23347 0
M  V30 2633 H 248.924 3.67144 3.77509 0
M  V30 2634 H 251.415 2.90896 2.41222 0
M  V30 2635 H 251.728 6.32841 4.43545 0
M  V30 2636 H 250.073 5.68732 3.99461 0
M  V30 2637 H 253.264 3.65649 2.92264 0
M  V30 2638 H 253.437 5.21565 3.84544 0
M  V30 2639 N 246.843 -1.10192 1.12674 0
M  V30 2640 C 247.793 -2.14754 0.765801 0
M  V30 2641 C 248.777 -1.59154 -0.236409 0
M  V30 2642 O 249.969 -1.76951 -0.0415261 0
M  V30 2643 C 247.098 -3.42563 0.224827 0
M  V30 2644 C 246.184 -4.05091 1.25548 0
M  V30 2645 N 246.575 -4.42287 2.4539 0
M  V30 2646 C 244.873 -4.32186 1.10142 0
M  V30 2647 C 245.574 -4.91441 3.11224 0
M  V30 2648 N 244.55 -4.88405 2.38666 0
M  V30 2649 H 248.352 -2.41309 1.67772 0
M  V30 2650 H 245.866 -1.27339 1.00789 0
M  V30 2651 H 247.863 -4.16868 -0.0519578 0
M  V30 2652 H 246.523 -3.17467 -0.681515 0
M  V30 2653 H 247.534 -4.33902 2.82754 0
M  V30 2654 H 244.211 -4.16735 0.252587 0
M  V30 2655 H 245.601 -5.29749 4.13298 0
M  V30 2656 N 248.321 -0.919034 -1.28029 0
M  V30 2657 C 249.231 -0.416756 -2.30869 0
M  V30 2658 C 250.247 0.498235 -1.66714 0
M  V30 2659 O 251.423 0.383144 -1.97722 0
M  V30 2660 C 248.488 0.330274 -3.45123 0
M  V30 2661 C 247.549 -0.618578 -4.2482 0
M  V30 2662 C 246.782 0.0928959 -5.33619 0
M  V30 2663 O 247.005 1.31375 -5.55065 0
M  V30 2664 O 245.939 -0.574499 -5.99152 0
M  V30 2665 H 249.765 -1.27043 -2.75851 0
M  V30 2666 H 247.35 -0.684052 -1.3282 0
M  V30 2667 H 249.232 0.751972 -4.14636 0
M  V30 2668 H 247.907 1.1597 -3.02213 0
M  V30 2669 H 246.814 -1.08978 -3.57875 0
M  V30 2670 H 248.147 -1.41497 -4.71423 0
M  V30 2671 N 249.799 1.42003 -0.683588 0
M  V30 2672 C 251.045 2.01712 -0.209825 0
M  V30 2673 C 251.378 1.53968 1.18353 0
M  V30 2674 O 250.653 0.745661 1.79639 0
M  V30 2675 C 250.936 3.59202 -0.254197 0
M  V30 2676 C 250.789 4.17102 -1.68363 0
M  V30 2677 C 252.108 4.38344 0.392709 0
M  V30 2678 H 249.227 0.732891 -0.0777189 0
M  V30 2679 H 251.869 1.68909 -0.87004 0
M  V30 2680 H 250.019 3.87278 0.307954 0
M  V30 2681 H 251.691 3.99946 -2.29871 0
M  V30 2682 H 249.934 3.72597 -2.22157 0
M  V30 2683 H 250.605 5.26249 -1.6663 0
M  V30 2684 H 253.081 4.16011 -0.0859162 0
M  V30 2685 H 251.957 5.47901 0.331063 0
M  V30 2686 H 252.218 4.16887 1.47164 0
M  V30 2687 N 251.277 0.427512 1.51691 0
M  V30 2688 C 252.688 -0.0378867 1.86662 0
M  V30 2689 C 253.039 -1.42819 1.34525 0
M  V30 2690 O 252.164 -2.05037 0.692014 0
M  V30 2691 C 252.759 -0.0755266 3.38716 0
M  V30 2692 C 251.318 -0.485309 3.73258 0
M  V30 2693 C 250.465 0.328399 2.75349 0
M  V30 2694 H 253.416 0.64379 1.45055 0
M  V30 2695 H 253.437 -0.887056 3.70016 0
M  V30 2696 H 252.949 0.936487 3.76632 0
M  V30 2697 H 251.05 -1.50329 3.40928 0
M  V30 2698 H 251.163 -0.21693 4.78609 0
M  V30 2699 H 249.527 -0.211905 2.53817 0
M  V30 2700 H 250.31 1.3391 3.16106 0
M  V30 2701 N 252.755 -1.56801 0.158532 0
M  V30 2702 C 254.032 -1.88131 -0.535357 0
M  V30 2703 C 254.412 -1.06638 -1.82186 0
M  V30 2704 O 253.76 -0.156533 -2.27963 0
M  V30 2705 C 253.97 -3.39949 -0.789653 0
M  V30 2706 C 255.318 -4.09416 -1.12533 0
M  V30 2707 O 256.342 -3.45194 -0.878622 0
M  V30 2708 O 255.201 -5.22855 -1.59014 0
M  V30 2709 H 252.295 -0.780143 -0.27442 0
M  V30 2710 H 254.841 -1.68564 0.19601 0
M  V30 2711 H 253.613 -3.91115 0.120353 0
M  V30 2712 H 253.236 -3.65084 -1.57479 0
M  V30 2713 N 254.233 0.115231 -1.57178 0
M  V30 2714 C 255.482 0.820945 -1.84237 0
M  V30 2715 C 255.795 1.80866 -0.744761 0
M  V30 2716 O 257.001 2.56083 -0.901871 0
M  V30 2717 C 255.457 1.51072 -3.26658 0
M  V30 2718 C 255.065 0.563795 -4.44438 0
M  V30 2719 C 256.809 2.20134 -3.62962 0
M  V30 2720 C 254.716 1.25701 -5.77887 0
M  V30 2721 H 253.646 0.310328 -0.687177 0
M  V30 2722 H 256.297 0.0737134 -1.83352 0
M  V30 2723 H 254.679 2.30471 -3.22024 0
M  V30 2724 H 255.853 -0.197247 -4.60378 0
M  V30 2725 H 254.168 -0.0200638 -4.16395 0
M  V30 2726 H 256.765 2.72696 -4.59936 0
M  V30 2727 H 257.108 2.98107 -2.90582 0
M  V30 2728 H 257.641 1.47619 -3.69396 0
M  V30 2729 H 254.38 0.518493 -6.53446 0
M  V30 2730 H 253.9 1.98997 -5.65827 0
M  V30 2731 H 255.579 1.78915 -6.2177 0
M  V30 2732 N 255.711 1.52812 0.385517 0
M  V30 2733 C 256.641 1.80808 1.47752 0
M  V30 2734 C 257.622 0.660318 1.5676 0
M  V30 2735 O 258.807 0.908246 1.71652 0
M  V30 2736 C 255.937 1.98008 2.85324 0
M  V30 2737 C 254.891 3.13709 2.91154 0
M  V30 2738 C 254.217 3.16169 4.31209 0
M  V30 2739 C 255.517 4.52709 2.60483 0
M  V30 2740 H 257.211 2.72253 1.24573 0
M  V30 2741 H 254.757 1.31003 0.597839 0
M  V30 2742 H 256.71 2.16176 3.61726 0
M  V30 2743 H 255.434 1.03255 3.09848 0
M  V30 2744 H 254.093 2.95329 2.17201 0
M  V30 2745 H 253.741 2.19092 4.52778 0
M  V30 2746 H 253.441 3.93894 4.36029 0
M  V30 2747 H 254.965 3.36496 5.09512 0
M  V30 2748 H 256.379 4.71173 3.26602 0
M  V30 2749 H 254.776 5.32528 2.76648 0
M  V30 2750 H 255.846 4.59186 1.55809 0
M  V30 2751 N 257.189 -0.644168 1.43834 0
M  V30 2752 C 258.099 -1.78563 1.52159 0
M  V30 2753 C 259.115 -1.69147 0.408069 0
M  V30 2754 O 260.291 -1.90156 0.663524 0
M  V30 2755 C 257.356 -3.14888 1.45073 0
M  V30 2756 C 256.417 -3.36034 2.6717 0
M  V30 2757 C 255.65 -4.65855 2.60413 0
M  V30 2758 O 255.873 -5.45805 1.65689 0
M  V30 2759 O 254.807 -4.88918 3.5106 0
M  V30 2760 H 258.633 -1.74494 2.48567 0
M  V30 2761 H 256.218 -0.80378 1.25935 0
M  V30 2762 H 258.1 -3.96179 1.43597 0
M  V30 2763 H 256.775 -3.19528 0.518037 0
M  V30 2764 H 255.682 -2.54472 2.74217 0
M  V30 2765 H 257.015 -3.36247 3.59442 0
M  V30 2766 N 258.668 -1.30515 -0.883378 0
M  V30 2767 C 259.914 -1.19607 -1.63774 0
M  V30 2768 C 260.247 0.248314 -1.92606 0
M  V30 2769 O 259.522 1.17742 -1.54813 0
M  V30 2770 C 259.805 -2.02669 -2.97653 0
M  V30 2771 C 259.658 -3.55335 -2.75784 0
M  V30 2772 C 260.977 -1.86573 -3.98596 0
M  V30 2773 H 258.096 -0.435856 -0.594305 0
M  V30 2774 H 260.738 -1.60165 -1.02212 0
M  V30 2775 H 258.888 -1.68208 -3.50197 0
M  V30 2776 H 260.56 -3.99863 -2.30016 0
M  V30 2777 H 258.803 -3.79438 -2.1026 0
M  V30 2778 H 259.474 -4.08745 -3.70988 0
M  V30 2779 H 261.95 -2.16703 -3.55217 0
M  V30 2780 H 260.826 -2.47014 -4.90179 0
M  V30 2781 H 261.087 -0.825321 -4.34328 0
M  V30 2782 N 260.146 1.09593 -1.13257 0
M  V30 2783 C 261.096 2.14345 -0.777179 0
M  V30 2784 C 262.08 1.59277 0.227966 0
M  V30 2785 O 263.272 1.76971 0.0321413 0
M  V30 2786 C 260.401 3.42439 -0.242991 0
M  V30 2787 C 259.487 4.04419 -1.27694 0
M  V30 2788 N 259.878 4.40979 -2.47732 0
M  V30 2789 C 258.176 4.31596 -1.12432 0
M  V30 2790 C 258.877 4.89784 -3.13826 0
M  V30 2791 N 257.853 4.87133 -2.41252 0
M  V30 2792 H 261.655 2.40415 -1.69049 0
M  V30 2793 H 259.169 1.26803 -1.01463 0
M  V30 2794 H 261.166 4.16889 0.0298496 0
M  V30 2795 H 259.826 3.17824 0.66467 0
M  V30 2796 H 260.837 4.32396 -2.85051 0
M  V30 2797 H 257.514 4.16595 -0.274684 0
M  V30 2798 H 258.904 5.2755 -4.16102 0
M  V30 2799 N 261.624 0.925811 1.2754 0
M  V30 2800 C 262.554 0.440748 2.29303 0
M  V30 2801 C 263.535 -0.497971 1.62648 0
M  V30 2802 O 264.72 -0.403126 1.8997 0
M  V30 2803 C 261.85 -0.309048 3.45922 0
M  V30 2804 C 260.804 0.54166 4.24559 0
M  V30 2805 C 260.13 -0.337191 5.33636 0
M  V30 2806 C 261.43 1.80516 4.90114 0
M  V30 2807 H 263.124 1.29121 2.70126 0
M  V30 2808 H 260.67 0.622323 1.29858 0
M  V30 2809 H 262.623 -0.659315 4.1621 0
M  V30 2810 H 261.347 -1.19352 3.04011 0
M  V30 2811 H 260.006 0.874609 3.56014 0
M  V30 2812 H 259.654 -1.22056 4.87966 0
M  V30 2813 H 259.354 0.228497 5.87156 0
M  V30 2814 H 260.878 -0.683072 6.06767 0
M  V30 2815 H 262.292 1.52307 5.52698 0
M  V30 2816 H 260.689 2.3142 5.53683 0
M  V30 2817 H 261.759 2.52581 4.13921 0
M  V30 2818 N 263.102 -1.41638 0.69111 0
M  V30 2819 C 264.513 -1.84346 0.295517 0
M  V30 2820 C 264.864 -1.57833 -1.16547 0
M  V30 2821 O 263.989 -1.04648 -1.89414 0
M  V30 2822 C 264.584 -3.34636 0.529575 0
M  V30 2823 C 263.143 -3.7593 0.187944 0
M  V30 2824 C 262.29 -2.65082 0.814052 0
M  V30 2825 H 265.241 -1.31253 0.892092 0
M  V30 2826 H 265.262 -3.79903 -0.213148 0
M  V30 2827 H 264.774 -3.53901 1.59297 0
M  V30 2828 H 262.875 -3.62268 -0.871367 0
M  V30 2829 H 262.988 -4.74808 0.63985 0
M  V30 2830 H 261.352 -2.53528 0.244017 0
M  V30 2831 H 262.135 -2.87167 1.88123 0
M  V30 2832 N 264.58 -0.43555 -1.51462 0
M  V30 2833 C 265.53 0.394701 -2.24558 0
M  V30 2834 C 266.514 0.99157 -1.26715 0
M  V30 2835 O 267.706 0.910007 -1.51815 0
M  V30 2836 C 264.835 1.4963 -3.08975 0
M  V30 2837 C 263.921 0.908912 -4.14246 0
M  V30 2838 N 264.312 0.0505335 -5.05775 0
M  V30 2839 C 262.61 1.17668 -4.30198 0
M  V30 2840 C 263.311 -0.279161 -5.8103 0
M  V30 2841 N 262.287 0.336767 -5.42556 0
M  V30 2842 H 266.089 -0.267106 -2.92684 0
M  V30 2843 H 263.603 -0.247518 -1.60503 0
M  V30 2844 H 265.6 2.10394 -3.59917 0
M  V30 2845 H 264.26 2.16046 -2.42393 0
M  V30 2846 H 265.271 -0.31577 -5.16936 0
M  V30 2847 H 261.948 1.83847 -3.74842 0
M  V30 2848 H 263.338 -0.977553 -6.64751 0
M  V30 2849 N 266.058 1.56714 -0.166846 0
M  V30 2850 C 267.021 2.16539 0.751232 0
M  V30 2851 C 268.021 1.11228 1.16125 0
M  V30 2852 O 269.211 1.36765 1.07894 0
M  V30 2853 C 266.343 2.74462 2.02196 0
M  V30 2854 H 267.536 2.99013 0.230499 0
M  V30 2855 H 265.089 1.56081 0.0826982 0
M  V30 2856 H 265.824 1.95709 2.58589 0
M  V30 2857 H 265.609 3.51527 1.73698 0
M  V30 2858 H 267.099 3.20489 2.67725 0
M  V30 2859 N 267.536 -0.106894 1.57237 0
M  V30 2860 C 268.468 -1.15646 1.97885 0
M  V30 2861 C 269.481 -1.36981 0.879779 0
M  V30 2862 O 270.67 -1.35841 1.15799 0
M  V30 2863 C 267.77 -2.51425 2.27241 0
M  V30 2864 C 266.943 -2.50529 3.58545 0
M  V30 2865 C 266.002 -3.68145 3.75973 0
M  V30 2866 O 265.028 -3.51176 4.47956 0
M  V30 2867 N 266.23 -4.87177 3.15656 0
M  V30 2868 H 268.995 -0.81059 2.8853 0
M  V30 2869 H 266.556 -0.296024 1.59171 0
M  V30 2870 H 268.548 -3.28689 2.36105 0
M  V30 2871 H 267.118 -2.78147 1.42663 0
M  V30 2872 H 266.338 -1.58894 3.60758 0
M  V30 2873 H 267.626 -2.46997 4.44826 0
M  V30 2874 H 267.024 -5.03868 2.57165 0
M  V30 2875 H 265.581 -5.62075 3.30023 0
M  V30 2876 N 269.014 -1.53014 -0.377408 0
M  V30 2877 C 270.425 -1.60438 -0.954798 0
M  V30 2878 C 270.776 -0.464418 -1.90624 0
M  V30 2879 O 269.901 0.41087 -2.12464 0
M  V30 2880 C 270.496 -2.90797 -1.73847 0
M  V30 2881 C 269.055 -3.00595 -2.26538 0
M  V30 2882 C 268.202 -2.55645 -1.07429 0
M  V30 2883 H 271.153 -1.57926 -0.156575 0
M  V30 2884 H 271.174 -2.77935 -2.5987 0
M  V30 2885 H 270.686 -3.73746 -1.04574 0
M  V30 2886 H 268.787 -2.22208 -2.99089 0
M  V30 2887 H 268.9 -4.05456 -2.5523 0
M  V30 2888 H 267.264 -2.10239 -1.43777 0
M  V30 2889 H 268.047 -3.41 -0.396728 0
M  V30 2890 N 270.492 0.636531 -1.44174 0
M  V30 2891 C 271.424 1.7618 -1.46606 0
M  V30 2892 C 272.437 1.58768 -0.360091 0
M  V30 2893 O 273.626 1.67181 -0.625518 0
M  V30 2894 C 270.726 3.13833 -1.27915 0
M  V30 2895 C 269.899 3.57753 -2.51658 0
M  V30 2896 C 268.958 4.74265 -2.27945 0
M  V30 2897 O 267.984 4.82852 -3.01401 0
M  V30 2898 N 269.186 5.65604 -1.30662 0
M  V30 2899 H 271.951 1.74567 -2.43612 0
M  V30 2900 H 269.512 0.820924 -1.39544 0
M  V30 2901 H 271.504 3.8949 -1.09907 0
M  V30 2902 H 270.074 3.10121 -0.39293 0
M  V30 2903 H 269.294 2.72362 -2.84978 0
M  V30 2904 H 270.582 3.83847 -3.33974 0
M  V30 2905 H 269.98 5.61354 -0.699844 0
M  V30 2906 H 268.537 6.40913 -1.18634 0
M  V30 2907 N 271.97 1.30982 0.876444 0
M  V30 2908 C 273.247 1.10942 1.61094 0
M  V30 2909 C 273.627 -0.338223 2.08373 0
M  V30 2910 O 272.975 -1.33122 1.85717 0
M  V30 2911 C 273.185 2.11789 2.77392 0
M  V30 2912 C 274.533 2.43965 3.47514 0
M  V30 2913 O 275.557 2.10166 2.87591 0
M  V30 2914 O 274.416 3.01817 4.55597 0
M  V30 2915 H 271.51 0.42667 0.708436 0
M  V30 2916 H 274.056 1.42438 0.922474 0
M  V30 2917 H 272.828 3.09194 2.39823 0
M  V30 2918 H 272.451 1.81161 3.5393 0
M  V30 2919 N 273.449 -1.08991 1.13837 0
M  V30 2920 C 274.412 -2.13925 0.822715 0
M  V30 2921 C 275.412 -1.599 -0.1699 0
M  V30 2922 O 276.602 -1.74104 0.0577251 0
M  V30 2923 C 273.734 -3.40155 0.225318 0
M  V30 2924 H 274.927 -2.43358 1.75262 0
M  V30 2925 H 272.48 -1.24603 0.943594 0
M  V30 2926 H 273.215 -3.16352 -0.713594 0
M  V30 2927 H 273 -3.80661 0.940193 0
M  V30 2928 H 274.49 -4.17594 0.0214784 0
M  V30 2929 N 274.927 -0.932562 -1.27047 0
M  V30 2930 C 276.175 -0.574422 -1.93765 0
M  V30 2931 C 276.496 0.887993 -1.73608 0
M  V30 2932 O 275.766 1.62999 -1.08665 0
M  V30 2933 H 274.346 -0.209451 -0.717035 0
M  V30 2934 H 277.008 -1.18601 -1.5466 0
M  V30 2935 H 276.104 -0.784841 -3.02071 0
M  V30 2936 N 276.405 1.4127 -0.698611 0
M  V30 2937 C 277.651 2.01478 -0.231207 0
M  V30 2938 C 277.984 1.55215 1.16713 0
M  V30 2939 O 277.259 0.764672 1.78838 0
M  V30 2940 C 277.542 3.58912 -0.292281 0
M  V30 2941 C 277.395 4.15293 -1.72778 0
M  V30 2942 C 278.714 4.38736 0.346194 0
M  V30 2943 H 275.833 0.732025 -0.0854878 0
M  V30 2944 H 278.475 1.67977 -0.887906 0
M  V30 2945 H 276.625 3.87582 0.26686 0
M  V30 2946 H 278.297 3.97486 -2.341 0
M  V30 2947 H 276.54 3.7022 -2.26096 0
M  V30 2948 H 277.211 5.24452 -1.72202 0
M  V30 2949 H 279.687 4.15897 -0.130035 0
M  V30 2950 H 278.563 5.48221 0.272932 0
M  V30 2951 H 278.824 4.18425 1.42734 0
M  V30 2952 N 277.883 0.443576 1.51229 0
M  V30 2953 C 279.113 -0.119117 2.06256 0
M  V30 2954 C 279.521 -1.36471 1.31043 0
M  V30 2955 O 278.864 -1.80034 0.365151 0
M  V30 2956 C 278.926 -0.500546 3.55998 0
M  V30 2957 C 278.59 0.639125 4.52509 0
M  V30 2958 C 279.587 1.51311 4.97394 0
M  V30 2959 C 277.272 0.821632 4.95535 0
M  V30 2960 C 279.266 2.55425 5.83984 0
M  V30 2961 C 276.953 1.86603 5.81913 0
M  V30 2962 C 277.951 2.73072 6.26036 0
M  V30 2963 O 277.639 3.75718 7.10698 0
M  V30 2964 H 277.371 -0.00857665 0.675946 0
M  V30 2965 H 279.925 0.623288 1.95715 0
M  V30 2966 H 278.155 -1.29575 3.64345 0
M  V30 2967 H 279.844 -0.995116 3.93513 0
M  V30 2968 H 280.61 1.38367 4.64844 0
M  V30 2969 H 276.489 0.158149 4.60729 0
M  V30 2970 H 280.033 3.22949 6.18344 0
M  V30 2971 H 275.93 1.99564 6.13876 0
M  V30 2972 H 276.698 3.72374 7.2889 0
M  V30 2973 N 279.361 -1.56624 0.175154 0
M  V30 2974 C 280.586 -2.01813 -0.478137 0
M  V30 2975 C 281.011 -1.05457 -1.55757 0
M  V30 2976 O 280.369 -0.0347439 -1.81267 0
M  V30 2977 C 280.417 -3.45581 -1.02987 0
M  V30 2978 O 279.521 -3.52305 -2.14371 0
M  V30 2979 H 278.862 -0.65413 -0.114059 0
M  V30 2980 H 281.392 -2.02673 0.280173 0
M  V30 2981 H 281.402 -3.84965 -1.35151 0
M  V30 2982 H 280.077 -4.1521 -0.239556 0
M  V30 2983 H 278.654 -3.24783 -1.83222 0
M  V30 2984 N 280.839 0.0985539 -1.57292 0
M  V30 2985 C 281.802 1.10402 -2.00858 0
M  V30 2986 C 282.802 1.33146 -0.901593 0
M  V30 2987 O 283.992 1.29318 -1.16716 0
M  V30 2988 C 281.124 2.45394 -2.36632 0
M  V30 2989 H 282.317 0.729099 -2.90902 0
M  V30 2990 H 279.87 0.343495 -1.52479 0
M  V30 2991 H 280.605 2.87769 -1.49531 0
M  V30 2992 H 280.39 2.30235 -3.17387 0
M  V30 2993 H 281.88 3.17718 -2.71007 0
M  V30 2994 N 282.317 1.53212 0.369288 0
M  V30 2995 C 283.733 1.42902 0.710712 0
M  V30 2996 C 283.933 0.565135 1.93413 0
M  V30 2997 O 282.989 0.0461484 2.52458 0
M  V30 2998 C 284.302 2.86042 0.927382 0
M  V30 2999 C 285.85 2.9565 1.02762 0
M  V30 3000 C 286.325 4.39843 1.27679 0
M  V30 3001 N 287.816 4.43256 1.34457 0
M  V30 3002 C 288.551 5.51929 1.55439 0
M  V30 3003 N 288.047 6.70655 1.73762 0
M  V30 3004 N 289.84 5.39502 1.57779 0
M  V30 3005 H 281.991 2.07888 -0.435457 0
M  V30 3006 H 284.254 0.938661 -0.132739 0
M  V30 3007 H 283.96 3.51557 0.100287 0
M  V30 3008 H 283.834 3.29472 1.83653 0
M  V30 3009 H 286.221 2.30291 1.84527 0
M  V30 3010 H 286.302 2.5562 0.0959504 0
M  V30 3011 H 285.946 5.05774 0.464175 0
M  V30 3012 H 285.876 4.77443 2.22162 0
M  V30 3013 H 288.367 3.5769 1.21926 0
M  V30 3014 H 288.68 7.49248 1.89335 0
M  V30 3015 H 287.025 6.73648 1.70948 0
M  V30 3016 H 290.216 4.45713 1.43029 0
M  V30 3017 H 290.389 6.2426 1.7379 0
M  V30 3018 N 283.795 -0.628877 1.44509 0
M  V30 3019 C 285.025 -1.41349 1.50678 0
M  V30 3020 C 285.433 -1.88745 0.131075 0
M  V30 3021 O 284.776 -1.61592 -0.87371 0
M  V30 3022 C 284.838 -2.66608 2.41165 0
M  V30 3023 C 284.502 -2.40993 3.88293 0
M  V30 3024 C 285.499 -2.0268 4.78766 0
M  V30 3025 C 283.184 -2.54563 4.33016 0
M  V30 3026 C 285.178 -1.78269 6.11963 0
M  V30 3027 C 282.865 -2.29766 5.6626 0
M  V30 3028 C 283.863 -1.91678 6.55552 0
M  V30 3029 O 283.551 -1.67158 7.86329 0
M  V30 3030 H 283.283 -0.439851 0.51333 0
M  V30 3031 H 285.837 -0.776084 1.90174 0
M  V30 3032 H 284.067 -3.32994 1.96601 0
M  V30 3033 H 285.756 -3.28615 2.38259 0
M  V30 3034 H 286.522 -1.91751 4.45485 0
M  V30 3035 H 282.401 -2.83179 3.63773 0
M  V30 3036 H 285.945 -1.48465 6.81619 0
M  V30 3037 H 281.842 -2.40306 5.99102 0
M  V30 3038 H 282.61 -1.81386 7.98149 0
M  V30 3039 N 285.273 -1.31445 -0.869486 0
M  V30 3040 C 286.522 -1.20517 -1.61736 0
M  V30 3041 C 286.835 0.235341 -1.94179 0
M  V30 3042 O 288.041 0.466312 -2.67465 0
M  V30 3043 C 286.497 -2.10982 -2.91573 0
M  V30 3044 C 286.105 -3.60032 -2.66611 0
M  V30 3045 C 287.849 -2.08856 -3.69567 0
M  V30 3046 C 285.756 -4.42503 -3.92358 0
M  V30 3047 H 284.686 -0.447493 -0.606849 0
M  V30 3048 H 287.337 -1.56303 -0.96133 0
M  V30 3049 H 285.719 -1.68095 -3.58553 0
M  V30 3050 H 286.893 -4.11167 -2.08035 0
M  V30 3051 H 285.208 -3.64139 -2.0197 0
M  V30 3052 H 287.805 -2.67716 -4.62852 0
M  V30 3053 H 288.148 -1.07582 -4.02159 0
M  V30 3054 H 288.681 -2.49945 -3.09471 0
M  V30 3055 H 285.42 -5.44533 -3.64916 0
M  V30 3056 H 284.94 -3.96125 -4.50383 0
M  V30 3057 H 286.619 -4.54741 -4.60238 0
M  V30 3058 N 286.751 1.08385 -1.14413 0
M  V30 3059 C 287.999 1.80419 -0.910679 0
M  V30 3060 C 288.32 1.86658 0.564243 0
M  V30 3061 O 287.59 1.35985 1.41014 0
M  V30 3062 H 286.17 0.668204 -0.333934 0
M  V30 3063 H 288.832 1.31037 -1.44275 0
M  V30 3064 H 287.928 2.83238 -1.31082 0
M  V30 3065 N 288.23 0.939286 1.26551 0
M  V30 3066 C 289.478 0.58469 1.93457 0
M  V30 3067 C 289.799 -0.878774 1.74076 0
M  V30 3068 O 289.069 -1.62421 1.09528 0
M  V30 3069 H 287.649 0.21325 0.715914 0
M  V30 3070 H 290.311 1.1942 1.54029 0
M  V30 3071 H 289.407 0.800849 3.0165 0
M  V30 3072 N 289.708 -1.40897 0.706093 0
M  V30 3073 C 290.656 -2.32572 0.0361893 0
M  V30 3074 C 291.65 -1.51532 -0.757266 0
M  V30 3075 O 292.856 -1.67396 -0.661703 0
M  V30 3076 H 289.231 -0.751966 -0.00709935 0
M  V30 3077 H 291.202 -2.86733 0.826249 0
M  V30 3078 C 289.951 -3.36418 -0.87854 0
M  V30 3079 H 289.274 -3.98836 -0.277401 0
M  V30 3080 H 290.714 -4.0308 -1.3154 0
M  V30 3081 C 289.173 -2.71141 -1.99961 0
M  V30 3082 O 289.703 -2.56735 -3.0895 0
M  V30 3083 N 287.909 -2.29671 -1.78043 0
M  V30 3084 H 287.456 -2.41588 -0.894042 0
M  V30 3085 H 287.414 -1.86332 -2.53235 0
M  V30 3086 N 291.186 -0.45159 -1.50991 0
M  V30 3087 C 292.116 0.342898 -2.30969 0
M  V30 3088 C 293.097 1.00815 -1.37005 0
M  V30 3089 O 294.282 1.00907 -1.65926 0
M  V30 3090 C 291.412 1.43637 -3.16205 0
M  V30 3091 C 290.366 0.893818 -4.18563 0
M  V30 3092 C 289.692 2.08411 -4.92411 0
M  V30 3093 C 290.992 -0.0815568 -5.22236 0
M  V30 3094 H 292.686 -0.324556 -2.97636 0
M  V30 3095 H 290.232 -0.157531 -1.43136 0
M  V30 3096 H 292.185 1.9995 -3.70942 0
M  V30 3097 H 290.909 2.13232 -2.47386 0
M  V30 3098 H 289.568 0.352798 -3.64898 0
M  V30 3099 H 289.216 2.76658 -4.20082 0
M  V30 3100 H 288.916 1.72741 -5.61636 0
M  V30 3101 H 290.44 2.65251 -5.49976 0
M  V30 3102 H 291.854 0.391742 -5.7196 0
M  V30 3103 H 290.251 -0.351551 -5.99069 0
M  V30 3104 H 291.321 -1.01374 -4.74185 0
M  V30 3105 N 292.664 1.56529 -0.183458 0
M  V30 3106 C 293.911 1.97244 0.458357 0
M  V30 3107 C 294.239 1.06992 1.62428 0
M  V30 3108 O 293.494 0.106542 1.9541 0
M  V30 3109 C 293.793 3.43939 0.971637 0
M  V30 3110 C 293.459 4.5083 -0.0796784 0
M  V30 3111 C 292.121 4.79786 -0.368584 0
M  V30 3112 C 294.473 5.15138 -0.792638 0
M  V30 3113 C 291.801 5.70345 -1.37563 0
M  V30 3114 C 294.153 6.06784 -1.78875 0
M  V30 3115 C 292.817 6.34102 -2.08497 0
M  V30 3116 H 292.087 0.721768 0.167725 0
M  V30 3117 H 294.734 1.89472 -0.277976 0
M  V30 3118 H 293.039 3.48724 1.78602 0
M  V30 3119 H 294.736 3.72791 1.47744 0
M  V30 3120 H 291.326 4.28317 0.155668 0
M  V30 3121 H 295.51 4.92868 -0.582659 0
M  V30 3122 H 290.766 5.89789 -1.61118 0
M  V30 3123 H 294.94 6.55677 -2.3465 0
M  V30 3124 H 292.567 7.04074 -2.86678 0
M  V30 3125 N 294.142 -0.090211 1.57342 0
M  V30 3126 C 295.37 -0.806224 1.90546 0
M  V30 3127 C 295.785 -1.72041 0.777644 0
M  V30 3128 O 295.142 -1.80778 -0.250103 0
M  V30 3129 C 295.193 -1.61546 3.23396 0
M  V30 3130 O 294.914 -0.738043 4.31839 0
M  V30 3131 C 296.415 -2.4341 3.70495 0
M  V30 3132 H 293.635 -0.230256 0.630257 0
M  V30 3133 H 296.179 -0.0659843 2.04394 0
M  V30 3134 H 294.334 -2.30816 3.11131 0
M  V30 3135 H 294.748 -1.29901 5.08159 0
M  V30 3136 H 296.222 -2.95676 4.66133 0
M  V30 3137 H 296.699 -3.22098 2.98579 0
M  V30 3138 H 297.305 -1.79331 3.85643 0
M  V30 3139 N 295.62 -1.53406 -0.361157 0
M  V30 3140 C 296.845 -1.74024 -1.12829 0
M  V30 3141 C 297.27 -0.470069 -1.82132 0
M  V30 3142 O 296.628 0.57619 -1.719 0
M  V30 3143 C 296.676 -2.90903 -2.13091 0
M  V30 3144 O 295.78 -2.59821 -3.20261 0
M  V30 3145 H 295.121 -0.577804 -0.327168 0
M  V30 3146 H 297.651 -2.00307 -0.41693 0
M  V30 3147 H 297.661 -3.17194 -2.56616 0
M  V30 3148 H 296.336 -3.83034 -1.62042 0
M  V30 3149 H 294.913 -2.44362 -2.81677 0
M  V30 3150 N 297.098 0.621204 -1.44841 0
M  V30 3151 C 298.061 1.71459 -1.521 0
M  V30 3152 C 299.061 1.55696 -0.401933 0
M  V30 3153 O 300.251 1.61011 -0.664925 0
M  V30 3154 C 297.383 3.10624 -1.40447 0
M  V30 3155 H 298.576 1.66394 -2.49506 0
M  V30 3156 H 296.129 0.835745 -1.3208 0
M  V30 3157 H 296.864 3.21277 -0.441737 0
M  V30 3158 H 296.649 3.23473 -2.21602 0
M  V30 3159 H 298.139 3.90293 -1.4853 0
M  V30 3160 N 298.576 1.31904 0.862503 0
M  V30 3161 C 299.823 1.22017 1.61611 0
M  V30 3162 C 300.151 -0.21991 1.93253 0
M  V30 3163 O 299.406 -1.17076 1.56817 0
M  V30 3164 C 299.705 2.01713 2.95037 0
M  V30 3165 C 299.371 3.51145 2.82857 0
M  V30 3166 C 298.033 3.91889 2.79243 0
M  V30 3167 C 300.385 4.46204 2.69353 0
M  V30 3168 C 297.713 5.25947 2.59993 0
M  V30 3169 C 300.065 5.80397 2.5164 0
M  V30 3170 C 298.729 6.20352 2.46413 0
M  V30 3171 H 297.999 0.44649 0.591378 0
M  V30 3172 H 300.646 1.63248 1.00111 0
M  V30 3173 H 298.951 1.53185 3.60613 0
M  V30 3174 H 300.648 1.91437 3.52353 0
M  V30 3175 H 297.238 3.1878 2.86491 0
M  V30 3176 H 301.422 4.15652 2.71196 0
M  V30 3177 H 296.678 5.5597 2.54376 0
M  V30 3178 H 300.852 6.53676 2.40169 0
M  V30 3179 H 298.479 7.24172 2.31256 0
M  V30 3180 N 300.054 -1.07777 1.14986 0
M  V30 3181 C 301.282 -1.84018 0.945773 0
M  V30 3182 C 301.697 -1.81897 -0.505863 0
M  V30 3183 O 301.054 -1.22726 -1.35072 0
M  V30 3184 C 301.105 -3.31287 1.44677 0
M  V30 3185 O 300.826 -3.33449 2.84154 0
M  V30 3186 C 302.327 -4.24311 1.28355 0
M  V30 3187 H 299.547 -0.580716 0.336169 0
M  V30 3188 H 302.091 -1.36077 1.52654 0
M  V30 3189 H 300.246 -3.76594 0.908625 0
M  V30 3190 H 300.66 -4.25427 3.06777 0
M  V30 3191 H 302.134 -5.2573 1.68261 0
M  V30 3192 H 302.611 -4.38612 0.227184 0
M  V30 3193 H 303.217 -3.84836 1.81056 0
M  V30 3194 N 301.532 -0.945985 -1.26051 0
M  V30 3195 C 302.948 -0.649045 -1.45807 0
M  V30 3196 C 303.148 0.796158 -1.85104 0
M  V30 3197 O 302.204 1.57233 -1.97571 0
M  V30 3198 C 303.517 -1.61458 -2.53677 0
M  V30 3199 C 305.065 -1.62481 -2.67524 0
M  V30 3200 C 305.54 -2.57776 -3.7857 0
M  V30 3201 N 307.031 -2.5609 -3.85969 0
M  V30 3202 C 307.766 -3.26508 -4.7136 0
M  V30 3203 N 307.262 -4.0637 -5.61102 0
M  V30 3204 N 309.055 -3.15437 -4.65248 0
M  V30 3205 H 301.206 -1.88005 -0.988328 0
M  V30 3206 H 303.469 -0.808198 -0.4955 0
M  V30 3207 H 303.175 -2.64644 -2.31638 0
M  V30 3208 H 303.049 -1.37036 -3.51427 0
M  V30 3209 H 305.436 -0.600167 -2.88933 0
M  V30 3210 H 305.517 -1.90958 -1.70202 0
M  V30 3211 H 305.161 -3.60361 -3.57913 0
M  V30 3212 H 305.091 -2.26587 -4.75359 0
M  V30 3213 H 307.582 -1.98105 -3.21812 0
M  V30 3214 H 307.895 -4.57042 -6.23164 0
M  V30 3215 H 306.24 -4.10469 -5.60839 0
M  V30 3216 H 309.431 -2.52525 -3.94143 0
M  V30 3217 H 309.604 -3.70584 -5.31575 0
M  V30 3218 N 303.011 1.40521 -0.713556 0
M  V30 3219 C 303.941 2.33381 -0.0743864 0
M  V30 3220 C 304.922 1.52784 0.747735 0
M  V30 3221 O 306.107 1.81258 0.697071 0
M  V30 3222 C 303.237 3.36748 0.849598 0
M  V30 3223 C 302.191 4.27793 0.133247 0
M  V30 3224 C 301.517 5.21679 1.17281 0
M  V30 3225 C 302.817 5.12415 -1.01134 0
M  V30 3226 H 304.511 2.87081 -0.850007 0
M  V30 3227 H 302.057 1.38034 -0.410201 0
M  V30 3228 H 304.01 4.00648 1.30612 0
M  V30 3229 H 302.734 2.81439 1.65709 0
M  V30 3230 H 301.393 3.65342 -0.303426 0
M  V30 3231 H 301.041 4.62677 1.9733 0
M  V30 3232 H 300.741 5.83435 0.698397 0
M  V30 3233 H 302.265 5.88456 1.62947 0
M  V30 3234 H 303.679 5.69781 -0.634274 0
M  V30 3235 H 302.076 5.83203 -1.41399 0
M  V30 3236 H 303.146 4.48514 -1.84292 0
M  V30 3237 N 304.489 0.459591 1.5075 0
M  V30 3238 C 305.738 -0.100971 2.01447 0
M  V30 3239 C 306.051 -1.41816 1.34713 0
M  V30 3240 O 307.257 -2.06299 1.76502 0
M  V30 3241 C 305.713 -0.23047 3.59161 0
M  V30 3242 C 305.321 1.0776 4.34847 0
M  V30 3243 C 307.065 -0.743608 4.17936 0
M  V30 3244 C 304.972 0.91253 5.84317 0
M  V30 3245 H 303.902 -0.0415102 0.752856 0
M  V30 3246 H 306.553 0.592742 1.73663 0
M  V30 3247 H 304.935 -0.987703 3.83485 0
M  V30 3248 H 306.109 1.8449 4.22256 0
M  V30 3249 H 304.424 1.52097 3.87628 0
M  V30 3250 H 307.021 -0.883959 5.27343 0
M  V30 3251 H 307.364 -1.73196 3.78562 0
M  V30 3252 H 307.897 -0.04408 3.97776 0
M  V30 3253 H 304.636 1.87391 6.28144 0
M  V30 3254 H 304.156 0.185422 5.99513 0
M  V30 3255 H 305.835 0.574547 6.44444 0
M  V30 3256 N 305.967 -1.56429 0.191757 0
M  V30 3257 C 307.213 -1.97777 -0.448554 0
M  V30 3258 C 307.546 -1.07847 -1.61501 0
M  V30 3259 O 306.821 -0.129774 -1.94067 0
M  V30 3260 C 307.104 -3.48362 -0.911906 0
M  V30 3261 C 306.957 -4.4907 0.256136 0
M  V30 3262 C 308.276 -4.02561 -1.77857 0
M  V30 3263 H 305.395 -0.719071 -0.161572 0
M  V30 3264 H 308.037 -1.87896 0.282007 0
M  V30 3265 H 306.187 -3.56914 -1.53442 0
M  V30 3266 H 307.859 -4.5256 0.893733 0
M  V30 3267 H 306.102 -4.24181 0.908436 0
M  V30 3268 H 306.773 -5.51889 -0.11053 0
M  V30 3269 H 309.249 -3.96767 -1.25359 0
M  V30 3270 H 308.125 -5.08301 -2.07174 0
M  V30 3271 H 308.386 -3.47616 -2.73158 0
M  V30 3272 N 307.445 0.0818655 -1.57387 0
M  V30 3273 C 308.861 0.436412 -1.53517 0
M  V30 3274 C 309.061 1.79758 -0.910459 0
M  V30 3275 O 308.117 2.47324 -0.508636 0
M  V30 3276 C 309.43 0.386734 -2.98203 0
M  V30 3277 C 310.978 0.467644 -3.09487 0
M  V30 3278 C 311.453 0.447978 -4.55804 0
M  V30 3279 N 312.944 0.508348 -4.60402 0
M  V30 3280 C 313.679 0.515184 -5.71081 0
M  V30 3281 N 313.175 0.477435 -6.91153 0
M  V30 3282 N 314.968 0.560988 -5.59294 0
M  V30 3283 H 307.119 -0.809546 -1.96367 0
M  V30 3284 H 309.382 -0.302733 -0.898363 0
M  V30 3285 H 309.088 -0.546539 -3.47427 0
M  V30 3286 H 308.962 1.20075 -3.57578 0
M  V30 3287 H 311.349 1.39134 -2.60242 0
M  V30 3288 H 311.43 -0.374753 -2.5304 0
M  V30 3289 H 311.074 -0.471826 -5.05704 0
M  V30 3290 H 311.004 1.30777 -5.10103 0
M  V30 3291 H 313.495 0.54218 -3.7399 0
M  V30 3292 H 313.808 0.486299 -7.71268 0
M  V30 3293 H 312.153 0.444278 -6.93579 0
M  V30 3294 H 315.344 0.5881 -4.64391 0
M  V30 3295 H 315.517 0.562846 -6.45551 0
M  V30 3296 N 308.923 1.53595 0.353017 0
M  V30 3297 C 310.339 1.43648 0.695516 0
M  V30 3298 C 310.539 0.585617 1.92802 0
M  V30 3299 O 309.595 0.0729223 2.52395 0
M  V30 3300 C 310.908 2.8701 0.896991 0
M  V30 3301 C 312.456 2.96723 0.996209 0
M  V30 3302 C 312.931 4.41173 1.23007 0
M  V30 3303 N 314.422 4.44657 1.29749 0
M  V30 3304 C 315.157 5.53547 1.49577 0
M  V30 3305 N 314.653 6.72461 1.66639 0
M  V30 3306 N 316.446 5.41145 1.52048 0
M  V30 3307 H 308.597 2.07415 -0.457481 0
M  V30 3308 H 310.86 0.9372 -0.142687 0
M  V30 3309 H 310.566 3.51644 0.0629938 0
M  V30 3310 H 310.44 3.31401 1.80148 0
M  V30 3311 H 312.827 2.32235 1.82074 0
M  V30 3312 H 312.908 2.55707 0.0688331 0
M  V30 3313 H 312.552 5.06238 0.410505 0
M  V30 3314 H 312.482 4.79772 2.17086 0
M  V30 3315 H 314.973 3.58963 1.18126 0
M  V30 3316 H 315.286 7.51214 1.81378 0
M  V30 3317 H 313.631 6.75423 1.63794 0
M  V30 3318 H 316.822 4.47205 1.38294 0
M  V30 3319 H 316.995 6.26068 1.67159 0
M  V30 3320 N 310.401 -0.613514 1.45168 0
M  V30 3321 C 311.641 -1.38405 1.5041 0
M  V30 3322 C 312.005 -1.91489 0.139922 0
M  V30 3323 O 313.206 -2.68716 0.067033 0
M  V30 3324 C 311.477 -2.50552 2.5487 0
M  V30 3325 S 313.036 -3.38439 2.79292 0
M  V30 3326 H 309.854 -0.471945 0.531779 0
M  V30 3327 H 312.456 -0.708518 1.82209 0
M  V30 3328 H 311.16 -2.09894 3.52665 0
M  V30 3329 H 310.691 -3.22913 2.24701 0
M  V30 3330 H 312.706 -4.48527 2.12222 0
M  V30 3331 N 311.879 -1.3236 -0.855495 0
M  V30 3332 C 312.789 -1.23221 -1.99634 0
M  V30 3333 C 313.805 -0.145983 -1.73387 0
M  V30 3334 O 314.981 -0.366502 -1.98037 0
M  V30 3335 C 312.046 -0.954782 -3.33294 0
M  V30 3336 C 311.107 -2.12937 -3.72769 0
M  V30 3337 C 310.34 -1.86508 -5.00051 0
M  V30 3338 O 310.563 -0.807231 -5.64659 0
M  V30 3339 O 309.497 -2.72591 -5.36636 0
M  V30 3340 H 313.323 -2.19126 -2.1028 0
M  V30 3341 H 310.908 -1.12241 -0.986018 0
M  V30 3342 H 312.79 -0.816519 -4.13414 0
M  V30 3343 H 311.465 -0.0258854 -3.2369 0
M  V30 3344 H 310.372 -2.3231 -2.93228 0
M  V30 3345 H 311.705 -3.04102 -3.87018 0
M  V30 3346 N 313.357 1.07166 -1.15556 0
M  V30 3347 C 314.32 2.12589 -0.856644 0
M  V30 3348 C 315.32 1.6015 0.14444 0
M  V30 3349 O 316.51 1.7399 -0.0854163 0
M  V30 3350 C 313.642 3.39753 -0.279405 0
M  V30 3351 H 314.835 2.40539 -1.79112 0
M  V30 3352 H 312.388 1.23086 -0.963298 0
M  V30 3353 H 313.123 3.17447 0.663174 0
M  V30 3354 H 312.908 3.79117 -1.00063 0
M  V30 3355 H 314.398 4.17507 -0.0879113 0
M  V30 3356 N 314.835 0.952656 1.25548 0
M  V30 3357 C 315.767 0.428609 2.25157 0
M  V30 3358 C 316.78 -0.454428 1.56329 0
M  V30 3359 O 317.969 -0.263023 1.76552 0
M  V30 3360 C 315.069 -0.401972 3.36508 0
M  V30 3361 C 314.242 0.467601 4.34893 0
M  V30 3362 C 313.301 -0.30445 5.25319 0
M  V30 3363 O 312.327 0.296473 5.68427 0
M  V30 3364 N 313.529 -1.59805 5.5807 0
M  V30 3365 H 316.294 1.28497 2.70756 0
M  V30 3366 H 313.855 0.822798 1.39433 0
M  V30 3367 H 315.847 -0.926134 3.9396 0
M  V30 3368 H 314.417 -1.15918 2.90313 0
M  V30 3369 H 313.637 1.17288 3.76347 0
M  V30 3370 H 314.925 1.06119 4.97611 0
M  V30 3371 H 314.323 -2.10823 5.24948 0
M  V30 3372 H 312.88 -2.06822 6.18116 0
M  V30 3373 N 316.313 -1.40141 0.720998 0
M  V30 3374 C 317.26 -2.30688 0.071919 0
M  V30 3375 C 318.23 -1.48476 -0.744584 0
M  V30 3376 O 319.415 -1.77201 -0.707423 0
M  V30 3377 C 316.555 -3.34724 -0.839855 0
M  V30 3378 C 315.668 -4.31998 -0.0122438 0
M  V30 3379 C 314.803 -5.23102 -0.923995 0
M  V30 3380 C 313.842 -6.12033 -0.0907969 0
M  V30 3381 N 312.979 -6.95537 -0.957718 0
M  V30 3382 H 317.819 -2.85628 0.849755 0
M  V30 3383 H 315.356 -1.40653 0.430726 0
M  V30 3384 H 317.314 -3.93618 -1.38279 0
M  V30 3385 H 315.944 -2.81274 -1.58381 0
M  V30 3386 H 314.996 -3.74841 0.64794 0
M  V30 3387 H 316.308 -4.94772 0.632595 0
M  V30 3388 H 315.462 -5.86953 -1.53527 0
M  V30 3389 H 314.201 -4.60615 -1.60264 0
M  V30 3390 H 313.206 -5.47207 0.533377 0
M  V30 3391 H 314.431 -6.76581 0.584428 0
M  V30 3392 H 312.377 -6.35633 -1.62192 0
M  V30 3393 H 312.294 -7.55099 -0.36904 0
M  V30 3394 H 313.562 -7.63832 -1.555 0
M  V30 3395 N 317.792 -0.46758 -1.50504 0
M  V30 3396 C 319.038 0.0808869 -2.03239 0
M  V30 3397 C 319.393 1.37721 -1.34353 0
M  V30 3398 O 318.686 1.86016 -0.459194 0
M  V30 3399 C 318.88 0.323995 -3.55928 0
M  V30 3400 C 318.709 -0.947215 -4.39611 0
M  V30 3401 C 317.479 -1.48951 -4.82848 0
M  V30 3402 C 319.677 -1.84166 -4.80195 0
M  V30 3403 N 317.659 -2.71011 -5.50842 0
M  V30 3404 C 319.03 -2.90815 -5.47564 0
M  V30 3405 C 321.085 -1.85246 -4.62156 0
M  V30 3406 C 319.788 -3.98529 -5.98805 0
M  V30 3407 C 321.814 -2.91914 -5.14335 0
M  V30 3408 C 321.176 -3.97282 -5.81676 0
M  V30 3409 H 317.275 -0.0103394 -0.781932 0
M  V30 3410 H 319.859 -0.635003 -1.84054 0
M  V30 3411 H 318.03 1.00892 -3.75067 0
M  V30 3412 H 319.762 0.866492 -3.95315 0
M  V30 3413 H 316.517 -1.03918 -4.62058 0
M  V30 3414 H 316.941 -3.32988 -5.89447 0
M  V30 3415 H 321.583 -1.05103 -4.09528 0
M  V30 3416 H 319.301 -4.79491 -6.50472 0
M  V30 3417 H 322.887 -2.93729 -5.0221 0
M  V30 3418 H 321.767 -4.78462 -6.21324 0
M  V30 3419 N 319.27 1.56325 -0.20005 0
M  V30 3420 C 320.518 1.97329 0.436547 0
M  V30 3421 C 320.839 1.08826 1.61808 0
M  V30 3422 O 320.109 0.160604 1.95241 0
M  V30 3423 H 318.689 0.728714 0.164272 0
M  V30 3424 H 321.351 1.92761 -0.287937 0
M  V30 3425 H 320.447 3.02264 0.777353 0
M  V30 3426 N 320.748 -0.0735177 1.57428 0
M  V30 3427 C 322.159 -0.625551 1.75908 0
M  V30 3428 C 322.51 -1.78 0.825261 0
M  V30 3429 O 321.635 -2.16398 0.00893964 0
M  V30 3430 C 322.23 -1.14155 3.18989 0
M  V30 3431 C 320.789 -1.63946 3.38819 0
M  V30 3432 C 319.936 -0.558151 2.71625 0
M  V30 3433 H 322.887 0.152647 1.57964 0
M  V30 3434 H 322.908 -2.0104 3.23053 0
M  V30 3435 H 322.42 -0.301116 3.8693 0
M  V30 3436 H 320.521 -2.50321 2.7599 0
M  V30 3437 H 320.634 -1.71759 4.47253 0
M  V30 3438 H 318.998 -1.00278 2.34129 0
M  V30 3439 H 319.781 0.272071 3.4222 0
M  V30 3440 N 322.226 -1.5378 -0.344866 0
M  V30 3441 C 323.136 -1.84667 -1.4469 0
M  V30 3442 C 324.152 -0.736704 -1.57635 0
M  V30 3443 O 325.328 -1.02888 -1.73136 0
M  V30 3444 C 322.393 -2.04869 -2.79696 0
M  V30 3445 C 321.454 -3.28731 -2.76106 0
M  V30 3446 C 320.687 -3.4796 -4.04673 0
M  V30 3447 O 320.91 -2.71052 -5.01883 0
M  V30 3448 O 319.844 -4.41383 -4.09224 0
M  V30 3449 H 323.67 -2.78334 -1.21506 0
M  V30 3450 H 321.255 -1.39418 -0.536921 0
M  V30 3451 H 323.137 -2.19609 -3.59652 0
M  V30 3452 H 321.812 -1.14391 -3.02814 0
M  V30 3453 H 320.719 -3.19396 -1.94774 0
M  V30 3454 H 322.052 -4.19198 -2.57941 0
M  V30 3455 N 323.704 0.605807 -1.45491 0
M  V30 3456 C 324.944 1.37606 -1.51142 0
M  V30 3457 C 325.308 1.91413 -0.150075 0
M  V30 3458 O 326.509 2.68677 -0.0812828 0
M  V30 3459 C 324.78 2.49197 -2.56195 0
M  V30 3460 S 326.339 3.36953 -2.81083 0
M  V30 3461 H 323.157 0.469118 -0.534275 0
M  V30 3462 H 325.759 0.698845 -1.82583 0
M  V30 3463 H 324.463 2.0802 -3.53773 0
M  V30 3464 H 323.994 3.21717 -2.26411 0
M  V30 3465 H 326.009 4.47395 -2.14598 0
M  V30 3466 N 325.182 1.32811 0.848464 0
M  V30 3467 C 326.13 1.22231 1.97895 0
M  V30 3468 C 327.124 0.125749 1.68933 0
M  V30 3469 O 328.33 0.289083 1.77663 0
M  V30 3470 H 324.705 0.379058 0.649476 0
M  V30 3471 H 326.676 2.17828 2.03945 0
M  V30 3472 C 325.425 0.968572 3.33937 0
M  V30 3473 H 324.748 1.80458 3.56756 0
M  V30 3474 H 326.188 0.934808 4.13567 0
M  V30 3475 C 324.647 -0.328628 3.35293 0
M  V30 3476 O 325.177 -1.33848 3.78745 0
M  V30 3477 N 323.383 -0.352788 2.88451 0
M  V30 3478 H 322.93 0.469541 2.53285 0
M  V30 3479 H 322.888 -1.22057 2.89741 0
M  V30 3480 N 326.66 -1.06551 1.16123 0
M  V30 3481 C 327.61 -2.12209 0.833736 0
M  V30 3482 C 328.594 -1.59825 -0.185656 0
M  V30 3483 O 329.786 -1.76994 0.0147906 0
M  V30 3484 C 326.915 -3.41674 0.333697 0
M  V30 3485 C 326.001 -4.00892 1.38372 0
M  V30 3486 N 326.392 -4.34256 2.59337 0
M  V30 3487 C 324.69 -4.28463 1.23836 0
M  V30 3488 C 325.391 -4.81291 3.26701 0
M  V30 3489 N 324.367 -4.80565 2.54083 0
M  V30 3490 H 328.169 -2.35849 1.75364 0
M  V30 3491 H 325.683 -1.24068 1.04789 0
M  V30 3492 H 327.68 -4.16822 0.0806918 0
M  V30 3493 H 326.34 -3.19475 -0.58017 0
M  V30 3494 H 327.351 -4.24687 2.96415 0
M  V30 3495 H 324.028 -4.15721 0.38504 0
M  V30 3496 H 325.418 -5.16332 4.29943 0
M  V30 3497 N 328.138 -0.959301 -1.25041 0
M  V30 3498 C 329.068 -0.501388 -2.28053 0
M  V30 3499 C 330.049 0.454673 -1.63911 0
M  V30 3500 O 331.234 0.352618 -1.90972 0
M  V30 3501 C 328.364 0.217224 -3.4662 0
M  V30 3502 C 327.318 -0.654034 -4.22973 0
M  V30 3503 C 326.644 0.195589 -5.34342 0
M  V30 3504 C 327.944 -1.93447 -4.85155 0
M  V30 3505 H 329.638 -1.36238 -2.66608 0
M  V30 3506 H 327.184 -0.656534 -1.28163 0
M  V30 3507 H 329.137 0.548732 -4.17812 0
M  V30 3508 H 327.861 1.1125 -3.07068 0
M  V30 3509 H 326.52 -0.968693 -3.5357 0
M  V30 3510 H 326.168 1.09076 -4.91031 0
M  V30 3511 H 325.868 -0.384091 -5.86343 0
M  V30 3512 H 327.392 0.521958 -6.08365 0
M  V30 3513 H 328.806 -1.66908 -5.48466 0
M  V30 3514 H 327.203 -2.46018 -5.47353 0
M  V30 3515 H 328.273 -2.63466 -4.07079 0
M  V30 3516 N 329.616 1.39756 -0.72842 0
M  V30 3517 C 330.856 2.025 -0.278078 0
M  V30 3518 C 331.22 1.5654 1.11173 0
M  V30 3519 O 332.421 2.11435 1.65978 0
M  V30 3520 C 330.692 3.55489 -0.369139 0
M  V30 3521 S 332.251 4.388 0.00232983 0
M  V30 3522 H 329.069 0.702534 -0.109391 0
M  V30 3523 H 331.671 1.70672 -0.95348 0
M  V30 3524 H 330.375 3.86429 -1.38204 0
M  V30 3525 H 329.906 3.92061 0.324308 0
M  V30 3526 H 331.921 4.80954 1.22055 0
M  V30 3527 N 331.094 0.475555 1.50254 0
M  V30 3528 C 332.322 -0.0754493 2.06762 0
M  V30 3529 C 332.737 -1.33111 1.33891 0
M  V30 3530 O 332.094 -1.77846 0.40952 0
M  V30 3531 C 332.145 -0.359008 3.59713 0
M  V30 3532 O 331.866 0.846851 4.29837 0
M  V30 3533 C 333.367 -0.956484 4.32858 0
M  V30 3534 H 330.587 0.00907525 0.670939 0
M  V30 3535 H 333.131 0.665618 1.93364 0
M  V30 3536 H 331.286 -1.05001 3.72899 0
M  V30 3537 H 331.7 0.594162 5.21124 0
M  V30 3538 H 333.174 -1.10463 5.40834 0
M  V30 3539 H 333.651 -1.94775 3.93649 0
M  V30 3540 H 334.257 -0.303723 4.24214 0
M  V30 3541 N 332.573 -1.56217 0.208337 0
M  V30 3542 C 333.536 -2.18455 -0.693557 0
M  V30 3543 C 334.536 -1.14268 -1.13135 0
M  V30 3544 O 335.726 -1.39577 -1.0423 0
M  V30 3545 C 332.858 -2.79727 -1.94848 0
M  V30 3546 H 334.051 -2.99519 -0.15114 0
M  V30 3547 H 331.604 -1.56245 -0.041287 0
M  V30 3548 H 332.339 -2.02497 -2.53309 0
M  V30 3549 H 332.124 -3.56009 -1.64316 0
M  V30 3550 H 333.614 -3.27475 -2.59133 0
M  V30 3551 N 334.051 0.0651679 -1.57465 0
M  V30 3552 C 335.291 0.768329 -1.8941 0
M  V30 3553 C 335.655 1.74406 -0.802894 0
M  V30 3554 O 336.856 2.49281 -1.0056 0
M  V30 3555 C 335.127 1.45199 -3.26576 0
M  V30 3556 S 336.686 2.1893 -3.80283 0
M  V30 3557 H 333.504 0.255359 -0.663561 0
M  V30 3558 H 336.106 0.024167 -1.95485 0
M  V30 3559 H 334.81 0.728123 -4.03889 0
M  V30 3560 H 334.341 2.23545 -3.23715 0
M  V30 3561 H 336.356 3.45551 -3.56102 0
M  V30 3562 N 335.529 1.53961 0.336706 0
M  V30 3563 C 336.462 1.77255 1.43722 0
M  V30 3564 C 337.44 0.62193 1.50236 0
M  V30 3565 O 338.624 0.857874 1.67847 0
M  V30 3566 C 335.751 1.87733 2.81912 0
M  V30 3567 C 334.797 3.09933 2.92991 0
M  V30 3568 S 335.63 4.68836 2.58753 0
M  V30 3569 C 336.786 4.82202 3.99039 0
M  V30 3570 H 337.019 2.70322 1.23748 0
M  V30 3571 H 334.552 1.44917 0.532777 0
M  V30 3572 H 336.51 1.94455 3.61521 0
M  V30 3573 H 335.171 0.956666 2.99177 0
M  V30 3574 H 334.364 3.1396 3.94265 0
M  V30 3575 H 333.966 3.01472 2.21338 0
M  V30 3576 H 336.258 4.64032 4.9364 0
M  V30 3577 H 337.201 5.84298 4.00002 0
M  V30 3578 H 337.609 4.10604 3.87382 0
M  V30 3579 N 337.007 -0.598083 1.45811 0
M  V30 3580 C 337.955 -1.72932 1.55555 0
M  V30 3581 C 338.949 -1.63984 0.424921 0
M  V30 3582 O 340.155 -1.69663 0.601205 0
M  V30 3583 H 336.53 -0.571489 0.488779 0
M  V30 3584 H 338.501 -1.61842 2.50699 0
M  V30 3585 C 337.25 -3.11318 1.54843 0
M  V30 3586 H 336.573 -3.18867 2.41172 0
M  V30 3587 H 338.013 -3.90274 1.65717 0
M  V30 3588 C 336.472 -3.3578 0.274427 0
M  V30 3589 O 337.002 -3.9654 -0.641778 0
M  V30 3590 N 335.208 -2.90119 0.167139 0
M  V30 3591 H 334.755 -2.40855 0.913596 0
M  V30 3592 H 334.713 -3.0686 -0.684435 0
M  V30 3593 N 338.485 -1.33259 -0.841409 0
M  V30 3594 C 339.433 -1.23279 -1.97244 0
M  V30 3595 C 340.427 -0.134706 -1.68864 0
M  V30 3596 O 341.633 -0.298501 -1.77508 0
M  V30 3597 H 338.008 -0.382497 -0.647457 0
M  V30 3598 H 339.979 -2.18906 -2.02787 0
M  V30 3599 C 338.728 -0.986268 -3.33419 0
M  V30 3600 H 338.051 -1.82347 -3.55794 0
M  V30 3601 H 339.491 -0.956728 -4.13065 0
M  V30 3602 C 337.95 0.310842 -3.35463 0
M  V30 3603 O 338.48 1.31838 -3.79449 0
M  V30 3604 N 336.686 0.337485 -2.88634 0
M  V30 3605 H 336.233 -0.482967 -2.53032 0
M  V30 3606 H 336.191 1.20518 -2.90384 0
M  V30 3607 N 339.963 1.05934 -1.16686 0
M  V30 3608 C 341.211 1.78447 -0.948744 0
M  V30 3609 C 341.532 1.87813 0.524523 0
M  V30 3610 O 340.802 1.38945 1.38098 0
M  V30 3611 H 339.382 0.660971 -0.348033 0
M  V30 3612 H 342.044 1.27947 -1.47022 0
M  V30 3613 H 341.14 2.80394 -1.37061 0
M  V30 3614 N 341.441 0.965919 1.2453 0
M  V30 3615 C 342.687 0.62776 1.92839 0
M  V30 3616 C 343.02 -0.834694 1.75347 0
M  V30 3617 O 342.295 -1.60031 1.10546 0
M  V30 3618 C 342.578 1.00109 3.45905 0
M  V30 3619 C 342.431 2.52011 3.72573 0
M  V30 3620 C 343.75 0.53435 4.36844 0
M  V30 3621 H 340.869 0.229537 0.700344 0
M  V30 3622 H 343.511 1.2046 1.46933 0
M  V30 3623 H 341.661 0.510238 3.85135 0
M  V30 3624 H 343.333 3.08559 3.42912 0
M  V30 3625 H 341.576 2.95287 3.17786 0
M  V30 3626 H 342.247 2.73183 4.79661 0
M  V30 3627 H 344.723 0.955565 4.04979 0
M  V30 3628 H 343.599 0.824152 5.42678 0
M  V30 3629 H 343.86 -0.565589 4.38467 0
M  V30 3630 N 342.919 -1.39368 0.735821 0
M  V30 3631 C 344.159 -2.02349 0.288813 0
M  V30 3632 C 344.523 -1.57127 -1.10341 0
M  V30 3633 O 345.724 -2.12312 -1.64854 0
M  V30 3634 C 343.995 -3.55288 0.387986 0
M  V30 3635 S 345.554 -4.38795 0.0209408 0
M  V30 3636 H 342.372 -0.701944 0.113115 0
M  V30 3637 H 344.974 -1.70164 0.962518 0
M  V30 3638 H 343.678 -3.85691 1.40252 0
M  V30 3639 H 343.209 -3.92227 -0.303512 0
M  V30 3640 H 345.224 -4.81595 -1.19503 0
M  V30 3641 N 344.397 -0.483516 -1.5 0
M  V30 3642 C 345.347 0.32306 -2.257 0
M  V30 3643 C 346.331 0.950755 -1.29805 0
M  V30 3644 O 347.523 0.861247 -1.54634 0
M  V30 3645 C 344.652 1.39724 -3.13579 0
M  V30 3646 C 343.738 0.776663 -4.16928 0
M  V30 3647 N 344.129 -0.1104 -5.0568 0
M  V30 3648 C 342.427 1.03922 -4.33724 0
M  V30 3649 C 343.128 -0.46387 -5.79848 0
M  V30 3650 N 342.104 0.163987 -5.43353 0
M  V30 3651 H 345.906 -0.360086 -2.91686 0
M  V30 3652 H 343.42 -0.298456 -1.59634 0
M  V30 3653 H 345.417 1.98837 -3.66428 0
M  V30 3654 H 344.077 2.08225 -2.49143 0
M  V30 3655 H 345.088 -0.480069 -5.1567 0
M  V30 3656 H 341.765 1.71829 -3.80501 0
M  V30 3657 H 343.155 -1.18854 -6.61304 0
M  V30 3658 N 345.875 1.56104 -0.216619 0
M  V30 3659 C 346.785 2.23694 0.706982 0
M  V30 3660 C 347.801 1.24295 1.21765 0
M  V30 3661 O 348.977 1.57094 1.2603 0
M  V30 3662 C 346.042 2.8998 1.90033 0
M  V30 3663 C 345.103 4.04708 1.43213 0
M  V30 3664 C 344.336 4.67824 2.56859 0
M  V30 3665 O 344.559 4.29913 3.74874 0
M  V30 3666 O 343.493 5.56905 2.28343 0
M  V30 3667 H 347.319 3.03272 0.161235 0
M  V30 3668 H 344.904 1.49394 0.0136177 0
M  V30 3669 H 346.786 3.31837 2.59735 0
M  V30 3670 H 345.461 2.13365 2.43428 0
M  V30 3671 H 344.368 3.6743 0.70327 0
M  V30 3672 H 345.701 4.83051 0.944615 0
M  V30 3673 N 347.353 -0.0568162 1.57498 0
M  V30 3674 C 348.63 -0.786954 1.79071 0
M  V30 3675 C 349.01 -1.95028 0.80792 0
M  V30 3676 O 348.358 -2.27968 -0.155858 0
M  V30 3677 C 348.568 -1.24594 3.26002 0
M  V30 3678 C 349.916 -1.67323 3.90241 0
M  V30 3679 O 350.94 -1.34124 3.29984 0
M  V30 3680 O 349.799 -2.28842 4.9628 0
M  V30 3681 H 346.893 -0.378262 0.735423 0
M  V30 3682 H 349.439 -0.035734 1.69662 0
M  V30 3683 H 348.211 -0.41423 3.89101 0
M  V30 3684 H 347.834 -2.05803 3.40192 0
M  V30 3685 N 348.832 -1.54138 -0.328536 0
M  V30 3686 C 350.06 -1.76062 -1.08673 0
M  V30 3687 C 350.475 -0.506852 -1.81869 0
M  V30 3688 O 349.832 0.522223 -1.74869 0
M  V30 3689 C 349.883 -2.95054 -2.08866 0
M  V30 3690 O 349.604 -4.15583 -1.38644 0
M  V30 3691 C 351.105 -3.2915 -2.96943 0
M  V30 3692 H 348.325 -0.587889 -0.323461 0
M  V30 3693 H 350.869 -2.0101 -0.376175 0
M  V30 3694 H 349.024 -2.72394 -2.75464 0
M  V30 3695 H 349.438 -4.82481 -2.05699 0
M  V30 3696 H 350.912 -4.15723 -3.63151 0
M  V30 3697 H 351.389 -2.461 -3.63774 0
M  V30 3698 H 351.995 -3.53871 -2.35914 0
M  V30 3699 N 350.31 0.590341 -1.46126 0
M  V30 3700 C 351.558 1.34616 -1.50742 0
M  V30 3701 C 351.879 1.94363 -0.157486 0
M  V30 3702 O 351.149 1.78136 0.815136 0
M  V30 3703 H 349.729 0.499789 -0.555175 0
M  V30 3704 H 352.391 0.691953 -1.82203 0
M  V30 3705 H 351.487 2.15678 -2.25587 0
M  V30 3706 N 351.788 1.33704 0.83433 0
M  V30 3707 C 352.698 1.26382 1.97648 0
M  V30 3708 C 353.714 0.173548 1.73132 0
M  V30 3709 O 354.89 0.397962 1.97429 0
M  V30 3710 C 351.955 1.00769 3.31733 0
M  V30 3711 C 351.016 2.1884 3.69334 0
M  V30 3712 C 350.249 1.9444 4.9702 0
M  V30 3713 O 350.472 0.896961 5.63303 0
M  V30 3714 O 349.406 2.81093 5.32231 0
M  V30 3715 H 353.232 2.22444 2.06767 0
M  V30 3716 H 350.817 1.13795 0.968037 0
M  V30 3717 H 352.699 0.882186 4.12062 0
M  V30 3718 H 351.374 0.0773783 3.23608 0
M  V30 3719 H 350.281 2.36946 2.89495 0
M  V30 3720 H 351.614 3.10221 3.82131 0
M  V30 3721 N 353.266 -1.05314 1.17247 0
M  V30 3722 C 354.506 -1.79869 0.970898 0
M  V30 3723 C 354.87 -1.85594 -0.491808 0
M  V30 3724 O 356.071 -2.56229 -0.812409 0
M  V30 3725 C 354.342 -3.19937 1.59295 0
M  V30 3726 S 355.901 -4.10986 1.53741 0
M  V30 3727 H 352.719 -0.61949 0.348931 0
M  V30 3728 H 355.321 -1.26368 1.49169 0
M  V30 3729 H 354.025 -3.13372 2.65003 0
M  V30 3730 H 353.556 -3.78515 1.07191 0
M  V30 3731 H 355.571 -4.93203 0.544537 0
M  V30 3732 N 354.744 -0.972509 -1.24016 0
M  V30 3733 C 355.993 -0.632603 -1.91523 0
M  V30 3734 C 356.306 0.836641 -1.76804 0
M  V30 3735 O 357.512 1.28728 -2.39043 0
M  V30 3736 C 355.968 -1.08082 -3.43287 0
M  V30 3737 C 355.576 -2.57386 -3.66683 0
M  V30 3738 C 357.32 -0.814288 -4.16617 0
M  V30 3739 C 355.227 -2.95915 -5.12043 0
M  V30 3740 H 354.157 -0.232898 -0.717129 0
M  V30 3741 H 356.808 -1.17936 -1.40582 0
M  V30 3742 H 355.19 -0.462339 -3.93292 0
M  V30 3743 H 356.364 -3.24405 -3.27258 0
M  V30 3744 H 354.679 -2.81701 -3.06649 0
M  V30 3745 H 357.276 -1.0781 -5.23718 0
M  V30 3746 H 357.619 0.24955 -4.15551 0
M  V30 3747 H 358.152 -1.39397 -3.72577 0
M  V30 3748 H 354.891 -4.0139 -5.18234 0
M  V30 3749 H 354.411 -2.33584 -5.52448 0
M  V30 3750 H 356.09 -2.86086 -5.80314 0
M  V30 3751 N 356.222 1.38976 -0.743202 0
M  V30 3752 C 357.462 2.02193 -0.29954 0
M  V30 3753 C 357.826 1.5771 1.09506 0
M  V30 3754 O 359.027 2.13184 1.63726 0
M  V30 3755 C 357.298 3.55077 -0.406822 0
M  V30 3756 S 358.857 4.38778 -0.0442109 0
M  V30 3757 H 355.675 0.701335 -0.116836 0
M  V30 3758 H 358.277 1.69651 -0.971529 0
M  V30 3759 H 356.981 3.84942 -1.42295 0
M  V30 3760 H 356.512 3.92383 0.282707 0
M  V30 3761 H 358.527 4.82222 1.16947 0
M  V30 3762 N 357.7 0.491464 1.49741 0
M  V30 3763 C 359.111 0.0413169 1.86654 0
M  V30 3764 C 359.462 -1.36985 1.40462 0
M  V30 3765 O 358.587 -2.01917 0.778354 0
M  V30 3766 C 359.182 0.0682023 3.38731 0
M  V30 3767 C 357.741 -0.32656 3.74981 0
M  V30 3768 C 356.888 0.444888 2.73708 0
M  V30 3769 H 359.839 0.704733 1.42194 0
M  V30 3770 H 359.86 -0.729322 3.73445 0
M  V30 3771 H 359.372 1.09539 3.72321 0
M  V30 3772 H 357.473 -1.35734 3.46997 0
M  V30 3773 H 357.586 -0.013741 4.79098 0
M  V30 3774 H 355.95 -0.104062 2.54487 0
M  V30 3775 H 356.733 1.47197 3.10142 0
M  V30 3776 N 359.178 -1.55987 0.224894 0
M  V30 3777 C 360.589 -1.84553 -0.282345 0
M  V30 3778 C 360.94 -1.14634 -1.59227 0
M  V30 3779 O 360.065 -0.417155 -2.12341 0
M  V30 3780 C 360.66 -3.348 -0.519062 0
M  V30 3781 C 359.219 -3.63671 -0.970604 0
M  V30 3782 C 358.366 -2.77277 -0.0355261 0
M  V30 3783 H 361.317 -1.52245 0.448006 0
M  V30 3784 H 361.338 -3.55187 -1.36463 0
M  V30 3785 H 360.85 -3.8566 0.43449 0
M  V30 3786 H 358.951 -3.1827 -1.9374 0
M  V30 3787 H 359.064 -4.71631 -0.842698 0
M  V30 3788 H 357.428 -2.48846 -0.542927 0
M  V30 3789 H 358.211 -3.30937 0.913003 0
M  V30 3790 N 360.656 0.0484629 -1.57525 0
M  V30 3791 C 361.904 0.741657 -1.88 0
M  V30 3792 C 362.225 1.76918 -0.820054 0
M  V30 3793 O 361.495 1.95335 0.148661 0
M  V30 3794 H 360.075 0.276908 -0.69378 0
M  V30 3795 H 362.737 0.019013 -1.94891 0
M  V30 3796 H 361.833 1.24336 -2.86264 0
M  V30 3797 N 362.134 1.5431 0.320358 0
M  V30 3798 C 363.381 1.72668 1.05792 0
M  V30 3799 C 363.709 0.502084 1.87908 0
M  V30 3800 O 362.964 -0.516149 1.88771 0
M  V30 3801 C 363.263 2.95639 2.00828 0
M  V30 3802 C 362.929 4.30265 1.34843 0
M  V30 3803 C 361.591 4.66865 1.16578 0
M  V30 3804 C 363.943 5.13801 0.875095 0
M  V30 3805 C 361.271 5.84597 0.496336 0
M  V30 3806 C 363.623 6.32219 0.219463 0
M  V30 3807 C 362.287 6.67495 0.0246915 0
M  V30 3808 H 361.557 0.631837 0.387121 0
M  V30 3809 H 364.204 1.88552 0.334735 0
M  V30 3810 H 362.509 2.74456 2.79609 0
M  V30 3811 H 364.206 3.07038 2.57932 0
M  V30 3812 H 360.796 4.01472 1.50061 0
M  V30 3813 H 364.98 4.86039 1.00398 0
M  V30 3814 H 360.236 6.10486 0.334264 0
M  V30 3815 H 364.41 6.96227 -0.155291 0
M  V30 3816 H 362.037 7.5858 -0.496065 0
M  V30 3817 N 363.613 -0.582584 1.46437 0
M  V30 3818 C 364.546 -1.70633 1.51524 0
M  V30 3819 C 365.524 -1.58349 0.369351 0
M  V30 3820 O 366.708 -1.79563 0.573516 0
M  V30 3821 C 363.835 -3.08687 1.39392 0
M  V30 3822 C 362.881 -3.3949 2.58164 0
M  V30 3823 S 363.714 -3.31548 4.20519 0
M  V30 3824 C 364.87 -4.72139 4.10896 0
M  V30 3825 H 365.103 -1.66058 2.46601 0
M  V30 3826 H 362.636 -0.761337 1.34324 0
M  V30 3827 H 364.594 -3.8833 1.33079 0
M  V30 3828 H 363.255 -3.10751 0.457436 0
M  V30 3829 H 362.448 -4.40071 2.45669 0
M  V30 3830 H 362.05 -2.67415 2.61468 0
M  V30 3831 H 364.342 -5.62527 3.77584 0
M  V30 3832 H 365.285 -4.89692 5.11476 0
M  V30 3833 H 365.693 -4.48995 3.42146 0
M  V30 3834 N 365.091 -1.34144 -0.827227 0
M  V30 3835 C 366.339 -1.26009 -1.58007 0
M  V30 3836 C 366.66 0.170971 -1.94249 0
M  V30 3837 O 365.93 1.10256 -1.61927 0
M  V30 3838 H 364.51 -0.463414 -0.585881 0
M  V30 3839 H 367.172 -1.68005 -0.987951 0
M  V30 3840 H 366.268 -1.86187 -2.50481 0
M  V30 3841 N 366.569 1.04691 -1.17803 0
M  V30 3842 C 367.985 1.29963 -0.926379 0
M  V30 3843 C 368.185 1.97251 0.411635 0
M  V30 3844 O 367.241 2.24922 1.14744 0
M  V30 3845 C 368.554 2.16447 -2.08737 0
M  V30 3846 C 370.102 2.29814 -2.12496 0
M  V30 3847 C 370.577 3.19661 -3.27995 0
M  V30 3848 N 372.068 3.27247 -3.27816 0
M  V30 3849 C 372.803 3.96906 -4.13827 0
M  V30 3850 N 372.299 4.6895 -5.09959 0
M  V30 3851 N 374.092 3.93122 -4.01761 0
M  V30 3852 H 366.243 0.594182 -2.0392 0
M  V30 3853 H 368.506 0.324649 -0.890678 0
M  V30 3854 H 368.212 1.74304 -3.05469 0
M  V30 3855 H 368.086 3.17103 -2.04268 0
M  V30 3856 H 370.473 2.71196 -1.16347 0
M  V30 3857 H 370.554 1.2877 -2.21025 0
M  V30 3858 H 370.198 2.78991 -4.24413 0
M  V30 3859 H 370.128 4.20722 -3.16703 0
M  V30 3860 H 372.619 2.75921 -2.58217 0
M  V30 3861 H 372.932 5.19679 -5.71974 0
M  V30 3862 H 371.277 4.67875 -5.13924 0
M  V30 3863 H 374.468 3.35967 -3.2595 0
M  V30 3864 H 374.641 4.47139 -4.6901 0
M  V30 3865 N 368.047 0.979072 1.23499 0
M  V30 3866 C 369.275 0.665202 1.95915 0
M  V30 3867 C 369.69 -0.767571 1.72493 0
M  V30 3868 O 369.047 -1.51635 1.01554 0
M  V30 3869 C 369.098 0.944438 3.48945 0
M  V30 3870 O 368.819 2.3209 3.71572 0
M  V30 3871 C 370.32 0.646336 4.38563 0
M  V30 3872 H 367.54 0.247218 0.623798 0
M  V30 3873 H 370.084 1.31009 1.57025 0
M  V30 3874 H 368.239 0.345575 3.85856 0
M  V30 3875 H 368.653 2.40957 4.65876 0
M  V30 3876 H 370.127 0.892091 5.44744 0
M  V30 3877 H 370.604 -0.419575 4.37191 0
M  V30 3878 H 371.21 1.22562 4.07258 0
M  V30 3879 N 369.525 -1.3858 0.750561 0
M  V30 3880 C 370.765 -2.02032 0.310258 0
M  V30 3881 C 371.129 -1.58288 -1.08668 0
M  V30 3882 O 372.33 -2.14049 -1.62593 0
M  V30 3883 C 370.601 -3.54856 0.425647 0
M  V30 3884 S 372.16 -4.38748 0.0674797 0
M  V30 3885 H 368.978 -0.700705 0.120554 0
M  V30 3886 H 371.58 -1.69134 0.980512 0
M  V30 3887 H 370.284 -3.84182 1.44335 0
M  V30 3888 H 369.815 -3.92527 -0.261894 0
M  V30 3889 H 371.83 -4.82835 -1.14388 0
M  V30 3890 N 371.003 -0.499398 -1.49478 0
M  V30 3891 C 371.913 0.284489 -2.32869 0
M  V30 3892 C 372.929 0.968885 -1.44529 0
M  V30 3893 O 374.105 0.95062 -1.77553 0
M  V30 3894 C 371.17 1.33594 -3.19928 0
M  V30 3895 C 370.231 0.665149 -4.24116 0
M  V30 3896 C 369.464 1.6665 -5.07014 0
M  V30 3897 O 369.687 2.89618 -4.91404 0
M  V30 3898 O 368.621 1.22271 -5.8935 0
M  V30 3899 H 372.447 -0.39802 -3.01081 0
M  V30 3900 H 370.032 -0.260758 -1.47107 0
M  V30 3901 H 371.914 1.94431 -3.73864 0
M  V30 3902 H 370.589 2.0014 -2.54412 0
M  V30 3903 H 369.496 0.0170769 -3.74096 0
M  V30 3904 H 370.829 0.0421555 -4.92182 0
M  V30 3905 N 372.481 1.55866 -0.233164 0
M  V30 3906 C 373.428 2.20796 0.67215 0
M  V30 3907 C 374.398 1.16731 1.18166 0
M  V30 3908 O 375.583 1.45129 1.23864 0
M  V30 3909 C 372.723 2.90072 1.86955 0
M  V30 3910 C 371.836 4.08759 1.39786 0
M  V30 3911 C 370.971 4.65787 2.55374 0
M  V30 3912 C 370.01 5.76752 2.04998 0
M  V30 3913 N 369.147 6.28021 3.13901 0
M  V30 3914 H 373.987 2.9779 0.111749 0
M  V30 3915 H 371.524 1.47036 0.0434007 0
M  V30 3916 H 373.482 3.28428 2.57276 0
M  V30 3917 H 372.112 2.15575 2.40265 0
M  V30 3918 H 371.164 3.7581 0.589173 0
M  V30 3919 H 372.476 4.88906 0.98856 0
M  V30 3920 H 371.63 5.06646 3.33758 0
M  V30 3921 H 370.369 3.84828 2.99598 0
M  V30 3922 H 369.374 5.35383 1.25079 0
M  V30 3923 H 370.599 6.59553 1.61759 0
M  V30 3924 H 368.545 5.49971 3.57586 0
M  V30 3925 H 368.462 7.03323 2.7726 0
M  V30 3926 H 369.73 6.73538 3.92386 0
M  V30 3927 N 373.959 -0.0401083 1.57549 0
M  V30 3928 C 374.922 -1.02871 2.04817 0
M  V30 3929 C 375.922 -1.29708 0.950388 0
M  V30 3930 O 377.112 -1.24897 1.21435 0
M  V30 3931 C 374.244 -2.36443 2.45576 0
M  V30 3932 H 375.437 -0.620631 2.93408 0
M  V30 3933 H 372.99 -0.286667 1.53649 0
M  V30 3934 H 373.725 -2.82021 1.60108 0
M  V30 3935 H 373.51 -2.18296 3.25713 0
M  V30 3936 H 375 -3.07441 2.82612 0
M  V30 3937 N 375.437 -1.54477 -0.31217 0
M  V30 3938 C 376.677 -1.74958 -1.05684 0
M  V30 3939 C 377.041 -0.518414 -1.84869 0
M  V30 3940 O 378.242 -0.600759 -2.62001 0
M  V30 3941 C 376.513 -2.99656 -1.94785 0
M  V30 3942 S 378.072 -3.4109 -2.76049 0
M  V30 3943 H 374.89 -0.615104 -0.356606 0
M  V30 3944 H 377.492 -1.92669 -0.331514 0
M  V30 3945 H 376.196 -3.87397 -1.35468 0
M  V30 3946 H 375.727 -2.845 -2.71704 0
M  V30 3947 H 377.742 -2.97283 -3.97287 0
M  V30 3948 N 376.915 0.57481 -1.46744 0
M  V30 3949 C 377.825 1.711 -1.60505 0
M  V30 3950 C 378.841 1.67008 -0.488307 0
M  V30 3951 O 380.017 1.86774 -0.753495 0
M  V30 3952 C 377.082 3.07608 -1.59932 0
M  V30 3953 C 376.143 3.22904 -2.82898 0
M  V30 3954 C 375.376 4.529 -2.82343 0
M  V30 3955 O 375.599 5.37278 -1.91542 0
M  V30 3956 O 374.533 4.71611 -3.73987 0
M  V30 3957 H 378.359 1.62436 -2.56609 0
M  V30 3958 H 375.944 0.742779 -1.29627 0
M  V30 3959 H 377.826 3.88877 -1.62336 0
M  V30 3960 H 376.501 3.16692 -0.669898 0
M  V30 3961 H 375.408 2.41099 -2.86046 0
M  V30 3962 H 376.741 3.18715 -3.75076 0
M  V30 3963 N 378.394 1.34581 0.820102 0
M  V30 3964 C 379.324 1.29038 1.94606 0
M  V30 3965 C 380.305 0.1673 1.69275 0
M  V30 3966 O 381.49 0.360112 1.90832 0
M  V30 3967 C 378.62 1.04793 3.31113 0
M  V30 3968 C 377.574 2.13597 3.70891 0
M  V30 3969 C 376.9 1.74537 5.05412 0
M  V30 3970 C 378.2 3.55451 3.8269 0
M  V30 3971 H 379.894 2.23248 1.99501 0
M  V30 3972 H 377.44 1.0747 0.958449 0
M  V30 3973 H 379.393 0.995592 4.0947 0
M  V30 3974 H 378.117 0.0702565 3.26524 0
M  V30 3975 H 376.776 2.17905 2.9481 0
M  V30 3976 H 376.424 0.754226 4.97313 0
M  V30 3977 H 376.124 2.47361 5.32997 0
M  V30 3978 H 377.648 1.70803 5.86224 0
M  V30 3979 H 379.062 3.5354 4.51312 0
M  V30 3980 H 377.459 4.26922 4.21732 0
M  V30 3981 H 378.529 3.92587 2.84611 0
M  V30 3982 N 379.872 -1.04064 1.18357 0
M  V30 3983 C 380.822 -2.10393 0.878561 0
M  V30 3984 C 381.806 -1.60183 -0.151713 0
M  V30 3985 O 382.998 -1.76923 0.0523303 0
M  V30 3986 C 380.127 -3.4089 0.406096 0
M  V30 3987 C 379.213 -3.97866 1.46844 0
M  V30 3988 N 379.604 -4.28657 2.68489 0
M  V30 3989 C 377.902 -4.2574 1.32896 0
M  V30 3990 C 378.603 -4.74253 3.36836 0
M  V30 3991 N 377.579 -4.75068 2.64219 0
M  V30 3992 H 381.381 -2.32076 1.80327 0
M  V30 3993 H 378.895 -1.21818 1.07397 0
M  V30 3994 H 380.892 -4.16557 0.169088 0
M  V30 3995 H 379.552 -3.20633 -0.512275 0
M  V30 3996 H 380.563 -4.18304 3.05356 0
M  V30 3997 H 377.24 -4.1481 0.473134 0
M  V30 3998 H 378.63 -5.07096 4.40798 0
M  V30 3999 N 381.35 -0.985608 -1.22978 0
M  V30 4000 C 382.578 -0.675582 -1.95559 0
M  V30 4001 C 382.993 0.758413 -1.72897 0
M  V30 4002 O 382.35 1.51094 -1.02357 0
M  V30 4003 C 382.401 -0.96293 -3.48439 0
M  V30 4004 O 382.122 -2.34057 -3.70336 0
M  V30 4005 C 383.623 -0.669585 -4.38214 0
M  V30 4006 H 380.843 -0.250523 -0.622478 0
M  V30 4007 H 383.387 -1.3184 -1.56328 0
M  V30 4008 H 381.542 -0.366033 -3.85667 0
M  V30 4009 H 381.956 -2.43424 -4.64591 0
M  V30 4010 H 383.43 -0.920967 -5.44263 0
M  V30 4011 H 383.907 0.396383 -4.37408 0
M  V30 4012 H 384.513 -1.2472 -4.06602 0
M  V30 4013 N 382.828 1.3818 -0.7579 0
M  V30 4014 C 384.075 2.00019 -0.315985 0
M  V30 4015 C 384.403 1.60163 1.10355 0
M  V30 4016 O 383.658 0.83264 1.77103 0
M  V30 4017 C 383.957 3.55252 -0.391218 0
M  V30 4018 C 383.623 4.14834 -1.76702 0
M  V30 4019 C 382.285 4.30821 -2.14353 0
M  V30 4020 C 384.637 4.47658 -2.66931 0
M  V30 4021 C 381.965 4.76928 -3.41696 0
M  V30 4022 C 384.317 4.95184 -3.93669 0
M  V30 4023 C 382.981 5.09377 -4.31383 0
M  V30 4024 H 382.251 0.731923 -0.115627 0
M  V30 4025 H 384.898 1.65161 -0.969223 0
M  V30 4026 H 383.203 3.90273 0.34558 0
M  V30 4027 H 384.9 4.00988 -0.030805 0
M  V30 4028 H 381.49 4.02808 -1.46435 0
M  V30 4029 H 385.674 4.34904 -2.39106 0
M  V30 4030 H 380.93 4.86103 -3.70829 0
M  V30 4031 H 385.104 5.19551 -4.63724 0
M  V30 4032 H 382.731 5.44865 -5.30119 0
M  V30 4033 N 384.306 0.507319 1.49211 0
M  V30 4034 C 385.554 -0.0348839 2.0207 0
M  V30 4035 C 385.875 -1.36898 1.38866 0
M  V30 4036 O 385.145 -1.88133 0.546151 0
M  V30 4037 H 383.725 -0.0158812 0.746831 0
M  V30 4038 H 386.387 0.665998 1.83168 0
M  V30 4039 H 385.483 -0.159917 3.1169 0
M  V30 4040 N 385.784 -1.5574 0.241426 0
M  V30 4041 C 387.2 -1.59196 -0.113548 0
M  V30 4042 C 387.4 -1.25852 -1.57364 0
M  V30 4043 O 386.456 -1.00322 -2.31715 0
M  V30 4044 C 387.769 -2.99814 0.230695 0
M  V30 4045 C 389.317 -3.12513 0.174547 0
M  V30 4046 C 389.792 -4.55342 0.492744 0
M  V30 4047 N 391.283 -4.61076 0.443043 0
M  V30 4048 C 392.018 -5.6956 0.662484 0
M  V30 4049 N 391.514 -6.86328 0.944761 0
M  V30 4050 N 393.307 -5.58957 0.593564 0
M  V30 4051 H 385.458 -1.75685 1.19368 0
M  V30 4052 H 387.721 -0.81756 0.479896 0
M  V30 4053 H 387.427 -3.28932 1.24485 0
M  V30 4054 H 387.301 -3.74568 -0.444833 0
M  V30 4055 H 389.688 -2.83179 -0.830277 0
M  V30 4056 H 389.769 -2.40045 0.883845 0
M  V30 4057 H 389.413 -4.85396 1.4951 0
M  V30 4058 H 389.343 -5.26062 -0.23797 0
M  V30 4059 H 391.834 -3.77179 0.233374 0
M  V30 4060 H 392.147 -7.64935 1.09977 0
M  V30 4061 H 390.492 -6.88025 0.982175 0
M  V30 4062 H 393.683 -4.66611 0.373123 0
M  V30 4063 H 393.856 -6.43433 0.767981 0
M  V30 4064 N 387.262 0.0317525 -1.57568 0
M  V30 4065 C 388.49 0.734949 -1.93407 0
M  V30 4066 C 388.905 1.69036 -0.84096 0
M  V30 4067 O 388.262 1.81582 0.182836 0
M  V30 4068 C 388.313 1.49432 -3.29169 0
M  V30 4069 O 388.034 0.577261 -4.3428 0
M  V30 4070 C 389.535 2.29492 -3.79273 0
M  V30 4071 H 386.755 0.206706 -0.638368 0
M  V30 4072 H 389.299 -0.00992046 -2.04498 0
M  V30 4073 H 387.454 2.1911 -3.19483 0
M  V30 4074 H 387.868 1.10952 -5.1263 0
M  V30 4075 H 389.342 2.78172 -4.76785 0
M  V30 4076 H 389.819 3.10794 -3.10328 0
M  V30 4077 H 390.425 1.64894 -3.92033 0
M  V30 4078 N 388.74 1.54641 0.303973 0
M  V30 4079 C 389.98 1.75516 1.04755 0
M  V30 4080 C 390.344 0.528211 1.84591 0
M  V30 4081 O 391.545 0.614645 2.61678 0
M  V30 4082 C 389.816 3.00685 1.93193 0
M  V30 4083 S 391.375 3.42549 2.74237 0
M  V30 4084 H 388.193 0.616987 0.353339 0
M  V30 4085 H 390.795 1.92842 0.321292 0
M  V30 4086 H 389.499 3.8811 1.33411 0
M  V30 4087 H 389.03 2.85937 2.70191 0
M  V30 4088 H 391.045 2.99386 3.95705 0
M  V30 4089 N 390.218 -0.567019 1.47046 0
M  V30 4090 C 391.165 -1.67489 1.58796 0
M  V30 4091 C 392.135 -1.60399 0.43144 0
M  V30 4092 O 393.32 -1.79378 0.650233 0
M  V30 4093 C 390.46 -3.05821 1.59899 0
M  V30 4094 C 389.573 -3.2342 2.86397 0
M  V30 4095 C 388.708 -4.52093 2.789 0
M  V30 4096 C 387.747 -4.6309 4.00267 0
M  V30 4097 N 386.884 -5.83106 3.91064 0
M  V30 4098 H 391.724 -1.56785 2.53422 0
M  V30 4099 H 389.261 -0.763896 1.2571 0
M  V30 4100 H 391.219 -3.8591 1.58522 0
M  V30 4101 H 389.849 -3.15384 0.687929 0
M  V30 4102 H 388.901 -2.3683 2.97684 0
M  V30 4103 H 390.213 -3.27412 3.76301 0
M  V30 4104 H 389.367 -5.4043 2.75718 0
M  V30 4105 H 388.106 -4.50565 1.86662 0
M  V30 4106 H 387.111 -3.73168 4.03765 0
M  V30 4107 H 388.336 -4.66386 4.93621 0
M  V30 4108 H 386.282 -5.82546 3.01623 0
M  V30 4109 H 386.199 -5.88434 4.74638 0
M  V30 4110 H 387.467 -6.73831 3.91882 0
M  V30 4111 N 391.696 -1.35014 -0.812953 0
M  V30 4112 C 392.606 -1.2951 -1.95613 0
M  V30 4113 C 393.622 -0.20107 -1.72834 0
M  V30 4114 O 394.798 -0.42932 -1.96771 0
M  V30 4115 C 391.863 -1.06033 -3.30088 0
M  V30 4116 C 390.924 -2.24688 -3.65805 0
M  V30 4117 C 390.157 -2.02322 -4.93864 0
M  V30 4118 O 390.38 -0.986464 -5.61805 0
M  V30 4119 O 389.314 -2.89525 -5.27692 0
M  V30 4120 H 393.14 -2.25705 -2.03202 0
M  V30 4121 H 390.725 -1.15321 -0.949811 0
M  V30 4122 H 392.607 -0.94763 -4.10607 0
M  V30 4123 H 391.282 -0.128852 -3.23443 0
M  V30 4124 H 390.189 -2.41521 -2.85689 0
M  V30 4125 H 391.522 -3.16261 -3.77147 0
M  V30 4126 N 393.175 1.03435 -1.18907 0
M  V30 4127 C 394.591 1.28973 -0.940111 0
M  V30 4128 C 394.791 1.97676 0.390691 0
M  V30 4129 O 393.847 2.26127 1.12352 0
M  V30 4130 C 395.16 2.14221 -2.11021 0
M  V30 4131 C 396.708 2.27547 -2.14922 0
M  V30 4132 C 397.183 3.16164 -3.31367 0
M  V30 4133 N 398.674 3.23752 -3.31269 0
M  V30 4134 C 399.409 3.92495 -4.18014 0
M  V30 4135 N 398.905 4.63515 -5.14904 0
M  V30 4136 N 400.698 3.88838 -4.05908 0
M  V30 4137 H 392.849 0.57252 -2.04538 0
M  V30 4138 H 395.112 0.315184 -0.894071 0
M  V30 4139 H 394.818 1.71054 -3.073 0
M  V30 4140 H 394.692 3.14919 -2.0762 0
M  V30 4141 H 397.079 2.69947 -1.19217 0
M  V30 4142 H 397.16 1.26418 -2.22378 0
M  V30 4143 H 396.804 2.74474 -4.27348 0
M  V30 4144 H 396.734 4.17339 -3.21148 0
M  V30 4145 H 399.225 2.73167 -2.61129 0
M  V30 4146 H 399.538 5.13583 -5.77453 0
M  V30 4147 H 397.883 4.62398 -5.18857 0
M  V30 4148 H 401.074 3.32491 -3.29495 0
M  V30 4149 H 401.247 4.4214 -4.73726 0
M  V30 4150 N 394.653 0.992116 1.22453 0
M  V30 4151 C 395.893 0.675727 1.92907 0
M  V30 4152 C 396.257 -0.777762 1.75542 0
M  V30 4153 O 397.458 -1.20553 2.40251 0
M  V30 4154 C 395.729 1.0696 3.4102 0
M  V30 4155 S 397.288 0.871456 4.30059 0
M  V30 4156 H 394.106 0.247089 0.666684 0
M  V30 4157 H 396.708 1.27423 1.48269 0
M  V30 4158 H 395.412 2.12383 3.51172 0
M  V30 4159 H 394.943 0.462858 3.90668 0
M  V30 4160 H 396.958 -0.238436 4.95627 0
M  V30 4161 N 396.131 -1.37776 0.765217 0
M  V30 4162 C 397.356 -2.04651 0.336537 0
M  V30 4163 C 397.781 -1.57337 -1.03086 0
M  V30 4164 O 397.139 -0.730621 -1.65927 0
M  V30 4165 C 397.187 -3.58577 0.381468 0
M  V30 4166 O 396.291 -4.07706 -0.62042 0
M  V30 4167 H 395.632 -0.64756 0.146838 0
M  V30 4168 H 398.162 -1.76221 1.03959 0
M  V30 4169 H 398.172 -4.07314 0.236448 0
M  V30 4170 H 396.847 -3.9237 1.37907 0
M  V30 4171 H 395.424 -3.70306 -0.439056 0
M  V30 4172 N 397.609 -0.515225 -1.4894 0
M  V30 4173 C 398.857 0.0241671 -2.02086 0
M  V30 4174 C 399.178 1.3616 -1.3959 0
M  V30 4175 O 398.448 1.87841 -0.556121 0
M  V30 4176 H 397.028 0.0119203 -0.746905 0
M  V30 4177 H 399.69 -0.675702 -1.82812 0
M  V30 4178 H 398.786 0.143385 -3.1177 0
M  V30 4179 N 399.087 1.5561 -0.249682 0
M  V30 4180 C 400.019 2.18834 0.681496 0
M  V30 4181 C 401.032 1.16546 1.1367 0
M  V30 4182 O 402.221 1.43397 1.06299 0
M  V30 4183 C 399.321 2.77992 1.9384 0
M  V30 4184 C 398.494 4.05725 1.63419 0
M  V30 4185 C 397.553 4.49174 2.74096 0
M  V30 4186 O 396.579 5.15492 2.41364 0
M  V30 4187 N 397.781 4.17191 4.03649 0
M  V30 4188 H 400.546 2.9937 0.140514 0
M  V30 4189 H 398.107 1.6175 -0.0697541 0
M  V30 4190 H 400.099 3.04015 2.67127 0
M  V30 4191 H 398.669 2.01596 2.38909 0
M  V30 4192 H 397.889 3.87261 0.736358 0
M  V30 4193 H 399.177 4.88999 1.40562 0
M  V30 4194 H 398.575 3.63955 4.33074 0
M  V30 4195 H 397.132 4.48043 4.73393 0
M  V30 4196 N 400.565 -0.0233959 1.57583 0
M  V30 4197 C 401.475 -1.03907 2.10334 0
M  V30 4198 C 402.491 -1.39257 1.04323 0
M  V30 4199 O 403.667 -1.48462 1.36091 0
M  V30 4200 C 400.732 -2.31938 2.57693 0
M  V30 4201 C 399.793 -2.03117 3.78209 0
M  V30 4202 C 399.026 -3.25043 4.233 0
M  V30 4203 O 399.249 -4.35916 3.67876 0
M  V30 4204 O 398.183 -3.10411 5.15683 0
M  V30 4205 H 402.009 -0.620748 2.97288 0
M  V30 4206 H 399.594 -0.240743 1.47448 0
M  V30 4207 H 401.476 -3.07196 2.88458 0
M  V30 4208 H 400.151 -2.73055 1.73847 0
M  V30 4209 H 399.058 -1.25408 3.52454 0
M  V30 4210 H 400.391 -1.66852 4.63056 0
M  V30 4211 N 402.043 -1.548 -0.295768 0
M  V30 4212 C 403.291 -1.73985 -1.02828 0
M  V30 4213 C 403.612 -0.531406 -1.87619 0
M  V30 4214 O 402.882 0.454221 -1.90561 0
M  V30 4215 H 401.462 -0.641556 -0.382642 0
M  V30 4216 H 404.124 -1.92163 -0.325489 0
M  V30 4217 H 403.22 -2.63129 -1.67838 0
M  V30 4218 N 403.521 0.559213 -1.47345 0
M  V30 4219 C 404.761 1.32728 -1.55444 0
M  V30 4220 C 405.125 1.90838 -0.210895 0
M  V30 4221 O 406.326 2.68282 -0.166719 0
M  V30 4222 C 404.597 2.4092 -2.63993 0
M  V30 4223 S 406.156 3.2784 -2.91661 0
M  V30 4224 H 402.974 0.451883 -0.548929 0
M  V30 4225 H 405.576 0.640404 -1.84714 0
M  V30 4226 H 404.28 1.9666 -3.60212 0
M  V30 4227 H 403.811 3.14351 -2.36531 0
M  V30 4228 H 405.826 4.40341 -2.28722 0
M  V30 4229 N 404.999 1.35443 0.805782 0
M  V30 4230 C 405.946 1.28431 1.91766 0
M  V30 4231 C 406.916 0.156102 1.65365 0
M  V30 4232 O 408.101 0.339936 1.87747 0
M  V30 4233 C 405.241 1.06301 3.2832 0
M  V30 4234 C 404.354 2.2805 3.66902 0
M  V30 4235 C 403.489 1.99064 4.92491 0
M  V30 4236 C 402.528 3.16863 5.23703 0
M  V30 4237 N 401.665 2.87647 6.40471 0
M  V30 4238 H 406.505 2.23511 1.97096 0
M  V30 4239 H 404.042 1.11105 0.964054 0
M  V30 4240 H 406 0.915012 4.07042 0
M  V30 4241 H 404.63 0.148822 3.22457 0
M  V30 4242 H 403.682 2.53711 2.83434 0
M  V30 4243 H 404.994 3.1601 3.85927 0
M  V30 4244 H 404.148 1.81099 5.7904 0
M  V30 4245 H 402.887 1.0839 4.75503 0
M  V30 4246 H 401.892 3.35404 4.35642 0
M  V30 4247 H 403.117 4.08339 5.4262 0
M  V30 4248 H 401.063 1.99568 6.24907 0
M  V30 4249 H 400.98 3.69141 6.59751 0
M  V30 4250 H 402.248 2.73226 7.30047 0
M  V30 4251 N 406.477 -1.02803 1.19454 0
M  V30 4252 C 407.702 -1.80378 1.02364 0
M  V30 4253 C 408.127 -1.83282 -0.423007 0
M  V30 4254 O 407.485 -1.25945 -1.30413 0
M  V30 4255 C 407.533 -3.23248 1.59821 0
M  V30 4256 O 406.637 -4.04 0.828105 0
M  V30 4257 H 405.978 -0.556799 0.361761 0
M  V30 4258 H 408.508 -1.29385 1.58495 0
M  V30 4259 H 408.518 -3.73994 1.63073 0
M  V30 4260 H 407.193 -3.2045 2.65113 0
M  V30 4261 H 405.77 -3.62635 0.86891 0
M  V30 4262 N 407.956 -0.998596 -1.21925 0
M  V30 4263 C 409.186 -0.695276 -1.94549 0
M  V30 4264 C 409.594 0.745079 -1.73911 0
M  V30 4265 O 408.937 1.51507 -1.03881 0
M  V30 4266 C 408.999 -0.928485 -3.47303 0
M  V30 4267 C 408.663 -2.35443 -3.91683 0
M  V30 4268 C 409.66 -3.33428 -3.98901 0
M  V30 4269 C 407.345 -2.69038 -4.24174 0
M  V30 4270 C 409.339 -4.63079 -4.37992 0
M  V30 4271 C 407.026 -3.98906 -4.62944 0
M  V30 4272 C 408.024 -4.95738 -4.69822 0
M  V30 4273 O 407.712 -6.23285 -5.07711 0
M  V30 4274 H 407.444 -0.255902 -0.625692 0
M  V30 4275 H 409.998 -1.33767 -1.5587 0
M  V30 4276 H 408.228 -0.228917 -3.86022 0
M  V30 4277 H 409.917 -0.619539 -4.01144 0
M  V30 4278 H 410.683 -3.08807 -3.73983 0
M  V30 4279 H 406.562 -1.94367 -4.18022 0
M  V30 4280 H 410.106 -5.38658 -4.43275 0
M  V30 4281 H 406.003 -4.23314 -4.87314 0
M  V30 4282 H 406.771 -6.27306 -5.25766 0
M  V30 4283 N 409.434 1.37368 -0.772513 0
M  V30 4284 C 410.68 1.99969 -0.337681 0
M  V30 4285 C 411.013 1.61184 1.08321 0
M  V30 4286 O 410.288 0.858395 1.74533 0
M  V30 4287 C 410.571 3.56858 -0.482121 0
M  V30 4288 C 410.424 4.0555 -1.94549 0
M  V30 4289 C 411.743 4.39955 0.113143 0
M  V30 4290 H 408.862 0.726464 -0.124171 0
M  V30 4291 H 411.504 1.63034 -0.975699 0
M  V30 4292 H 409.654 3.88452 0.0610361 0
M  V30 4293 H 411.326 3.84518 -2.54841 0
M  V30 4294 H 409.569 3.57715 -2.45403 0
M  V30 4295 H 410.24 5.14587 -1.9976 0
M  V30 4296 H 412.716 4.14623 -0.35031 0
M  V30 4297 H 411.592 5.48897 -0.0180514 0
M  V30 4298 H 411.853 4.25403 1.20354 0
M  V30 4299 N 410.912 0.523116 1.48665 0
M  V30 4300 C 412.159 -0.0134763 2.02496 0
M  V30 4301 C 412.487 -1.3493 1.40086 0
M  V30 4302 O 411.742 -1.88286 0.533567 0
M  V30 4303 C 412.041 -0.191671 3.56886 0
M  V30 4304 C 411.707 1.06893 4.38046 0
M  V30 4305 C 410.369 1.41443 4.59943 0
M  V30 4306 C 412.721 1.90584 4.85106 0
M  V30 4307 C 410.049 2.59594 5.26144 0
M  V30 4308 C 412.401 3.07907 5.52609 0
M  V30 4309 C 411.065 3.42811 5.72745 0
M  V30 4310 H 410.335 -0.00493133 0.740984 0
M  V30 4311 H 412.982 0.687751 1.78724 0
M  V30 4312 H 411.287 -0.97561 3.79459 0
M  V30 4313 H 412.984 -0.621659 3.96152 0
M  V30 4314 H 409.574 0.789848 4.21259 0
M  V30 4315 H 413.758 1.65203 4.67997 0
M  V30 4316 H 409.014 2.86847 5.39934 0
M  V30 4317 H 413.188 3.73066 5.88043 0
M  V30 4318 H 410.815 4.34462 6.23816 0
M  V30 4319 N 412.39 -1.55475 0.257931 0
M  V30 4320 C 413.63 -2.01112 -0.365129 0
M  V30 4321 C 413.994 -1.1423 -1.54323 0
M  V30 4322 O 415.195 -1.49371 -2.23477 0
M  V30 4323 C 413.466 -3.49353 -0.754117 0
M  V30 4324 S 415.025 -4.16992 -1.36614 0
M  V30 4325 H 411.843 -0.701737 -0.114397 0
M  V30 4326 H 414.445 -1.91855 0.375747 0
M  V30 4327 H 413.149 -4.10246 0.112441 0
M  V30 4328 H 412.68 -3.6256 -1.52689 0
M  V30 4329 H 414.695 -4.19191 -2.65505 0
M  V30 4330 N 413.868 0.0150385 -1.57593 0
M  V30 4331 C 414.798 1.01047 -2.10503 0
M  V30 4332 C 415.779 1.36816 -1.01071 0
M  V30 4333 O 416.964 1.45455 -1.28672 0
M  V30 4334 C 414.094 2.30708 -2.59598 0
M  V30 4335 C 413.048 2.09142 -3.73421 0
M  V30 4336 C 412.374 3.44685 -4.08774 0
M  V30 4337 C 413.674 1.46619 -5.01298 0
M  V30 4338 H 415.368 0.569978 -2.93925 0
M  V30 4339 H 412.914 0.272724 -1.41394 0
M  V30 4340 H 414.867 3.00687 -2.95238 0
M  V30 4341 H 413.591 2.76843 -1.73279 0
M  V30 4342 H 412.25 1.41592 -3.38153 0
M  V30 4343 H 411.898 3.88495 -3.195 0
M  V30 4344 H 411.598 3.31077 -4.8545 0
M  V30 4345 H 413.122 4.16004 -4.4696 0
M  V30 4346 H 414.536 2.06535 -5.34805 0
M  V30 4347 H 412.933 1.43544 -5.82679 0
M  V30 4348 H 414.003 0.433611 -4.82957 0
M  V30 4349 N 415.346 1.54954 0.287554 0
M  V30 4350 C 416.757 1.65732 0.859634 0
M  V30 4351 C 417.108 0.574767 1.87592 0
M  V30 4352 O 416.233 -0.286299 2.14498 0
M  V30 4353 C 416.828 3.00438 1.56597 0
M  V30 4354 C 415.387 3.13292 2.08627 0
M  V30 4355 C 414.534 2.61473 0.923416 0
M  V30 4356 H 417.485 1.5857 0.0642338 0
M  V30 4357 H 417.506 2.92613 2.43224 0
M  V30 4358 H 417.018 3.79207 0.826053 0
M  V30 4359 H 415.119 2.39268 2.85625 0
M  V30 4360 H 415.232 4.19647 2.31157 0
M  V30 4361 H 413.596 2.18264 1.31275 0
M  V30 4362 H 414.379 3.42733 0.197241 0
M  V30 4363 N 416.824 -0.551391 1.4764 0
M  V30 4364 C 418.101 -1.31229 1.45046 0
M  V30 4365 C 418.481 -2.10563 0.150527 0
M  V30 4366 O 417.829 -2.11374 -0.867956 0
M  V30 4367 C 418.039 -2.21189 2.69956 0
M  V30 4368 C 419.387 -2.82021 3.1741 0
M  V30 4369 O 420.411 -2.31488 2.70724 0
M  V30 4370 O 419.27 -3.73885 3.98588 0
M  V30 4371 H 416.364 -0.591193 0.578291 0
M  V30 4372 H 418.91 -0.569813 1.59847 0
M  V30 4373 H 417.682 -1.62207 3.56096 0
M  V30 4374 H 417.305 -3.02722 2.57769 0
M  V30 4375 N 418.302 -1.35869 -0.798587 0
M  V30 4376 C 419.713 -1.26498 -1.37314 0
M  V30 4377 C 420.064 0.0991899 -1.95949 0
M  V30 4378 O 419.189 1.0004 -1.91888 0
M  V30 4379 C 419.784 -2.29054 -2.49639 0
M  V30 4380 C 418.343 -2.234 -3.02935 0
M  V30 4381 C 417.49 -2.14329 -1.75949 0
M  V30 4382 H 420.441 -1.46881 -0.600971 0
M  V30 4383 H 420.462 -1.92166 -3.28409 0
M  V30 4384 H 419.974 -3.2833 -2.06933 0
M  V30 4385 H 418.075 -1.27562 -3.50084 0
M  V30 4386 H 418.188 -3.15703 -3.60372 0
M  V30 4387 H 416.552 -1.60435 -1.9782 0
M  V30 4388 H 417.335 -3.15477 -1.35384 0
M  V30 4389 N 419.78 1.02168 -1.19998 0
M  V30 4390 C 421.01 1.79036 -1.031 0
M  V30 4391 C 421.418 1.84409 0.423078 0
M  V30 4392 O 420.761 1.29228 1.30559 0
M  V30 4393 C 420.823 3.25185 -1.53281 0
M  V30 4394 C 420.487 3.43431 -3.01503 0
M  V30 4395 C 421.484 3.33063 -3.99206 0
M  V30 4396 C 419.169 3.69412 -3.40353 0
M  V30 4397 C 421.163 3.48413 -5.33748 0
M  V30 4398 C 418.85 3.84406 -4.75053 0
M  V30 4399 C 419.848 3.7391 -5.71559 0
M  V30 4400 O 419.536 3.88452 -7.03818 0
M  V30 4401 H 419.268 0.570043 -0.363355 0
M  V30 4402 H 421.822 1.29524 -1.59414 0
M  V30 4403 H 420.052 3.75756 -0.913483 0
M  V30 4404 H 421.741 3.83671 -1.32481 0
M  V30 4405 H 422.507 3.12934 -3.70537 0
M  V30 4406 H 418.386 3.76671 -2.65782 0
M  V30 4407 H 421.93 3.40137 -6.09059 0
M  V30 4408 H 417.827 4.04035 -5.03415 0
M  V30 4409 H 418.595 4.055 -7.10993 0
M  V30 4410 N 421.258 1.00505 1.21394 0
M  V30 4411 C 422.506 0.686415 1.90086 0
M  V30 4412 C 422.827 -0.785264 1.7849 0
M  V30 4413 O 422.097 -1.56387 1.17983 0
M  V30 4414 H 420.677 0.2509 0.703604 0
M  V30 4415 H 423.339 1.27417 1.47482 0
M  V30 4416 H 422.435 0.959621 2.96981 0
M  V30 4417 N 422.737 -1.36956 0.779787 0
M  V30 4418 C 423.977 -2.01328 0.353043 0
M  V30 4419 C 424.341 -1.60558 -1.05286 0
M  V30 4420 O 425.542 -2.1745 -1.58016 0
M  V30 4421 C 423.813 -3.53874 0.500822 0
M  V30 4422 S 425.372 -4.38506 0.16053 0
M  V30 4423 H 422.19 -0.69799 0.13539 0
M  V30 4424 H 424.792 -1.67016 1.01617 0
M  V30 4425 H 423.496 -3.81034 1.52451 0
M  V30 4426 H 423.027 -3.92994 -0.178574 0
M  V30 4427 H 425.042 -4.85153 -1.04121 0
M  V30 4428 N 424.215 -0.530993 -1.48385 0
M  V30 4429 C 425.44 0.000729535 -2.074 0
M  V30 4430 C 425.865 1.27298 -1.3848 0
M  V30 4431 O 425.223 1.75599 -0.451081 0
M  V30 4432 C 425.271 0.206697 -3.60007 0
M  V30 4433 O 424.375 1.27514 -3.92191 0
M  V30 4434 H 423.716 -0.039583 -0.662819 0
M  V30 4435 H 426.246 -0.739194 -1.9078 0
M  V30 4436 H 426.256 0.42904 -4.05738 0
M  V30 4437 H 424.931 -0.722675 -4.09573 0
M  V30 4438 H 423.508 1.03537 -3.58238 0
M  V30 4439 N 425.693 1.55336 -0.266172 0
M  V30 4440 C 426.933 2.01303 0.354459 0
M  V30 4441 C 427.297 1.15046 1.53715 0
M  V30 4442 O 428.498 1.50554 2.22681 0
M  V30 4443 C 426.769 3.49748 0.735579 0
M  V30 4444 S 428.328 4.1771 1.34401 0
M  V30 4445 H 425.146 0.702333 0.110674 0
M  V30 4446 H 427.748 1.91653 -0.385916 0
M  V30 4447 H 426.452 4.10181 -0.134196 0
M  V30 4448 H 425.983 3.63364 1.50764 0
M  V30 4449 H 427.998 4.20594 2.63278 0
M  V30 4450 N 427.171 -0.0066808 1.57599 0
M  V30 4451 C 428.134 -0.985035 2.06953 0
M  V30 4452 C 429.134 -1.27663 0.977687 0
M  V30 4453 O 430.324 -1.22293 1.24057 0
M  V30 4454 C 427.456 -2.3118 2.50536 0
M  V30 4455 H 428.649 -0.558255 2.94658 0
M  V30 4456 H 426.202 -0.254011 1.54222 0
M  V30 4457 H 426.937 -2.78561 1.66054 0
M  V30 4458 H 426.722 -2.11338 3.3027 0
M  V30 4459 H 428.212 -3.01377 2.8907 0
M  V30 4460 N 428.649 -1.55105 -0.279332 0
M  V30 4461 C 429.877 -1.7943 -1.03017 0
M  V30 4462 C 430.292 -0.564456 -1.80165 0
M  V30 4463 O 429.649 0.466326 -1.76442 0
M  V30 4464 C 429.7 -3.0155 -1.99374 0
M  V30 4465 O 429.421 -4.19784 -1.25352 0
M  V30 4466 C 430.922 -3.3843 -2.86321 0
M  V30 4467 H 428.142 -0.597882 -0.304594 0
M  V30 4468 H 430.686 -2.02105 -0.312035 0
M  V30 4469 H 428.841 -2.81019 -2.66659 0
M  V30 4470 H 429.255 -4.88781 -1.90246 0
M  V30 4471 H 430.729 -4.27066 -3.49741 0
M  V30 4472 H 431.206 -2.57549 -3.5576 0
M  V30 4473 H 431.812 -3.61197 -2.24536 0
M  V30 4474 N 430.127 0.543554 -1.4793 0
M  V30 4475 C 431.375 1.29752 -1.54948 0
M  V30 4476 C 431.696 1.93764 -0.219242 0
M  V30 4477 O 430.966 1.80639 0.75805 0
M  V30 4478 H 429.546 0.481874 -0.570795 0
M  V30 4479 H 432.208 0.633636 -1.84312 0
M  V30 4480 H 431.304 2.08392 -2.32334 0
M  V30 4481 N 431.605 1.3629 0.791371 0
M  V30 4482 C 432.851 1.31613 1.5508 0
M  V30 4483 C 433.206 -0.104372 1.92117 0
M  V30 4484 O 432.499 -1.05845 1.5971 0
M  V30 4485 C 432.693 2.17068 2.8393 0
M  V30 4486 C 432.522 3.67285 2.59484 0
M  V30 4487 C 431.292 4.36469 2.54604 0
M  V30 4488 C 433.49 4.60595 2.28816 0
M  V30 4489 N 431.472 5.7234 2.22036 0
M  V30 4490 C 432.843 5.847 2.06218 0
M  V30 4491 C 434.898 4.4918 2.14806 0
M  V30 4492 C 433.601 6.98671 1.71028 0
M  V30 4493 C 435.627 5.63017 1.81014 0
M  V30 4494 C 434.989 6.86159 1.59263 0
M  V30 4495 H 431.088 0.536878 0.568582 0
M  V30 4496 H 433.672 1.71323 0.925007 0
M  V30 4497 H 431.843 1.79605 3.44378 0
M  V30 4498 H 433.575 2.03795 3.49642 0
M  V30 4499 H 430.33 3.89249 2.69782 0
M  V30 4500 H 430.754 6.44093 2.08503 0
M  V30 4501 H 435.396 3.54564 2.30313 0
M  V30 4502 H 433.114 7.9324 1.54259 0
M  V30 4503 H 436.7 5.56146 1.70861 0
M  V30 4504 H 435.58 7.72753 1.335 0
M  V30 4505 N 433.083 -1.0153 1.20538 0
M  V30 4506 C 434.03 -2.10098 0.955383 0
M  V30 4507 C 435 -1.65702 -0.114878 0
M  V30 4508 O 436.185 -1.90776 0.0301118 0
M  V30 4509 C 433.325 -3.41236 0.514969 0
M  V30 4510 C 432.438 -3.99102 1.65353 0
M  V30 4511 C 431.573 -5.18306 1.16329 0
M  V30 4512 C 430.612 -5.68258 2.27485 0
M  V30 4513 N 429.749 -6.78722 1.7967 0
M  V30 4514 H 434.589 -2.30818 1.88486 0
M  V30 4515 H 432.126 -1.13189 0.939499 0
M  V30 4516 H 434.084 -4.16504 0.240935 0
M  V30 4517 H 432.714 -3.20585 -0.377512 0
M  V30 4518 H 431.766 -3.20918 2.04245 0
M  V30 4519 H 433.078 -4.32177 2.49047 0
M  V30 4520 H 432.232 -6.00782 0.845302 0
M  V30 4521 H 430.971 -4.86799 0.296254 0
M  V30 4522 H 429.976 -4.84385 2.60099 0
M  V30 4523 H 431.201 -6.01798 3.14667 0
M  V30 4524 H 429.147 -6.49042 0.95295 0
M  V30 4525 H 429.064 -7.10996 2.56944 0
M  V30 4526 H 430.332 -7.64759 1.50875 0
M  V30 4527 N 434.561 -1.01147 -1.20859 0
M  V30 4528 C 435.809 -0.696486 -1.89719 0
M  V30 4529 C 436.13 0.775788 -1.78904 0
M  V30 4530 O 435.4 1.55759 -1.18811 0
M  V30 4531 H 433.98 -0.254628 -0.702263 0
M  V30 4532 H 436.642 -1.28197 -1.46804 0
M  V30 4533 H 435.738 -0.975357 -2.96468 0
M  V30 4534 N 436.039 1.36541 -0.78704 0
M  V30 4535 C 436.969 2.32659 -0.197992 0
M  V30 4536 C 437.95 1.56533 0.665697 0
M  V30 4537 O 439.135 1.84698 0.60001 0
M  V30 4538 C 436.265 3.40778 0.669901 0
M  V30 4539 C 435.219 4.27897 -0.0937039 0
M  V30 4540 C 434.545 5.27163 0.894629 0
M  V30 4541 C 435.845 5.06334 -1.28154 0
M  V30 4542 H 437.539 2.82171 -1.00099 0
M  V30 4543 H 435.085 1.35665 -0.482793 0
M  V30 4544 H 437.038 4.07008 1.09191 0
M  V30 4545 H 435.762 2.89827 1.50558 0
M  V30 4546 H 434.421 3.6322 -0.49666 0
M  V30 4547 H 434.069 4.72486 1.72527 0
M  V30 4548 H 433.769 5.86317 0.388149 0
M  V30 4549 H 435.293 5.96266 1.31525 0
M  V30 4550 H 436.707 5.65617 -0.93541 0
M  V30 4551 H 435.104 5.74888 -1.72115 0
M  V30 4552 H 436.174 4.38114 -2.07807 0
M  V30 4553 N 437.518 0.538854 1.48102 0
M  V30 4554 C 438.45 -0.256278 2.27763 0
M  V30 4555 C 439.463 -0.89633 1.35904 0
M  V30 4556 O 440.652 -0.773275 1.60881 0
M  V30 4557 C 437.752 -1.37896 3.09577 0
M  V30 4558 C 436.925 -0.839159 4.29275 0
M  V30 4559 C 435.984 -1.84405 4.9283 0
M  V30 4560 O 435.01 -1.39746 5.51779 0
M  V30 4561 N 436.212 -3.17666 4.85869 0
M  V30 4562 H 438.977 0.426968 2.96643 0
M  V30 4563 H 436.538 0.373747 1.57527 0
M  V30 4564 H 438.53 -2.04955 3.48963 0
M  V30 4565 H 437.1 -1.96572 2.4306 0
M  V30 4566 H 436.32 0.00769287 3.94199 0
M  V30 4567 H 437.608 -0.457548 5.06739 0
M  V30 4568 H 437.006 -3.56609 4.39143 0
M  V30 4569 H 435.563 -3.80334 5.29329 0
M  V30 4570 N 438.996 -1.55193 0.274407 0
M  V30 4571 C 440.236 -2.01488 -0.343778 0
M  V30 4572 C 440.6 -1.1586 -1.53103 0
M  V30 4573 O 441.801 -1.51732 -2.2188 0
M  V30 4574 C 440.072 -3.50134 -0.717021 0
M  V30 4575 S 441.631 -4.18417 -1.32184 0
M  V30 4576 H 438.449 -0.70291 -0.106948 0
M  V30 4577 H 441.051 -1.91446 0.396075 0
M  V30 4578 H 439.755 -4.10104 0.155947 0
M  V30 4579 H 439.286 -3.64159 -1.48835 0
M  V30 4580 H 441.301 -4.21984 -2.61044 0
M  V30 4581 N 440.474 -0.00167713 -1.576 0
M  V30 4582 C 441.422 1.0074 -2.09652 0
M  V30 4583 C 442.416 1.35483 -1.01689 0
M  V30 4584 O 443.622 1.34028 -1.20152 0
M  V30 4585 H 439.997 0.342537 -0.669457 0
M  V30 4586 H 441.968 0.542841 -2.93421 0
M  V30 4587 C 440.717 2.2899 -2.61647 0
M  V30 4588 H 440.04 2.03124 -3.44355 0
M  V30 4589 H 441.48 2.9787 -3.01744 0
M  V30 4590 C 439.939 3.00085 -1.53136 0
M  V30 4591 O 440.469 3.91135 -0.91524 0
M  V30 4592 N 438.675 2.6194 -1.25841 0
M  V30 4593 H 438.222 1.8798 -1.76129 0
M  V30 4594 H 438.18 3.09822 -0.534576 0
M  V30 4595 N 441.952 1.55251 0.271103 0
M  V30 4596 C 442.862 1.9136 1.35714 0
M  V30 4597 C 443.878 0.811075 1.5394 0
M  V30 4598 O 445.054 1.11031 1.6803 0
M  V30 4599 C 442.119 2.1798 2.69603 0
M  V30 4600 C 441.18 3.4153 2.60107 0
M  V30 4601 C 440.413 3.66871 3.8761 0
M  V30 4602 O 440.636 2.94689 4.8838 0
M  V30 4603 O 439.57 4.60405 3.87699 0
M  V30 4604 H 443.396 2.83815 1.08088 0
M  V30 4605 H 440.981 1.41821 0.469792 0
M  V30 4606 H 442.863 2.36518 3.48765 0
M  V30 4607 H 441.538 1.28708 2.97012 0
M  V30 4608 H 440.445 3.28325 1.79314 0
M  V30 4609 H 441.778 4.31027 2.37647 0
M  V30 4610 N 443.43 -0.535701 1.48216 0
M  V30 4611 C 444.393 -1.623 1.61838 0
M  V30 4612 C 445.393 -1.53087 0.492024 0
M  V30 4613 O 446.583 -1.5686 0.757668 0
M  V30 4614 C 443.715 -3.01907 1.58319 0
M  V30 4615 H 444.908 -1.51564 2.58783 0
M  V30 4616 H 442.461 -0.757317 1.36727 0
M  V30 4617 H 443.196 -3.18155 0.628299 0
M  V30 4618 H 442.981 -3.10003 2.40085 0
M  V30 4619 H 444.471 -3.80969 1.71033 0
M  V30 4620 N 444.908 -1.36708 -0.784132 0
M  V30 4621 C 446.148 -1.32618 -1.55537 0
M  V30 4622 C 446.512 0.0920681 -1.91779 0
M  V30 4623 O 447.713 0.257573 -2.67563 0
M  V30 4624 C 445.984 -2.22788 -2.79464 0
M  V30 4625 S 447.543 -2.36432 -3.69656 0
M  V30 4626 H 444.361 -0.470973 -0.53264 0
M  V30 4627 H 446.963 -1.72333 -0.92312 0
M  V30 4628 H 445.667 -3.24774 -2.50899 0
M  V30 4629 H 445.198 -1.84112 -3.47658 0
M  V30 4630 H 447.213 -1.56573 -4.7085 0
M  V30 4631 N 446.386 1.0089 -1.21074 0
M  V30 4632 C 447.336 2.0799 -0.934034 0
M  V30 4633 C 448.32 1.60529 0.10919 0
M  V30 4634 O 449.512 1.76722 -0.0992198 0
M  V30 4635 C 446.641 3.39693 -0.496334 0
M  V30 4636 C 445.727 3.93833 -1.57341 0
M  V30 4637 N 446.118 4.21388 -2.7976 0
M  V30 4638 C 444.416 4.22067 -1.44137 0
M  V30 4639 C 445.117 4.65156 -3.49292 0
M  V30 4640 N 444.093 4.67895 -2.76722 0
M  V30 4641 H 447.895 2.27213 -1.86417 0
M  V30 4642 H 445.409 1.18927 -1.10589 0
M  V30 4643 H 447.406 4.15962 -0.279471 0
M  V30 4644 H 446.066 3.21879 0.427084 0
M  V30 4645 H 447.077 4.10061 -3.1634 0
M  V30 4646 H 443.754 4.1341 -0.582947 0
M  V30 4647 H 445.144 4.95231 -4.54088 0
M  V30 4648 N 447.864 1.01787 1.20321 0
M  V30 4649 C 449.275 0.739307 1.71438 0
M  V30 4650 C 449.626 -0.742041 1.81627 0
M  V30 4651 O 448.751 -1.57903 1.47971 0
M  V30 4652 C 449.346 1.33538 3.11373 0
M  V30 4653 C 447.905 1.10566 3.59795 0
M  V30 4654 C 447.052 1.44028 2.36962 0
M  V30 4655 H 450.003 1.18718 1.05317 0
M  V30 4656 H 450.024 0.726611 3.73498 0
M  V30 4657 H 449.536 2.41352 3.03926 0
M  V30 4658 H 447.637 0.0452405 3.72573 0
M  V30 4659 H 447.75 1.78661 4.44542 0
M  V30 4660 H 446.114 0.85933 2.39766 0
M  V30 4661 H 446.897 2.52901 2.32155 0
M  V30 4662 N 449.342 -1.36122 0.79427 0
M  V30 4663 C 450.59 -1.98718 0.368177 0
M  V30 4664 C 450.911 -1.63345 -1.06506 0
M  V30 4665 O 450.181 -0.909825 -1.73491 0
M  V30 4666 H 448.761 -0.735038 0.133146 0
M  V30 4667 H 451.423 -1.66239 1.01739 0
M  V30 4668 H 450.519 -3.08633 0.463923 0
M  V30 4669 N 450.82 -0.546701 -1.47814 0
M  V30 4670 C 452.067 -0.0187407 -2.02491 0
M  V30 4671 C 452.395 1.32685 -1.42215 0
M  V30 4672 O 451.65 1.87413 -0.563454 0
M  V30 4673 C 451.949 0.134869 -3.57145 0
M  V30 4674 C 451.615 -1.13849 -4.3629 0
M  V30 4675 C 450.277 -1.48743 -4.57634 0
M  V30 4676 C 452.629 -1.98277 -4.82012 0
M  V30 4677 C 449.957 -2.67932 -5.21948 0
M  V30 4678 C 452.309 -3.16659 -5.4764 0
M  V30 4679 C 450.973 -3.51879 -5.67219 0
M  V30 4680 H 450.243 -0.0068577 -0.740968 0
M  V30 4681 H 452.89 -0.716097 -1.77607 0
M  V30 4682 H 451.195 0.915118 -3.80963 0
M  V30 4683 H 452.892 0.558556 -3.97091 0
M  V30 4684 H 449.482 -0.856767 -4.19949 0
M  V30 4685 H 453.666 -1.72628 -4.6531 0
M  V30 4686 H 448.922 -2.95401 -5.35302 0
M  V30 4687 H 453.096 -3.82374 -5.82033 0
M  V30 4688 H 450.723 -4.44331 -6.16825 0
M  V30 4689 N 452.299 1.55045 -0.282633 0
M  V30 4690 C 453.529 2.03872 0.334635 0
M  V30 4691 C 453.937 1.16018 1.49454 0
M  V30 4692 O 453.28 0.174449 1.8287 0
M  V30 4693 C 453.342 3.48791 0.870905 0
M  V30 4694 C 453.006 4.56715 -0.161338 0
M  V30 4695 C 454.003 5.10513 -0.983466 0
M  V30 4696 C 451.688 5.01417 -0.297745 0
M  V30 4697 C 453.682 6.07538 -1.92811 0
M  V30 4698 C 451.369 5.98265 -1.24586 0
M  V30 4699 C 452.367 6.51208 -2.05954 0
M  V30 4700 O 452.055 7.46162 -2.99162 0
M  V30 4701 H 451.787 0.671324 0.0793742 0
M  V30 4702 H 454.341 2.01169 -0.41473 0
M  V30 4703 H 452.571 3.48758 1.67047 0
M  V30 4704 H 454.26 3.80916 1.40207 0
M  V30 4705 H 455.026 4.76785 -0.888856 0
M  V30 4706 H 450.905 4.59849 0.325604 0
M  V30 4707 H 454.449 6.48787 -2.56363 0
M  V30 4708 H 450.346 6.31412 -1.34126 0
M  V30 4709 H 451.114 7.63903 -2.93929 0
M  V30 4710 N 453.777 0.010035 1.57597 0
M  V30 4711 C 455.025 -0.671371 1.90623 0
M  V30 4712 C 455.346 -1.73753 0.885151 0
M  V30 4713 O 454.616 -1.95752 -0.0760611 0
M  V30 4714 H 453.196 -0.250968 0.703579 0
M  V30 4715 H 455.858 0.0533325 1.94827 0
M  V30 4716 H 454.954 -1.13626 2.90681 0
M  V30 4717 N 455.255 -1.55392 -0.262866 0
M  V30 4718 C 456.666 -1.67079 -0.833158 0
M  V30 4719 C 457.017 -0.604539 -1.86654 0
M  V30 4720 O 456.142 0.252138 -2.14926 0
M  V30 4721 C 456.737 -3.02891 -1.51797 0
M  V30 4722 C 455.296 -3.16571 -2.03617 0
M  V30 4723 C 454.443 -2.62909 -0.881701 0
M  V30 4724 H 457.394 -1.58652 -0.0389986 0
M  V30 4725 H 457.415 -2.96445 -2.38538 0
M  V30 4726 H 456.927 -3.80473 -0.765619 0
M  V30 4727 H 455.028 -2.43782 -2.81782 0
M  V30 4728 H 455.141 -4.23271 -2.24452 0
M  V30 4729 H 453.505 -2.20324 -1.27786 0
M  V30 4730 H 454.288 -3.43003 -0.14269 0
M  V30 4731 N 456.733 0.527833 -1.48498 0
M  V30 4732 C 458.01 1.28905 -1.47115 0
M  V30 4733 C 458.39 2.10297 -0.184007 0
M  V30 4734 O 457.738 2.12728 0.834218 0
M  V30 4735 C 457.948 2.16866 -2.73441 0
M  V30 4736 C 459.296 2.76936 -3.21857 0
M  V30 4737 O 460.32 2.27152 -2.74373 0
M  V30 4738 O 459.179 3.67496 -4.04486 0
M  V30 4739 H 456.273 0.581918 -0.587623 0
M  V30 4740 H 458.819 0.544311 -1.60734 0
M  V30 4741 H 457.591 1.56521 -3.58632 0
M  V30 4742 H 457.214 2.98583 -2.62553 0
M  V30 4743 N 458.211 1.37122 0.776871 0
M  V30 4744 C 459.451 1.33441 1.54831 0
M  V30 4745 C 459.815 -0.0818963 1.91825 0
M  V30 4746 O 461.016 -0.24338 2.67696 0
M  V30 4747 C 459.287 2.24267 2.78279 0
M  V30 4748 S 460.846 2.38389 3.68397 0
M  V30 4749 H 457.664 0.473791 0.530135 0
M  V30 4750 H 460.266 1.7282 0.913968 0
M  V30 4751 H 458.97 3.261 2.49173 0
M  V30 4752 H 458.501 1.85953 3.46677 0
M  V30 4753 H 460.516 1.59068 4.70013 0
M  V30 4754 N 459.689 -1.00246 1.21608 0
M  V30 4755 C 460.636 -2.09073 0.977613 0
M  V30 4756 C 461.606 -1.65815 -0.097297 0
M  V30 4757 O 462.791 -1.90734 0.0503445 0
M  V30 4758 C 459.931 -3.40671 0.551133 0
M  V30 4759 C 459.044 -3.97326 1.69576 0
M  V30 4760 C 458.179 -5.17043 1.2182 0
M  V30 4761 C 457.218 -5.65813 2.335 0
M  V30 4762 N 456.355 -6.76778 1.86859 0
M  V30 4763 H 461.195 -2.28806 1.90924 0
M  V30 4764 H 458.732 -1.12186 0.951452 0
M  V30 4765 H 460.69 -4.16225 0.285097 0
M  V30 4766 H 459.32 -3.20967 -0.343489 0
M  V30 4767 H 458.372 -3.18734 2.07637 0
M  V30 4768 H 459.684 -4.29511 2.53617 0
M  V30 4769 H 458.838 -5.99852 0.908975 0
M  V30 4770 H 457.577 -4.86458 0.347869 0
M  V30 4771 H 456.582 -4.81599 2.65222 0
M  V30 4772 H 457.807 -5.98427 3.21033 0
M  V30 4773 H 455.753 -6.47994 1.02174 0
M  V30 4774 H 455.67 -7.08231 2.64471 0
M  V30 4775 H 456.938 -7.63116 1.58978 0
M  V30 4776 N 461.167 -1.02423 -1.1978 0
M  V30 4777 C 462.097 -0.62157 -2.25075 0
M  V30 4778 C 463.078 0.367148 -1.6609 0
M  V30 4779 O 464.263 0.250892 -1.92573 0
M  V30 4780 C 461.393 0.0331826 -3.47284 0
M  V30 4781 C 460.347 -0.877323 -4.18912 0
M  V30 4782 C 459.673 -0.0879296 -5.34628 0
M  V30 4783 C 460.973 -2.18892 -4.74219 0
M  V30 4784 H 462.667 -1.50179 -2.59011 0
M  V30 4785 H 460.213 -0.723547 -1.24502 0
M  V30 4786 H 462.166 0.326488 -4.20133 0
M  V30 4787 H 460.89 0.948164 -3.12534 0
M  V30 4788 H 459.549 -1.15475 -3.47938 0
M  V30 4789 H 459.197 0.828941 -4.96123 0
M  V30 4790 H 458.897 -0.694359 -5.83483 0
M  V30 4791 H 460.421 0.198743 -6.10276 0
M  V30 4792 H 461.835 -1.95746 -5.38847 0
M  V30 4793 H 460.232 -2.74686 -5.33542 0
M  V30 4794 H 461.302 -2.84674 -3.92541 0
M  V30 4795 N 462.645 1.35699 -0.801477 0
M  V30 4796 C 464.061 1.52065 -0.484596 0
M  V30 4797 C 464.261 1.75215 0.995084 0
M  V30 4798 O 463.317 1.79061 1.78026 0
M  V30 4799 C 464.63 2.69908 -1.32552 0
M  V30 4800 C 466.178 2.83784 -1.32044 0
M  V30 4801 C 466.653 4.04646 -2.14536 0
M  V30 4802 N 468.144 4.11814 -2.12046 0
M  V30 4803 C 468.879 5.04437 -2.72636 0
M  V30 4804 N 468.375 6.02426 -3.42133 0
M  V30 4805 N 470.168 4.97144 -2.62305 0
M  V30 4806 H 462.319 1.18928 -1.75983 0
M  V30 4807 H 464.582 0.581455 -0.748741 0
M  V30 4808 H 464.288 2.59363 -2.37537 0
M  V30 4809 H 464.162 3.64376 -0.975181 0
M  V30 4810 H 466.549 2.93783 -0.27846 0
M  V30 4811 H 466.63 1.90188 -1.71062 0
M  V30 4812 H 466.274 3.95407 -3.18772 0
M  V30 4813 H 466.204 4.97413 -1.72882 0
M  V30 4814 H 468.695 3.41664 -1.61476 0
M  V30 4815 H 469.008 6.69688 -3.85666 0
M  V30 4816 H 467.353 6.02615 -3.46237 0
M  V30 4817 H 470.544 4.19546 -2.07603 0
M  V30 4818 H 470.717 5.69138 -3.09815 0
M  V30 4819 N 464.123 0.554532 1.47522 0
M  V30 4820 C 465.363 0.0317994 2.04375 0
M  V30 4821 C 465.727 -1.29242 1.41988 0
M  V30 4822 O 466.928 -1.90269 1.89872 0
M  V30 4823 C 465.199 -0.0623344 3.57346 0
M  V30 4824 S 466.758 -0.531578 4.35568 0
M  V30 4825 H 463.576 0.0238553 0.7106 0
M  V30 4826 H 466.178 0.74066 1.80927 0
M  V30 4827 H 464.882 0.905857 4.00278 0
M  V30 4828 H 464.413 -0.794831 3.85287 0
M  V30 4829 H 466.428 -1.79175 4.62721 0
M  V30 4830 N 465.601 -1.54893 0.290851 0
M  V30 4831 C 466.826 -2.04804 -0.32712 0
M  V30 4832 C 467.251 -1.16721 -1.47506 0
M  V30 4833 O 466.609 -0.169107 -1.8051 0
M  V30 4834 C 466.657 -3.52268 -0.770689 0
M  V30 4835 O 465.761 -3.67236 -1.87647 0
M  V30 4836 H 465.102 -0.660789 -0.0652227 0
M  V30 4837 H 467.632 -2.00036 0.429739 0
M  V30 4838 H 467.642 -3.9393 -1.06223 0
M  V30 4839 H 466.317 -4.15843 0.069096 0
M  V30 4840 H 464.894 -3.37479 -1.58626 0
M  V30 4841 N 467.08 -0.0183926 -1.57589 0
M  V30 4842 C 468.32 0.666846 -1.93216 0
M  V30 4843 C 468.684 1.69905 -0.894215 0
M  V30 4844 O 469.885 2.436 -1.13633 0
M  V30 4845 C 468.156 1.27684 -3.33814 0
M  V30 4846 S 469.715 1.98464 -3.91353 0
M  V30 4847 H 466.533 0.219826 -0.676164 0
M  V30 4848 H 469.135 -0.0794893 -1.95338 0
M  V30 4849 H 467.839 0.513006 -4.07181 0
M  V30 4850 H 467.37 2.06071 -3.3511 0
M  V30 4851 H 469.385 3.26189 -3.73918 0
M  V30 4852 N 468.558 1.5553 0.254621 0
M  V30 4853 C 469.506 1.9048 1.33492 0
M  V30 4854 C 470.5 0.78304 1.50216 0
M  V30 4855 O 471.706 0.967582 1.51782 0
M  V30 4856 H 468.081 0.604846 0.44684 0
M  V30 4857 H 470.052 2.80688 1.01275 0
M  V30 4858 C 468.801 2.20928 2.68489 0
M  V30 4859 H 468.124 3.06742 2.56417 0
M  V30 4860 H 469.564 2.49291 3.42972 0
M  V30 4861 C 468.023 1.023 3.20993 0
M  V30 4862 O 468.553 0.267027 4.00811 0
M  V30 4863 N 466.759 0.815714 2.78917 0
M  V30 4864 H 466.306 1.43217 2.14119 0
M  V30 4865 H 466.264 0.0236532 3.14391 0
M  V30 4866 N 470.036 -0.519951 1.48776 0
M  V30 4867 C 470.984 -1.64443 1.64503 0
M  V30 4868 C 471.978 -1.61501 0.511248 0
M  V30 4869 O 473.184 -1.66238 0.690294 0
M  V30 4870 H 469.559 -0.544776 0.518385 0
M  V30 4871 H 471.53 -1.48325 2.58925 0
M  V30 4872 C 470.279 -3.02673 1.71127 0
M  V30 4873 H 469.602 -3.05635 2.57735 0
M  V30 4874 H 471.042 -3.80941 1.86172 0
M  V30 4875 C 469.501 -3.33854 0.452032 0
M  V30 4876 O 470.031 -3.99385 -0.430678 0
M  V30 4877 N 468.237 -2.88825 0.32069 0
M  V30 4878 H 467.784 -2.35674 1.03998 0
M  V30 4879 H 467.742 -3.10056 -0.520814 0
M  V30 4880 N 471.514 -1.37532 -0.769588 0
M  V30 4881 C 472.762 -1.32597 -1.5252 0
M  V30 4882 C 473.083 0.0884294 -1.94799 0
M  V30 4883 O 472.353 1.03289 -1.66458 0
M  V30 4884 H 470.933 -0.487846 -0.565699 0
M  V30 4885 H 473.595 -1.72044 -0.915806 0
M  V30 4886 H 472.691 -1.96643 -2.42359 0
M  V30 4887 N 472.992 0.995999 -1.22138 0
M  V30 4888 C 473.902 2.11985 -1.00496 0
M  V30 4889 C 474.918 1.7394 0.0457701 0
M  V30 4890 O 476.094 2.00868 -0.146273 0
M  V30 4891 C 473.159 3.41779 -0.582086 0
M  V30 4892 C 472.22 3.93943 -1.70608 0
M  V30 4893 C 471.453 5.17542 -1.30328 0
M  V30 4894 O 471.676 5.70114 -0.180743 0
M  V30 4895 O 470.61 5.63382 -2.11861 0
M  V30 4896 H 474.436 2.33123 -1.94647 0
M  V30 4897 H 472.021 1.10358 -1.00705 0
M  V30 4898 H 473.903 4.1989 -0.356467 0
M  V30 4899 H 472.578 3.22007 0.330592 0
M  V30 4900 H 471.485 3.17019 -1.98619 0
M  V30 4901 H 472.818 4.18141 -2.59651 0
M  V30 4902 N 474.47 1.03057 1.19235 0
M  V30 4903 C 475.403 0.557384 2.21288 0
M  V30 4904 C 476.381 -0.402675 1.57535 0
M  V30 4905 O 477.565 -0.319376 1.85775 0
M  V30 4906 C 474.692 -0.187041 3.38183 0
M  V30 4907 C 473.738 0.72471 4.20298 0
M  V30 4908 S 474.571 2.20187 4.88137 0
M  V30 4909 C 475.727 1.46801 6.08441 0
M  V30 4910 H 475.96 1.42207 2.61083 0
M  V30 4911 H 473.493 0.840651 1.29508 0
M  V30 4912 H 475.451 -0.610405 4.05936 0
M  V30 4913 H 474.112 -1.02748 2.96819 0
M  V30 4914 H 473.305 0.149911 5.03777 0
M  V30 4915 H 472.907 1.08647 3.57871 0
M  V30 4916 H 475.199 0.755522 6.73274 0
M  V30 4917 H 476.142 2.27946 6.70407 0
M  V30 4918 H 476.55 0.964762 5.56195 0
M  V30 4919 N 475.948 -1.35272 0.808662 0
M  V30 4920 C 477.188 -2.00534 0.395668 0
M  V30 4921 C 477.552 -1.62755 -1.01857 0
M  V30 4922 O 478.753 -2.20752 -1.53368 0
M  V30 4923 C 477.024 -3.52732 0.575771 0
M  V30 4924 S 478.583 -4.38067 0.253507 0
M  V30 4925 H 475.401 -0.694962 0.150165 0
M  V30 4926 H 478.003 -1.64823 1.05137 0
M  V30 4927 H 476.707 -3.77714 1.60499 0
M  V30 4928 H 476.238 -3.93285 -0.0951739 0
M  V30 4929 H 478.253 -4.87252 -0.938068 0
M  V30 4930 N 477.426 -0.562348 -1.47226 0
M  V30 4931 C 478.703 0.0256985 -1.95583 0
M  V30 4932 C 479.083 1.48032 -1.50498 0
M  V30 4933 O 478.431 2.15973 -0.746181 0
M  V30 4934 C 478.641 -0.125129 -3.48776 0
M  V30 4935 C 479.989 0.0175728 -4.24596 0
M  V30 4936 O 481.013 -0.0529341 -3.56161 0
M  V30 4937 O 479.872 0.170145 -5.46235 0
M  V30 4938 H 476.966 0.0612565 -0.824728 0
M  V30 4939 H 479.512 -0.629233 -1.57603 0
M  V30 4940 H 478.284 -1.13715 -3.74412 0
M  V30 4941 H 477.907 0.567178 -3.93534 0
M  V30 4942 N 478.904 1.54736 -0.299062 0
M  V30 4943 C 480.32 1.59507 0.0543849 0
M  V30 4944 C 480.52 1.31606 1.52585 0
M  V30 4945 O 479.576 1.08853 2.27832 0
M  V30 4946 C 480.889 2.98751 -0.34181 0
M  V30 4947 C 482.437 3.1165 -0.290414 0
M  V30 4948 C 482.912 4.53199 -0.661402 0
M  V30 4949 N 484.403 4.59114 -0.613863 0
M  V30 4950 C 485.138 5.66709 -0.873417 0
M  V30 4951 N 484.634 6.82349 -1.19884 0
M  V30 4952 N 486.427 5.56369 -0.800608 0
M  V30 4953 H 478.578 1.71133 -1.25806 0
M  V30 4954 H 480.841 0.799186 -0.509908 0
M  V30 4955 H 480.547 3.24085 -1.36608 0
M  V30 4956 H 480.421 3.75961 0.305508 0
M  V30 4957 H 482.808 2.86066 0.724605 0
M  V30 4958 H 482.889 2.366 -0.972327 0
M  V30 4959 H 482.533 4.79513 -1.67422 0
M  V30 4960 H 482.463 5.26583 0.0425612 0
M  V30 4961 H 484.954 3.76053 -0.3732 0
M  V30 4962 H 485.267 7.60326 -1.38291 0
M  V30 4963 H 483.612 6.83906 -1.23685 0
M  V30 4964 H 486.803 4.64904 -0.546045 0
M  V30 4965 H 486.976 6.40139 -1.00626 0
M  V30 4966 N 480.382 0.0267497 1.57577 0
M  V30 4967 C 481.629 -0.652404 1.91703 0
M  V30 4968 C 481.957 -1.72271 0.902936 0
M  V30 4969 O 481.212 -1.955 -0.0884843 0
M  V30 4970 C 481.511 -1.30914 3.3256 0
M  V30 4971 C 481.177 -0.369441 4.49384 0
M  V30 4972 C 479.839 -0.110791 4.81072 0
M  V30 4973 C 482.191 0.275971 5.20469 0
M  V30 4974 C 479.519 0.801116 5.81205 0
M  V30 4975 C 481.871 1.17592 6.21575 0
M  V30 4976 C 480.535 1.44348 6.51705 0
M  V30 4977 H 479.805 -0.238732 0.70149 0
M  V30 4978 H 482.452 0.0880091 1.91298 0
M  V30 4979 H 480.757 -2.12425 3.29216 0
M  V30 4980 H 482.454 -1.84115 3.56234 0
M  V30 4981 H 479.044 -0.581211 4.24641 0
M  V30 4982 H 483.228 0.0892 4.9622 0
M  V30 4983 H 478.484 1.01614 6.02897 0
M  V30 4984 H 482.658 1.68223 6.75777 0
M  V30 4985 H 480.285 2.15176 7.29111 0
M  V30 4986 N 481.861 -1.55662 -0.24637 0
M  V30 4987 C 482.793 -1.86811 -1.32794 0
M  V30 4988 C 483.806 -0.754413 -1.44265 0
M  V30 4989 O 484.995 -1.03253 -1.45606 0
M  V30 4990 C 482.095 -2.0397 -2.70646 0
M  V30 4991 C 481.268 -3.34832 -2.81436 0
M  V30 4992 C 480.327 -3.41727 -4.00136 0
M  V30 4993 O 479.353 -4.14934 -3.89639 0
M  V30 4994 N 480.555 -2.71058 -5.1333 0
M  V30 4995 H 483.32 -2.80174 -1.06409 0
M  V30 4996 H 480.881 -1.55906 -0.43647 0
M  V30 4997 H 482.873 -2.05924 -3.48393 0
M  V30 4998 H 481.443 -1.1735 -2.89738 0
M  V30 4999 H 480.663 -3.4519 -1.90361 0
M  V30 5000 H 481.951 -4.21085 -2.85595 0
M  V30 5001 H 481.349 -2.11314 -5.2475 0
M  V30 5002 H 479.906 -2.78704 -5.89209 0
M  V30 5003 N 483.339 0.512053 -1.4905 0
M  V30 5004 C 484.587 1.26436 -1.57665 0
M  V30 5005 C 484.908 1.93255 -0.260293 0
M  V30 5006 O 484.178 1.82206 0.719564 0
M  V30 5007 H 482.758 0.469658 -0.580888 0
M  V30 5008 H 485.42 0.594398 -1.85615 0
M  V30 5009 H 484.516 2.03417 -2.36702 0
M  V30 5010 N 484.817 1.37938 0.762283 0
M  V30 5011 C 486.057 1.35076 1.53407 0
M  V30 5012 C 486.421 -0.061546 1.91901 0
M  V30 5013 O 487.622 -0.214973 2.67939 0
M  V30 5014 C 485.893 2.27206 2.75884 0
M  V30 5015 S 487.452 2.42283 3.65848 0
M  V30 5016 H 484.27 0.479387 0.52508 0
M  V30 5017 H 486.872 1.7378 0.895586 0
M  V30 5018 H 485.576 3.28724 2.457 0
M  V30 5019 H 485.107 1.8962 3.44685 0
M  V30 5020 H 487.122 1.64044 4.68299 0
M  V30 5021 N 486.295 -0.989507 1.22664 0
M  V30 5022 C 487.225 -2.09847 1.02404 0
M  V30 5023 C 488.206 -1.70007 -0.0561303 0
M  V30 5024 O 489.391 -1.93906 0.106748 0
M  V30 5025 C 486.521 -3.41996 0.604663 0
M  V30 5026 C 485.475 -3.95699 1.63115 0
M  V30 5027 C 484.801 -5.23936 1.0675 0
M  V30 5028 C 486.101 -4.25999 3.02196 0
M  V30 5029 H 487.795 -2.27054 1.95158 0
M  V30 5030 H 485.341 -1.09111 0.939727 0
M  V30 5031 H 487.294 -4.1899 0.45002 0
M  V30 5032 H 486.018 -3.24626 -0.35855 0
M  V30 5033 H 484.677 -3.2084 1.77362 0
M  V30 5034 H 484.325 -5.02909 0.0955422 0
M  V30 5035 H 484.025 -5.60833 1.75328 0
M  V30 5036 H 485.549 -6.0356 0.924516 0
M  V30 5037 H 486.963 -4.93777 2.91303 0
M  V30 5038 H 485.36 -4.74076 3.67929 0
M  V30 5039 H 486.43 -3.33636 3.51873 0
M  V30 5040 N 487.773 -1.03688 -1.18687 0
M  V30 5041 C 489.013 -0.746858 -1.90267 0
M  V30 5042 C 489.377 0.712075 -1.78307 0
M  V30 5043 O 490.578 1.11553 -2.44559 0
M  V30 5044 C 488.849 -1.19543 -3.36815 0
M  V30 5045 S 490.408 -1.03047 -4.26529 0
M  V30 5046 H 487.226 -0.271663 -0.657054 0
M  V30 5047 H 489.828 -1.32838 -1.43437 0
M  V30 5048 H 488.532 -2.2527 -3.43047 0
M  V30 5049 H 488.063 -0.607533 -3.88681 0
M  V30 5050 H 490.078 0.0543232 -4.9617 0
M  V30 5051 N 489.251 1.34841 -0.815825 0
M  V30 5052 C 490.476 2.03261 -0.41226 0
M  V30 5053 C 490.901 1.61055 0.971751 0
M  V30 5054 O 490.259 0.7917 1.63101 0
M  V30 5055 C 490.307 3.56914 -0.514289 0
M  V30 5056 O 489.411 4.09728 0.468675 0
M  V30 5057 H 488.752 0.641664 -0.170771 0
M  V30 5058 H 491.282 1.72241 -1.10427 0
M  V30 5059 H 491.292 4.06156 -0.387457 0
M  V30 5060 H 489.967 3.86982 -1.52375 0
M  V30 5061 H 488.544 3.71681 0.301316 0
M  V30 5062 N 490.729 0.570148 1.46925 0
M  V30 5063 C 492.14 0.1402 1.86173 0
M  V30 5064 C 492.491 -1.29347 1.47526 0
M  V30 5065 O 491.616 -1.97508 0.884292 0
M  V30 5066 C 492.211 0.247661 3.37894 0
M  V30 5067 C 490.77 -0.127332 3.76185 0
M  V30 5068 C 489.917 0.589349 2.70965 0
M  V30 5069 H 492.868 0.779117 1.38259 0
M  V30 5070 H 492.889 -0.530341 3.76786 0
M  V30 5071 H 492.401 1.29121 3.65991 0
M  V30 5072 H 490.502 -1.17149 3.53704 0
M  V30 5073 H 490.615 0.240238 4.78497 0
M  V30 5074 H 488.979 0.0309824 2.54681 0
M  V30 5075 H 489.762 1.6343 3.01903 0
M  V30 5076 N 492.207 -1.54576 0.307264 0
M  V30 5077 C 493.455 -1.99867 -0.299574 0
M  V30 5078 C 493.776 -1.19714 -1.53927 0
M  V30 5079 O 493.046 -0.29472 -1.9367 0
M  V30 5080 H 491.626 -0.738299 -0.113683 0
M  V30 5081 H 494.288 -1.9032 0.420042 0
M  V30 5082 H 493.384 -3.06901 -0.567283 0
M  V30 5083 N 493.685 -0.035106 -1.57561 0
M  V30 5084 C 494.931 0.637362 -1.93156 0
M  V30 5085 C 495.286 1.69391 -0.912392 0
M  V30 5086 O 494.579 1.91469 0.070735 0
M  V30 5087 C 494.773 1.29149 -3.3325 0
M  V30 5088 C 494.602 0.29983 -4.48699 0
M  V30 5089 C 493.372 -0.102454 -5.05196 0
M  V30 5090 C 495.57 -0.448297 -5.12342 0
M  V30 5091 N 493.552 -1.08866 -6.0417 0
M  V30 5092 C 494.923 -1.28807 -6.06472 0
M  V30 5093 C 496.978 -0.508351 -4.95298 0
M  V30 5094 C 495.681 -2.18248 -6.85391 0
M  V30 5095 C 497.707 -1.39013 -5.7483 0
M  V30 5096 C 497.069 -2.21766 -6.6858 0
M  V30 5097 H 493.168 0.205358 -0.754554 0
M  V30 5098 H 495.752 -0.103682 -1.94424 0
M  V30 5099 H 493.923 2.00264 -3.3279 0
M  V30 5100 H 495.655 1.92147 -3.56177 0
M  V30 5101 H 492.41 0.273223 -4.72811 0
M  V30 5102 H 492.834 -1.57817 -6.58348 0
M  V30 5103 H 497.476 0.117197 -4.22638 0
M  V30 5104 H 495.194 -2.81855 -7.57353 0
M  V30 5105 H 498.78 -1.44096 -5.63673 0
M  V30 5106 H 497.66 -2.88892 -7.29048 0
M  V30 5107 N 495.163 1.55791 0.238111 0
M  V30 5108 C 496.095 1.87513 1.31802 0
M  V30 5109 C 497.108 0.762053 1.43863 0
M  V30 5110 O 498.297 1.04024 1.45056 0
M  V30 5111 C 495.397 2.05402 2.69561 0
M  V30 5112 C 494.57 3.3632 2.79656 0
M  V30 5113 C 493.629 3.43844 3.98319 0
M  V30 5114 O 492.655 4.16994 3.87433 0
M  V30 5115 N 493.857 2.73777 5.11885 0
M  V30 5116 H 496.622 2.80734 1.04922 0
M  V30 5117 H 494.183 1.56135 0.428196 0
M  V30 5118 H 496.175 2.07769 3.47296 0
M  V30 5119 H 494.745 1.18884 2.89111 0
M  V30 5120 H 493.965 3.46195 1.88528 0
M  V30 5121 H 495.253 4.22594 2.83358 0
M  V30 5122 H 494.651 2.14094 5.23622 0
M  V30 5123 H 493.208 2.81825 5.87723 0
M  V30 5124 N 496.642 -0.504142 1.49319 0
M  V30 5125 C 497.89 -1.25598 1.58334 0
M  V30 5126 C 498.211 -1.93114 0.270538 0
M  V30 5127 O 497.481 -1.82585 -0.709891 0
M  V30 5128 H 496.061 -0.466571 0.58337 0
M  V30 5129 H 498.723 -0.584547 1.85928 0
M  V30 5130 H 497.819 -2.02159 2.37778 0
M  V30 5131 N 498.12 -1.38341 -0.754957 0
M  V30 5132 C 499.05 -1.38176 -1.88227 0
M  V30 5133 C 500.031 -0.247873 -1.68284 0
M  V30 5134 O 501.216 -0.45075 -1.88896 0
M  V30 5135 C 498.346 -1.20471 -3.25736 0
M  V30 5136 C 497.3 -2.3105 -3.60278 0
M  V30 5137 C 496.626 -1.98452 -4.96509 0
M  V30 5138 C 497.926 -3.73305 -3.65295 0
M  V30 5139 H 499.62 -2.32512 -1.88622 0
M  V30 5140 H 497.166 -1.1192 -0.906082 0
M  V30 5141 H 499.119 -1.18982 -4.04254 0
M  V30 5142 H 497.843 -0.225965 -3.25817 0
M  V30 5143 H 496.502 -2.31723 -2.84078 0
M  V30 5144 H 496.15 -0.990641 -4.93148 0
M  V30 5145 H 495.85 -2.7251 -5.20588 0
M  V30 5146 H 497.374 -1.98578 -5.77407 0
M  V30 5147 H 498.788 -3.7467 -4.3393 0
M  V30 5148 H 497.185 -4.46557 -4.00883 0
M  V30 5149 H 498.255 -4.05719 -2.65556 0
M  V30 5150 N 499.598 0.982988 -1.23187 0
M  V30 5151 C 500.53 2.07729 -0.968572 0
M  V30 5152 C 501.543 1.62702 0.0564821 0
M  V30 5153 O 502.732 1.77603 -0.178733 0
M  V30 5154 C 499.832 3.36071 -0.436974 0
M  V30 5155 C 499.005 4.10081 -1.52159 0
M  V30 5156 C 498.064 5.16701 -0.99532 0
M  V30 5157 O 497.09 5.43727 -1.68373 0
M  V30 5158 N 498.292 5.80226 0.178192 0
M  V30 5159 H 501.057 2.30894 -1.9107 0
M  V30 5160 H 498.618 1.14949 -1.1401 0
M  V30 5161 H 500.61 4.04639 -0.0700051 0
M  V30 5162 H 499.18 3.09893 0.410509 0
M  V30 5163 H 498.4 3.36004 -2.06144 0
M  V30 5164 H 499.688 4.56295 -2.25105 0
M  V30 5165 H 499.086 5.60651 0.754096 0
M  V30 5166 H 497.643 6.49982 0.486449 0
M  V30 5167 N 501.076 1.04316 1.18135 0
M  V30 5168 C 502.316 0.756937 1.89868 0
M  V30 5169 C 502.68 -0.702609 1.78682 0
M  V30 5170 O 503.881 -1.10255 2.45148 0
M  V30 5171 C 502.152 1.21327 3.36176 0
M  V30 5172 S 503.711 1.05307 4.25976 0
M  V30 5173 H 500.529 0.275143 0.655604 0
M  V30 5174 H 503.131 1.33597 1.42731 0
M  V30 5175 H 501.835 2.27086 3.41848 0
M  V30 5176 H 501.366 0.628137 3.88353 0
M  V30 5177 H 503.381 -0.0280093 4.96192 0
M  V30 5178 N 502.554 -1.34406 0.822964 0
M  V30 5179 C 503.464 -2.33298 0.246838 0
M  V30 5180 C 504.48 -1.62625 -0.618797 0
M  V30 5181 O 505.656 -1.94391 -0.526685 0
M  V30 5182 C 502.721 -3.41785 -0.581731 0
M  V30 5183 C 501.782 -4.28206 0.306309 0
M  V30 5184 C 501.015 -5.31512 -0.48281 0
M  V30 5185 O 501.238 -5.43973 -1.71607 0
M  V30 5186 O 500.172 -6.01749 0.134884 0
M  V30 5187 H 503.998 -2.84401 1.06534 0
M  V30 5188 H 501.583 -1.37466 0.585108 0
M  V30 5189 H 503.465 -4.08028 -1.05313 0
M  V30 5190 H 502.14 -2.92925 -1.37756 0
M  V30 5191 H 501.047 -3.64885 0.825199 0
M  V30 5192 H 502.38 -4.80507 1.06649 0
M  V30 5193 N 504.032 -0.577932 -1.46621 0
M  V30 5194 C 505.448 -0.239242 -1.57797 0
M  V30 5195 C 505.648 1.25843 -1.57371 0
M  V30 5196 O 504.704 2.03988 -1.48813 0
M  V30 5197 C 506.017 -0.884227 -2.87405 0
M  V30 5198 C 507.565 -0.857373 -3.01028 0
M  V30 5199 C 508.04 -1.48181 -4.33366 0
M  V30 5200 N 509.531 -1.44593 -4.40053 0
M  V30 5201 C 510.266 -1.89852 -5.41058 0
M  V30 5202 N 509.762 -2.43062 -6.48762 0
M  V30 5203 N 511.555 -1.80797 -5.3223 0
M  V30 5204 H 503.706 -1.55073 -1.45142 0
M  V30 5205 H 505.969 -0.647903 -0.692044 0
M  V30 5206 H 505.675 -1.93759 -2.93514 0
M  V30 5207 H 505.549 -0.389585 -3.75183 0
M  V30 5208 H 507.936 0.187357 -2.94505 0
M  V30 5209 H 508.017 -1.38999 -2.14739 0
M  V30 5210 H 507.661 -2.52572 -4.40647 0
M  V30 5211 H 507.591 -0.924464 -5.18422 0
M  V30 5212 H 510.082 -1.05694 -3.62819 0
M  V30 5213 H 510.395 -2.75466 -7.22038 0
M  V30 5214 H 508.74 -2.47085 -6.49595 0
M  V30 5215 H 511.931 -1.38989 -4.46989 0
M  V30 5216 H 512.104 -2.16385 -6.10804 0
M  V30 5217 N 505.51 1.54411 -0.315457 0
M  V30 5218 C 506.42 2.27737 0.56329 0
M  V30 5219 C 507.436 1.31787 1.13614 0
M  V30 5220 O 508.612 1.64791 1.15784 0
M  V30 5221 C 505.677 3.01478 1.71207 0
M  V30 5222 C 504.738 4.12997 1.17185 0
M  V30 5223 C 503.971 4.83212 2.26588 0
M  V30 5224 O 504.194 4.52884 3.46775 0
M  V30 5225 O 503.128 5.70299 1.92463 0
M  V30 5226 H 506.954 3.03683 -0.0319614 0
M  V30 5227 H 504.539 1.49178 -0.0814188 0
M  V30 5228 H 506.421 3.47683 2.38106 0
M  V30 5229 H 505.096 2.28414 2.29366 0
M  V30 5230 H 504.003 3.71159 0.468174 0
M  V30 5231 H 505.336 4.8808 0.635501 0
M  V30 5232 N 506.988 0.0434614 1.5754 0
M  V30 5233 C 508.236 -0.630786 1.92004 0
M  V30 5234 C 508.557 -1.71836 0.921807 0
M  V30 5235 O 507.827 -1.9587 -0.034522 0
M  V30 5236 H 506.407 -0.235988 0.708745 0
M  V30 5237 H 509.069 0.0946462 1.9467 0
M  V30 5238 H 508.165 -1.07434 2.93026 0
M  V30 5239 N 508.466 -1.55915 -0.229846 0
M  V30 5240 C 509.715 -1.77742 -0.953455 0
M  V30 5241 C 510.028 -0.610524 -1.85828 0
M  V30 5242 O 511.234 -0.712219 -2.61992 0
M  V30 5243 C 509.69 -3.14738 -1.74551 0
M  V30 5244 C 509.298 -4.39126 -0.887242 0
M  V30 5245 C 511.042 -3.45895 -2.46084 0
M  V30 5246 C 508.949 -5.67149 -1.67617 0
M  V30 5247 H 507.879 -0.662648 -0.359741 0
M  V30 5248 H 510.53 -1.82322 -0.207576 0
M  V30 5249 H 508.912 -3.04311 -2.53399 0
M  V30 5250 H 510.086 -4.60588 -0.139892 0
M  V30 5251 H 508.401 -4.15427 -0.284443 0
M  V30 5252 H 510.998 -4.38767 -3.05594 0
M  V30 5253 H 511.341 -2.68007 -3.18556 0
M  V30 5254 H 511.874 -3.57614 -1.74233 0
M  V30 5255 H 508.613 -6.47906 -0.994881 0
M  V30 5256 H 508.133 -5.49763 -2.39836 0
M  V30 5257 H 509.812 -6.07025 -2.23898 0
M  V30 5258 N 509.944 0.496216 -1.49584 0
M  V30 5259 C 510.876 1.61404 -1.62731 0
M  V30 5260 C 511.889 1.54613 -0.50978 0
M  V30 5261 O 513.078 1.60458 -0.782017 0
M  V30 5262 C 510.178 3.00212 -1.57245 0
M  V30 5263 C 509.351 3.32138 -2.84611 0
M  V30 5264 C 508.41 4.5038 -2.72112 0
M  V30 5265 O 507.436 4.51926 -3.46051 0
M  V30 5266 N 508.638 5.50575 -1.83977 0
M  V30 5267 H 511.403 1.50552 -2.59141 0
M  V30 5268 H 508.964 0.684182 -1.46733 0
M  V30 5269 H 510.956 3.77241 -1.4653 0
M  V30 5270 H 509.526 3.04964 -0.686729 0
M  V30 5271 H 508.746 2.4396 -3.09641 0
M  V30 5272 H 510.034 3.50268 -3.69039 0
M  V30 5273 H 509.432 5.52128 -1.23171 0
M  V30 5274 H 507.989 6.26687 -1.79182 0
M  V30 5275 N 511.423 1.38739 0.74761 0
M  V30 5276 C 512.839 1.20067 1.05148 0
M  V30 5277 C 513.039 0.0534835 2.01429 0
M  V30 5278 O 512.095 -0.59886 2.45296 0
M  V30 5279 C 513.408 2.52957 1.62584 0
M  V30 5280 C 514.956 2.59692 1.74726 0
M  V30 5281 C 515.431 3.92772 2.35573 0
M  V30 5282 N 516.922 3.94343 2.42997 0
M  V30 5283 C 517.657 4.9408 2.90985 0
M  V30 5284 N 517.153 6.04214 3.38965 0
M  V30 5285 N 518.946 4.81466 2.9008 0
M  V30 5286 H 511.097 2.12121 0.108808 0
M  V30 5287 H 513.36 0.941491 0.110899 0
M  V30 5288 H 513.066 3.37389 0.993051 0
M  V30 5289 H 512.94 2.71779 2.61565 0
M  V30 5290 H 515.327 1.75651 2.3713 0
M  V30 5291 H 515.408 2.44731 0.744326 0
M  V30 5292 H 515.052 4.77238 1.738 0
M  V30 5293 H 514.982 4.05046 3.36519 0
M  V30 5294 H 517.473 3.14799 2.0907 0
M  V30 5295 H 517.786 6.76241 3.74056 0
M  V30 5296 H 516.131 6.07825 3.37007 0
M  V30 5297 H 519.322 3.94535 2.51912 0
M  V30 5298 H 519.495 5.59344 3.27166 0
M  V30 5299 N 512.901 -0.976442 1.23707 0
M  V30 5300 C 513.834 -2.06793 0.964973 0
M  V30 5301 C 514.812 -1.62304 -0.0981472 0
M  V30 5302 O 515.996 -1.88464 0.0369477 0
M  V30 5303 C 513.123 -3.35636 0.454522 0
M  V30 5304 C 512.169 -3.99069 1.50485 0
M  V30 5305 S 513.002 -4.37814 3.0835 0
M  V30 5306 C 514.158 -5.69805 2.58985 0
M  V30 5307 H 514.391 -2.29556 1.88922 0
M  V30 5308 H 511.924 -1.11317 1.06995 0
M  V30 5309 H 513.882 -4.10162 0.166626 0
M  V30 5310 H 512.543 -3.10876 -0.448871 0
M  V30 5311 H 511.736 -4.91896 1.09792 0
M  V30 5312 H 511.338 -3.30938 1.7423 0
M  V30 5313 H 513.63 -6.46919 2.01252 0
M  V30 5314 H 514.573 -6.15345 3.50366 0
M  V30 5315 H 514.981 -5.27994 1.99705 0
M  V30 5316 N 514.379 -1.04941 -1.1758 0
M  V30 5317 C 515.607 -0.778294 -1.91703 0
M  V30 5318 C 516.022 0.665697 -1.76675 0
M  V30 5319 O 515.379 1.45456 -1.10222 0
M  V30 5320 C 515.43 -1.14628 -3.42845 0
M  V30 5321 O 515.151 -2.53359 -3.57409 0
M  V30 5322 C 516.652 -0.900931 -4.34049 0
M  V30 5323 H 513.872 -0.283167 -0.608323 0
M  V30 5324 H 516.416 -1.39942 -1.49119 0
M  V30 5325 H 514.571 -0.569953 -3.83184 0
M  V30 5326 H 514.985 -2.67709 -4.51035 0
M  V30 5327 H 516.459 -1.20817 -5.38616 0
M  V30 5328 H 516.936 0.163966 -4.38894 0
M  V30 5329 H 517.542 -1.46097 -3.99419 0
M  V30 5330 N 515.857 1.33968 -0.830081 0
M  V30 5331 C 517.268 1.80439 -0.479455 0
M  V30 5332 C 517.619 1.68756 1.00079 0
M  V30 5333 O 516.744 1.23171 1.77927 0
M  V30 5334 C 517.339 3.27611 -0.863505 0
M  V30 5335 C 515.898 3.72133 -0.565145 0
M  V30 5336 C 515.045 2.55549 -1.07657 0
M  V30 5337 H 517.996 1.21614 -1.0196 0
M  V30 5338 H 518.017 3.8012 -0.170083 0
M  V30 5339 H 517.529 3.36082 -1.94089 0
M  V30 5340 H 515.63 3.69196 0.502536 0
M  V30 5341 H 515.743 4.65963 -1.11422 0
M  V30 5342 H 514.107 2.49788 -0.497807 0
M  V30 5343 H 514.89 2.66786 -2.16055 0
M  V30 5344 N 517.335 0.585699 1.46312 0
M  V30 5345 C 518.282 -0.145835 2.30339 0
M  V30 5346 C 519.252 -0.881215 1.40797 0
M  V30 5347 O 520.437 -0.871293 1.69744 0
M  V30 5348 C 517.577 -1.15161 3.25318 0
M  V30 5349 C 516.69 -0.419367 4.2996 0
M  V30 5350 C 515.825 -1.41293 5.12064 0
M  V30 5351 C 514.864 -0.667261 6.08452 0
M  V30 5352 N 514.001 -1.60903 6.83414 0
M  V30 5353 H 518.841 0.576755 2.92365 0
M  V30 5354 H 516.378 0.296237 1.44086 0
M  V30 5355 H 518.336 -1.74763 3.78832 0
M  V30 5356 H 516.966 -1.84188 2.65094 0
M  V30 5357 H 516.018 0.291751 3.7928 0
M  V30 5358 H 517.33 0.163433 4.98532 0
M  V30 5359 H 516.484 -2.08167 5.6987 0
M  V30 5360 H 515.223 -2.02966 4.43459 0
M  V30 5361 H 514.228 0.0152356 5.49798 0
M  V30 5362 H 515.453 -0.0558817 6.79077 0
M  V30 5363 H 513.399 -2.21381 6.17516 0
M  V30 5364 H 513.316 -1.07911 7.48259 0
M  V30 5365 H 514.584 -2.26802 7.45775 0
M  V30 5366 N 518.813 -1.54241 0.323641 0
M  V30 5367 C 520.062 -1.9975 -0.279806 0
M  V30 5368 C 520.375 -1.2156 -1.5324 0
M  V30 5369 O 521.581 -1.57447 -2.21185 0
M  V30 5370 C 520.037 -3.55686 -0.549115 0
M  V30 5371 C 519.645 -4.4271 0.686432 0
M  V30 5372 C 521.389 -4.09663 -1.11251 0
M  V30 5373 C 519.296 -5.90119 0.389022 0
M  V30 5374 H 518.226 -0.746177 -0.10833 0
M  V30 5375 H 520.877 -1.78248 0.435877 0
M  V30 5376 H 519.259 -3.73176 -1.32499 0
M  V30 5377 H 520.433 -4.36996 1.46188 0
M  V30 5378 H 518.748 -3.99623 1.17005 0
M  V30 5379 H 521.345 -5.17386 -1.34965 0
M  V30 5380 H 521.688 -3.61651 -2.06191 0
M  V30 5381 H 522.221 -3.95806 -0.39782 0
M  V30 5382 H 518.96 -6.42326 1.30759 0
M  V30 5383 H 518.48 -5.98785 -0.348722 0
M  V30 5384 H 520.159 -6.47 -0.0011164 0
M  V30 5385 N 520.291 -0.0518155 -1.57515 0
M  V30 5386 C 521.537 0.622745 -1.93002 0
M  V30 5387 C 521.87 1.70456 -0.930499 0
M  V30 5388 O 521.145 1.94452 0.0434086 0
M  V30 5389 C 521.428 1.21824 -3.38867 0
M  V30 5390 C 521.281 0.144434 -4.49568 0
M  V30 5391 C 522.6 2.12968 -3.8514 0
M  V30 5392 H 519.719 0.22491 -0.701844 0
M  V30 5393 H 522.361 -0.113711 -1.89659 0
M  V30 5394 H 520.511 1.8459 -3.41846 0
M  V30 5395 H 522.183 -0.48753 -4.58717 0
M  V30 5396 H 520.426 -0.527424 -4.30582 0
M  V30 5397 H 521.097 0.601127 -5.48717 0
M  V30 5398 H 523.573 1.60163 -3.8404 0
M  V30 5399 H 522.449 2.51578 -4.87852 0
M  V30 5400 H 522.71 3.03004 -3.21934 0
M  V30 5401 N 521.769 1.56035 0.221574 0
M  V30 5402 C 523.046 1.69837 0.970301 0
M  V30 5403 C 523.426 0.599065 2.02421 0
M  V30 5404 O 522.774 -0.393929 2.25079 0
M  V30 5405 C 522.984 3.11148 1.58076 0
M  V30 5406 C 524.332 3.70555 2.07302 0
M  V30 5407 O 525.356 3.14109 1.6797 0
M  V30 5408 O 524.215 4.69562 2.79596 0
M  V30 5409 H 521.309 0.691727 0.453257 0
M  V30 5410 H 523.855 1.68353 0.213358 0
M  V30 5411 H 522.627 3.82617 0.819759 0
M  V30 5412 H 522.25 3.16749 2.40324 0
M  V30 5413 N 523.247 -0.488276 1.49845 0
M  V30 5414 C 524.177 -1.59675 1.70371 0
M  V30 5415 C 525.158 -1.60878 0.552473 0
M  V30 5416 O 526.343 -1.77417 0.78973 0
M  V30 5417 C 523.473 -2.98098 1.782 0
M  V30 5418 C 522.427 -3.11761 2.93239 0
M  V30 5419 C 521.753 -4.51661 2.86193 0
M  V30 5420 C 523.053 -2.90589 4.33999 0
M  V30 5421 H 524.747 -1.42752 2.63177 0
M  V30 5422 H 522.293 -0.685317 1.26647 0
M  V30 5423 H 524.246 -3.75555 1.91144 0
M  V30 5424 H 522.97 -3.16138 0.820018 0
M  V30 5425 H 521.629 -2.36732 2.79917 0
M  V30 5426 H 521.277 -4.66595 1.87877 0
M  V30 5427 H 520.977 -4.61742 3.63412 0
M  V30 5428 H 522.501 -5.31162 3.01163 0
M  V30 5429 H 523.915 -3.57807 4.47936 0
M  V30 5430 H 522.312 -3.1213 5.12538 0
M  V30 5431 H 523.382 -1.86595 4.4756 0
M  V30 5432 N 524.725 -1.39134 -0.740242 0
M  V30 5433 C 526.136 -1.32208 -1.31825 0
M  V30 5434 C 526.487 0.0159919 -1.96193 0
M  V30 5435 O 525.612 0.918111 -1.95958 0
M  V30 5436 C 526.207 -2.39436 -2.39699 0
M  V30 5437 C 524.766 -2.36048 -2.93187 0
M  V30 5438 C 523.913 -2.21599 -1.66701 0
M  V30 5439 H 526.864 -1.49298 -0.538133 0
M  V30 5440 H 526.885 -2.05922 -3.19963 0
M  V30 5441 H 526.397 -3.36811 -1.92821 0
M  V30 5442 H 524.498 -1.42295 -3.44359 0
M  V30 5443 H 524.611 -3.30704 -3.46658 0
M  V30 5444 H 522.975 -1.68681 -1.90837 0
M  V30 5445 H 523.758 -3.20936 -1.21882 0
M  V30 5446 N 526.204 0.969867 -1.24223 0
M  V30 5447 C 527.481 1.68774 -0.988664 0
M  V30 5448 C 527.861 2.05342 0.489673 0
M  V30 5449 O 527.209 1.75486 1.46345 0
M  V30 5450 C 527.419 2.92135 -1.90941 0
M  V30 5451 C 528.767 3.64422 -2.17903 0
M  V30 5452 O 529.791 3.02188 -1.88576 0
M  V30 5453 O 528.65 4.76446 -2.67697 0
M  V30 5454 H 525.744 0.737736 -0.37373 0
M  V30 5455 H 528.29 1.02415 -1.35312 0
M  V30 5456 H 527.062 2.61788 -2.90831 0
M  V30 5457 H 526.685 3.66228 -1.54798 0
M  V30 5458 N 527.682 1.05563 1.17022 0
M  V30 5459 C 528.632 0.630007 2.19123 0
M  V30 5460 C 529.616 -0.335472 1.57364 0
M  V30 5461 O 530.808 -0.1521 1.76345 0
M  V30 5462 C 527.937 0.0101676 3.43298 0
M  V30 5463 C 527.023 0.999698 4.12149 0
M  V30 5464 N 527.414 2.17251 4.56766 0
M  V30 5465 C 525.712 0.829 4.38228 0
M  V30 5466 C 526.413 2.79883 5.09942 0
M  V30 5467 N 525.389 2.07656 5.02374 0
M  V30 5468 H 529.191 1.52353 2.51328 0
M  V30 5469 H 526.705 0.926288 1.33393 0
M  V30 5470 H 528.702 -0.312541 4.15727 0
M  V30 5471 H 527.362 -0.878707 3.12584 0
M  V30 5472 H 528.373 2.55067 4.50734 0
M  V30 5473 H 525.05 -0.00850974 4.17499 0
M  V30 5474 H 526.44 3.79362 5.54558 0
M  V30 5475 N 529.16 -1.33526 0.837174 0
M  V30 5476 C 530.409 -1.97098 0.428387 0
M  V30 5477 C 530.722 -1.67062 -1.01734 0
M  V30 5478 O 531.928 -2.24235 -1.53072 0
M  V30 5479 C 530.384 -3.52725 0.715075 0
M  V30 5480 C 529.992 -3.9164 2.17537 0
M  V30 5481 C 531.736 -4.22857 0.373154 0
M  V30 5482 C 529.643 -5.40237 2.40619 0
M  V30 5483 H 528.573 -0.737589 0.156455 0
M  V30 5484 H 531.224 -1.52169 1.02552 0
M  V30 5485 H 529.606 -3.95971 0.0475904 0
M  V30 5486 H 530.78 -3.59456 2.88319 0
M  V30 5487 H 529.095 -3.34485 2.4801 0
M  V30 5488 H 531.692 -5.32133 0.523264 0
M  V30 5489 H 532.035 -4.10647 -0.683708 0
M  V30 5490 H 532.568 -3.85135 0.995801 0
M  V30 5491 H 529.307 -5.57449 3.44864 0
M  V30 5492 H 528.827 -5.73887 1.74396 0
M  V30 5493 H 530.506 -6.07102 2.23688 0
M  V30 5494 N 530.638 -0.59345 -1.46 0
M  V30 5495 C 531.548 0.135817 -2.34207 0
M  V30 5496 C 532.564 0.875008 -1.50398 0
M  V30 5497 O 533.74 0.835778 -1.83239 0
M  V30 5498 C 530.805 1.12977 -3.27776 0
M  V30 5499 C 529.866 0.394081 -4.27487 0
M  V30 5500 C 529.099 1.34068 -5.16586 0
M  V30 5501 O 529.322 2.5778 -5.08828 0
M  V30 5502 O 528.256 0.845426 -5.95933 0
M  V30 5503 H 532.082 -0.588691 -2.9794 0
M  V30 5504 H 529.667 -0.353784 -1.45151 0
M  V30 5505 H 531.549 1.70261 -3.85473 0
M  V30 5506 H 530.224 1.83556 -2.66625 0
M  V30 5507 H 529.131 -0.220869 -3.73447 0
M  V30 5508 H 530.464 -0.270939 -4.91454 0
M  V30 5509 N 532.116 1.54067 -0.331816 0
M  V30 5510 C 533.362 2.01012 0.268667 0
M  V30 5511 C 533.695 1.2195 1.51136 0
M  V30 5512 O 532.97 0.303972 1.9211 0
M  V30 5513 C 533.253 3.55158 0.59456 0
M  V30 5514 C 533.106 4.4494 -0.659409 0
M  V30 5515 C 534.425 4.16939 1.4089 0
M  V30 5516 H 531.544 0.730698 0.0961756 0
M  V30 5517 H 534.186 1.84593 -0.450031 0
M  V30 5518 H 532.336 3.6928 1.20685 0
M  V30 5519 H 534.008 4.42675 -1.29756 0
M  V30 5520 H 532.251 4.1428 -1.28665 0
M  V30 5521 H 532.922 5.50643 -0.386804 0
M  V30 5522 H 535.398 4.06443 0.891272 0
M  V30 5523 H 534.274 5.24889 1.60569 0
M  V30 5524 H 534.535 3.70798 2.40752 0
M  V30 5525 N 533.594 0.0601682 1.57485 0
M  V30 5526 C 534.542 -0.928899 2.13247 0
M  V30 5527 C 535.536 -1.31616 1.06647 0
M  V30 5528 O 536.742 -1.29476 1.25043 0
M  V30 5529 H 533.117 -0.317455 0.681708 0
M  V30 5530 H 535.088 -0.433566 2.95233 0
M  V30 5531 C 533.837 -2.19121 2.69965 0
M  V30 5532 H 533.16 -1.90204 3.51657 0
M  V30 5533 H 534.6 -2.86465 3.12592 0
M  V30 5534 C 533.059 -2.94195 1.64168 0
M  V30 5535 O 533.589 -3.87468 1.05978 0
M  V30 5536 N 531.795 -2.57089 1.35476 0
M  V30 5537 H 531.342 -1.81314 1.82984 0
M  V30 5538 H 531.3 -3.07624 0.649196 0
M  V30 5539 N 535.072 -1.5615 -0.213296 0
M  V30 5540 C 536.297 -1.83986 -0.957282 0
M  V30 5541 C 536.722 -0.641526 -1.76822 0
M  V30 5542 O 536.08 0.409722 -1.7661 0
M  V30 5543 C 536.128 -3.09889 -1.84393 0
M  V30 5544 O 535.232 -2.89163 -2.94038 0
M  V30 5545 H 534.573 -0.606357 -0.270605 0
M  V30 5546 H 537.103 -2.03369 -0.224111 0
M  V30 5547 H 537.113 -3.40209 -2.25215 0
M  V30 5548 H 535.788 -3.96735 -1.24795 0
M  V30 5549 H 534.365 -2.70097 -2.57103 0
M  V30 5550 N 536.55 0.480323 -1.50102 0
M  V30 5551 C 537.798 1.23063 -1.60312 0
M  V30 5552 C 538.119 1.92659 -0.301226 0
M  V30 5553 O 537.389 1.83691 0.680753 0
M  V30 5554 H 535.969 0.457231 -0.590719 0
M  V30 5555 H 538.631 0.554893 -1.86834 0
M  V30 5556 H 537.727 1.9835 -2.40964 0
M  V30 5557 N 538.028 1.39524 0.732853 0
M  V30 5558 C 538.975 1.38416 1.84688 0
M  V30 5559 C 539.945 0.243539 1.64305 0
M  V30 5560 O 541.13 0.438979 1.85681 0
M  V30 5561 C 538.27 1.23555 3.22224 0
M  V30 5562 C 537.383 2.47179 3.54298 0
M  V30 5563 C 536.518 2.2489 4.81246 0
M  V30 5564 C 535.557 3.44178 5.0617 0
M  V30 5565 N 534.694 3.21192 6.24323 0
M  V30 5566 H 539.534 2.33645 1.84971 0
M  V30 5567 H 537.071 1.16059 0.903804 0
M  V30 5568 H 539.029 1.12949 4.0162 0
M  V30 5569 H 537.659 0.31954 3.21215 0
M  V30 5570 H 536.711 2.68379 2.69587 0
M  V30 5571 H 538.023 3.36022 3.68633 0
M  V30 5572 H 537.177 2.11538 5.68627 0
M  V30 5573 H 535.916 1.33443 4.69089 0
M  V30 5574 H 534.921 3.58025 4.17251 0
M  V30 5575 H 536.146 4.36528 5.20212 0
M  V30 5576 H 534.092 2.32413 6.1345 0
M  V30 5577 H 534.009 4.03594 6.39256 0
M  V30 5578 H 535.277 3.1154 7.14537 0
M  V30 5579 N 539.506 -0.963266 1.24736 0
M  V30 5580 C 540.753 -1.7068 1.0897 0
M  V30 5581 C 541.081 -1.90934 -0.370751 0
M  V30 5582 O 540.336 -1.47155 -1.29011 0
M  V30 5583 C 540.635 -3.09944 1.7796 0
M  V30 5584 C 540.301 -3.09518 3.27887 0
M  V30 5585 C 538.963 -3.09109 3.68789 0
M  V30 5586 C 541.315 -3.03509 4.23712 0
M  V30 5587 C 538.643 -3.00429 5.03944 0
M  V30 5588 C 540.995 -2.96371 5.5888 0
M  V30 5589 C 539.659 -2.94293 5.99123 0
M  V30 5590 H 538.929 -0.624564 0.398749 0
M  V30 5591 H 541.576 -1.12603 1.54896 0
M  V30 5592 H 539.881 -3.71513 1.2444 0
M  V30 5593 H 541.578 -3.66278 1.63222 0
M  V30 5594 H 538.168 -3.10603 2.95337 0
M  V30 5595 H 542.352 -3.0295 3.93109 0
M  V30 5596 H 537.608 -2.97183 5.34314 0
M  V30 5597 H 541.782 -2.90681 6.32833 0
M  V30 5598 H 539.409 -2.87322 7.03811 0
M  V30 5599 N 540.985 -1.06182 -1.16461 0
M  V30 5600 C 541.933 -0.665716 -2.2287 0
M  V30 5601 C 542.927 0.317822 -1.66392 0
M  V30 5602 O 544.133 0.182807 -1.79069 0
M  V30 5603 H 540.508 -0.197148 -0.725697 0
M  V30 5604 H 542.479 -1.57307 -2.53569 0
M  V30 5605 C 541.228 -0.0669803 -3.47635 0
M  V30 5606 H 540.551 -0.814899 -3.91407 0
M  V30 5607 H 541.991 0.172669 -4.23648 0
M  V30 5608 C 540.45 1.18913 -3.15216 0
M  V30 5609 O 540.98 2.27723 -3.30916 0
M  V30 5610 N 539.186 1.09066 -2.69357 0
M  V30 5611 H 538.733 0.20518 -2.56782 0
M  V30 5612 H 538.691 1.93195 -2.48039 0
M  V30 5613 N 542.463 1.3308 -0.844243 0
M  V30 5614 C 543.874 1.7992 -0.498566 0
M  V30 5615 C 544.225 1.69808 0.982834 0
M  V30 5616 O 543.35 1.25051 1.7661 0
M  V30 5617 C 543.945 3.26677 -0.898204 0
M  V30 5618 C 542.504 3.71513 -0.604583 0
M  V30 5619 C 541.651 2.54393 -1.10362 0
M  V30 5620 H 544.602 1.20526 -1.03244 0
M  V30 5621 H 544.623 3.79918 -0.21039 0
M  V30 5622 H 544.135 3.34004 -1.97643 0
M  V30 5623 H 542.236 3.69708 0.46335 0
M  V30 5624 H 542.349 4.64755 -1.16358 0
M  V30 5625 H 540.713 2.49246 -0.524273 0
M  V30 5626 H 541.496 2.6448 -2.18873 0
M  V30 5627 N 543.941 0.601185 1.45683 0
M  V30 5628 C 545.19 0.0914953 2.01492 0
M  V30 5629 C 545.503 -1.28331 1.47616 0
M  V30 5630 O 546.709 -1.88537 1.95362 0
M  V30 5631 C 545.165 0.11291 3.59723 0
M  V30 5632 C 544.773 1.48717 4.22596 0
M  V30 5633 C 546.517 -0.341871 4.23121 0
M  V30 5634 C 544.424 1.46531 5.7296 0
M  V30 5635 H 543.354 0.0304365 0.753385 0
M  V30 5636 H 546.005 0.755568 1.67223 0
M  V30 5637 H 544.387 -0.617692 3.91153 0
M  V30 5638 H 545.561 2.23897 4.02749 0
M  V30 5639 H 543.876 1.88351 3.71366 0
M  V30 5640 H 546.473 -0.377304 5.33367 0
M  V30 5641 H 546.816 -1.36325 3.93346 0
M  V30 5642 H 547.349 0.335256 3.96385 0
M  V30 5643 H 544.088 2.46408 6.07423 0
M  V30 5644 H 543.608 0.755997 5.95017 0
M  V30 5645 H 545.287 1.18618 6.36034 0
M  V30 5646 N 545.419 -1.53889 0.339982 0
M  V30 5647 C 546.659 -2.02765 -0.258011 0
M  V30 5648 C 547.023 -1.22249 -1.48051 0
M  V30 5649 O 548.224 -1.61007 -2.15245 0
M  V30 5650 C 546.495 -3.5286 -0.567872 0
M  V30 5651 S 548.054 -4.23647 -1.14318 0
M  V30 5652 H 544.872 -0.706814 -0.0770389 0
M  V30 5653 H 547.474 -1.89594 0.476917 0
M  V30 5654 H 546.178 -4.09073 0.329745 0
M  V30 5655 H 545.709 -3.70144 -1.33256 0
M  V30 5656 H 547.724 -4.32676 -2.42911 0
M  V30 5657 N 546.897 -0.0685191 -1.57451 0
M  V30 5658 C 547.844 0.899861 -2.12535 0
M  V30 5659 C 548.814 1.29749 -1.03703 0
M  V30 5660 O 549.999 1.38392 -1.31348 0
M  V30 5661 C 547.139 2.16328 -2.6888 0
M  V30 5662 C 546.252 1.81857 -3.91857 0
M  V30 5663 C 545.387 3.02786 -4.36457 0
M  V30 5664 C 544.426 2.64317 -5.5209 0
M  V30 5665 N 543.563 3.77994 -5.91663 0
M  V30 5666 H 548.403 0.423243 -2.94979 0
M  V30 5667 H 545.94 0.197268 -1.45771 0
M  V30 5668 H 547.898 2.90281 -2.99655 0
M  V30 5669 H 546.528 2.61536 -1.89206 0
M  V30 5670 H 545.58 0.979808 -3.67565 0
M  V30 5671 H 546.892 1.49553 -4.75852 0
M  V30 5672 H 546.046 3.85021 -4.68875 0
M  V30 5673 H 544.785 3.38281 -3.51308 0
M  V30 5674 H 543.79 1.80503 -5.19325 0
M  V30 5675 H 545.015 2.29995 -6.38967 0
M  V30 5676 H 542.961 4.13258 -5.09464 0
M  V30 5677 H 542.878 3.49447 -6.7039 0
M  V30 5678 H 544.146 4.60818 -6.28703 0
M  V30 5679 N 548.375 1.56261 0.205012 0
M  V30 5680 C 549.338 1.92908 1.23771 0
M  V30 5681 C 550.338 0.809208 1.38955 0
M  V30 5682 O 551.528 1.07676 1.36936 0
M  V30 5683 C 548.66 2.19442 2.60879 0
M  V30 5684 H 549.853 2.85287 0.924728 0
M  V30 5685 H 547.406 1.49798 0.446125 0
M  V30 5686 H 548.141 1.29668 2.97248 0
M  V30 5687 H 547.926 3.0104 2.51232 0
M  V30 5688 H 549.416 2.48833 3.35368 0
M  V30 5689 N 549.853 -0.472356 1.50355 0
M  V30 5690 C 551.078 -1.25251 1.65309 0
M  V30 5691 C 551.503 -1.85081 0.335643 0
M  V30 5692 O 550.861 -1.67227 -0.700335 0
M  V30 5693 C 550.909 -2.3379 2.74544 0
M  V30 5694 O 550.013 -3.38401 2.35709 0
M  V30 5695 H 549.354 -0.368539 0.552336 0
M  V30 5696 H 551.884 -0.562271 1.96722 0
M  V30 5697 H 551.894 -2.79121 2.97583 0
M  V30 5698 H 550.569 -1.89614 3.70161 0
M  V30 5699 H 549.146 -2.9879 2.23112 0
M  V30 5700 N 551.331 -1.39911 -0.725443 0
M  V30 5701 C 552.579 -1.37382 -1.48224 0
M  V30 5702 C 552.9 0.0264107 -1.94982 0
M  V30 5703 O 552.17 0.979408 -1.6966 0
M  V30 5704 H 550.75 -0.505596 -0.549892 0
M  V30 5705 H 553.412 -1.7487 -0.860608 0
M  V30 5706 H 552.508 -2.04254 -2.3598 0
M  V30 5707 N 552.809 0.956637 -1.25245 0
M  V30 5708 C 554.055 1.70413 -1.11044 0
M  V30 5709 C 554.41 1.89275 0.345377 0
M  V30 5710 O 553.703 1.45116 1.25107 0
M  V30 5711 C 553.897 3.08996 -1.79601 0
M  V30 5712 C 553.726 3.03654 -3.317 0
M  V30 5713 C 552.496 3.07521 -4.00947 0
M  V30 5714 C 554.694 2.84975 -4.28128 0
M  V30 5715 N 552.676 2.92316 -5.39838 0
M  V30 5716 C 554.047 2.7818 -5.5409 0
M  V30 5717 C 556.102 2.6964 -4.18568 0
M  V30 5718 C 554.805 2.57616 -6.71585 0
M  V30 5719 C 556.831 2.50447 -5.35752 0
M  V30 5720 C 556.193 2.4437 -6.60653 0
M  V30 5721 H 552.292 0.631642 -0.461035 0
M  V30 5722 H 554.876 1.13331 -1.58317 0
M  V30 5723 H 553.047 3.64248 -1.34826 0
M  V30 5724 H 554.779 3.72515 -1.58161 0
M  V30 5725 H 551.534 3.16635 -3.52192 0
M  V30 5726 H 551.958 2.87923 -6.12723 0
M  V30 5727 H 556.6 2.73113 -3.22752 0
M  V30 5728 H 554.318 2.52885 -7.67512 0
M  V30 5729 H 557.904 2.39509 -5.30214 0
M  V30 5730 H 556.784 2.29712 -7.49801 0
M  V30 5731 N 554.287 1.06798 1.15896 0
M  V30 5732 C 555.698 0.811355 1.68149 0
M  V30 5733 C 556.049 -0.664339 1.8461 0
M  V30 5734 O 555.174 -1.51485 1.54535 0
M  V30 5735 C 555.769 1.46624 3.05429 0
M  V30 5736 C 554.328 1.25726 3.54781 0
M  V30 5737 C 553.475 1.53949 2.3064 0
M  V30 5738 H 556.426 1.23078 1.00187 0
M  V30 5739 H 556.447 0.88437 3.7008 0
M  V30 5740 H 555.959 2.54025 2.93416 0
M  V30 5741 H 554.06 0.20322 3.72045 0
M  V30 5742 H 554.173 1.97354 4.36564 0
M  V30 5743 H 552.537 0.96025 2.35905 0
M  V30 5744 H 553.32 2.6252 2.2122 0
M  V30 5745 N 555.766 -1.3263 0.851289 0
M  V30 5746 C 556.696 -2.31449 0.308771 0
M  V30 5747 C 557.677 -1.59531 -0.590255 0
M  V30 5748 O 558.862 -1.87351 -0.511205 0
M  V30 5749 C 555.992 -3.43586 -0.506548 0
M  V30 5750 C 554.946 -4.26963 0.297753 0
M  V30 5751 C 554.272 -5.30831 -0.642094 0
M  V30 5752 C 555.572 -4.99643 1.52166 0
M  V30 5753 H 557.266 -2.77074 1.13447 0
M  V30 5754 H 554.812 -1.33207 0.546971 0
M  V30 5755 H 556.765 -4.11754 -0.896474 0
M  V30 5756 H 555.489 -2.96681 -1.36558 0
M  V30 5757 H 554.148 -3.60437 0.669391 0
M  V30 5758 H 553.796 -4.8018 -1.49788 0
M  V30 5759 H 553.496 -5.87501 -0.107968 0
M  V30 5760 H 555.02 -6.01862 -1.02927 0
M  V30 5761 H 556.434 -5.6051 1.20421 0
M  V30 5762 H 554.831 -5.66022 1.99347 0
M  V30 5763 H 555.901 -4.27701 2.28474 0
M  V30 5764 N 557.244 -0.608902 -1.45362 0
M  V30 5765 C 558.655 -0.189511 -1.85736 0
M  V30 5766 C 559.006 1.2539 -1.50903 0
M  V30 5767 O 558.131 1.95094 -0.936347 0
M  V30 5768 C 558.726 -0.33716 -3.37118 0
M  V30 5769 C 557.285 0.0275487 -3.7639 0
M  V30 5770 C 556.432 -0.660983 -2.69307 0
M  V30 5771 H 559.383 -0.815499 -1.36144 0
M  V30 5772 H 559.404 0.430257 -3.7806 0
M  V30 5773 H 558.916 -1.38779 -3.62439 0
M  V30 5774 H 557.017 1.0773 -3.56686 0
M  V30 5775 H 557.13 -0.367018 -4.77692 0
M  V30 5776 H 555.494 -0.0984958 -2.54509 0
M  V30 5777 H 556.277 -1.71377 -2.97464 0
M  V30 5778 N 558.722 1.53707 -0.348139 0
M  V30 5779 C 559.95 2.05406 0.248224 0
M  V30 5780 C 560.365 1.22282 1.43849 0
M  V30 5781 O 559.722 0.259244 1.80649 0
M  V30 5782 C 559.773 3.55446 0.658793 0
M  V30 5783 O 559.494 4.35417 -0.484149 0
M  V30 5784 C 560.995 4.23335 1.31539 0
M  V30 5785 H 558.215 0.669344 0.0471075 0
M  V30 5786 H 560.759 1.98257 -0.501456 0
M  V30 5787 H 558.914 3.62803 1.35841 0
M  V30 5788 H 559.328 5.24268 -0.155949 0
M  V30 5789 H 560.802 5.29692 1.55338 0
M  V30 5790 H 561.279 3.75967 2.27036 0
M  V30 5791 H 561.885 4.20184 0.657683 0
M  V30 5792 N 560.2 0.0768682 1.57412 0
M  V30 5793 C 561.148 -0.906229 2.1422 0
M  V30 5794 C 562.142 -1.30477 1.08037 0
M  V30 5795 O 563.348 -1.28143 1.2641 0
M  V30 5796 H 559.723 -0.310207 0.685037 0
M  V30 5797 H 561.694 -0.402228 2.95677 0
M  V30 5798 C 560.443 -2.16245 2.72274 0
M  V30 5799 H 559.766 -1.86463 3.53655 0
M  V30 5800 H 561.206 -2.83134 3.15613 0
M  V30 5801 C 559.665 -2.92437 1.67279 0
M  V30 5802 O 560.195 -3.86322 1.10081 0
M  V30 5803 N 558.401 -2.55637 1.38195 0
M  V30 5804 H 557.948 -1.79363 1.84897 0
M  V30 5805 H 557.906 -3.06919 0.681787 0
M  V30 5806 N 561.678 -1.56367 -0.196722 0
M  V30 5807 C 562.588 -1.97617 -1.2643 0
M  V30 5808 C 563.604 -0.883598 -1.49895 0
M  V30 5809 O 564.78 -1.18921 -1.62541 0
M  V30 5810 C 561.845 -2.30595 -2.58895 0
M  V30 5811 C 560.906 -3.53551 -2.43516 0
M  V30 5812 C 560.139 -3.84946 -3.69665 0
M  V30 5813 O 560.362 -3.17655 -4.73763 0
M  V30 5814 O 559.296 -4.78379 -3.65291 0
M  V30 5815 H 563.122 -2.88648 -0.944233 0
M  V30 5816 H 560.707 -1.43901 -0.401592 0
M  V30 5817 H 562.589 -2.52889 -3.37083 0
M  V30 5818 H 561.264 -1.42732 -2.90533 0
M  V30 5819 H 560.171 -3.36507 -1.63445 0
M  V30 5820 H 561.504 -4.41875 -2.16812 0
M  V30 5821 N 563.156 0.464375 -1.50603 0
M  V30 5822 C 564.066 1.58723 -1.72754 0
M  V30 5823 C 565.082 1.62925 -0.610844 0
M  V30 5824 O 566.258 1.8067 -0.889963 0
M  V30 5825 C 563.323 2.94897 -1.82309 0
M  V30 5826 C 562.384 3.0103 -3.06071 0
M  V30 5827 C 561.617 4.30708 -3.1516 0
M  V30 5828 O 561.84 5.2159 -2.30868 0
M  V30 5829 O 560.774 4.42571 -4.0794 0
M  V30 5830 H 564.6 1.42954 -2.67951 0
M  V30 5831 H 562.185 0.644579 -1.3478 0
M  V30 5832 H 564.067 3.75764 -1.90735 0
M  V30 5833 H 562.742 3.10851 -0.902967 0
M  V30 5834 H 561.649 2.19217 -3.03142 0
M  V30 5835 H 562.982 2.90014 -3.97684 0
M  V30 5836 N 564.634 1.40294 0.718013 0
M  V30 5837 C 565.567 1.34767 1.84155 0
M  V30 5838 C 566.545 0.218455 1.61126 0
M  V30 5839 O 567.729 0.401716 1.8417 0
M  V30 5840 C 564.856 1.09676 3.20451 0
M  V30 5841 C 563.902 2.25016 3.62312 0
M  V30 5842 S 564.735 3.87397 3.69707 0
M  V30 5843 C 565.891 3.64565 5.08766 0
M  V30 5844 H 566.124 2.29851 1.88562 0
M  V30 5845 H 563.657 1.2655 0.884555 0
M  V30 5846 H 565.615 0.95885 3.99144 0
M  V30 5847 H 564.276 0.162502 3.13679 0
M  V30 5848 H 563.469 2.03097 4.61268 0
M  V30 5849 H 563.071 2.35098 2.90869 0
M  V30 5850 H 565.363 3.22882 5.95612 0
M  V30 5851 H 566.306 4.63043 5.35721 0
M  V30 5852 H 566.714 2.98303 4.79245 0
M  V30 5853 N 566.112 -0.949982 1.2575 0
M  V30 5854 C 567.34 -1.72972 1.13527 0
M  V30 5855 C 567.755 -1.8623 -0.310453 0
M  V30 5856 O 567.112 -1.36336 -1.2132 0
M  V30 5857 C 567.163 -3.14108 1.78936 0
M  V30 5858 O 566.884 -3.01493 3.17858 0
M  V30 5859 C 568.385 -4.08338 1.72554 0
M  V30 5860 H 565.605 -0.541864 0.395758 0
M  V30 5861 H 568.149 -1.19151 1.66202 0
M  V30 5862 H 566.304 -3.64858 1.30221 0
M  V30 5863 H 566.718 -3.90559 3.50092 0
M  V30 5864 H 568.192 -5.04963 2.22973 0
M  V30 5865 H 568.669 -4.33742 0.690251 0
M  V30 5866 H 569.275 -3.63506 2.2078 0
M  V30 5867 N 567.59 -1.07411 -1.15328 0
M  V30 5868 C 568.52 -0.716472 -2.22236 0
M  V30 5869 C 569.501 0.296373 -1.67498 0
M  V30 5870 O 570.686 0.168989 -1.93463 0
M  V30 5871 C 567.816 -0.114142 -3.47112 0
M  V30 5872 C 566.77 -1.05421 -4.14814 0
M  V30 5873 C 566.096 -0.314604 -5.33774 0
M  V30 5874 C 567.396 -2.38808 -4.64508 0
M  V30 5875 H 569.09 -1.61029 -2.52408 0
M  V30 5876 H 566.636 -0.775702 -1.21321 0
M  V30 5877 H 568.589 0.148001 -4.2114 0
M  V30 5878 H 567.313 0.814755 -3.16274 0
M  V30 5879 H 565.972 -1.30128 -3.42728 0
M  V30 5880 H 565.62 0.617772 -4.99192 0
M  V30 5881 H 565.32 -0.941209 -5.80013 0
M  V30 5882 H 566.844 -0.0602747 -6.1057 0
M  V30 5883 H 568.258 -2.18424 -5.3006 0
M  V30 5884 H 566.655 -2.97069 -5.21412 0
M  V30 5885 H 567.725 -3.01067 -3.80114 0
M  V30 5886 N 569.068 1.32177 -0.85831 0
M  V30 5887 C 570.314 1.97417 -0.46417 0
M  V30 5888 C 570.647 1.67746 0.978514 0
M  V30 5889 O 569.922 0.967654 1.68721 0
M  V30 5890 C 570.205 3.53069 -0.708094 0
M  V30 5891 C 570.058 3.92357 -2.19946 0
M  V30 5892 C 571.377 4.39783 -0.166881 0
M  V30 5893 H 568.496 0.717097 -0.17012 0
M  V30 5894 H 571.138 1.56499 -1.07741 0
M  V30 5895 H 569.288 3.88054 -0.186128 0
M  V30 5896 H 570.96 3.67533 -2.78779 0
M  V30 5897 H 569.203 3.41384 -2.67656 0
M  V30 5898 H 569.874 5.00841 -2.32082 0
M  V30 5899 H 572.35 4.11556 -0.613285 0
M  V30 5900 H 571.226 5.47671 -0.367093 0
M  V30 5901 H 571.487 4.32196 0.930559 0
M  V30 5902 N 570.547 0.616602 1.45037 0
M  V30 5903 C 571.494 -0.0969439 2.30596 0
M  V30 5904 C 572.464 -0.851151 1.42635 0
M  V30 5905 O 573.649 -0.835092 1.71554 0
M  V30 5906 C 570.789 -1.08234 3.27688 0
M  V30 5907 C 569.902 -0.328072 4.30752 0
M  V30 5908 C 569.037 -1.30399 5.14946 0
M  V30 5909 C 568.076 -0.538049 6.09731 0
M  V30 5910 N 567.213 -1.46371 6.86673 0
M  V30 5911 H 572.053 0.63864 2.91076 0
M  V30 5912 H 569.59 0.326733 1.43425 0
M  V30 5913 H 571.548 -1.66688 3.82454 0
M  V30 5914 H 570.178 -1.78523 2.68941 0
M  V30 5915 H 569.23 0.372136 3.78575 0
M  V30 5916 H 570.542 0.269142 4.98073 0
M  V30 5917 H 569.696 -1.96032 5.74157 0
M  V30 5918 H 568.435 -1.93514 4.47665 0
M  V30 5919 H 567.44 0.131852 5.49642 0
M  V30 5920 H 568.665 0.0881732 6.79043 0
M  V30 5921 H 566.611 -2.08233 6.22073 0
M  V30 5922 H 566.528 -0.920152 7.50379 0
M  V30 5923 H 567.796 -2.10932 7.50418 0
M  V30 5924 N 572.025 -1.5352 0.356285 0
M  V30 5925 C 573.436 -1.86282 -0.12492 0
M  V30 5926 C 573.787 -1.27717 -1.48939 0
M  V30 5927 O 572.912 -0.595614 -2.08042 0
M  V30 5928 C 573.507 -3.37995 -0.23345 0
M  V30 5929 C 572.066 -3.70588 -0.658899 0
M  V30 5930 C 571.213 -2.76581 0.199596 0
M  V30 5931 H 574.164 -1.47901 0.575423 0
M  V30 5932 H 574.185 -3.65475 -1.0587 0
M  V30 5933 H 573.697 -3.8059 0.759776 0
M  V30 5934 H 571.798 -3.33544 -1.66069 0
M  V30 5935 H 571.911 -4.77076 -0.439957 0
M  V30 5936 H 570.275 -2.52552 -0.330076 0
M  V30 5937 H 571.058 -3.22008 1.19019 0
M  V30 5938 N 573.503 -0.0852151 -1.57369 0
M  V30 5939 C 574.78 0.622534 -1.85429 0
M  V30 5940 C 575.16 1.86962 -0.980229 0
M  V30 5941 O 574.508 2.28445 -0.0500219 0
M  V30 5942 C 574.718 0.947374 -3.35896 0
M  V30 5943 C 576.066 1.31509 -4.03721 0
M  V30 5944 O 577.09 1.03869 -3.40719 0
M  V30 5945 O 575.949 1.83231 -5.14868 0
M  V30 5946 H 573.043 0.310513 -0.766492 0
M  V30 5947 H 575.589 -0.117164 -1.69295 0
M  V30 5948 H 574.361 0.0622264 -3.91251 0
M  V30 5949 H 573.984 1.74338 -3.5734 0
M  V30 5950 N 574.981 1.5647 0.188427 0
M  V30 5951 C 576.229 1.80655 0.905986 0
M  V30 5952 C 576.55 0.659391 1.83513 0
M  V30 5953 O 575.82 -0.321868 1.93238 0
M  V30 5954 H 574.4 0.666391 0.337538 0
M  V30 5955 H 577.062 1.93949 0.192339 0
M  V30 5956 H 576.158 2.74066 1.49313 0
M  V30 5957 N 576.459 -0.456382 1.50847 0
M  V30 5958 C 577.687 -1.23026 1.66349 0
M  V30 5959 C 578.102 -1.85473 0.352868 0
M  V30 5960 O 577.459 -1.69885 -0.666739 0
M  V30 5961 C 577.51 -2.32827 2.76539 0
M  V30 5962 O 577.231 -1.72938 4.02522 0
M  V30 5963 C 578.732 -3.23448 3.03144 0
M  V30 5964 H 575.952 -0.371527 0.558756 0
M  V30 5965 H 578.496 -0.543082 1.97157 0
M  V30 5966 H 576.651 -2.97294 2.48384 0
M  V30 5967 H 577.065 -2.45357 4.63573 0
M  V30 5968 H 578.539 -3.96669 3.83872 0
M  V30 5969 H 579.016 -3.83094 2.14793 0
M  V30 5970 H 579.622 -2.64702 3.32886 0
M  V30 5971 N 577.937 -1.40673 -0.710563 0
M  V30 5972 C 579.183 -1.39428 -1.47267 0
M  V30 5973 C 579.516 0.00182129 -1.942 0
M  V30 5974 O 578.791 0.971387 -1.68506 0
M  V30 5975 C 579.074 -2.38812 -2.6952 0
M  V30 5976 C 578.927 -3.87467 -2.28449 0
M  V30 5977 C 580.246 -2.3566 -3.71689 0
M  V30 5978 H 577.365 -0.507768 -0.534173 0
M  V30 5979 H 580.007 -1.71843 -0.810547 0
M  V30 5980 H 578.157 -2.113 -3.26013 0
M  V30 5981 H 579.829 -4.25825 -1.77399 0
M  V30 5982 H 578.072 -4.03058 -1.60395 0
M  V30 5983 H 578.743 -4.5253 -3.16103 0
M  V30 5984 H 581.219 -2.6004 -3.24836 0
M  V30 5985 H 580.095 -3.07237 -4.54859 0
M  V30 5986 H 580.356 -1.36996 -4.20339 0
M  V30 5987 N 579.415 0.9433 -1.26252 0
M  V30 5988 C 580.345 2.05902 -1.10122 0
M  V30 5989 C 581.326 1.70099 -0.00700552 0
M  V30 5990 O 582.511 1.93377 -0.178641 0
M  V30 5991 C 579.641 3.39516 -0.731175 0
M  V30 5992 C 578.595 3.89372 -1.77688 0
M  V30 5993 C 577.921 5.19613 -1.26122 0
M  V30 5994 C 579.221 4.14489 -3.17799 0
M  V30 5995 H 580.915 2.19655 -2.03451 0
M  V30 5996 H 578.461 1.05548 -0.979576 0
M  V30 5997 H 580.414 4.17031 -0.605215 0
M  V30 5998 H 579.138 3.25733 0.23782 0
M  V30 5999 H 577.797 3.14036 -1.89148 0
M  V30 6000 H 577.445 5.02208 -0.282128 0
M  V30 6001 H 577.145 5.53939 -1.96023 0
M  V30 6002 H 578.669 5.99713 -1.14789 0
M  V30 6003 H 580.083 4.82625 -3.09428 0
M  V30 6004 H 578.48 4.60094 -3.85271 0
M  V30 6005 H 579.55 3.20347 -3.64014 0
M  V30 6006 N 580.893 1.08022 1.14757 0
M  V30 6007 C 581.843 0.676345 2.17737 0
M  V30 6008 C 582.827 -0.302018 1.5804 0
M  V30 6009 O 584.019 -0.11466 1.76628 0
M  V30 6010 C 581.148 0.082984 3.432 0
M  V30 6011 C 580.234 1.0869 4.09936 0
M  V30 6012 N 580.625 2.26891 4.52055 0
M  V30 6013 C 578.923 0.921768 4.36371 0
M  V30 6014 C 579.624 2.90636 5.0389 0
M  V30 6015 N 578.6 2.18266 4.97856 0
M  V30 6016 H 582.402 1.5765 2.4804 0
M  V30 6017 H 579.916 0.954374 1.31398 0
M  V30 6018 H 581.913 -0.224289 4.16296 0
M  V30 6019 H 580.573 -0.812206 3.14378 0
M  V30 6020 H 581.584 2.6457 4.45223 0
M  V30 6021 H 578.261 0.0800499 4.17423 0
M  V30 6022 H 579.651 3.9104 5.46386 0
M  V30 6023 N 582.371 -1.3172 0.865308 0
M  V30 6024 C 583.782 -1.79104 0.527126 0
M  V30 6025 C 584.133 -1.7135 -0.955695 0
M  V30 6026 O 583.258 -1.27845 -1.74598 0
M  V30 6027 C 583.853 -3.25207 0.950061 0
M  V30 6028 C 582.412 -3.70504 0.663611 0
M  V30 6029 C 581.559 -2.52605 1.14395 0
M  V30 6030 H 584.51 -1.18868 1.05148 0
M  V30 6031 H 584.531 -3.79535 0.270805 0
M  V30 6032 H 584.043 -3.30818 2.02931 0
M  V30 6033 H 582.144 -3.70398 -0.404474 0
M  V30 6034 H 582.257 -4.62845 1.23737 0
M  V30 6035 H 580.621 -2.4838 0.563859 0
M  V30 6036 H 581.404 -2.60964 2.23053 0
M  V30 6037 N 583.85 -0.624285 -1.44708 0
M  V30 6038 C 584.797 0.0847135 -2.30644 0
M  V30 6039 C 585.767 0.843575 -1.43084 0
M  V30 6040 O 586.952 0.825982 -1.71995 0
M  V30 6041 C 584.091 1.06495 -3.28257 0
M  V30 6042 C 583.205 0.305224 -4.3092 0
M  V30 6043 C 582.34 1.27667 -5.1563 0
M  V30 6044 C 581.379 0.505706 -6.10007 0
M  V30 6045 N 580.516 1.42727 -6.8744 0
M  V30 6046 H 585.356 -0.654068 -2.90733 0
M  V30 6047 H 582.893 -0.334334 -1.4325 0
M  V30 6048 H 584.851 1.64658 -3.83332 0
M  V30 6049 H 583.481 1.77094 -2.69884 0
M  V30 6050 H 582.533 -0.392207 -3.78373 0
M  V30 6051 H 583.845 -0.295553 -4.97924 0
M  V30 6052 H 582.999 1.92984 -5.75189 0
M  V30 6053 H 581.738 1.91137 -4.48685 0
M  V30 6054 H 580.743 -0.160999 -5.49564 0
M  V30 6055 H 581.968 -0.124183 -6.78986 0
M  V30 6056 H 579.913 2.04931 -6.23169 0
M  V30 6057 H 579.831 0.880345 -7.50857 0
M  V30 6058 H 581.099 2.0695 -7.51526 0
M  V30 6059 N 585.328 1.53329 -0.364422 0
M  V30 6060 C 586.605 1.93557 0.281962 0
M  V30 6061 C 586.985 1.29786 1.6649 0
M  V30 6062 O 586.333 0.456512 2.23893 0
M  V30 6063 C 586.543 3.47405 0.333331 0
M  V30 6064 C 587.891 4.20699 0.574231 0
M  V30 6065 O 588.915 3.53779 0.414588 0
M  V30 6066 O 587.774 5.39287 0.885002 0
M  V30 6067 H 584.868 0.809573 0.168881 0
M  V30 6068 H 587.414 1.64494 -0.417121 0
M  V30 6069 H 586.186 3.86091 -0.636326 0
M  V30 6070 H 585.809 3.82697 1.07836 0
M  V30 6071 N 586.806 0.0935595 1.57322 0
M  V30 6072 C 588.053 -0.570509 1.94297 0
M  V30 6073 C 588.381 -1.68286 0.97519 0
M  V30 6074 O 587.636 -1.95699 -0.00548655 0
M  V30 6075 C 587.935 -1.16692 3.37813 0
M  V30 6076 C 587.601 -0.178509 4.50547 0
M  V30 6077 C 586.263 0.0933475 4.81109 0
M  V30 6078 C 588.615 0.496472 5.1883 0
M  V30 6079 C 585.943 1.0469 5.77284 0
M  V30 6080 C 588.295 1.43849 6.16028 0
M  V30 6081 C 586.959 1.71859 6.44997 0
M  V30 6082 H 586.229 -0.208764 0.710984 0
M  V30 6083 H 588.876 0.169066 1.90752 0
M  V30 6084 H 587.181 -1.98271 3.37929 0
M  V30 6085 H 588.878 -1.6884 3.63722 0
M  V30 6086 H 585.468 -0.400584 4.26724 0
M  V30 6087 H 589.652 0.299584 4.95395 0
M  V30 6088 H 584.908 1.27094 5.98044 0
M  V30 6089 H 589.082 1.96734 6.68034 0
M  V30 6090 H 586.709 2.45906 7.19329 0
M  V30 6091 N 588.284 -1.56567 -0.180126 0
M  V30 6092 C 589.232 -1.96632 -1.24251 0
M  V30 6093 C 590.226 -0.853818 -1.46309 0
M  V30 6094 O 591.432 -1.0389 -1.46993 0
M  V30 6095 H 587.807 -0.625476 -0.417473 0
M  V30 6096 H 589.778 -2.85201 -0.877679 0
M  V30 6097 C 588.527 -2.33486 -2.57642 0
M  V30 6098 H 587.85 -3.18626 -2.4149 0
M  V30 6099 H 589.29 -2.65371 -3.30688 0
M  V30 6100 C 587.749 -1.17499 -3.15746 0
M  V30 6101 O 588.279 -0.457956 -3.99081 0
M  V30 6102 N 586.485 -0.94786 -2.74707 0
M  V30 6103 H 586.032 -1.53269 -2.07042 0
M  V30 6104 H 585.99 -0.173626 -3.1392 0
M  V30 6105 N 589.762 0.448376 -1.51087 0
M  V30 6106 C 590.712 1.54156 -1.67988 0
M  V30 6107 C 591.696 1.5178 -0.534015 0
M  V30 6108 O 592.888 1.58419 -0.789448 0
M  V30 6109 C 590.017 2.92437 -1.79822 0
M  V30 6110 C 589.103 2.99611 -3.00157 0
M  V30 6111 N 589.494 2.7655 -4.23502 0
M  V30 6112 C 587.792 3.30764 -2.99184 0
M  V30 6113 C 588.493 2.89281 -5.0467 0
M  V30 6114 N 587.469 3.20473 -4.39088 0
M  V30 6115 H 591.271 1.35061 -2.61028 0
M  V30 6116 H 588.785 0.655504 -1.48583 0
M  V30 6117 H 590.782 3.71068 -1.90037 0
M  V30 6118 H 589.442 3.1256 -0.879554 0
M  V30 6119 H 590.453 2.5169 -4.52628 0
M  V30 6120 H 587.13 3.56732 -2.16907 0
M  V30 6121 H 588.52 2.75499 -6.12821 0
M  V30 6122 N 591.24 1.41047 0.703093 0
M  V30 6123 C 592.468 1.4334 1.49202 0
M  V30 6124 C 592.883 0.0365596 1.88765 0
M  V30 6125 O 592.24 -0.942419 1.56284 0
M  V30 6126 C 592.291 2.33538 2.75939 0
M  V30 6127 O 592.012 3.67786 2.38045 0
M  V30 6128 C 593.513 2.44555 3.6974 0
M  V30 6129 H 590.733 0.488472 0.460039 0
M  V30 6130 H 593.277 1.85245 0.86629 0
M  V30 6131 H 591.432 1.94962 3.34766 0
M  V30 6132 H 591.846 4.15816 3.19683 0
M  V30 6133 H 593.32 3.11849 4.55471 0
M  V30 6134 H 593.797 1.47447 4.1371 0
M  V30 6135 H 594.403 2.83735 3.16819 0
M  V30 6136 N 592.718 -0.936591 1.26751 0
M  V30 6137 C 593.995 -1.66094 1.03306 0
M  V30 6138 C 594.375 -2.06568 -0.435058 0
M  V30 6139 O 593.723 -1.79305 -1.41641 0
M  V30 6140 C 593.933 -2.86969 1.98619 0
M  V30 6141 C 595.281 -3.58516 2.27489 0
M  V30 6142 O 596.305 -2.97082 1.96522 0
M  V30 6143 O 595.164 -4.69181 2.80235 0
M  V30 6144 H 592.258 -0.727568 0.393158 0
M  V30 6145 H 594.804 -0.987914 1.3798 0
M  V30 6146 H 593.576 -2.53985 2.9767 0
M  V30 6147 H 593.199 -3.61996 1.64454 0
M  V30 6148 N 594.196 -1.08629 -1.14182 0
M  V30 6149 C 595.146 -0.687882 -2.17376 0
M  V30 6150 C 596.13 0.293632 -1.58198 0
M  V30 6151 O 597.322 0.105292 -1.76687 0
M  V30 6152 C 594.451 -0.101184 -3.43151 0
M  V30 6153 C 593.537 -1.10862 -4.09354 0
M  V30 6154 N 593.928 -2.29285 -4.50846 0
M  V30 6155 C 592.226 -0.944897 -4.35876 0
M  V30 6156 C 592.927 -2.93305 -5.02342 0
M  V30 6157 N 591.903 -2.20903 -4.96692 0
M  V30 6158 H 595.705 -1.58963 -2.472 0
M  V30 6159 H 593.219 -0.961329 -1.3089 0
M  V30 6160 H 595.216 0.202209 -4.16409 0
M  V30 6161 H 593.876 0.795522 -3.14804 0
M  V30 6162 H 594.887 -2.66927 -4.43813 0
M  V30 6163 H 591.564 -0.102186 -4.17375 0
M  V30 6164 H 592.954 -3.93932 -5.44304 0
M  V30 6165 N 595.674 1.31259 -0.872281 0
M  V30 6166 C 596.921 1.96622 -0.484365 0
M  V30 6167 C 597.249 1.68939 0.963841 0
M  V30 6168 O 596.504 0.97974 1.6941 0
M  V30 6169 C 596.803 3.50659 -0.690889 0
M  V30 6170 C 596.469 3.98366 -2.11224 0
M  V30 6171 C 595.131 4.11104 -2.50094 0
M  V30 6172 C 597.483 4.23425 -3.0391 0
M  V30 6173 C 594.811 4.46254 -3.80887 0
M  V30 6174 C 597.163 4.60039 -4.3422 0
M  V30 6175 C 595.827 4.70984 -4.73001 0
M  V30 6176 H 595.097 0.71949 -0.177242 0
M  V30 6177 H 597.744 1.56353 -1.10571 0
M  V30 6178 H 596.049 3.91798 0.0135782 0
M  V30 6179 H 597.746 3.99284 -0.370534 0
M  V30 6180 H 594.336 3.88949 -1.80047 0
M  V30 6181 H 598.52 4.13075 -2.75104 0
M  V30 6182 H 593.776 4.52926 -4.10692 0
M  V30 6183 H 597.95 4.78381 -5.06088 0
M  V30 6184 H 595.577 4.97977 -5.7439 0
M  V30 6185 N 597.152 0.631951 1.44375 0
M  V30 6186 C 598.377 0.142146 2.06912 0
M  V30 6187 C 598.802 -1.17456 1.4692 0
M  V30 6188 O 598.16 -1.72074 0.570975 0
M  V30 6189 C 598.208 0.0417952 3.60576 0
M  V30 6190 O 597.312 -1.00194 4.00044 0
M  V30 6191 H 596.653 0.0851491 0.658518 0
M  V30 6192 H 599.183 0.868863 1.85235 0
M  V30 6193 H 599.193 -0.148517 4.0773 0
M  V30 6194 H 597.868 1.0031 4.03622 0
M  V30 6195 H 596.445 -0.786131 3.64519 0
M  V30 6196 N 598.631 -1.53133 0.372548 0
M  V30 6197 C 599.877 -2.01654 -0.215277 0
M  V30 6198 C 600.21 -1.25914 -1.47849 0
M  V30 6199 O 599.485 -0.3548 -1.91237 0
M  V30 6200 C 599.768 -3.56609 -0.500187 0
M  V30 6201 C 599.621 -4.43036 0.777145 0
M  V30 6202 C 600.94 -4.20528 -1.29786 0
M  V30 6203 H 598.059 -0.732991 -0.0767686 0
M  V30 6204 H 600.701 -1.83335 0.498814 0
M  V30 6205 H 598.851 -3.7235 -1.10852 0
M  V30 6206 H 600.523 -4.39079 1.41447 0
M  V30 6207 H 598.766 -4.10723 1.39604 0
M  V30 6208 H 599.437 -5.49424 0.532662 0
M  V30 6209 H 601.913 -4.08663 -0.783198 0
M  V30 6210 H 600.789 -5.28962 -1.46596 0
M  V30 6211 H 601.05 -3.77051 -2.30836 0
M  V30 6212 N 600.109 -0.101901 -1.5727 0
M  V30 6213 C 601.072 0.840129 -2.13247 0
M  V30 6214 C 602.072 1.20625 -1.06331 0
M  V30 6215 O 603.262 1.13456 -1.32186 0
M  V30 6216 C 600.394 2.13372 -2.65867 0
M  V30 6217 H 601.587 0.353945 -2.97804 0
M  V30 6218 H 599.14 0.147167 -1.55606 0
M  V30 6219 H 599.875 2.66461 -1.84849 0
M  V30 6220 H 599.66 1.88085 -3.44044 0
M  V30 6221 H 601.15 2.80748 -3.09145 0
M  V30 6222 N 601.587 1.56661 0.17182 0
M  V30 6223 C 602.836 1.81158 0.886831 0
M  V30 6224 C 603.149 0.679072 1.83434 0
M  V30 6225 O 604.355 0.808964 2.59168 0
M  V30 6226 C 602.811 3.20999 1.6275 0
M  V30 6227 C 602.419 4.42117 0.723652 0
M  V30 6228 C 604.163 3.5479 2.33076 0
M  V30 6229 C 602.07 5.7298 1.46452 0
M  V30 6230 H 601 0.675543 0.334899 0
M  V30 6231 H 603.651 1.82967 0.139765 0
M  V30 6232 H 602.033 3.13506 2.4193 0
M  V30 6233 H 603.207 4.60789 -0.0311485 0
M  V30 6234 H 601.522 4.16197 0.130063 0
M  V30 6235 H 604.119 4.49806 2.89099 0
M  V30 6236 H 604.462 2.79646 3.08389 0
M  V30 6237 H 604.995 3.63834 1.6084 0
M  V30 6238 H 601.734 6.51152 0.753729 0
M  V30 6239 H 601.254 5.58285 2.19266 0
M  V30 6240 H 602.933 6.14916 2.01214 0
M  V30 6241 N 603.065 -0.440357 1.51323 0
M  V30 6242 C 604.312 -1.19004 1.63842 0
M  V30 6243 C 604.64 -1.91266 0.35321 0
M  V30 6244 O 603.895 -1.84143 -0.662565 0
M  V30 6245 C 604.194 -2.2339 2.78984 0
M  V30 6246 C 603.86 -1.68162 4.18369 0
M  V30 6247 C 602.522 -1.52823 4.56288 0
M  V30 6248 C 604.874 -1.27524 5.05358 0
M  V30 6249 C 602.202 -0.953157 5.78906 0
M  V30 6250 C 604.554 -0.714474 6.28552 0
M  V30 6251 C 603.218 -0.547961 6.65247 0
M  V30 6252 H 602.488 -0.435468 0.59954 0
M  V30 6253 H 605.135 -0.481538 1.85347 0
M  V30 6254 H 603.44 -3.00267 2.51688 0
M  V30 6255 H 605.137 -2.81211 2.85869 0
M  V30 6256 H 601.727 -1.81077 3.8847 0
M  V30 6257 H 605.911 -1.38197 4.76671 0
M  V30 6258 H 601.167 -0.811882 6.05986 0
M  V30 6259 H 605.341 -0.391059 6.95301 0
M  V30 6260 H 602.968 -0.100222 7.60134 0
M  V30 6261 N 604.543 -1.41418 -0.695603 0
M  V30 6262 C 605.771 -1.4413 -1.48439 0
M  V30 6263 C 606.186 -0.0465698 -1.88743 0
M  V30 6264 O 605.543 0.934117 -1.56782 0
M  V30 6265 C 605.594 -2.34998 -2.74696 0
M  V30 6266 O 605.315 -3.69043 -2.36091 0
M  V30 6267 C 606.816 -2.46513 -3.68438 0
M  V30 6268 H 604.036 -0.490905 -0.457442 0
M  V30 6269 H 606.58 -1.85702 -0.856454 0
M  V30 6270 H 604.735 -1.96735 -3.33728 0
M  V30 6271 H 605.149 -4.17505 -3.17474 0
M  V30 6272 H 606.623 -3.1426 -4.53811 0
M  V30 6273 H 607.1 -1.49638 -4.12922 0
M  V30 6274 H 607.706 -2.85412 -3.1531 0
M  V30 6275 N 606.021 0.929856 -1.27246 0
M  V30 6276 C 607.27 1.67182 -1.12842 0
M  V30 6277 C 607.583 1.9287 0.325666 0
M  V30 6278 O 608.789 2.64999 0.590572 0
M  V30 6279 C 607.245 3.01097 -1.97151 0
M  V30 6280 C 606.853 2.83115 -3.47203 0
M  V30 6281 C 608.597 3.78907 -1.91389 0
M  V30 6282 C 606.504 4.12573 -4.23719 0
M  V30 6283 H 605.434 0.627064 -0.418697 0
M  V30 6284 H 608.085 1.0332 -1.51649 0
M  V30 6285 H 606.467 3.66004 -1.51186 0
M  V30 6286 H 607.641 2.26989 -4.01015 0
M  V30 6287 H 605.956 2.18736 -3.54321 0
M  V30 6288 H 608.553 4.74837 -2.45834 0
M  V30 6289 H 608.896 4.0674 -0.887047 0
M  V30 6290 H 609.429 3.20794 -2.35237 0
M  V30 6291 H 606.168 3.8992 -5.26918 0
M  V30 6292 H 605.688 4.68371 -3.74685 0
M  V30 6293 H 607.367 4.8095 -4.32777 0
M  V30 6294 N 607.499 1.09233 1.13605 0
M  V30 6295 C 608.449 0.6994 2.17008 0
M  V30 6296 C 609.433 -0.285238 1.58352 0
M  V30 6297 O 610.625 -0.09592 1.7674 0
M  V30 6298 C 607.754 0.11938 3.43092 0
M  V30 6299 C 606.84 1.13031 4.0876 0
M  V30 6300 N 607.231 2.31673 4.49623 0
M  V30 6301 C 605.529 0.967999 4.35369 0
M  V30 6302 C 606.23 2.95964 5.00779 0
M  V30 6303 N 605.206 2.23534 4.95513 0
M  V30 6304 H 609.008 1.60272 2.46354 0
M  V30 6305 H 606.522 0.968257 1.30378 0
M  V30 6306 H 608.519 -0.180122 4.16511 0
M  V30 6307 H 607.179 -0.778816 3.15221 0
M  V30 6308 H 608.19 2.69277 4.42391 0
M  V30 6309 H 604.867 0.124319 4.17315 0
M  V30 6310 H 606.257 3.96813 5.42208 0
M  V30 6311 N 608.977 -1.30795 0.87923 0
M  V30 6312 C 610.393 -1.48981 0.57243 0
M  V30 6313 C 610.593 -1.80719 -0.891236 0
M  V30 6314 O 609.649 -1.89136 -1.67283 0
M  V30 6315 C 610.962 -2.61721 1.48063 0
M  V30 6316 C 612.51 -2.75603 1.48365 0
M  V30 6317 C 612.985 -3.91449 2.37763 0
M  V30 6318 N 614.476 -3.98751 2.35695 0
M  V30 6319 C 615.211 -4.87684 3.01583 0
M  V30 6320 N 614.707 -5.81454 3.76674 0
M  V30 6321 N 616.5 -4.81005 2.90844 0
M  V30 6322 H 608.651 -1.08465 1.82617 0
M  V30 6323 H 610.914 -0.536813 0.781368 0
M  V30 6324 H 610.62 -2.45073 2.52254 0
M  V30 6325 H 610.494 -3.58071 1.18596 0
M  V30 6326 H 612.881 -2.9166 0.44927 0
M  V30 6327 H 612.962 -1.79891 1.81859 0
M  V30 6328 H 612.606 -3.76149 3.41283 0
M  V30 6329 H 612.536 -4.86487 2.01589 0
M  V30 6330 H 615.027 -3.31668 1.81121 0
M  V30 6331 H 615.34 -6.46063 4.24054 0
M  V30 6332 H 613.685 -5.81403 3.80782 0
M  V30 6333 H 616.876 -4.06728 2.31711 0
M  V30 6334 H 617.049 -5.50107 3.42471 0
M  V30 6335 N 610.455 -0.639598 -1.44038 0
M  V30 6336 C 611.704 -0.144885 -2.01179 0
M  V30 6337 C 612.017 1.24372 -1.50967 0
M  V30 6338 O 613.223 1.83291 -2.00292 0
M  V30 6339 C 611.679 -0.208244 -3.59297 0
M  V30 6340 C 611.287 -1.59869 -4.18504 0
M  V30 6341 C 613.031 0.229568 -4.23879 0
M  V30 6342 C 610.938 -1.61671 -5.68873 0
M  V30 6343 H 609.868 -0.0504005 -0.752314 0
M  V30 6344 H 612.519 -0.799639 -1.65161 0
M  V30 6345 H 610.901 0.513767 -3.92653 0
M  V30 6346 H 612.075 -2.34496 -3.96671 0
M  V30 6347 H 610.39 -1.98131 -3.66242 0
M  V30 6348 H 612.987 0.235758 -5.3418 0
M  V30 6349 H 613.33 1.25848 -3.96822 0
M  V30 6350 H 613.863 -0.440233 -3.95357 0
M  V30 6351 H 610.602 -2.62427 -6.00677 0
M  V30 6352 H 610.122 -0.913489 -5.92803 0
M  V30 6353 H 611.801 -1.35439 -6.32665 0
M  V30 6354 N 611.933 1.52934 -0.380664 0
M  V30 6355 C 612.863 2.29118 0.450268 0
M  V30 6356 C 613.844 1.32153 1.07096 0
M  V30 6357 O 615.029 1.61038 1.08537 0
M  V30 6358 C 612.159 3.09161 1.58231 0
M  V30 6359 C 611.113 4.13938 1.0881 0
M  V30 6360 C 610.439 4.82153 2.31155 0
M  V30 6361 C 611.739 5.22048 0.162146 0
M  V30 6362 H 613.433 2.98826 -0.185361 0
M  V30 6363 H 610.979 1.43715 -0.0905886 0
M  V30 6364 H 612.932 3.61211 2.17036 0
M  V30 6365 H 611.656 2.3717 2.2454 0
M  V30 6366 H 610.315 3.62855 0.522633 0
M  V30 6367 H 609.963 4.06719 2.95953 0
M  V30 6368 H 609.663 5.52966 1.98752 0
M  V30 6369 H 611.187 5.37004 2.90618 0
M  V30 6370 H 612.601 5.6951 0.658126 0
M  V30 6371 H 610.998 6.00057 -0.0717122 0
M  V30 6372 H 612.068 4.78398 -0.791438 0
M  V30 6373 N 613.412 0.11024 1.57214 0
M  V30 6374 C 614.823 -0.416527 1.81994 0
M  V30 6375 C 615.174 -1.67183 1.02686 0
M  V30 6376 O 614.299 -2.14823 0.260782 0
M  V30 6377 C 614.894 -0.762466 3.30109 0
M  V30 6378 C 613.453 -1.23391 3.556 0
M  V30 6379 C 612.6 -0.238166 2.76275 0
M  V30 6380 H 615.551 0.335491 1.55113 0
M  V30 6381 H 615.572 -1.62068 3.44259 0
M  V30 6382 H 615.084 0.151346 3.87805 0
M  V30 6383 H 613.185 -2.16492 3.03253 0
M  V30 6384 H 613.298 -1.18528 4.64207 0
M  V30 6385 H 611.662 -0.723421 2.4421 0
M  V30 6386 H 612.445 0.668591 3.36727 0
M  V30 6387 N 614.89 -1.56749 -0.16351 0
M  V30 6388 C 616.301 -1.72039 -0.725216 0
M  V30 6389 C 616.652 -0.72202 -1.82432 0
M  V30 6390 O 615.777 0.114942 -2.16095 0
M  V30 6391 C 616.372 -3.11932 -1.32227 0
M  V30 6392 C 614.931 -3.28879 -1.83072 0
M  V30 6393 C 614.078 -2.67984 -0.712716 0
M  V30 6394 H 617.029 -1.58579 0.0619772 0
M  V30 6395 H 617.05 -3.11015 -2.19202 0
M  V30 6396 H 616.562 -3.84572 -0.522103 0
M  V30 6397 H 614.663 -2.61209 -2.65708 0
M  V30 6398 H 614.776 -4.36688 -1.97079 0
M  V30 6399 H 613.14 -2.28005 -1.13515 0
M  V30 6400 H 613.923 -3.43216 0.0757361 0
M  V30 6401 N 616.368 0.432326 -1.51554 0
M  V30 6402 C 617.645 1.19288 -1.55015 0
M  V30 6403 C 618.025 2.08701 -0.317375 0
M  V30 6404 O 617.373 2.17602 0.697243 0
M  V30 6405 C 617.583 1.99037 -2.86679 0
M  V30 6406 C 618.931 2.55907 -3.38817 0
M  V30 6407 O 619.955 2.09243 -2.88263 0
M  V30 6408 O 618.814 3.41029 -4.27038 0
M  V30 6409 H 615.908 0.543369 -0.623441 0
M  V30 6410 H 618.454 0.440988 -1.6387 0
M  V30 6411 H 617.226 1.33397 -3.6786 0
M  V30 6412 H 616.849 2.81281 -2.8101 0
M  V30 6413 N 617.846 1.41785 0.688094 0
M  V30 6414 C 619.071 1.45117 1.48175 0
M  V30 6415 C 619.496 0.060129 1.88004 0
M  V30 6416 O 618.854 -0.938385 1.55126 0
M  V30 6417 C 618.902 2.37224 2.71583 0
M  V30 6418 O 618.006 1.83443 3.69354 0
M  V30 6419 H 617.347 0.492208 0.445676 0
M  V30 6420 H 619.877 1.86329 0.845145 0
M  V30 6421 H 619.887 2.53353 3.19806 0
M  V30 6422 H 618.562 3.38293 2.41931 0
M  V30 6423 H 617.139 1.76802 3.28322 0
M  V30 6424 N 619.324 -0.923095 1.27737 0
M  V30 6425 C 620.572 -1.66797 1.14119 0
M  V30 6426 C 620.893 -1.92479 -0.312541 0
M  V30 6427 O 620.163 -1.53432 -1.218 0
M  V30 6428 H 618.743 -0.618196 0.419336 0
M  V30 6429 H 621.405 -1.10815 1.60331 0
M  V30 6430 H 620.501 -2.63424 1.67374 0
M  V30 6431 N 620.802 -1.09834 -1.13024 0
M  V30 6432 C 622.048 -0.83819 -1.84668 0
M  V30 6433 C 622.381 0.634645 -1.83537 0
M  V30 6434 O 621.656 1.46753 -1.27647 0
M  V30 6435 C 621.939 -1.37933 -3.32636 0
M  V30 6436 C 621.792 -2.91857 -3.42257 0
M  V30 6437 C 623.111 -1.01654 -4.28199 0
M  V30 6438 H 620.23 -0.30595 -0.670495 0
M  V30 6439 H 622.872 -1.36044 -1.32635 0
M  V30 6440 H 621.022 -0.935111 -3.77078 0
M  V30 6441 H 622.694 -3.44759 -3.06495 0
M  V30 6442 H 620.937 -3.28776 -2.83 0
M  V30 6443 H 621.608 -3.24799 -4.46329 0
M  V30 6444 H 624.084 -1.39973 -3.9185 0
M  V30 6445 H 622.96 -1.42217 -5.30156 0
M  V30 6446 H 623.221 0.0747794 -4.42037 0
M  V30 6447 N 622.28 1.30327 -0.886154 0
M  V30 6448 C 623.526 1.96764 -0.515312 0
M  V30 6449 C 623.881 1.68675 0.925552 0
M  V30 6450 O 623.174 0.981693 1.6454 0
M  V30 6451 C 623.368 3.49906 -0.728042 0
M  V30 6452 C 623.197 3.92881 -2.18803 0
M  V30 6453 C 621.967 4.18424 -2.83284 0
M  V30 6454 C 624.165 4.05617 -3.16195 0
M  V30 6455 N 622.147 4.47867 -4.19867 0
M  V30 6456 C 623.518 4.38957 -4.37855 0
M  V30 6457 C 625.573 3.88047 -3.11968 0
M  V30 6458 C 624.276 4.56559 -5.55829 0
M  V30 6459 C 626.302 4.06851 -4.29215 0
M  V30 6460 C 625.664 4.40538 -5.49641 0
M  V30 6461 H 621.763 0.74493 -0.237916 0
M  V30 6462 H 624.347 1.57536 -1.14414 0
M  V30 6463 H 622.518 3.88187 -0.128696 0
M  V30 6464 H 624.25 4.03401 -0.323983 0
M  V30 6465 H 621.005 4.1167 -2.34146 0
M  V30 6466 H 621.429 4.66721 -4.90408 0
M  V30 6467 H 626.071 3.61078 -2.19961 0
M  V30 6468 H 623.789 4.8237 -6.4834 0
M  V30 6469 H 627.375 3.94724 -4.27416 0
M  V30 6470 H 626.255 4.54789 -6.38856 0
M  V30 6471 N 623.758 0.647228 1.43697 0
M  V30 6472 C 625.004 0.158422 2.0218 0
M  V30 6473 C 625.337 -1.22233 1.50907 0
M  V30 6474 O 624.612 -1.81478 0.699702 0
M  V30 6475 C 624.895 0.1627 3.59732 0
M  V30 6476 C 624.748 1.57694 4.21251 0
M  V30 6477 C 626.067 -0.504138 4.37203 0
M  V30 6478 H 623.186 0.059042 0.734631 0
M  V30 6479 H 625.828 0.826772 1.71069 0
M  V30 6480 H 623.978 -0.406414 3.86368 0
M  V30 6481 H 625.65 2.19618 4.05667 0
M  V30 6482 H 623.893 2.12603 3.7813 0
M  V30 6483 H 624.564 1.53183 5.3032 0
M  V30 6484 H 627.04 -0.0199841 4.16095 0
M  V30 6485 H 625.916 -0.470394 5.46881 0
M  V30 6486 H 626.177 -1.57726 4.13007 0
M  V30 6487 N 625.236 -1.5273 0.388769 0
M  V30 6488 C 626.476 -2.03483 -0.193372 0
M  V30 6489 C 626.84 -1.26897 -1.44087 0
M  V30 6490 O 628.041 -1.67773 -2.10014 0
M  V30 6491 C 626.312 -3.54488 -0.455325 0
M  V30 6492 S 627.871 -4.27069 -1.00783 0
M  V30 6493 H 624.689 -0.708907 -0.0545131 0
M  V30 6494 H 627.291 -1.8798 0.536993 0
M  V30 6495 H 625.995 -4.07817 0.459722 0
M  V30 6496 H 625.526 -3.74196 -1.21413 0
M  V30 6497 H 627.541 -4.40185 -2.29023 0
M  V30 6498 N 626.714 -0.118576 -1.57153 0
M  V30 6499 C 627.939 0.550582 -1.99958 0
M  V30 6500 C 628.364 1.59458 -0.997736 0
M  V30 6501 O 627.722 1.81274 0.0306269 0
M  V30 6502 C 627.77 1.15379 -3.41643 0
M  V30 6503 O 626.874 2.26932 -3.44348 0
M  V30 6504 H 626.215 0.137567 -0.649593 0
M  V30 6505 H 628.745 -0.206926 -2.03551 0
M  V30 6506 H 628.755 1.48942 -3.79843 0
M  V30 6507 H 627.43 0.389087 -4.14076 0
M  V30 6508 H 626.007 1.94812 -3.17967 0
M  V30 6509 N 628.193 1.56834 0.155195 0
M  V30 6510 C 629.439 1.83169 0.870467 0
M  V30 6511 C 629.772 0.698929 1.81187 0
M  V30 6512 O 629.047 -0.298035 1.92203 0
M  V30 6513 C 629.33 3.19965 1.65211 0
M  V30 6514 C 629.183 4.43792 0.732744 0
M  V30 6515 C 630.502 3.53885 2.61636 0
M  V30 6516 H 627.621 0.666288 0.315006 0
M  V30 6517 H 630.263 1.89513 0.135988 0
M  V30 6518 H 628.413 3.14687 2.27825 0
M  V30 6519 H 630.085 4.61148 0.118236 0
M  V30 6520 H 628.328 4.3378 0.0417906 0
M  V30 6521 H 628.999 5.36095 1.31552 0
M  V30 6522 H 631.475 3.5972 2.09143 0
M  V30 6523 H 630.351 4.50648 3.13381 0
M  V30 6524 H 630.612 2.79418 3.42605 0
M  V30 6525 N 629.671 -0.424282 1.51781 0
M  V30 6526 C 630.619 -1.53649 1.74628 0
M  V30 6527 C 631.613 -1.57923 0.612922 0
M  V30 6528 O 632.819 -1.61511 0.794618 0
M  V30 6529 H 629.194 -0.510706 0.551981 0
M  V30 6530 H 631.165 -1.31558 2.67834 0
M  V30 6531 C 629.914 -2.91177 1.9003 0
M  V30 6532 H 629.237 -2.88625 2.76651 0
M  V30 6533 H 630.677 -3.6833 2.10021 0
M  V30 6534 C 629.136 -3.30303 0.663435 0
M  V30 6535 O 629.666 -4.01315 -0.175812 0
M  V30 6536 N 627.872 -2.86201 0.503723 0
M  V30 6537 H 627.419 -2.28583 1.18776 0
M  V30 6538 H 627.377 -3.12741 -0.322575 0
M  V30 6539 N 631.149 -1.42148 -0.680565 0
M  V30 6540 C 632.377 -1.45696 -1.46902 0
M  V30 6541 C 632.792 -0.0665858 -1.88683 0
M  V30 6542 O 632.149 0.917436 -1.57764 0
M  V30 6543 C 632.2 -2.37898 -2.72188 0
M  V30 6544 O 631.921 -3.71526 -2.32163 0
M  V30 6545 C 633.422 -2.50407 -3.65802 0
M  V30 6546 H 630.642 -0.495729 -0.45221 0
M  V30 6547 H 633.186 -1.866 -0.836709 0
M  V30 6548 H 631.341 -2.00263 -3.31622 0
M  V30 6549 H 631.755 -4.20849 -3.13027 0
M  V30 6550 H 633.229 -3.19056 -4.50452 0
M  V30 6551 H 633.706 -1.5401 -4.11312 0
M  V30 6552 H 634.312 -2.8874 -3.12265 0
M  V30 6553 N 632.627 0.916307 -1.28225 0
M  V30 6554 C 633.873 1.66765 -1.154 0
M  V30 6555 C 634.206 1.91912 0.297251 0
M  V30 6556 O 633.481 1.51766 1.21644 0
M  V30 6557 C 633.764 3.02715 -1.95028 0
M  V30 6558 C 633.617 2.84738 -3.48201 0
M  V30 6559 C 634.936 4.03215 -1.76369 0
M  V30 6560 H 632.055 0.605205 -0.42059 0
M  V30 6561 H 634.697 1.06255 -1.57512 0
M  V30 6562 H 632.847 3.54365 -1.59242 0
M  V30 6563 H 634.519 2.40118 -3.9388 0
M  V30 6564 H 632.762 2.19848 -3.73964 0
M  V30 6565 H 633.433 3.8127 -3.99171 0
M  V30 6566 H 635.909 3.60617 -2.07593 0
M  V30 6567 H 634.785 4.96306 -2.34459 0
M  V30 6568 H 635.046 4.36288 -0.71452 0
M  V30 6569 N 634.105 1.10431 1.1244 0
M  V30 6570 C 635.068 0.756542 2.16354 0
M  V30 6571 C 636.068 -0.21899 1.59302 0
M  V30 6572 O 637.258 0.00415969 1.742 0
M  V30 6573 C 634.39 0.120612 3.40687 0
M  V30 6574 H 635.583 1.67696 2.48632 0
M  V30 6575 H 633.136 0.904832 1.27446 0
M  V30 6576 H 633.871 -0.810536 3.14008 0
M  V30 6577 H 633.656 0.822693 3.83372 0
M  V30 6578 H 635.146 -0.106945 4.17463 0
M  V30 6579 N 635.583 -1.29855 0.893053 0
M  V30 6580 C 636.831 -1.9544 0.514566 0
M  V30 6581 C 637.152 -1.70795 -0.940959 0
M  V30 6582 O 636.422 -1.03601 -1.66264 0
M  V30 6583 H 635.002 -0.723137 0.187302 0
M  V30 6584 H 637.664 -1.58234 1.13789 0
M  V30 6585 H 636.76 -3.04341 0.691581 0
M  V30 6586 N 637.061 -0.65484 -1.43351 0
M  V30 6587 C 637.994 0.0855537 -2.2804 0
M  V30 6588 C 638.972 0.828301 -1.39921 0
M  V30 6589 O 640.156 0.827539 -1.69364 0
M  V30 6590 C 637.283 1.12792 -3.19368 0
M  V30 6591 C 636.329 0.483037 -4.23756 0
M  V30 6592 S 637.162 -0.744605 -5.30298 0
M  V30 6593 C 638.318 0.297187 -6.25194 0
M  V30 6594 H 638.551 -0.632831 -2.90487 0
M  V30 6595 H 636.084 -0.44373 -1.47886 0
M  V30 6596 H 638.042 1.7243 -3.72529 0
M  V30 6597 H 636.703 1.81863 -2.56095 0
M  V30 6598 H 635.896 1.26888 -4.87766 0
M  V30 6599 H 635.498 -0.0392713 -3.73979 0
M  V30 6600 H 637.79 1.1629 -6.67445 0
M  V30 6601 H 638.733 -0.30793 -7.0743 0
M  V30 6602 H 639.141 0.633721 -5.60932 0
M  V30 6603 N 638.539 1.52521 -0.396863 0
M  V30 6604 C 639.785 2.01971 0.183169 0
M  V30 6605 C 640.118 1.2825 1.45827 0
M  V30 6606 O 639.393 0.385179 1.90648 0
M  V30 6607 C 639.676 3.5736 0.443391 0
M  V30 6608 C 639.529 4.41743 -0.84753 0
M  V30 6609 C 640.848 4.22539 1.2308 0
M  V30 6610 H 637.967 0.734119 0.0650976 0
M  V30 6611 H 640.609 1.82519 -0.527918 0
M  V30 6612 H 638.759 3.74066 1.04914 0
M  V30 6613 H 640.431 4.36773 -1.48414 0
M  V30 6614 H 638.674 4.0845 -1.4612 0
M  V30 6615 H 639.345 5.48507 -0.620003 0
M  V30 6616 H 641.821 4.09857 0.718084 0
M  V30 6617 H 640.697 5.31227 1.38162 0
M  V30 6618 H 640.958 3.80675 2.24808 0
M  V30 6619 N 640.017 0.126909 1.57088 0
M  V30 6620 C 640.927 -0.833867 2.1928 0
M  V30 6621 C 641.943 -1.2868 1.17122 0
M  V30 6622 O 643.119 -1.34815 1.49622 0
M  V30 6623 C 640.184 -2.0632 2.78627 0
M  V30 6624 C 639.245 -1.66143 3.95847 0
M  V30 6625 C 638.478 -2.83217 4.52354 0
M  V30 6626 O 638.701 -3.98868 4.0775 0
M  V30 6627 O 637.635 -2.59846 5.42922 0
M  V30 6628 H 641.461 -0.334564 3.01852 0
M  V30 6629 H 639.046 -0.0991091 1.49071 0
M  V30 6630 H 640.928 -2.78304 3.16425 0
M  V30 6631 H 639.603 -2.55242 1.99082 0
M  V30 6632 H 638.51 -0.912435 3.62802 0
M  V30 6633 H 639.843 -1.21957 4.76852 0
M  V30 6634 N 641.495 -1.56914 -0.146875 0
M  V30 6635 C 642.442 -1.98275 -1.18134 0
M  V30 6636 C 643.412 -0.850367 -1.42681 0
M  V30 6637 O 644.597 -1.11244 -1.55014 0
M  V30 6638 C 641.737 -2.36861 -2.5098 0
M  V30 6639 C 640.85 -3.63391 -2.33605 0
M  V30 6640 C 639.985 -3.91079 -3.59486 0
M  V30 6641 C 639.024 -5.10879 -3.37149 0
M  V30 6642 N 638.161 -5.34577 -4.55161 0
M  V30 6643 H 643.001 -2.8645 -0.821622 0
M  V30 6644 H 640.538 -1.41718 -0.394248 0
M  V30 6645 H 642.496 -2.57262 -3.28439 0
M  V30 6646 H 641.126 -1.51766 -2.84898 0
M  V30 6647 H 640.178 -3.50766 -1.47199 0
M  V30 6648 H 641.49 -4.51007 -2.13059 0
M  V30 6649 H 640.644 -4.11979 -4.45374 0
M  V30 6650 H 639.383 -3.01885 -3.83036 0
M  V30 6651 H 638.388 -4.89853 -2.49649 0
M  V30 6652 H 639.613 -6.01626 -3.14997 0
M  V30 6653 H 637.559 -4.48337 -4.78884 0
M  V30 6654 H 637.476 -6.16463 -4.37618 0
M  V30 6655 H 638.744 -5.59975 -5.42263 0
M  V30 6656 N 642.974 0.416227 -1.52004 0
M  V30 6657 C 644.385 0.995319 -1.57957 0
M  V30 6658 C 644.736 1.91744 -0.415754 0
M  V30 6659 O 643.861 2.11349 0.464808 0
M  V30 6660 C 644.456 1.81191 -2.86278 0
M  V30 6661 C 643.015 2.34115 -2.94732 0
M  V30 6662 C 642.162 1.139 -2.52828 0
M  V30 6663 H 645.113 0.196716 -1.57476 0
M  V30 6664 H 645.134 2.66859 -2.71231 0
M  V30 6665 H 644.646 1.14051 -3.70963 0
M  V30 6666 H 642.747 3.04647 -2.14525 0
M  V30 6667 H 642.86 2.65466 -3.98829 0
M  V30 6668 H 641.224 1.49081 -2.06511 0
M  V30 6669 H 642.007 0.483383 -3.3988 0
M  V30 6670 N 644.452 1.42507 0.673017 0
M  V30 6671 C 645.699 1.43072 1.43306 0
M  V30 6672 C 646.027 0.0478004 1.94441 0
M  V30 6673 O 645.282 -0.944106 1.71421 0
M  V30 6674 C 645.581 2.40351 2.64511 0
M  V30 6675 C 645.247 3.8669 2.31908 0
M  V30 6676 C 643.909 4.26551 2.22728 0
M  V30 6677 C 646.261 4.78991 2.05467 0
M  V30 6678 C 643.589 5.56691 1.85234 0
M  V30 6679 C 645.941 6.09476 1.69477 0
M  V30 6680 C 644.605 6.48334 1.58808 0
M  V30 6681 H 643.875 0.523536 0.524395 0
M  V30 6682 H 646.522 1.75459 0.76723 0
M  V30 6683 H 644.827 2.01297 3.36135 0
M  V30 6684 H 646.524 2.38051 3.22696 0
M  V30 6685 H 643.114 3.55132 2.39956 0
M  V30 6686 H 647.298 4.48982 2.11492 0
M  V30 6687 H 642.554 5.85657 1.75545 0
M  V30 6688 H 646.728 6.80482 1.48043 0
M  V30 6689 H 644.355 7.49084 1.29525 0
M  V30 6690 N 645.93 -0.909495 1.28709 0
M  V30 6691 C 646.878 -2.03381 1.12866 0
M  V30 6692 C 647.872 -1.69335 0.0468074 0
M  V30 6693 O 649.078 -1.78819 0.205891 0
M  V30 6694 H 645.453 -0.666452 0.348348 0
M  V30 6695 H 647.424 -2.13885 2.08077 0
M  V30 6696 C 646.173 -3.38092 0.811742 0
M  V30 6697 H 645.496 -3.64786 1.63619 0
M  V30 6698 H 646.936 -4.17477 0.740869 0
M  V30 6699 C 645.395 -3.33395 -0.484679 0
M  V30 6700 O 645.925 -3.72089 -1.5137 0
M  V30 6701 N 644.131 -2.86491 -0.486961 0
M  V30 6702 H 643.678 -2.55199 0.350877 0
M  V30 6703 H 643.636 -2.83731 -1.3544 0
M  V30 6704 N 647.408 -1.11026 -1.11852 0
M  V30 6705 C 648.657 -0.851249 -1.82857 0
M  V30 6706 C 648.97 0.62514 -1.85341 0
M  V30 6707 O 650.176 1.00026 -2.52403 0
M  V30 6708 C 648.632 -1.47309 -3.28372 0
M  V30 6709 C 648.24 -2.9832 -3.34229 0
M  V30 6710 C 649.984 -1.29373 -4.04306 0
M  V30 6711 C 647.891 -3.53509 -4.74115 0
M  V30 6712 H 646.821 -0.314794 -0.685143 0
M  V30 6713 H 649.472 -1.33499 -1.25898 0
M  V30 6714 H 647.854 -0.917017 -3.85236 0
M  V30 6715 H 649.028 -3.60295 -2.87271 0
M  V30 6716 H 647.343 -3.15482 -2.71772 0
M  V30 6717 H 649.94 -1.68042 -5.07608 0
M  V30 6718 H 650.283 -0.235879 -4.15631 0
M  V30 6719 H 650.816 -1.8182 -3.53817 0
M  V30 6720 H 647.555 -4.58987 -4.67986 0
M  V30 6721 H 647.075 -2.96305 -5.21501 0
M  V30 6722 H 648.754 -3.51693 -5.43066 0
M  V30 6723 N 648.886 1.2938 -0.899927 0
M  V30 6724 C 650.111 2.00228 -0.540692 0
M  V30 6725 C 650.536 1.66909 0.867359 0
M  V30 6726 O 649.894 0.893824 1.57735 0
M  V30 6727 C 649.942 3.52921 -0.740232 0
M  V30 6728 O 649.046 4.11879 0.207154 0
M  V30 6729 H 648.387 0.629505 -0.211233 0
M  V30 6730 H 650.917 1.6487 -1.21158 0
M  V30 6731 H 650.927 4.0287 -0.644973 0
M  V30 6732 H 649.602 3.76508 -1.76677 0
M  V30 6733 H 648.179 3.72845 0.0643315 0
M  V30 6734 N 650.364 0.662433 1.43002 0
M  V30 6735 C 651.61 0.179857 2.02001 0
M  V30 6736 C 651.943 -1.20625 1.52195 0
M  V30 6737 O 651.218 -1.80726 0.718911 0
M  V30 6738 C 651.501 0.200845 3.59539 0
M  V30 6739 C 651.354 1.62153 4.19555 0
M  V30 6740 C 652.673 -0.457738 4.37713 0
M  V30 6741 H 649.792 0.0668305 0.733964 0
M  V30 6742 H 652.434 0.84487 1.70182 0
M  V30 6743 H 650.584 -0.365411 3.86778 0
M  V30 6744 H 652.256 2.23908 4.03315 0
M  V30 6745 H 650.499 2.16601 3.75854 0
M  V30 6746 H 651.17 1.58799 5.28665 0
M  V30 6747 H 653.646 0.0241495 4.16093 0
M  V30 6748 H 652.522 -0.412363 5.47349 0
M  V30 6749 H 652.783 -1.53336 4.14657 0
M  V30 6750 N 651.842 -1.52309 0.404946 0
M  V30 6751 C 652.789 -2.26898 -0.422597 0
M  V30 6752 C 653.759 -1.2914 -1.04461 0
M  V30 6753 O 654.944 -1.57996 -1.06967 0
M  V30 6754 C 652.084 -3.09053 -1.53559 0
M  V30 6755 C 651.197 -4.21762 -0.934908 0
M  V30 6756 C 650.332 -4.91283 -2.02025 0
M  V30 6757 C 649.371 -5.95962 -1.39628 0
M  V30 6758 N 648.508 -6.59017 -2.42159 0
M  V30 6759 H 653.348 -2.97188 0.219903 0
M  V30 6760 H 650.885 -1.46607 0.120282 0
M  V30 6761 H 652.843 -3.54987 -2.19181 0
M  V30 6762 H 651.473 -2.40942 -2.14818 0
M  V30 6763 H 650.525 -3.80029 -0.167854 0
M  V30 6764 H 651.837 -4.96864 -0.439073 0
M  V30 6765 H 650.991 -5.40601 -2.75383 0
M  V30 6766 H 649.73 -4.15741 -2.54973 0
M  V30 6767 H 648.735 -5.45968 -0.648023 0
M  V30 6768 H 649.96 -6.73445 -0.874553 0
M  V30 6769 H 647.906 -5.86306 -2.94247 0
M  V30 6770 H 647.823 -7.2978 -1.97376 0
M  V30 6771 H 649.091 -7.12974 -3.15099 0
M  V30 6772 N 653.32 -0.135238 -1.57019 0
M  V30 6773 C 654.566 0.519563 -1.96032 0
M  V30 6774 C 654.899 1.65284 -1.01955 0
M  V30 6775 O 654.174 1.94408 -0.059727 0
M  V30 6776 C 654.457 1.0369 -3.44848 0
M  V30 6777 C 654.31 -0.0940754 -4.49702 0
M  V30 6778 C 655.629 1.92254 -3.95887 0
M  V30 6779 H 652.748 0.18739 -0.712779 0
M  V30 6780 H 655.39 -0.214086 -1.8879 0
M  V30 6781 H 653.54 1.66209 -3.5115 0
M  V30 6782 H 655.212 -0.73 -4.55487 0
M  V30 6783 H 653.455 -0.754924 -4.27181 0
M  V30 6784 H 654.126 0.309419 -5.51132 0
M  V30 6785 H 656.602 1.39581 -3.9199 0
M  V30 6786 H 655.478 2.25364 -5.00502 0
M  V30 6787 H 655.739 2.85513 -3.37543 0
M  V30 6788 N 654.798 1.5699 0.138552 0
M  V30 6789 C 655.728 2.01933 1.17241 0
M  V30 6790 C 656.709 0.90033 1.44319 0
M  V30 6791 O 657.894 1.16872 1.55095 0
M  V30 6792 C 655.024 2.40711 2.50351 0
M  V30 6793 C 653.978 3.55874 2.37776 0
M  V30 6794 C 653.304 3.80491 3.75674 0
M  V30 6795 C 654.604 4.8826 1.85472 0
M  V30 6796 H 656.298 2.88551 0.798672 0
M  V30 6797 H 653.844 1.3882 0.382743 0
M  V30 6798 H 655.797 2.70754 3.22909 0
M  V30 6799 H 654.521 1.5104 2.89576 0
M  V30 6800 H 653.18 3.2601 1.67669 0
M  V30 6801 H 652.828 2.88057 4.12349 0
M  V30 6802 H 652.528 4.57998 3.68119 0
M  V30 6803 H 654.052 4.12967 4.49767 0
M  V30 6804 H 655.466 5.16965 2.4783 0
M  V30 6805 H 653.863 5.69631 1.88787 0
M  V30 6806 H 654.933 4.78071 0.810935 0
M  V30 6807 N 656.276 -0.40816 1.52223 0
M  V30 6808 C 657.687 -0.986929 1.58482 0
M  V30 6809 C 658.038 -1.91521 0.425917 0
M  V30 6810 O 657.163 -2.11593 -0.453593 0
M  V30 6811 C 657.758 -1.7967 2.87235 0
M  V30 6812 C 656.317 -2.32549 2.9597 0
M  V30 6813 C 655.464 -1.12558 2.53428 0
M  V30 6814 H 658.415 -0.188362 1.57578 0
M  V30 6815 H 658.436 -2.65417 2.72642 0
M  V30 6816 H 657.948 -1.12082 3.71563 0
M  V30 6817 H 656.049 -3.03505 2.16137 0
M  V30 6818 H 656.162 -2.63348 4.00231 0
M  V30 6819 H 654.526 -1.47984 2.07299 0
M  V30 6820 H 655.309 -0.465351 3.40131 0
M  V30 6821 N 657.755 -1.42862 -0.66545 0
M  V30 6822 C 658.702 -1.4707 -1.77874 0
M  V30 6823 C 659.672 -0.321654 -1.62956 0
M  V30 6824 O 660.857 -0.52707 -1.83376 0
M  V30 6825 C 657.997 -1.38788 -3.15962 0
M  V30 6826 C 657.11 -2.63801 -3.42101 0
M  V30 6827 C 656.245 -2.47594 -4.69969 0
M  V30 6828 C 655.284 -3.67936 -4.89172 0
M  V30 6829 N 654.421 -3.50614 -6.08288 0
M  V30 6830 H 659.261 -2.42204 -1.73613 0
M  V30 6831 H 656.798 -1.20239 -0.847401 0
M  V30 6832 H 658.756 -1.31982 -3.95773 0
M  V30 6833 H 657.386 -0.472431 -3.19324 0
M  V30 6834 H 656.438 -2.80935 -2.56475 0
M  V30 6835 H 657.75 -3.53228 -3.52181 0
M  V30 6836 H 656.904 -2.38427 -5.57886 0
M  V30 6837 H 655.643 -1.55672 -4.62188 0
M  V30 6838 H 654.648 -3.77525 -3.99694 0
M  V30 6839 H 655.873 -4.60851 -4.98792 0
M  V30 6840 H 653.819 -2.61417 -6.01662 0
M  V30 6841 H 653.736 -4.33634 -6.19272 0
M  V30 6842 H 655.004 -3.45276 -6.98859 0
M  V30 6843 N 659.233 0.902656 -1.29189 0
M  V30 6844 C 660.644 1.46809 -1.15343 0
M  V30 6845 C 660.995 1.94568 0.252517 0
M  V30 6846 O 660.12 1.83454 1.14777 0
M  V30 6847 C 660.715 2.66829 -2.08776 0
M  V30 6848 C 659.274 3.19518 -1.98961 0
M  V30 6849 C 658.421 1.92212 -1.99874 0
M  V30 6850 H 661.372 0.714282 -1.41717 0
M  V30 6851 H 661.393 3.42465 -1.65826 0
M  V30 6852 H 660.905 2.32039 -3.11094 0
M  V30 6853 H 659.006 3.59008 -0.99721 0
M  V30 6854 H 659.119 3.84016 -2.86477 0
M  V30 6855 H 657.483 2.0979 -1.44431 0
M  V30 6856 H 658.266 1.59702 -3.03891 0
M  V30 6857 N 660.711 1.11618 1.11262 0
M  V30 6858 C 661.641 0.79846 2.19424 0
M  V30 6859 C 662.622 -0.234003 1.68483 0
M  V30 6860 O 663.807 -0.0970704 1.93957 0
M  V30 6861 C 660.937 0.242892 3.4645 0
M  V30 6862 C 659.891 1.20744 4.10615 0
M  V30 6863 C 659.217 0.512494 5.32238 0
M  V30 6864 C 660.517 2.55884 4.55325 0
M  V30 6865 H 662.211 1.70286 2.46258 0
M  V30 6866 H 659.757 0.820195 1.18359 0
M  V30 6867 H 661.71 0.00840447 4.21399 0
M  V30 6868 H 660.434 -0.696811 3.1908 0
M  V30 6869 H 659.093 1.42759 3.37662 0
M  V30 6870 H 658.741 -0.432075 5.01141 0
M  V30 6871 H 658.441 1.15583 5.7612 0
M  V30 6872 H 659.965 0.286842 6.09926 0
M  V30 6873 H 661.379 2.37946 5.21588 0
M  V30 6874 H 659.776 3.16216 5.10027 0
M  V30 6875 H 660.846 3.14968 3.68678 0
M  V30 6876 N 662.189 -1.289 0.906776 0
M  V30 6877 C 663.137 -2.29477 0.379873 0
M  V30 6878 C 664.131 -1.61068 -0.524747 0
M  V30 6879 O 665.337 -1.75344 -0.406765 0
M  V30 6880 H 661.712 -0.744742 0.10423 0
M  V30 6881 H 663.683 -2.71353 1.24137 0
M  V30 6882 C 662.432 -3.45713 -0.371154 0
M  V30 6883 H 661.755 -3.98551 0.315716 0
M  V30 6884 H 663.195 -4.18105 -0.704581 0
M  V30 6885 C 661.654 -2.9774 -1.57646 0
M  V30 6886 O 662.184 -2.99618 -2.67567 0
M  V30 6887 N 660.39 -2.53485 -1.42105 0
M  V30 6888 H 659.937 -2.52156 -0.526783 0
M  V30 6889 H 659.895 -2.21747 -2.22881 0
M  V30 6890 N 663.667 -0.670007 -1.42649 0
M  V30 6891 C 664.63 0.00204659 -2.292 0
M  V30 6892 C 665.63 0.733817 -1.4308 0
M  V30 6893 O 666.82 0.57254 -1.64522 0
M  V30 6894 C 663.952 1.01359 -3.25483 0
M  V30 6895 H 665.145 -0.759696 -2.90118 0
M  V30 6896 H 662.698 -0.432105 -1.50208 0
M  V30 6897 H 663.433 1.80399 -2.69493 0
M  V30 6898 H 663.218 0.492323 -3.88997 0
M  V30 6899 H 664.708 1.4824 -3.90403 0
M  V30 6900 N 665.145 1.52092 -0.413018 0
M  V30 6901 C 666.556 1.86617 0.0556967 0
M  V30 6902 C 666.907 1.33156 1.44097 0
M  V30 6903 O 666.032 0.672417 2.05688 0
M  V30 6904 C 666.627 3.38628 0.107844 0
M  V30 6905 C 665.186 3.72778 0.520904 0
M  V30 6906 C 664.333 2.75649 -0.302109 0
M  V30 6907 H 667.284 1.45663 -0.629919 0
M  V30 6908 H 667.305 3.69152 0.922324 0
M  V30 6909 H 666.817 3.77508 -0.900506 0
M  V30 6910 H 664.918 3.39478 1.53575 0
M  V30 6911 H 665.031 4.7838 0.262591 0
M  V30 6912 H 663.395 2.53603 0.236115 0
M  V30 6913 H 664.178 3.17369 -1.30888 0
M  V30 6914 N 666.623 0.143563 1.56945 0
M  V30 6915 C 667.571 -0.814556 2.17871 0
M  V30 6916 C 668.565 -1.25778 1.13474 0
M  V30 6917 O 669.771 -1.22666 1.31731 0
M  V30 6918 H 666.146 -0.280873 0.697578 0
M  V30 6919 H 668.117 -0.276459 2.97117 0
M  V30 6920 C 666.866 -2.04503 2.81201 0
M  V30 6921 H 666.189 -1.71296 3.61245 0
M  V30 6922 H 667.629 -2.69493 3.27337 0
M  V30 6923 C 666.088 -2.85079 1.79532 0
M  V30 6924 O 666.618 -3.81306 1.26368 0
M  V30 6925 N 664.824 -2.49546 1.48913 0
M  V30 6926 H 664.371 -1.71359 1.92338 0
M  V30 6927 H 664.329 -3.03751 0.811348 0
M  V30 6928 N 668.101 -1.57061 -0.130224 0
M  V30 6929 C 669.347 -1.8453 -0.841216 0
M  V30 6930 C 669.68 -0.727666 -1.80052 0
M  V30 6931 O 668.955 0.267419 -1.92653 0
M  V30 6932 C 669.238 -3.22553 -1.60099 0
M  V30 6933 C 669.091 -4.44901 -0.662048 0
M  V30 6934 C 670.41 -3.58003 -2.55973 0
M  V30 6935 H 667.529 -0.671215 -0.304366 0
M  V30 6936 H 670.171 -1.89705 -0.105821 0
M  V30 6937 H 668.321 -3.18272 -2.22789 0
M  V30 6938 H 669.993 -4.61278 -0.0448559 0
M  V30 6939 H 668.236 -4.33791 0.0272253 0
M  V30 6940 H 668.907 -5.3812 -1.23006 0
M  V30 6941 H 671.383 -3.63002 -2.03393 0
M  V30 6942 H 670.259 -4.55576 -3.06172 0
M  V30 6943 H 670.52 -2.84833 -3.38116 0
M  V30 6944 N 669.579 0.400081 -1.52437 0
M  V30 6945 C 670.828 1.14332 -1.66166 0
M  V30 6946 C 671.141 1.91419 -0.402253 0
M  V30 6947 O 672.347 2.6824 -0.419487 0
M  V30 6948 C 670.803 2.08137 -2.9361 0
M  V30 6949 C 670.411 1.36524 -4.26691 0
M  V30 6950 C 672.155 2.82664 -3.16703 0
M  V30 6951 C 670.062 2.29031 -5.45251 0
M  V30 6952 H 668.992 0.430499 -0.61902 0
M  V30 6953 H 671.643 0.407017 -1.78929 0
M  V30 6954 H 670.025 2.85358 -2.74567 0
M  V30 6955 H 671.199 0.646061 -4.56249 0
M  V30 6956 H 669.514 0.74002 -4.09771 0
M  V30 6957 H 672.111 3.52037 -4.0246 0
M  V30 6958 H 672.454 3.46122 -2.31312 0
M  V30 6959 H 672.987 2.12541 -3.36261 0
M  V30 6960 H 669.726 1.70206 -6.33017 0
M  V30 6961 H 669.246 2.98896 -5.2002 0
M  V30 6962 H 670.925 2.89359 -5.78689 0
M  V30 6963 N 671.057 1.43213 0.657864 0
M  V30 6964 C 672.334 1.35063 1.41483 0
M  V30 6965 C 672.714 -0.0038314 2.111 0
M  V30 6966 O 672.062 -1.02018 2.04462 0
M  V30 6967 C 672.272 2.53061 2.40335 0
M  V30 6968 C 673.62 2.9594 3.04474 0
M  V30 6969 O 674.644 2.53074 2.50663 0
M  V30 6970 O 673.503 3.70184 4.02027 0
M  V30 6971 H 670.597 0.533517 0.631893 0
M  V30 6972 H 673.143 1.55253 0.685162 0
M  V30 6973 H 671.915 3.43283 1.87809 0
M  V30 6974 H 671.538 2.34945 3.20759 0
M  V30 6975 N 672.536 -0.895792 1.29666 0
M  V30 6976 C 673.764 -1.68001 1.20761 0
M  V30 6977 C 674.179 -1.87379 -0.231187 0
M  V30 6978 O 673.536 -1.41359 -1.15429 0
M  V30 6979 C 673.587 -3.06236 1.92098 0
M  V30 6980 O 673.308 -2.8774 3.30359 0
M  V30 6981 C 674.809 -4.00652 1.89717 0
M  V30 6982 H 672.029 -0.524591 0.418384 0
M  V30 6983 H 674.573 -1.11995 1.71106 0
M  V30 6984 H 672.728 -3.59007 1.45578 0
M  V30 6985 H 673.142 -3.75359 3.66342 0
M  V30 6986 H 674.616 -4.95051 2.44189 0
M  V30 6987 H 675.093 -4.30424 0.873595 0
M  V30 6988 H 675.699 -3.53815 2.35998 0
M  V30 6989 N 674.014 -1.12206 -1.10668 0
M  V30 6990 C 675.262 -0.874144 -1.82217 0
M  V30 6991 C 675.583 0.601736 -1.85484 0
M  V30 6992 O 674.853 1.43725 -1.33116 0
M  V30 6993 H 673.433 -0.320404 -0.674797 0
M  V30 6994 H 676.095 -1.41606 -1.33917 0
M  V30 6995 H 675.191 -1.25349 -2.85822 0
M  V30 6996 N 675.492 1.28418 -0.913599 0
M  V30 6997 C 676.442 2.24928 -0.373042 0
M  V30 6998 C 677.426 1.52444 0.514753 0
M  V30 6999 O 678.618 1.73414 0.3545 0
M  V30 7000 C 675.747 3.41124 0.385896 0
M  V30 7001 C 674.833 4.20929 -0.51761 0
M  V30 7002 N 675.224 4.78777 -1.63113 0
M  V30 7003 C 673.522 4.44865 -0.317969 0
M  V30 7004 C 674.223 5.38822 -2.19193 0
M  V30 7005 N 673.199 5.22974 -1.48321 0
M  V30 7006 H 677.001 2.67224 -1.22346 0
M  V30 7007 H 674.515 1.43187 -0.766236 0
M  V30 7008 H 676.512 4.09347 0.789997 0
M  V30 7009 H 675.172 3.00362 1.23341 0
M  V30 7010 H 676.183 4.77148 -2.01372 0
M  V30 7011 H 672.86 4.14614 0.49004 0
M  V30 7012 H 674.25 5.94615 -3.12861 0
M  V30 7013 N 676.97 0.677563 1.42291 0
M  V30 7014 C 677.918 -0.0106755 2.32598 0
M  V30 7015 C 678.912 -0.787643 1.49975 0
M  V30 7016 O 680.118 -0.695295 1.66029 0
M  V30 7017 H 676.493 -0.0222482 0.751671 0
M  V30 7018 H 678.464 0.768312 2.88339 0
M  V30 7019 C 677.213 -0.946142 3.3458 0
M  V30 7020 H 676.536 -0.357701 3.98197 0
M  V30 7021 H 677.976 -1.39634 4.00348 0
M  V30 7022 C 676.435 -2.05383 2.67057 0
M  V30 7023 O 676.965 -3.1406 2.50458 0
M  V30 7024 N 675.171 -1.82635 2.26038 0
M  V30 7025 H 674.718 -0.942534 2.39737 0
M  V30 7026 H 674.676 -2.56937 1.81192 0
M  V30 7027 N 678.448 -1.51871 0.421078 0
M  V30 7028 C 679.695 -2.01938 -0.15079 0
M  V30 7029 C 680.023 -1.30611 -1.44121 0
M  V30 7030 O 679.278 -0.404631 -1.91471 0
M  V30 7031 C 679.577 -3.54764 -0.433292 0
M  V30 7032 C 679.243 -4.44288 0.76936 0
M  V30 7033 C 677.905 -4.68477 1.09921 0
M  V30 7034 C 680.257 -4.96915 1.57242 0
M  V30 7035 C 677.585 -5.4254 2.2331 0
M  V30 7036 C 679.937 -5.7222 2.69716 0
M  V30 7037 C 678.601 -5.94678 3.03174 0
M  V30 7038 H 677.871 -0.738943 -0.0551781 0
M  V30 7039 H 680.518 -1.82977 0.564945 0
M  V30 7040 H 678.823 -3.71968 -1.23074 0
M  V30 7041 H 680.52 -3.91023 -0.888922 0
M  V30 7042 H 677.11 -4.25646 0.502305 0
M  V30 7043 H 681.294 -4.78125 1.3308 0
M  V30 7044 H 676.55 -5.58146 2.49565 0
M  V30 7045 H 680.724 -6.11992 3.32323 0
M  V30 7046 H 678.351 -6.51848 3.9115 0
M  V30 7047 N 679.926 -0.151884 -1.56866 0
M  V30 7048 C 680.889 0.771861 -2.15812 0
M  V30 7049 C 681.889 1.17181 -1.10115 0
M  V30 7050 O 683.079 1.09194 -1.35729 0
M  V30 7051 C 680.211 2.04806 -2.7252 0
M  V30 7052 H 681.404 0.259021 -2.98779 0
M  V30 7053 H 678.957 0.097588 -1.55995 0
M  V30 7054 H 679.692 2.60445 -1.93233 0
M  V30 7055 H 679.477 1.77044 -3.49854 0
M  V30 7056 H 680.967 2.70771 -3.1792 0
M  V30 7057 N 681.404 1.57128 0.121893 0
M  V30 7058 C 682.65 1.84974 0.831418 0
M  V30 7059 C 682.983 0.737204 1.79663 0
M  V30 7060 O 682.258 -0.257199 1.92792 0
M  V30 7061 C 682.541 3.23397 1.58386 0
M  V30 7062 C 682.394 4.45246 0.638445 0
M  V30 7063 C 683.713 3.59355 2.54071 0
M  V30 7064 H 680.832 0.67282 0.300803 0
M  V30 7065 H 683.474 1.89759 0.0957587 0
M  V30 7066 H 681.624 3.19449 2.21098 0
M  V30 7067 H 683.296 4.61295 0.0203925 0
M  V30 7068 H 681.539 4.33771 -0.05023 0
M  V30 7069 H 682.21 5.38765 1.20151 0
M  V30 7070 H 684.686 3.64075 2.01465 0
M  V30 7071 H 683.562 4.57193 3.03752 0
M  V30 7072 H 683.823 2.86622 3.36601 0
M  V30 7073 N 682.882 -0.391992 1.52647 0
M  V30 7074 C 684.131 -1.13449 1.6677 0
M  V30 7075 C 684.444 -1.91203 0.412399 0
M  V30 7076 O 685.65 -2.68013 0.433707 0
M  V30 7077 C 684.106 -2.06577 2.9471 0
M  V30 7078 C 683.714 -1.3426 4.27409 0
M  V30 7079 C 685.458 -2.80981 3.18198 0
M  V30 7080 C 683.365 -2.26136 5.46458 0
M  V30 7081 H 682.295 -0.427211 0.621295 0
M  V30 7082 H 684.946 -0.397522 1.79142 0
M  V30 7083 H 683.328 -2.83898 2.76076 0
M  V30 7084 H 684.502 -0.621856 4.56585 0
M  V30 7085 H 682.817 -0.718279 4.10158 0
M  V30 7086 H 685.414 -3.49898 4.04321 0
M  V30 7087 H 685.757 -3.44891 2.33144 0
M  V30 7088 H 686.29 -2.10754 3.37383 0
M  V30 7089 H 683.029 -1.66846 6.33911 0
M  V30 7090 H 682.549 -2.96134 5.21598 0
M  V30 7091 H 684.228 -2.86286 5.80215 0
M  V30 7092 N 684.36 -1.4356 -0.65026 0
M  V30 7093 C 685.308 -1.49219 -1.78427 0
M  V30 7094 C 686.302 -0.365528 -1.65409 0
M  V30 7095 O 687.508 -0.539649 -1.7172 0
M  V30 7096 H 683.883 -0.467858 -0.588738 0
M  V30 7097 H 685.854 -2.44701 -1.70774 0
M  V30 7098 C 684.603 -1.43519 -3.16698 0
M  V30 7099 H 683.926 -2.2952 -3.27354 0
M  V30 7100 H 685.366 -1.5154 -3.95995 0
M  V30 7101 C 683.825 -0.153197 -3.36552 0
M  V30 7102 O 684.355 0.784317 -3.93969 0
M  V30 7103 N 682.561 -0.0624402 -2.90533 0
M  V30 7104 H 682.108 -0.826172 -2.43992 0
M  V30 7105 H 682.066 0.794616 -3.04193 0
M  V30 7106 N 685.838 0.888903 -1.30139 0
M  V30 7107 C 687.087 1.63507 -1.18103 0
M  V30 7108 C 687.4 1.93808 0.264141 0
M  V30 7109 O 688.606 2.66744 0.505966 0
M  V30 7110 C 687.062 2.94673 -2.0663 0
M  V30 7111 C 686.67 2.71926 -3.56034 0
M  V30 7112 C 688.414 3.72626 -2.03346 0
M  V30 7113 C 686.321 3.98884 -4.3663 0
M  V30 7114 H 685.251 0.613426 -0.438435 0
M  V30 7115 H 687.902 0.984427 -1.54859 0
M  V30 7116 H 686.284 3.61009 -1.62754 0
M  V30 7117 H 687.458 2.14116 -4.08033 0
M  V30 7118 H 685.773 2.07353 -3.61101 0
M  V30 7119 H 688.37 4.66775 -2.60816 0
M  V30 7120 H 688.713 4.03712 -1.016 0
M  V30 7121 H 689.246 3.13147 -2.45324 0
M  V30 7122 H 685.985 3.72959 -5.39056 0
M  V30 7123 H 685.505 4.56214 -3.89396 0
M  V30 7124 H 687.184 4.66938 -4.47859 0
M  V30 7125 N 687.317 1.12792 1.10072 0
M  V30 7126 C 688.542 0.908838 1.86427 0
M  V30 7127 C 688.967 -0.536793 1.80278 0
M  V30 7128 O 688.325 -1.38033 1.17543 0
M  V30 7129 C 688.373 1.39295 3.3261 0
M  V30 7130 O 687.477 0.573846 4.08388 0
M  V30 7131 H 686.818 0.326234 0.578331 0
M  V30 7132 H 689.348 1.50094 1.39043 0
M  V30 7133 H 689.358 1.39366 3.83459 0
M  V30 7134 H 688.033 2.44555 3.36401 0
M  V30 7135 H 686.61 0.640438 3.67359 0
M  V30 7136 N 688.795 -1.27931 0.920396 0
M  V30 7137 C 690.02 -1.99343 0.572478 0
M  V30 7138 C 690.445 -1.68267 -0.840696 0
M  V30 7139 O 689.803 -0.918805 -1.56294 0
M  V30 7140 C 689.851 -3.51698 0.796284 0
M  V30 7141 O 688.955 -4.12157 -0.141602 0
M  V30 7142 H 688.296 -0.626065 0.221221 0
M  V30 7143 H 690.826 -1.62921 1.23765 0
M  V30 7144 H 690.836 -4.01793 0.708984 0
M  V30 7145 H 689.511 -3.73649 1.82644 0
M  V30 7146 H 688.088 -3.729 -0.005007 0
M  V30 7147 N 690.273 -0.685099 -1.4193 0
M  V30 7148 C 691.183 -0.013404 -2.34596 0
M  V30 7149 C 692.199 0.777589 -1.55658 0
M  V30 7150 O 693.375 0.717553 -1.88184 0
M  V30 7151 C 690.44 0.919031 -3.34297 0
M  V30 7152 C 689.501 0.121417 -4.29128 0
M  V30 7153 C 688.734 1.00944 -5.24067 0
M  V30 7154 O 688.957 2.24898 -5.24192 0
M  V30 7155 O 687.891 0.464724 -6.00103 0
M  V30 7156 H 691.717 -0.776978 -2.93593 0
M  V30 7157 H 689.302 -0.445379 -1.42607 0
M  V30 7158 H 691.184 1.45402 -3.9552 0
M  V30 7159 H 689.859 1.66228 -2.77759 0
M  V30 7160 H 688.766 -0.45792 -3.71287 0
M  V30 7161 H 690.099 -0.582937 -4.88736 0
M  V30 7162 N 691.751 1.51645 -0.429126 0
M  V30 7163 C 693.162 1.86665 0.0359003 0
M  V30 7164 C 693.513 1.34677 1.42676 0
M  V30 7165 O 692.638 0.694195 2.04963 0
M  V30 7166 C 693.233 3.38724 0.0719221 0
M  V30 7167 C 691.792 3.7331 0.481336 0
M  V30 7168 C 690.939 2.75313 -0.331329 0
M  V30 7169 H 693.89 1.44987 -0.645333 0
M  V30 7170 H 693.911 3.7011 0.883118 0
M  V30 7171 H 693.423 3.76532 -0.940495 0
M  V30 7172 H 691.524 3.41088 1.49966 0
M  V30 7173 H 691.637 4.78631 0.211837 0
M  V30 7174 H 690.001 2.53839 0.209204 0
M  V30 7175 H 690.784 3.15963 -1.34247 0
M  V30 7176 N 693.229 0.160201 1.56784 0
M  V30 7177 C 694.459 -0.493449 2.00621 0
M  V30 7178 C 694.867 -1.5809 1.03943 0
M  V30 7179 O 694.21 -1.83675 0.0305343 0
M  V30 7180 C 694.272 -1.14169 3.4089 0
M  V30 7181 C 693.936 -0.197243 4.56574 0
M  V30 7182 C 694.933 0.580174 5.16653 0
M  V30 7183 C 692.618 -0.0963038 5.02208 0
M  V30 7184 C 694.612 1.44584 6.20785 0
M  V30 7185 C 692.299 0.772959 6.06192 0
M  V30 7186 C 693.297 1.54263 6.65351 0
M  V30 7187 O 692.985 2.39738 7.67321 0
M  V30 7188 H 692.717 -0.131764 0.663034 0
M  V30 7189 H 695.271 0.255728 2.03802 0
M  V30 7190 H 693.501 -1.93877 3.34587 0
M  V30 7191 H 695.19 -1.69641 3.6875 0
M  V30 7192 H 695.956 0.5123 4.82287 0
M  V30 7193 H 691.835 -0.685143 4.5588 0
M  V30 7194 H 695.379 2.04706 6.66889 0
M  V30 7195 H 691.276 0.842077 6.39984 0
M  V30 7196 H 692.044 2.33131 7.84597 0
M  V30 7197 N 694.707 -1.5719 -0.113559 0
M  V30 7198 C 695.954 -1.85138 -0.820382 0
M  V30 7199 C 696.282 -0.74608 -1.79622 0
M  V30 7200 O 695.537 0.262077 -1.93937 0
M  V30 7201 C 695.836 -3.19593 -1.59984 0
M  V30 7202 C 695.502 -4.44315 -0.767809 0
M  V30 7203 C 694.164 -4.78179 -0.538379 0
M  V30 7204 C 696.516 -5.2086 -0.188203 0
M  V30 7205 C 693.844 -5.86028 0.28082 0
M  V30 7206 C 696.196 -6.29572 0.618217 0
M  V30 7207 C 694.86 -6.61964 0.857912 0
M  V30 7208 H 694.13 -0.677467 -0.300199 0
M  V30 7209 H 696.777 -1.91322 -0.0825443 0
M  V30 7210 H 695.082 -3.0901 -2.40874 0
M  V30 7211 H 696.779 -3.3844 -2.1508 0
M  V30 7212 H 693.369 -4.17786 -0.956724 0
M  V30 7213 H 697.553 -4.95045 -0.352658 0
M  V30 7214 H 692.809 -6.09547 0.475693 0
M  V30 7215 H 696.983 -6.88064 1.0743 0
M  V30 7216 H 694.61 -7.45365 1.49451 0
M  V30 7217 N 696.185 0.383891 -1.52853 0
M  V30 7218 C 697.433 1.12619 -1.67814 0
M  V30 7219 C 697.754 1.90354 -0.423141 0
M  V30 7220 O 697.024 1.87649 0.562554 0
M  V30 7221 H 695.604 0.418738 -0.618601 0
M  V30 7222 H 698.266 0.43495 -1.89985 0
M  V30 7223 H 697.362 1.82624 -2.5309 0
M  V30 7224 N 697.663 1.43903 0.642637 0
M  V30 7225 C 698.94 1.36556 1.40043 0
M  V30 7226 C 699.32 0.0185588 2.11092 0
M  V30 7227 O 698.668 -0.998438 2.05532 0
M  V30 7228 C 698.878 2.55596 2.37638 0
M  V30 7229 C 700.226 2.99153 3.01318 0
M  V30 7230 O 701.25 2.55719 2.47965 0
M  V30 7231 O 700.109 3.74427 3.98078 0
M  V30 7232 H 697.203 0.540189 0.626198 0
M  V30 7233 H 699.749 1.55971 0.668657 0
M  V30 7234 H 698.521 3.45256 1.84158 0
M  V30 7235 H 698.144 2.38334 3.18249 0
M  V30 7236 N 699.141 -0.881989 1.30609 0
M  V30 7237 C 700.389 -1.63082 1.19368 0
M  V30 7238 C 700.71 -1.93376 -0.251147 0
M  V30 7239 O 699.98 -1.5723 -1.16857 0
M  V30 7240 H 698.56 -0.604542 0.438791 0
M  V30 7241 H 701.222 -1.05658 1.63776 0
M  V30 7242 H 700.318 -2.57966 1.7567 0
M  V30 7243 N 700.619 -1.13374 -1.09472 0
M  V30 7244 C 702.03 -0.90801 -1.63132 0
M  V30 7245 C 702.381 0.555576 -1.8817 0
M  V30 7246 O 701.506 1.42218 -1.63104 0
M  V30 7247 C 702.101 -1.64182 -2.96361 0
M  V30 7248 C 700.66 -1.46197 -3.46848 0
M  V30 7249 C 699.807 -1.67134 -2.21273 0
M  V30 7250 H 702.758 -1.2871 -0.928411 0
M  V30 7251 H 702.779 -1.09863 -3.64294 0
M  V30 7252 H 702.291 -2.707 -2.78106 0
M  V30 7253 H 700.392 -0.419788 -3.70228 0
M  V30 7254 H 700.505 -2.22472 -4.24315 0
M  V30 7255 H 698.869 -1.09616 -2.29905 0
M  V30 7256 H 699.652 -2.74971 -2.05538 0
M  V30 7257 N 702.098 1.27442 -0.927168 0
M  V30 7258 C 703.347 1.93679 -0.563146 0
M  V30 7259 C 703.66 1.73673 0.899837 0
M  V30 7260 O 704.866 2.34247 1.37262 0
M  V30 7261 C 703.322 3.46961 -0.95636 0
M  V30 7262 C 702.93 3.75724 -2.43999 0
M  V30 7263 C 704.674 4.19282 -0.663565 0
M  V30 7264 C 702.581 5.22378 -2.77263 0
M  V30 7265 H 701.511 0.725059 -0.206894 0
M  V30 7266 H 704.162 1.44743 -1.12791 0
M  V30 7267 H 702.544 3.94703 -0.320254 0
M  V30 7268 H 703.718 3.38741 -3.12396 0
M  V30 7269 H 702.033 3.16605 -2.70463 0
M  V30 7270 H 704.63 5.27265 -0.888596 0
M  V30 7271 H 704.973 4.14382 0.399198 0
M  V30 7272 H 705.506 3.7736 -1.25875 0
M  V30 7273 H 702.245 5.32367 -3.82446 0
M  V30 7274 H 701.765 5.6051 -2.13516 0
M  V30 7275 H 703.444 5.9025 -2.64979 0
M  V30 7276 N 703.576 0.692616 1.41565 0
M  V30 7277 C 704.523 0.0254264 2.30786 0
M  V30 7278 C 705.493 -0.774347 1.46946 0
M  V30 7279 O 706.678 -0.742981 1.7574 0
M  V30 7280 C 703.818 -0.907123 3.32964 0
M  V30 7281 C 702.931 -0.0992784 4.31886 0
M  V30 7282 C 702.066 -1.0292 5.21134 0
M  V30 7283 C 701.105 -0.214088 6.11725 0
M  V30 7284 N 700.242 -1.09766 6.93467 0
M  V30 7285 H 705.082 0.792036 2.87282 0
M  V30 7286 H 702.619 0.4023 1.41492 0
M  V30 7287 H 704.577 -1.46181 3.90752 0
M  V30 7288 H 703.207 -1.64016 2.78026 0
M  V30 7289 H 702.259 0.572287 3.76071 0
M  V30 7290 H 703.571 0.532782 4.95946 0
M  V30 7291 H 702.725 -1.65321 5.83741 0
M  V30 7292 H 701.464 -1.69512 4.57293 0
M  V30 7293 H 700.469 0.42302 5.4817 0
M  V30 7294 H 701.694 0.447995 6.77621 0
M  V30 7295 H 699.64 -1.74965 6.32237 0
M  V30 7296 H 699.557 -0.521099 7.54202 0
M  V30 7297 H 700.825 -1.70858 7.60544 0
M  V30 7298 N 705.054 -1.51416 0.437162 0
M  V30 7299 C 706.279 -2.0699 -0.130424 0
M  V30 7300 C 706.704 -1.30249 -1.35709 0
M  V30 7301 O 706.062 -0.340388 -1.78076 0
M  V30 7302 C 706.11 -3.5801 -0.43142 0
M  V30 7303 O 705.214 -3.8345 -1.5179 0
M  V30 7304 H 704.555 -0.663997 -0.00194339 0
M  V30 7305 H 707.085 -1.95029 0.618445 0
M  V30 7306 H 707.095 -4.02261 -0.681926 0
M  V30 7307 H 705.77 -4.13291 0.465137 0
M  V30 7308 H 704.347 -3.51062 -1.25737 0
M  V30 7309 N 706.532 -0.168513 -1.56696 0
M  V30 7310 C 707.479 0.762875 -2.17828 0
M  V30 7311 C 708.449 1.22892 -1.11745 0
M  V30 7312 O 709.634 1.29759 -1.39883 0
M  V30 7313 C 706.774 1.9879 -2.82093 0
M  V30 7314 C 705.887 1.56568 -4.02629 0
M  V30 7315 C 705.022 2.74416 -4.54829 0
M  V30 7316 C 704.061 2.28671 -5.67782 0
M  V30 7317 N 703.198 3.39602 -6.14504 0
M  V30 7318 H 708.038 0.23479 -2.97074 0
M  V30 7319 H 705.575 0.104163 -1.46731 0
M  V30 7320 H 707.533 2.70636 -3.17509 0
M  V30 7321 H 706.163 2.48973 -2.05456 0
M  V30 7322 H 705.215 0.744067 -3.73052 0
M  V30 7323 H 706.527 1.18988 -4.844 0
M  V30 7324 H 705.681 3.54423 -4.92412 0
M  V30 7325 H 704.42 3.15254 -3.7211 0
M  V30 7326 H 703.425 1.4711 -5.29753 0
M  V30 7327 H 704.65 1.88894 -6.52301 0
M  V30 7328 H 702.596 3.80021 -5.34715 0
M  V30 7329 H 702.513 3.06105 -6.91257 0
M  V30 7330 H 703.781 4.19902 -6.56737 0
M  V30 7331 N 708.01 1.57248 0.105221 0
M  V30 7332 C 708.957 2.01338 1.12835 0
M  V30 7333 C 709.927 0.887897 1.40377 0
M  V30 7334 O 711.112 1.15315 1.5201 0
M  V30 7335 C 708.252 2.43432 2.44611 0
M  V30 7336 C 707.365 3.69457 2.23888 0
M  V30 7337 C 706.5 4.00473 3.48991 0
M  V30 7338 C 705.539 5.19638 3.23485 0
M  V30 7339 N 704.676 5.46457 4.40828 0
M  V30 7340 H 709.516 2.88527 0.745386 0
M  V30 7341 H 707.053 1.42714 0.356535 0
M  V30 7342 H 709.011 2.65879 3.21503 0
M  V30 7343 H 707.641 1.59266 2.80774 0
M  V30 7344 H 706.693 3.54545 1.37847 0
M  V30 7345 H 708.005 4.56497 2.01026 0
M  V30 7346 H 707.159 4.23642 4.34295 0
M  V30 7347 H 705.898 3.11935 3.74897 0
M  V30 7348 H 704.903 4.96299 2.36574 0
M  V30 7349 H 706.128 6.09766 2.98935 0
M  V30 7350 H 704.074 4.60876 4.66829 0
M  V30 7351 H 703.991 6.27849 4.2112 0
M  V30 7352 H 705.259 5.74155 5.27225 0
M  V30 7353 N 709.488 -0.375779 1.53054 0
M  V30 7354 C 710.418 -1.46598 1.81745 0
M  V30 7355 C 711.399 -1.56337 0.670286 0
M  V30 7356 O 712.584 -1.71071 0.919158 0
M  V30 7357 C 709.714 -2.84058 1.99821 0
M  V30 7358 C 708.668 -2.8915 3.15557 0
M  V30 7359 C 707.994 -4.29187 3.18908 0
M  V30 7360 C 709.294 -2.57595 4.54359 0
M  V30 7361 H 710.988 -1.22837 2.73041 0
M  V30 7362 H 708.534 -0.589485 1.31381 0
M  V30 7363 H 710.487 -3.60342 2.18475 0
M  V30 7364 H 709.211 -3.09184 1.05226 0
M  V30 7365 H 707.87 -2.15316 2.96706 0
M  V30 7366 H 707.518 -4.51374 2.2197 0
M  V30 7367 H 707.218 -4.33512 3.96662 0
M  V30 7368 H 708.742 -5.07359 3.39734 0
M  V30 7369 H 710.156 -3.23595 4.73243 0
M  V30 7370 H 708.553 -2.73252 5.34279 0
M  V30 7371 H 709.623 -1.52882 4.60169 0
M  V30 7372 N 710.966 -1.44241 -0.634997 0
M  V30 7373 C 711.896 -1.53632 -1.7584 0
M  V30 7374 C 712.877 -0.389603 -1.65578 0
M  V30 7375 O 714.062 -0.609219 -1.84397 0
M  V30 7376 C 711.192 -1.47644 -3.14354 0
M  V30 7377 C 710.146 -2.60752 -3.394 0
M  V30 7378 C 709.472 -2.39817 -4.77904 0
M  V30 7379 C 710.772 -4.02921 -3.32343 0
M  V30 7380 H 712.466 -2.47662 -1.68238 0
M  V30 7381 H 710.012 -1.19197 -0.807969 0
M  V30 7382 H 711.965 -1.52815 -3.92716 0
M  V30 7383 H 710.689 -0.501284 -3.2273 0
M  V30 7384 H 709.348 -2.54965 -2.63417 0
M  V30 7385 H 708.996 -1.40502 -4.82978 0
M  V30 7386 H 708.696 -3.15649 -4.9562 0
M  V30 7387 H 710.22 -2.46799 -5.585 0
M  V30 7388 H 711.634 -4.10098 -4.00615 0
M  V30 7389 H 710.031 -4.78925 -3.61595 0
M  V30 7390 H 711.101 -4.26766 -2.30215 0
M  V30 7391 N 712.444 0.87505 -1.31075 0
M  V30 7392 C 713.674 1.65818 -1.2324 0
M  V30 7393 C 714.082 1.8808 0.205536 0
M  V30 7394 O 713.425 1.43548 1.14628 0
M  V30 7395 C 713.487 3.05131 -1.90093 0
M  V30 7396 C 713.151 3.05999 -3.39432 0
M  V30 7397 C 714.148 2.84328 -4.35263 0
M  V30 7398 C 711.833 3.27281 -3.81041 0
M  V30 7399 C 713.827 2.83912 -5.70678 0
M  V30 7400 C 711.514 3.26493 -5.16571 0
M  V30 7401 C 712.512 3.04834 -6.112 0
M  V30 7402 O 712.2 3.03882 -7.44252 0
M  V30 7403 H 711.932 0.52387 -0.427242 0
M  V30 7404 H 714.486 1.10086 -1.73408 0
M  V30 7405 H 712.716 3.62568 -1.34468 0
M  V30 7406 H 714.405 3.65641 -1.76242 0
M  V30 7407 H 715.171 2.67673 -4.04445 0
M  V30 7408 H 711.05 3.43171 -3.07822 0
M  V30 7409 H 714.594 2.66925 -6.44513 0
M  V30 7410 H 710.491 3.42687 -5.47025 0
M  V30 7411 H 711.259 3.19979 -7.53363 0
M  V30 7412 N 713.922 1.13953 1.08869 0
M  V30 7413 C 714.869 0.82213 2.15661 0
M  V30 7414 C 715.839 -0.218274 1.6466 0
M  V30 7415 O 717.024 -0.0892475 1.90591 0
M  V30 7416 C 714.164 0.300572 3.43789 0
M  V30 7417 C 713.277 1.40071 4.08661 0
M  V30 7418 C 712.412 0.836897 5.24566 0
M  V30 7419 C 711.451 1.91504 5.81371 0
M  V30 7420 N 710.588 1.36875 6.88629 0
M  V30 7421 H 715.428 1.73683 2.42153 0
M  V30 7422 H 712.965 0.866879 1.18843 0
M  V30 7423 H 714.923 -0.0199943 4.17195 0
M  V30 7424 H 713.553 -0.577248 3.17597 0
M  V30 7425 H 712.605 1.83776 3.33062 0
M  V30 7426 H 713.917 2.21534 4.46905 0
M  V30 7427 H 713.071 0.467953 6.04893 0
M  V30 7428 H 711.81 -0.00874207 4.87699 0
M  V30 7429 H 710.815 2.29299 4.99702 0
M  V30 7430 H 712.04 2.76419 6.20298 0
M  V30 7431 H 709.986 0.545211 6.5373 0
M  V30 7432 H 709.903 2.1198 7.25672 0
M  V30 7433 H 711.171 1.02756 7.72698 0
M  V30 7434 N 715.4 -1.26948 0.933913 0
M  V30 7435 C 716.811 -1.76058 0.621324 0
M  V30 7436 C 717.162 -1.76175 -0.863522 0
M  V30 7437 O 716.287 -1.36921 -1.67576 0
M  V30 7438 C 716.882 -3.19713 1.12111 0
M  V30 7439 C 715.441 -3.66465 0.859074 0
M  V30 7440 C 714.588 -2.46186 1.27624 0
M  V30 7441 H 717.539 -1.13127 1.11301 0
M  V30 7442 H 717.56 -3.77566 0.471608 0
M  V30 7443 H 717.072 -3.19596 2.20182 0
M  V30 7444 H 715.173 -3.72021 -0.207566 0
M  V30 7445 H 715.286 -4.55636 1.48098 0
M  V30 7446 H 713.65 -2.45042 0.694727 0
M  V30 7447 H 714.433 -2.48774 2.36572 0
M  V30 7448 N 716.879 -0.700114 -1.41195 0
M  V30 7449 C 718.125 -0.233351 -2.01453 0
M  V30 7450 C 718.458 1.16548 -1.55339 0
M  V30 7451 O 717.733 1.78756 -0.766575 0
M  V30 7452 C 718.016 -0.2961 -3.58881 0
M  V30 7453 C 717.869 -1.7322 -4.15108 0
M  V30 7454 C 719.188 0.341525 -4.38773 0
M  V30 7455 H 716.307 -0.0862667 -0.731934 0
M  V30 7456 H 718.949 -0.889693 -1.67882 0
M  V30 7457 H 717.099 0.262736 -3.87611 0
M  V30 7458 H 718.771 -2.34523 -3.97236 0
M  V30 7459 H 717.014 -2.2649 -3.69979 0
M  V30 7460 H 717.685 -1.7276 -5.24269 0
M  V30 7461 H 720.161 -0.134461 -4.15883 0
M  V30 7462 H 719.037 0.267098 -5.4825 0
M  V30 7463 H 719.298 1.42289 -4.18577 0
M  V30 7464 N 718.357 1.51182 -0.445186 0
M  V30 7465 C 719.305 2.29531 0.376597 0
M  V30 7466 C 720.299 1.35711 1.01385 0
M  V30 7467 O 721.505 1.53018 0.947922 0
M  V30 7468 H 717.88 0.738803 0.140267 0
M  V30 7469 H 719.851 2.96838 -0.304958 0
M  V30 7470 C 718.6 3.1552 1.4609 0
M  V30 7471 H 717.923 3.87605 0.979912 0
M  V30 7472 H 719.363 3.73384 2.009 0
M  V30 7473 C 717.822 2.31406 2.44852 0
M  V30 7474 O 718.352 1.97912 3.49562 0
M  V30 7475 N 716.558 1.94478 2.15932 0
M  V30 7476 H 716.105 2.21917 1.30808 0
M  V30 7477 H 716.063 1.38498 2.82251 0
M  V30 7478 N 719.835 0.176821 1.56605 0
M  V30 7479 C 720.785 -0.763718 2.14829 0
M  V30 7480 C 721.769 -1.18903 1.08401 0
M  V30 7481 O 722.961 -1.15048 1.3451 0
M  V30 7482 C 720.09 -1.99069 2.7969 0
M  V30 7483 C 719.176 -1.58711 3.93283 0
M  V30 7484 N 719.567 -0.893423 4.97847 0
M  V30 7485 C 717.865 -1.87774 4.04545 0
M  V30 7486 C 718.566 -0.693866 5.77547 0
M  V30 7487 N 717.542 -1.23699 5.29339 0
M  V30 7488 H 721.344 -0.224811 2.93039 0
M  V30 7489 H 718.858 -0.0236563 1.62383 0
M  V30 7490 H 720.855 -2.67478 3.19783 0
M  V30 7491 H 719.515 -2.53449 2.02962 0
M  V30 7492 H 720.526 -0.550868 5.14962 0
M  V30 7493 H 717.203 -2.43793 3.38927 0
M  V30 7494 H 718.593 -0.144899 6.71744 0
M  V30 7495 N 721.313 -1.57302 -0.09688 0
M  V30 7496 C 722.543 -1.89926 -0.813114 0
M  V30 7497 C 722.951 -0.76852 -1.72888 0
M  V30 7498 O 722.294 0.268549 -1.81726 0
M  V30 7499 C 722.356 -3.17787 -1.68082 0
M  V30 7500 C 722.02 -4.4729 -0.937061 0
M  V30 7501 C 723.017 -5.1921 -0.267687 0
M  V30 7502 C 720.702 -4.93957 -0.911671 0
M  V30 7503 C 722.696 -6.36034 0.417129 0
M  V30 7504 C 720.383 -6.10693 -0.223068 0
M  V30 7505 C 721.381 -6.8158 0.440155 0
M  V30 7506 O 721.069 -7.96092 1.11772 0
M  V30 7507 H 720.801 -0.632783 -0.237828 0
M  V30 7508 H 723.355 -2.05248 -0.0790818 0
M  V30 7509 H 721.585 -2.98607 -2.45705 0
M  V30 7510 H 723.274 -3.36257 -2.27346 0
M  V30 7511 H 724.04 -4.84198 -0.278774 0
M  V30 7512 H 719.919 -4.38671 -1.41734 0
M  V30 7513 H 723.463 -6.91301 0.93537 0
M  V30 7514 H 719.36 -6.45159 -0.209821 0
M  V30 7515 H 720.128 -8.12064 1.02443 0
M  V30 7516 N 722.791 0.367657 -1.53252 0
M  V30 7517 C 723.701 1.47415 -1.82499 0
M  V30 7518 C 724.717 1.58711 -0.713222 0
M  V30 7519 O 725.893 1.74644 -1.00306 0
M  V30 7520 C 722.958 2.82706 -2.00694 0
M  V30 7521 C 722.019 2.80955 -3.24596 0
M  V30 7522 C 721.252 4.09793 -3.41914 0
M  V30 7523 O 721.475 5.05852 -2.63572 0
M  V30 7524 O 720.409 4.15731 -4.3526 0
M  V30 7525 H 724.235 1.25624 -2.765 0
M  V30 7526 H 721.82 0.557559 -1.38606 0
M  V30 7527 H 723.702 3.62873 -2.14246 0
M  V30 7528 H 722.377 3.04479 -1.09883 0
M  V30 7529 H 721.284 1.99494 -3.16469 0
M  V30 7530 H 722.617 2.64136 -4.15323 0
M  V30 7531 N 724.269 1.44576 0.627338 0
M  V30 7532 C 725.232 1.51372 1.72102 0
M  V30 7533 C 726.232 0.395329 1.55865 0
M  V30 7534 O 727.422 0.658094 1.61291 0
M  V30 7535 C 724.554 1.39129 3.11217 0
M  V30 7536 H 725.747 2.48798 1.6745 0
M  V30 7537 H 723.3 1.31724 0.841336 0
M  V30 7538 H 724.035 0.428114 3.21462 0
M  V30 7539 H 723.82 2.20229 3.24409 0
M  V30 7540 H 725.31 1.46874 3.90919 0
M  V30 7541 N 725.747 -0.868086 1.31537 0
M  V30 7542 C 726.993 -1.62359 1.2252 0
M  V30 7543 C 727.348 -1.91204 -0.214169 0
M  V30 7544 O 726.641 -1.5339 -1.14813 0
M  V30 7545 C 726.835 -2.95889 2.0046 0
M  V30 7546 C 726.664 -2.80082 3.5183 0
M  V30 7547 C 725.434 -2.7917 4.21179 0
M  V30 7548 C 727.632 -2.54805 4.46743 0
M  V30 7549 N 725.614 -2.54433 5.58692 0
M  V30 7550 C 726.985 -2.39349 5.71937 0
M  V30 7551 C 729.04 -2.40165 4.36148 0
M  V30 7552 C 727.743 -2.1074 6.87736 0
M  V30 7553 C 729.769 -2.12945 5.51732 0
M  V30 7554 C 729.131 -1.98278 6.75918 0
M  V30 7555 H 725.23 -0.598381 0.503452 0
M  V30 7556 H 727.814 -1.02156 1.65748 0
M  V30 7557 H 725.985 -3.54095 1.59598 0
M  V30 7558 H 727.717 -3.60734 1.83447 0
M  V30 7559 H 724.472 -2.91621 3.73168 0
M  V30 7560 H 724.896 -2.45029 6.31102 0
M  V30 7561 H 729.538 -2.50231 3.408 0
M  V30 7562 H 727.256 -1.99412 7.8311 0
M  V30 7563 H 730.842 -2.02415 5.45454 0
M  V30 7564 H 729.722 -1.77514 7.63845 0
M  V30 7565 N 727.225 -1.14528 -1.08264 0
M  V30 7566 C 728.157 -0.791325 -2.15106 0
M  V30 7567 C 729.17 0.192449 -1.61659 0
M  V30 7568 O 730.359 -0.0294704 -1.78476 0
M  V30 7569 C 727.459 -0.154183 -3.38549 0
M  V30 7570 C 726.632 -1.17305 -4.21377 0
M  V30 7571 C 725.691 -0.559401 -5.23218 0
M  V30 7572 O 724.717 -1.22277 -5.55911 0
M  V30 7573 N 725.919 0.663159 -5.767 0
M  V30 7574 H 728.684 -1.71076 -2.46075 0
M  V30 7575 H 726.245 -1.0399 -1.24087 0
M  V30 7576 H 728.237 0.268884 -4.03806 0
M  V30 7577 H 726.807 0.668418 -3.0537 0
M  V30 7578 H 726.027 -1.773 -3.52077 0
M  V30 7579 H 727.315 -1.86128 -4.73533 0
M  V30 7580 H 726.713 1.22066 -5.52373 0
M  V30 7581 H 725.27 1.02871 -6.43631 0
M  V30 7582 N 728.703 1.26451 -0.940633 0
M  V30 7583 C 729.653 2.24086 -0.420669 0
M  V30 7584 C 730.637 1.53501 0.482301 0
M  V30 7585 O 731.829 1.74127 0.317636 0
M  V30 7586 C 728.958 3.41866 0.313452 0
M  V30 7587 C 728.044 4.19737 -0.606779 0
M  V30 7588 N 728.435 4.7521 -1.73232 0
M  V30 7589 C 726.733 4.44091 -0.41226 0
M  V30 7590 C 727.434 5.34052 -2.30572 0
M  V30 7591 N 726.41 5.1971 -1.59381 0
M  V30 7592 H 730.212 2.64569 -1.27986 0
M  V30 7593 H 727.726 1.4153 -0.796436 0
M  V30 7594 H 729.723 4.1093 0.702991 0
M  V30 7595 H 728.383 3.0291 1.16942 0
M  V30 7596 H 729.394 4.72769 -2.11447 0
M  V30 7597 H 726.071 4.1556 0.401984 0
M  V30 7598 H 727.461 5.87845 -3.25404 0
M  V30 7599 N 730.181 0.707592 1.40822 0
M  V30 7600 C 731.43 0.240705 2.00259 0
M  V30 7601 C 731.743 -1.17027 1.56729 0
M  V30 7602 O 732.949 -1.73526 2.08809 0
M  V30 7603 C 731.405 0.379432 3.57894 0
M  V30 7604 C 731.013 1.79654 4.104 0
M  V30 7605 C 732.757 -0.0270684 4.24491 0
M  V30 7606 C 730.664 1.88628 5.60512 0
M  V30 7607 H 729.594 0.0862369 0.749052 0
M  V30 7608 H 732.245 0.877528 1.61157 0
M  V30 7609 H 730.627 -0.325842 3.94657 0
M  V30 7610 H 731.801 2.53155 3.85032 0
M  V30 7611 H 730.116 2.15379 3.56372 0
M  V30 7612 H 732.713 0.0193743 5.34696 0
M  V30 7613 H 733.056 -1.06772 4.02375 0
M  V30 7614 H 733.589 0.628361 3.92806 0
M  V30 7615 H 730.328 2.90787 5.87472 0
M  V30 7616 H 729.848 1.19528 5.8777 0
M  V30 7617 H 731.527 1.6547 6.25483 0
M  V30 7618 N 731.66 -1.50943 0.453197 0
M  V30 7619 C 732.592 -2.25922 -0.38623 0
M  V30 7620 C 733.605 -1.3055 -0.972652 0
M  V30 7621 O 734.794 -1.56191 -0.864097 0
M  V30 7622 C 731.894 -3.01176 -1.5539 0
M  V30 7623 C 731.067 -4.23768 -1.0835 0
M  V30 7624 C 730.126 -4.81466 -2.12313 0
M  V30 7625 O 729.152 -5.42875 -1.71101 0
M  V30 7626 N 730.354 -4.66889 -3.44956 0
M  V30 7627 H 733.119 -2.98601 0.256468 0
M  V30 7628 H 730.68 -1.59408 0.282965 0
M  V30 7629 H 732.672 -3.36659 -2.24594 0
M  V30 7630 H 731.242 -2.31409 -2.10163 0
M  V30 7631 H 730.462 -3.93597 -0.217961 0
M  V30 7632 H 731.75 -5.03289 -0.746857 0
M  V30 7633 H 731.148 -4.18011 -3.81161 0
M  V30 7634 H 729.705 -5.06691 -4.1001 0
M  V30 7635 N 733.138 -0.185124 -1.56509 0
M  V30 7636 C 734.384 0.456934 -1.97585 0
M  V30 7637 C 734.717 1.61957 -1.07161 0
M  V30 7638 O 733.992 1.9412 -0.121546 0
M  V30 7639 C 734.275 0.926666 -3.47973 0
M  V30 7640 C 734.128 -0.237097 -4.49175 0
M  V30 7641 C 735.447 1.79561 -4.01803 0
M  V30 7642 H 732.566 0.164619 -0.71838 0
M  V30 7643 H 735.208 -0.274039 -1.88013 0
M  V30 7644 H 733.358 1.54954 -3.56261 0
M  V30 7645 H 735.03 -0.87454 -4.52934 0
M  V30 7646 H 733.273 -0.890446 -4.24563 0
M  V30 7647 H 733.944 0.133924 -5.51838 0
M  V30 7648 H 736.42 1.27039 -3.96232 0
M  V30 7649 H 735.296 2.09327 -5.07418 0
M  V30 7650 H 735.557 2.74629 -3.46455 0
M  V30 7651 N 734.616 1.57351 0.0885366 0
M  V30 7652 C 735.844 1.90631 0.804196 0
M  V30 7653 C 736.259 0.779474 1.71958 0
M  V30 7654 O 735.616 -0.248179 1.80805 0
M  V30 7655 C 735.667 3.23568 1.61202 0
M  V30 7656 O 735.388 4.31917 0.733447 0
M  V30 7657 C 736.889 3.70753 2.43016 0
M  V30 7658 H 734.109 0.630501 0.229585 0
M  V30 7659 H 736.653 2.044 0.0638092 0
M  V30 7660 H 734.808 3.11377 2.30485 0
M  V30 7661 H 735.222 5.08297 1.29361 0
M  V30 7662 H 736.696 4.66447 2.9518 0
M  V30 7663 H 737.173 2.98922 3.2178 0
M  V30 7664 H 737.779 3.85834 1.7892 0
M  V30 7665 N 736.094 -0.359525 1.53444 0
M  V30 7666 C 737.042 -1.46104 1.80987 0
M  V30 7667 C 738.036 -1.55181 0.679351 0
M  V30 7668 O 739.242 -1.57995 0.862405 0
M  V30 7669 H 735.617 -0.486835 0.573145 0
M  V30 7670 H 737.588 -1.2008 2.73173 0
M  V30 7671 C 736.337 -2.82855 2.02208 0
M  V30 7672 H 735.66 -2.76631 2.88644 0
M  V30 7673 H 737.1 -3.59091 2.25455 0
M  V30 7674 C 735.559 -3.27192 0.802931 0
M  V30 7675 O 736.089 -4.017 -0.00544286 0
M  V30 7676 N 734.295 -2.83807 0.624657 0
M  V30 7677 H 733.842 -2.23339 1.28364 0
M  V30 7678 H 733.8 -3.13828 -0.189641 0
M  V30 7679 N 737.572 -1.44907 -0.619662 0
M  V30 7680 C 738.482 -1.55168 -1.75955 0
M  V30 7681 C 739.498 -0.43672 -1.6843 0
M  V30 7682 O 740.674 -0.695704 -1.89002 0
M  V30 7683 C 737.739 -1.50397 -3.12381 0
M  V30 7684 C 736.8 -2.72835 -3.31451 0
M  V30 7685 C 736.033 -2.68283 -4.61368 0
M  V30 7686 O 736.256 -1.74929 -5.42914 0
M  V30 7687 O 735.19 -3.59308 -4.82889 0
M  V30 7688 H 739.016 -2.51493 -1.7025 0
M  V30 7689 H 736.601 -1.27282 -0.782289 0
M  V30 7690 H 738.483 -1.50301 -3.93685 0
M  V30 7691 H 737.158 -0.572197 -3.18603 0
M  V30 7692 H 736.065 -2.78496 -2.49781 0
M  V30 7693 H 737.398 -3.65098 -3.30098 0
M  V30 7694 N 739.05 0.861098 -1.31996 0
M  V30 7695 C 740.299 1.60965 -1.21545 0
M  V30 7696 C 740.612 1.94325 0.222972 0
M  V30 7697 O 741.818 2.67757 0.449272 0
M  V30 7698 C 740.274 2.90223 -2.12834 0
M  V30 7699 C 739.882 2.64313 -3.61722 0
M  V30 7700 C 741.626 3.68229 -2.11205 0
M  V30 7701 C 739.533 3.89532 -4.44993 0
M  V30 7702 H 738.463 0.603988 -0.451348 0
M  V30 7703 H 741.114 0.951358 -1.56912 0
M  V30 7704 H 739.496 3.57475 -1.70375 0
M  V30 7705 H 740.67 2.05413 -4.12483 0
M  V30 7706 H 738.985 1.99647 -3.65418 0
M  V30 7707 H 741.582 4.61138 -2.70658 0
M  V30 7708 H 741.925 4.01466 -1.1014 0
M  V30 7709 H 742.458 3.07873 -2.51911 0
M  V30 7710 H 739.197 3.61441 -5.46846 0
M  V30 7711 H 738.717 4.47851 -3.98985 0
M  V30 7712 H 740.396 4.57334 -4.57663 0
M  V30 7713 N 740.528 1.15101 1.07655 0
M  V30 7714 C 741.774 0.925343 1.80458 0
M  V30 7715 C 742.107 -0.546354 1.86356 0
M  V30 7716 O 741.382 -1.40496 1.34503 0
M  V30 7717 C 741.665 1.53646 3.25676 0
M  V30 7718 C 741.518 3.07854 3.27942 0
M  V30 7719 C 742.837 1.21968 4.22861 0
M  V30 7720 H 739.956 0.337592 0.655134 0
M  V30 7721 H 742.598 1.42217 1.25993 0
M  V30 7722 H 740.748 1.11395 3.72187 0
M  V30 7723 H 742.42 3.58989 2.89697 0
M  V30 7724 H 740.663 3.41904 2.66991 0
M  V30 7725 H 741.334 3.45725 4.30324 0
M  V30 7726 H 743.81 1.5851 3.84726 0
M  V30 7727 H 742.686 1.67349 5.22767 0
M  V30 7728 H 742.947 0.136207 4.4189 0
M  V30 7729 N 742.006 -1.2595 0.947325 0
M  V30 7730 C 743.234 -1.97544 0.615127 0
M  V30 7731 C 743.649 -1.70484 -0.811221 0
M  V30 7732 O 743.006 -0.97662 -1.5417 0
M  V30 7733 C 743.057 -3.51236 0.855328 0
M  V30 7734 O 742.778 -3.77359 2.22558 0
M  V30 7735 C 744.279 -4.40066 0.534515 0
M  V30 7736 H 741.499 -0.629888 0.231263 0
M  V30 7737 H 744.043 -1.60308 1.26971 0
M  V30 7738 H 742.198 -3.8661 0.247266 0
M  V30 7739 H 742.612 -4.71857 2.29022 0
M  V30 7740 H 744.086 -5.46838 0.753168 0
M  V30 7741 H 744.563 -4.35982 -0.530701 0
M  V30 7742 H 745.169 -4.10245 1.12158 0
M  V30 7743 N 743.484 -0.715051 -1.40445 0
M  V30 7744 C 744.414 -0.0768699 -2.33373 0
M  V30 7745 C 745.395 0.746109 -1.52863 0
M  V30 7746 O 746.58 0.695142 -1.81332 0
M  V30 7747 C 743.71 0.846014 -3.36838 0
M  V30 7748 C 742.664 0.128694 -4.27806 0
M  V30 7749 C 741.99 1.16726 -5.21804 0
M  V30 7750 C 743.29 -1.01679 -5.12307 0
M  V30 7751 H 744.984 -0.853061 -2.8699 0
M  V30 7752 H 742.53 -0.41167 -1.3799 0
M  V30 7753 H 744.483 1.30185 -4.00786 0
M  V30 7754 H 743.207 1.6541 -2.81615 0
M  V30 7755 H 741.866 -0.307314 -3.6531 0
M  V30 7756 H 741.514 1.96838 -4.62887 0
M  V30 7757 H 741.214 0.692188 -5.83509 0
M  V30 7758 H 742.738 1.62321 -5.88629 0
M  V30 7759 H 744.152 -0.640337 -5.69713 0
M  V30 7760 H 742.549 -1.4202 -5.83053 0
M  V30 7761 H 743.619 -1.84769 -4.48317 0
M  V30 7762 N 744.962 1.50701 -0.461195 0
M  V30 7763 C 745.91 2.29918 0.352231 0
M  V30 7764 C 746.904 1.36778 0.999403 0
M  V30 7765 O 748.11 1.54015 0.931639 0
M  V30 7766 H 744.485 0.740249 0.132423 0
M  V30 7767 H 746.456 2.96497 -0.336424 0
M  V30 7768 C 745.205 3.17052 1.42736 0
M  V30 7769 H 744.528 3.88623 0.938747 0
M  V30 7770 H 745.968 3.75493 1.96928 0
M  V30 7771 C 744.427 2.3399 2.42384 0
M  V30 7772 O 744.957 2.01608 3.47444 0
M  V30 7773 N 743.163 1.96758 2.13857 0
M  V30 7774 H 742.71 2.23292 1.28447 0
M  V30 7775 H 742.668 1.41484 2.80766 0
M  V30 7776 N 746.441 0.193421 1.56409 0
M  V30 7777 C 747.671 -0.450783 2.01622 0
M  V30 7778 C 748.079 -1.5585 1.07273 0
M  V30 7779 O 747.422 -1.83569 0.0694875 0
M  V30 7780 C 747.484 -1.06913 3.43235 0
M  V30 7781 C 747.148 -0.100352 4.5689 0
M  V30 7782 C 748.145 0.689633 5.15306 0
M  V30 7783 C 745.83 0.0102436 5.02299 0
M  V30 7784 C 747.824 1.5772 6.17579 0
M  V30 7785 C 745.511 0.901368 6.04416 0
M  V30 7786 C 746.509 1.68341 6.61929 0
M  V30 7787 O 746.197 2.5596 7.62063 0
M  V30 7788 H 745.929 -0.117671 0.66568 0
M  V30 7789 H 748.483 0.2989 2.03214 0
M  V30 7790 H 746.713 -1.86736 3.38624 0
M  V30 7791 H 748.402 -1.61781 3.72266 0
M  V30 7792 H 749.168 0.614485 4.81092 0
M  V30 7793 H 745.047 -0.58829 4.57231 0
M  V30 7794 H 748.591 2.18805 6.62397 0
M  V30 7795 H 744.488 0.977637 6.38054 0
M  V30 7796 H 745.256 2.49721 7.79475 0
M  V30 7797 N 747.919 -1.57396 -0.0801906 0
M  V30 7798 C 748.849 -2.06145 -1.09665 0
M  V30 7799 C 749.83 -0.953273 -1.40878 0
M  V30 7800 O 751.015 -1.22548 -1.50651 0
M  V30 7801 C 748.145 -2.49836 -2.41245 0
M  V30 7802 C 747.099 -3.64454 -2.24405 0
M  V30 7803 C 746.425 -3.94172 -3.61293 0
M  V30 7804 C 747.725 -4.94807 -1.67223 0
M  V30 7805 H 749.419 -2.91316 -0.691028 0
M  V30 7806 H 746.965 -1.40145 -0.330957 0
M  V30 7807 H 748.918 -2.82552 -3.12638 0
M  V30 7808 H 747.642 -1.61683 -2.83771 0
M  V30 7809 H 746.301 -3.32008 -1.55454 0
M  V30 7810 H 745.949 -3.03163 -4.01374 0
M  V30 7811 H 745.649 -4.71345 -3.50867 0
M  V30 7812 H 747.173 -4.29376 -4.3413 0
M  V30 7813 H 748.587 -5.25807 -2.28472 0
M  V30 7814 H 746.984 -5.76245 -1.67515 0
M  V30 7815 H 748.054 -4.80751 -0.632944 0
M  V30 7816 N 749.397 0.351382 -1.53633 0
M  V30 7817 C 750.307 1.45471 -1.84052 0
M  V30 7818 C 751.323 1.57945 -0.730015 0
M  V30 7819 O 752.499 1.73571 -1.02153 0
M  V30 7820 C 749.564 2.80562 -2.03681 0
M  V30 7821 C 748.625 2.77497 -3.27558 0
M  V30 7822 C 747.858 4.06144 -3.46241 0
M  V30 7823 O 748.081 5.03028 -2.68922 0
M  V30 7824 O 747.015 4.11092 -4.39645 0
M  V30 7825 H 750.841 1.22684 -2.77817 0
M  V30 7826 H 748.426 0.542827 -1.3919 0
M  V30 7827 H 750.308 3.6058 -2.18082 0
M  V30 7828 H 748.983 3.03296 -1.13106 0
M  V30 7829 H 747.89 1.96126 -3.18568 0
M  V30 7830 H 749.223 2.59716 -4.18101 0
M  V30 7831 N 750.875 1.45233 0.611969 0
M  V30 7832 C 752.286 1.4354 1.19387 0
M  V30 7833 C 752.637 0.160713 1.95541 0
M  V30 7834 O 751.762 -0.737954 2.03429 0
M  V30 7835 C 752.357 2.60045 2.17169 0
M  V30 7836 C 750.916 2.61486 2.70744 0
M  V30 7837 C 750.063 2.35708 1.46072 0
M  V30 7838 H 753.014 1.53536 0.401529 0
M  V30 7839 H 753.035 2.33893 3.00124 0
M  V30 7840 H 752.547 3.52803 1.61714 0
M  V30 7841 H 750.648 1.72721 3.30149 0
M  V30 7842 H 750.761 3.60572 3.15476 0
M  V30 7843 H 749.125 1.85178 1.74875 0
M  V30 7844 H 749.908 3.30606 0.924922 0
M  V30 7845 N 752.353 -0.854086 1.3245 0
M  V30 7846 C 753.769 -1.14238 1.11453 0
M  V30 7847 C 753.969 -2.01228 -0.10461 0
M  V30 7848 O 753.025 -2.39845 -0.789339 0
M  V30 7849 C 754.338 -1.81916 2.39431 0
M  V30 7850 C 755.886 -1.94549 2.45193 0
M  V30 7851 C 756.361 -2.65642 3.73093 0
M  V30 7852 N 757.852 -2.73167 3.74078 0
M  V30 7853 C 758.587 -3.28828 4.69744 0
M  V30 7854 N 758.083 -3.85295 5.75778 0
M  V30 7855 N 759.876 -3.26936 4.57241 0
M  V30 7856 H 752.027 -0.274786 2.10615 0
M  V30 7857 H 754.29 -0.184375 0.929898 0
M  V30 7858 H 753.996 -1.25452 3.28565 0
M  V30 7859 H 753.87 -2.82068 2.50434 0
M  V30 7860 H 756.257 -2.50172 1.56518 0
M  V30 7861 H 756.338 -0.933914 2.38142 0
M  V30 7862 H 755.982 -2.10683 4.62142 0
M  V30 7863 H 755.912 -3.6724 3.77415 0
M  V30 7864 H 758.403 -2.33108 2.97438 0
M  V30 7865 H 758.716 -4.25925 6.44832 0
M  V30 7866 H 757.061 -3.83625 5.79531 0
M  V30 7867 H 760.252 -2.8207 3.7357 0
M  V30 7868 H 760.425 -3.70014 5.31971 0
M  V30 7869 N 753.831 -1.1567 -1.07043 0
M  V30 7870 C 755.059 -0.957471 -1.83412 0
M  V30 7871 C 755.474 0.494271 -1.82215 0
M  V30 7872 O 754.831 1.34288 -1.23584 0
M  V30 7873 C 754.882 -1.46784 -3.30359 0
M  V30 7874 O 754.603 -2.86271 -3.31633 0
M  V30 7875 C 756.104 -1.31054 -4.23485 0
M  V30 7876 H 753.324 -0.33986 -0.578564 0
M  V30 7877 H 755.868 -1.53518 -1.35102 0
M  V30 7878 H 754.023 -0.932586 -3.76007 0
M  V30 7879 H 754.437 -3.0948 -4.23465 0
M  V30 7880 H 755.911 -1.71605 -5.24648 0
M  V30 7881 H 756.388 -0.255107 -4.38458 0
M  V30 7882 H 756.994 -1.83503 -3.83676 0
M  V30 7883 N 755.309 1.25446 -0.953992 0
M  V30 7884 C 756.219 2.29632 -0.480264 0
M  V30 7885 C 757.235 1.68025 0.452071 0
M  V30 7886 O 758.411 1.98703 0.328472 0
M  V30 7887 C 755.476 3.45903 0.234974 0
M  V30 7888 C 754.537 4.22953 -0.735495 0
M  V30 7889 C 753.77 5.33672 -0.0542957 0
M  V30 7890 O 753.993 5.58477 1.16018 0
M  V30 7891 O 752.927 5.9734 -0.739509 0
M  V30 7892 H 756.753 2.72242 -1.34602 0
M  V30 7893 H 754.338 1.30883 -0.720419 0
M  V30 7894 H 756.22 4.16552 0.637341 0
M  V30 7895 H 754.895 3.05296 1.07592 0
M  V30 7896 H 753.802 3.54734 -1.18806 0
M  V30 7897 H 755.135 4.67341 -1.54444 0
M  V30 7898 N 756.787 0.722489 1.40064 0
M  V30 7899 C 758.017 0.274439 2.04769 0
M  V30 7900 C 758.425 -1.09125 1.54559 0
M  V30 7901 O 757.768 -1.69834 0.700149 0
M  V30 7902 C 757.83 0.184091 3.59028 0
M  V30 7903 C 757.494 1.48619 4.32159 0
M  V30 7904 C 758.491 2.42947 4.59644 0
M  V30 7905 C 756.176 1.74703 4.7094 0
M  V30 7906 C 758.17 3.616 5.24904 0
M  V30 7907 C 755.857 2.93636 5.3593 0
M  V30 7908 C 756.855 3.86907 5.62843 0
M  V30 7909 O 756.543 5.03753 6.26489 0
M  V30 7910 H 756.275 0.119847 0.665292 0
M  V30 7911 H 758.829 0.983352 1.80331 0
M  V30 7912 H 757.059 -0.580821 3.82313 0
M  V30 7913 H 758.748 -0.230306 4.05246 0
M  V30 7914 H 759.514 2.24062 4.30141 0
M  V30 7915 H 755.393 1.02955 4.49356 0
M  V30 7916 H 758.937 4.34418 5.45827 0
M  V30 7917 H 754.834 3.12428 5.64853 0
M  V30 7918 H 755.602 5.03922 6.44984 0
M  V30 7919 N 758.265 -1.50454 0.469181 0
M  V30 7920 C 759.175 -2.32248 -0.331349 0
M  V30 7921 C 760.191 -1.42548 -0.997807 0
M  V30 7922 O 761.367 -1.75602 -0.9862 0
M  V30 7923 C 758.432 -3.17171 -1.40012 0
M  V30 7924 C 757.493 -4.2269 -0.750463 0
M  V30 7925 C 756.726 -5.03554 -1.76831 0
M  V30 7926 O 756.949 -4.85469 -2.99459 0
M  V30 7927 O 755.883 -5.86767 -1.3412 0
M  V30 7928 H 759.709 -3.01821 0.337279 0
M  V30 7929 H 757.294 -1.47602 0.231066 0
M  V30 7930 H 759.176 -3.69871 -2.01924 0
M  V30 7931 H 757.851 -2.50328 -2.05226 0
M  V30 7932 H 756.758 -3.73986 -0.0924446 0
M  V30 7933 H 758.091 -4.91997 -0.14131 0
M  V30 7934 N 759.743 -0.201713 -1.56304 0
M  V30 7935 C 760.673 0.71155 -2.22394 0
M  V30 7936 C 761.654 1.21625 -1.18917 0
M  V30 7937 O 762.839 1.26388 -1.47444 0
M  V30 7938 C 759.969 1.92837 -2.88845 0
M  V30 7939 C 758.923 1.55831 -3.98623 0
M  V30 7940 C 758.249 2.85228 -4.52271 0
M  V30 7941 C 759.549 0.763249 -5.16693 0
M  V30 7942 H 761.243 0.160573 -2.98969 0
M  V30 7943 H 758.789 0.0757916 -1.438 0
M  V30 7944 H 760.742 2.57253 -3.33764 0
M  V30 7945 H 759.466 2.50398 -2.09686 0
M  V30 7946 H 758.125 0.9377 -3.54405 0
M  V30 7947 H 757.773 3.40893 -3.69866 0
M  V30 7948 H 757.473 2.6121 -5.26349 0
M  V30 7949 H 758.997 3.50622 -4.99897 0
M  V30 7950 H 760.411 1.31066 -5.58117 0
M  V30 7951 H 758.808 0.620935 -5.96879 0
M  V30 7952 H 759.878 -0.234322 -4.84334 0
M  V30 7953 N 761.222 1.57436 0.0718424 0
M  V30 7954 C 762.462 1.89082 0.776351 0
M  V30 7955 C 762.826 0.795494 1.74745 0
M  V30 7956 O 764.027 0.995025 2.49705 0
M  V30 7957 C 762.298 3.25958 1.46582 0
M  V30 7958 S 763.857 3.79352 2.2054 0
M  V30 7959 H 760.675 0.662472 0.25817 0
M  V30 7960 H 763.277 1.95473 0.0324536 0
M  V30 7961 H 761.981 4.03577 0.745237 0
M  V30 7962 H 761.512 3.22764 2.24915 0
M  V30 7963 H 763.527 3.54634 3.47058 0
M  V30 7964 N 762.7 -0.34323 1.53817 0
M  V30 7965 C 763.946 -1.08504 1.71332 0
M  V30 7966 C 764.279 -1.88294 0.475285 0
M  V30 7967 O 763.554 -1.87205 -0.527688 0
M  V30 7968 C 763.837 -2.02597 2.97702 0
M  V30 7969 C 763.69 -1.26268 4.31713 0
M  V30 7970 C 765.009 -3.0241 3.19744 0
M  V30 7971 H 762.128 -0.393072 0.623429 0
M  V30 7972 H 764.77 -0.363579 1.86489 0
M  V30 7973 H 762.92 -2.64118 2.8491 0
M  V30 7974 H 764.592 -0.673594 4.56356 0
M  V30 7975 H 762.835 -0.564696 4.30109 0
M  V30 7976 H 763.506 -1.95253 5.16314 0
M  V30 7977 H 765.982 -2.51004 3.31868 0
M  V30 7978 H 764.858 -3.65449 4.09558 0
M  V30 7979 H 765.119 -3.73806 2.36054 0
M  V30 7980 N 764.178 -1.45556 -0.604258 0
M  V30 7981 C 765.11 -1.50494 -1.72871 0
M  V30 7982 C 766.123 -0.395368 -1.57926 0
M  V30 7983 O 767.312 -0.662603 -1.65746 0
M  V30 7984 C 764.412 -1.34874 -3.10906 0
M  V30 7985 C 763.585 -2.59564 -3.52058 0
M  V30 7986 C 762.644 -2.38453 -4.6907 0
M  V30 7987 O 761.67 -3.12082 -4.76018 0
M  V30 7988 N 762.872 -1.43229 -5.62553 0
M  V30 7989 H 765.637 -2.4744 -1.69097 0
M  V30 7990 H 763.198 -1.41338 -0.789636 0
M  V30 7991 H 765.19 -1.18556 -3.86945 0
M  V30 7992 H 763.76 -0.461913 -3.09168 0
M  V30 7993 H 762.98 -2.90974 -2.65946 0
M  V30 7994 H 764.268 -3.42441 -3.76313 0
M  V30 7995 H 763.666 -0.824714 -5.59656 0
M  V30 7996 H 762.223 -1.32882 -6.38111 0
M  V30 7997 N 765.656 0.84705 -1.32902 0
M  V30 7998 C 766.586 1.97166 -1.25091 0
M  V30 7999 C 767.567 1.69578 -0.133161 0
M  V30 8000 O 768.752 1.91519 -0.321591 0
M  V30 8001 C 765.882 3.33157 -0.981006 0
M  V30 8002 C 764.836 3.75119 -2.06082 0
M  V30 8003 C 764.162 5.08826 -1.64318 0
M  V30 8004 C 765.462 3.89774 -3.47669 0
M  V30 8005 H 767.156 2.03958 -2.19184 0
M  V30 8006 H 764.702 0.979907 -1.05517 0
M  V30 8007 H 766.655 4.11393 -0.912891 0
M  V30 8008 H 765.379 3.266 -0.00445559 0
M  V30 8009 H 764.038 2.9914 -2.11921 0
M  V30 8010 H 763.686 4.98732 -0.653876 0
M  V30 8011 H 763.386 5.37873 -2.36572 0
M  V30 8012 H 764.91 5.89546 -1.58958 0
M  V30 8013 H 766.324 4.58343 -3.44376 0
M  V30 8014 H 764.721 4.30248 -4.18338 0
M  V30 8015 H 765.791 2.92463 -3.86773 0
M  V30 8016 N 767.134 1.16236 1.06428 0
M  V30 8017 C 768.38 0.944431 1.79467 0
M  V30 8018 C 768.713 -0.526558 1.86925 0
M  V30 8019 O 767.988 -1.39061 1.35986 0
M  V30 8020 C 768.271 1.57092 3.24028 0
M  V30 8021 C 768.124 3.11315 3.24658 0
M  V30 8022 C 769.443 1.26447 4.21544 0
M  V30 8023 H 766.562 0.344521 0.651517 0
M  V30 8024 H 769.204 1.43545 1.24478 0
M  V30 8025 H 767.354 1.15337 3.70985 0
M  V30 8026 H 769.026 3.62042 2.85873 0
M  V30 8027 H 767.269 3.44716 2.6335 0
M  V30 8028 H 767.94 3.50269 4.26633 0
M  V30 8029 H 770.416 1.62581 3.83023 0
M  V30 8030 H 769.292 1.72885 5.20963 0
M  V30 8031 H 769.553 0.183068 4.41721 0
M  V30 8032 N 768.612 -1.24939 0.960631 0
M  V30 8033 C 770.028 -1.45039 0.666018 0
M  V30 8034 C 770.228 -1.86021 -0.774501 0
M  V30 8035 O 769.284 -1.99392 -1.54916 0
M  V30 8036 C 770.597 -2.51775 1.64408 0
M  V30 8037 C 772.145 -2.6561 1.65592 0
M  V30 8038 C 772.62 -3.75536 2.62177 0
M  V30 8039 N 774.111 -3.82954 2.60577 0
M  V30 8040 C 774.846 -4.67517 3.31987 0
M  V30 8041 N 774.342 -5.56321 4.1289 0
M  V30 8042 N 776.135 -4.61535 3.20845 0
M  V30 8043 H 768.286 -0.96632 1.89145 0
M  V30 8044 H 770.549 -0.486034 0.813926 0
M  V30 8045 H 770.255 -2.28534 2.67329 0
M  V30 8046 H 770.129 -3.49804 1.41128 0
M  V30 8047 H 772.516 -2.88212 0.633846 0
M  V30 8048 H 772.597 -1.67962 1.92931 0
M  V30 8049 H 772.241 -3.53684 3.64514 0
M  V30 8050 H 772.171 -4.72682 2.32119 0
M  V30 8051 H 774.662 -3.19478 2.01847 0
M  V30 8052 H 774.975 -6.17787 4.64283 0
M  V30 8053 H 773.32 -5.5601 4.16987 0
M  V30 8054 H 776.511 -3.91169 2.57108 0
M  V30 8055 H 776.684 -5.27214 3.76762 0
M  V30 8056 N 770.09 -0.729906 -1.39679 0
M  V30 8057 C 771.506 -0.404951 -1.54377 0
M  V30 8058 C 771.706 1.08476 -1.6981 0
M  V30 8059 O 770.762 1.87087 -1.69572 0
M  V30 8060 C 772.075 -1.18352 -2.76429 0
M  V30 8061 C 773.623 -1.17124 -2.9026 0
M  V30 8062 C 774.098 -1.93227 -4.15244 0
M  V30 8063 N 775.589 -1.90368 -4.22273 0
M  V30 8064 C 776.324 -2.46065 -5.17918 0
M  V30 8065 N 775.82 -3.10378 -6.19385 0
M  V30 8066 N 777.613 -2.36127 -5.10099 0
M  V30 8067 H 769.764 -1.69567 -1.27909 0
M  V30 8068 H 772.027 -0.717527 -0.619564 0
M  V30 8069 H 771.733 -2.23743 -2.71352 0
M  V30 8070 H 771.607 -0.784589 -3.6895 0
M  V30 8071 H 773.994 -0.125478 -2.94833 0
M  V30 8072 H 774.075 -1.60951 -1.98817 0
M  V30 8073 H 773.719 -2.97802 -4.11432 0
M  V30 8074 H 773.649 -1.4681 -5.05722 0
M  V30 8075 H 776.14 -1.4351 -3.4959 0
M  V30 8076 H 776.453 -3.50358 -6.88817 0
M  V30 8077 H 774.798 -3.14467 -6.19787 0
M  V30 8078 H 777.989 -1.85529 -4.29763 0
M  V30 8079 H 778.162 -2.79833 -5.84463 0
M  V30 8080 N 771.568 1.50203 -0.477153 0
M  V30 8081 C 772.816 2.01959 0.0755889 0
M  V30 8082 C 773.137 1.3608 1.39668 0
M  V30 8083 O 772.407 0.508136 1.89195 0
M  V30 8084 H 770.987 0.74636 0.0309248 0
M  V30 8085 H 773.649 1.84473 -0.628959 0
M  V30 8086 H 772.745 3.11305 0.222683 0
M  V30 8087 N 773.046 0.209999 1.56195 0
M  V30 8088 C 773.956 -0.716459 2.23392 0
M  V30 8089 C 774.972 -1.22291 1.23778 0
M  V30 8090 O 776.148 -1.26694 1.56558 0
M  V30 8091 C 773.213 -1.91261 2.89172 0
M  V30 8092 C 772.274 -1.44927 4.04097 0
M  V30 8093 C 771.507 -2.5884 4.66731 0
M  V30 8094 O 771.73 -3.76693 4.2832 0
M  V30 8095 O 770.664 -2.30701 5.55932 0
M  V30 8096 H 774.49 -0.174089 3.03201 0
M  V30 8097 H 772.075 -0.0199505 1.49387 0
M  V30 8098 H 773.957 -2.6114 3.30733 0
M  V30 8099 H 772.632 -2.4433 2.12331 0
M  V30 8100 H 771.539 -0.718839 3.67129 0
M  V30 8101 H 772.872 -0.965084 4.82646 0
M  V30 8102 N 774.524 -1.57472 -0.0634922 0
M  V30 8103 C 775.772 -1.87283 -0.759563 0
M  V30 8104 C 776.093 -0.803135 -1.77693 0
M  V30 8105 O 775.363 0.167293 -1.95184 0
M  V30 8106 H 773.943 -0.691106 -0.283516 0
M  V30 8107 H 776.605 -1.94864 -0.0376091 0
M  V30 8108 H 775.701 -2.85064 -1.27062 0
M  V30 8109 N 776.003 0.335068 -1.53997 0
M  V30 8110 C 777.251 1.07223 -1.71312 0
M  V30 8111 C 777.572 1.88911 -0.483486 0
M  V30 8112 O 776.842 1.89344 0.50257 0
M  V30 8113 H 775.422 0.398846 -0.63161 0
M  V30 8114 H 778.084 0.374288 -1.91272 0
M  V30 8115 H 777.18 1.7448 -2.58772 0
M  V30 8116 N 777.481 1.45874 0.596531 0
M  V30 8117 C 778.391 1.57947 1.73464 0
M  V30 8118 C 779.407 0.463461 1.67714 0
M  V30 8119 O 780.583 0.725685 1.87872 0
M  V30 8120 C 777.648 1.55348 3.09948 0
M  V30 8121 C 776.709 2.78074 3.27068 0
M  V30 8122 C 775.942 2.75589 4.57041 0
M  V30 8123 O 776.165 1.83545 5.40063 0
M  V30 8124 O 775.099 3.66945 4.77111 0
M  V30 8125 H 778.925 2.54169 1.66228 0
M  V30 8126 H 776.51 1.2851 0.76194 0
M  V30 8127 H 778.392 1.56545 3.91244 0
M  V30 8128 H 777.067 0.622811 3.17652 0
M  V30 8129 H 775.974 2.82435 2.45319 0
M  V30 8130 H 777.307 3.70303 3.24248 0
M  V30 8131 N 778.959 -0.83999 1.33349 0
M  V30 8132 C 780.207 -1.59202 1.24496 0
M  V30 8133 C 780.528 -1.94077 -0.189499 0
M  V30 8134 O 779.798 -1.60868 -1.11796 0
M  V30 8135 H 778.378 -0.590276 0.457802 0
M  V30 8136 H 781.04 -1.00394 1.67054 0
M  V30 8137 H 780.136 -2.52247 1.83788 0
M  V30 8138 N 780.437 -1.16799 -1.0581 0
M  V30 8139 C 781.387 -0.847231 -2.11674 0
M  V30 8140 C 782.371 0.175476 -1.5994 0
M  V30 8141 O 783.563 -0.0260602 -1.76981 0
M  V30 8142 C 780.692 -0.355446 -3.41455 0
M  V30 8143 C 779.778 -1.40922 -4.00002 0
M  V30 8144 N 780.169 -2.62096 -4.32596 0
M  V30 8145 C 778.467 -1.26562 -4.27666 0
M  V30 8146 C 779.168 -3.29759 -4.79201 0
M  V30 8147 N 778.144 -2.57138 -4.78938 0
M  V30 8148 H 781.946 -1.76862 -2.34727 0
M  V30 8149 H 779.46 -1.05577 -1.23399 0
M  V30 8150 H 781.457 -0.107231 -4.16762 0
M  V30 8151 H 780.117 0.559817 -3.19838 0
M  V30 8152 H 781.128 -2.99113 -4.22791 0
M  V30 8153 H 777.805 -0.411503 -4.15467 0
M  V30 8154 H 779.195 -4.33222 -5.13584 0
M  V30 8155 N 781.915 1.24427 -0.967243 0
M  V30 8156 C 783.326 1.74349 -0.667785 0
M  V30 8157 C 783.677 1.78403 0.816509 0
M  V30 8158 O 782.802 1.41315 1.63887 0
M  V30 8159 C 783.397 3.16628 -1.20548 0
M  V30 8160 C 781.956 3.64059 -0.955934 0
M  V30 8161 C 781.103 2.42715 -1.34106 0
M  V30 8162 H 784.054 1.10136 -1.14262 0
M  V30 8163 H 784.075 3.76183 -0.571547 0
M  V30 8164 H 783.587 3.13646 -2.28578 0
M  V30 8165 H 781.688 3.72441 0.108858 0
M  V30 8166 H 781.801 4.51549 -1.60126 0
M  V30 8167 H 780.165 2.43114 -0.759452 0
M  V30 8168 H 780.948 2.42414 -2.43085 0
M  V30 8169 N 783.393 0.737304 1.3929 0
M  V30 8170 C 784.641 0.285691 2.00071 0
M  V30 8171 C 784.962 -1.13169 1.58801 0
M  V30 8172 O 784.232 -1.77104 0.837308 0
M  V30 8173 H 782.812 0.102638 0.739915 0
M  V30 8174 H 785.474 0.947775 1.70303 0
M  V30 8175 H 784.57 0.335906 3.10287 0
M  V30 8176 N 784.871 -1.49948 0.485112 0
M  V30 8177 C 786.282 -1.8667 0.0334041 0
M  V30 8178 C 786.633 -1.3988 -1.37579 0
M  V30 8179 O 785.758 -0.769788 -2.02245 0
M  V30 8180 C 786.353 -3.38757 0.0538426 0
M  V30 8181 C 784.912 -3.74839 -0.342453 0
M  V30 8182 C 784.059 -2.73894 0.433281 0
M  V30 8183 H 787.01 -1.42492 0.698699 0
M  V30 8184 H 787.031 -3.73132 -0.745146 0
M  V30 8185 H 786.543 -3.72782 1.07959 0
M  V30 8186 H 784.644 -3.46419 -1.37203 0
M  V30 8187 H 784.757 -4.79088 -0.0340503 0
M  V30 8188 H 783.121 -2.54441 -0.114849 0
M  V30 8189 H 783.904 -3.10763 1.45881 0
M  V30 8190 N 786.349 -0.21828 -1.56081 0
M  V30 8191 C 787.595 0.414921 -1.9851 0
M  V30 8192 C 787.928 1.59648 -1.10573 0
M  V30 8193 O 787.203 1.93818 -0.162695 0
M  V30 8194 C 787.486 0.852647 -3.4986 0
M  V30 8195 C 787.339 -0.33232 -4.48571 0
M  V30 8196 C 788.658 1.70998 -4.05521 0
M  V30 8197 H 785.777 0.149344 -0.72171 0
M  V30 8198 H 788.419 -0.313858 -1.8739 0
M  V30 8199 H 786.569 1.47362 -3.59467 0
M  V30 8200 H 788.241 -0.970418 -4.50977 0
M  V30 8201 H 786.484 -0.980302 -4.22578 0
M  V30 8202 H 787.155 0.0168407 -5.51997 0
M  V30 8203 H 789.631 1.18606 -3.98838 0
M  V30 8204 H 788.507 1.98517 -5.11744 0
M  V30 8205 H 788.768 2.67219 -3.52202 0
M  V30 8206 N 787.827 1.57504 0.0551401 0
M  V30 8207 C 789.243 1.54236 0.410292 0
M  V30 8208 C 789.443 0.940839 1.78187 0
M  V30 8209 O 788.499 0.550541 2.46425 0
M  V30 8210 C 789.812 2.98816 0.336064 0
M  V30 8211 C 791.36 3.10236 0.415047 0
M  V30 8212 C 791.835 4.56499 0.37055 0
M  V30 8213 N 793.326 4.61199 0.43013 0
M  V30 8214 C 794.061 5.71873 0.418179 0
M  V30 8215 N 793.557 6.91864 0.360056 0
M  V30 8216 N 795.35 5.60165 0.465977 0
M  V30 8217 H 787.501 1.94965 -0.842759 0
M  V30 8218 H 789.764 0.893096 -0.317937 0
M  V30 8219 H 789.47 3.4645 -0.605429 0
M  V30 8220 H 789.344 3.59564 1.13988 0
M  V30 8221 H 791.731 2.62566 1.34697 0
M  V30 8222 H 791.812 2.52367 -0.417648 0
M  V30 8223 H 791.456 5.0483 -0.557592 0
M  V30 8224 H 791.386 5.12249 1.221 0
M  V30 8225 H 793.877 3.74857 0.478623 0
M  V30 8226 H 794.19 7.71983 0.35532 0
M  V30 8227 H 792.535 6.94233 0.326492 0
M  V30 8228 H 795.726 4.65322 0.509194 0
M  V30 8229 H 795.899 6.46413 0.453194 0
M  V30 8230 N 789.305 -0.326896 1.54172 0
M  V30 8231 C 790.721 -0.671034 1.44808 0
M  V30 8232 C 790.921 -1.91781 0.618258 0
M  V30 8233 O 789.977 -2.52235 0.115751 0
M  V30 8234 C 791.29 -0.848147 2.88491 0
M  V30 8235 C 792.838 -0.945702 2.98371 0
M  V30 8236 C 793.313 -1.15501 4.43197 0
M  V30 8237 N 794.804 -1.22183 4.46795 0
M  V30 8238 C 795.539 -1.4016 5.56006 0
M  V30 8239 N 795.035 -1.55202 6.75192 0
M  V30 8240 N 796.828 -1.42841 5.43648 0
M  V30 8241 H 788.979 0.49262 2.06608 0
M  V30 8242 H 791.242 0.158574 0.934643 0
M  V30 8243 H 790.948 -0.00329969 3.517 0
M  V30 8244 H 790.822 -1.74497 3.34411 0
M  V30 8245 H 793.209 -1.78106 2.35292 0
M  V30 8246 H 793.29 -0.0254215 2.55787 0
M  V30 8247 H 792.934 -0.324521 5.06862 0
M  V30 8248 H 792.864 -2.08911 4.83388 0
M  V30 8249 H 795.355 -1.12016 3.60917 0
M  V30 8250 H 795.668 -1.68601 7.54184 0
M  V30 8251 H 794.013 -1.52306 6.78106 0
M  V30 8252 H 797.204 -1.30683 4.49488 0
M  V30 8253 H 797.377 -1.56509 6.28816 0
M  V30 8254 N 790.784 -1.46188 -0.588786 0
M  V30 8255 C 792.031 -1.51184 -1.34721 0
M  V30 8256 C 792.359 -0.161084 -1.93832 0
M  V30 8257 O 791.614 0.842557 -1.76634 0
M  V30 8258 C 791.913 -2.55364 -2.50048 0
M  V30 8259 C 791.579 -3.99553 -2.08969 0
M  V30 8260 C 790.241 -4.38811 -1.9748 0
M  V30 8261 C 792.593 -4.90156 -1.77191 0
M  V30 8262 C 789.921 -5.66544 -1.52463 0
M  V30 8263 C 792.273 -6.1832 -1.33654 0
M  V30 8264 C 790.937 -6.5649 -1.20738 0
M  V30 8265 H 790.207 -0.55322 -0.49298 0
M  V30 8266 H 792.854 -1.79634 -0.663627 0
M  V30 8267 H 791.159 -2.20552 -3.23827 0
M  V30 8268 H 792.856 -2.5646 -3.08268 0
M  V30 8269 H 789.446 -3.68518 -2.18843 0
M  V30 8270 H 793.63 -4.60549 -1.84955 0
M  V30 8271 H 788.886 -5.94895 -1.411 0
M  V30 8272 H 793.06 -6.87956 -1.08117 0
M  V30 8273 H 790.687 -7.55362 -0.856307 0
M  V30 8274 N 792.262 0.832906 -1.33792 0
M  V30 8275 C 793.49 1.62048 -1.28639 0
M  V30 8276 C 793.905 1.88269 0.141522 0
M  V30 8277 O 793.262 1.46706 1.08553 0
M  V30 8278 C 793.313 2.96722 -2.0649 0
M  V30 8279 O 793.034 2.7165 -3.43712 0
M  V30 8280 C 794.535 3.91144 -2.08617 0
M  V30 8281 H 791.755 0.504032 -0.442937 0
M  V30 8282 H 794.299 1.03704 -1.76255 0
M  V30 8283 H 792.454 3.51652 -1.62541 0
M  V30 8284 H 792.868 3.57453 -3.83833 0
M  V30 8285 H 794.342 4.82837 -2.67531 0
M  V30 8286 H 794.819 4.25766 -1.07796 0
M  V30 8287 H 795.425 3.42152 -2.52611 0
M  V30 8288 N 793.74 1.17359 1.05189 0
M  V30 8289 C 794.968 0.986529 1.81866 0
M  V30 8290 C 795.383 -0.46522 1.82979 0
M  V30 8291 O 794.74 -1.32305 1.25705 0
M  V30 8292 C 794.791 1.52021 3.27982 0
M  V30 8293 O 794.512 2.91511 3.27037 0
M  V30 8294 C 796.013 1.37774 4.21347 0
M  V30 8295 H 793.233 0.349021 0.573084 0
M  V30 8296 H 795.777 1.55648 1.32643 0
M  V30 8297 H 793.932 0.992287 3.74476 0
M  V30 8298 H 794.346 3.16178 4.18488 0
M  V30 8299 H 795.82 1.7993 5.21852 0
M  V30 8300 H 796.297 0.32483 4.37997 0
M  V30 8301 H 796.903 1.89583 3.80708 0
M  V30 8302 N 795.218 -1.23913 0.973828 0
M  V30 8303 C 796.181 -2.23367 0.51378 0
M  V30 8304 C 797.181 -1.55923 -0.39302 0
M  V30 8305 O 798.371 -1.73187 -0.187626 0
M  V30 8306 C 795.503 -3.39944 -0.255152 0
M  V30 8307 H 796.696 -2.65581 1.39307 0
M  V30 8308 H 794.249 -1.36632 0.759039 0
M  V30 8309 H 794.984 -3.03177 -1.15127 0
M  V30 8310 H 794.769 -3.90098 0.395673 0
M  V30 8311 H 796.259 -4.13749 -0.565842 0
M  V30 8312 N 796.696 -0.74468 -1.38897 0
M  V30 8313 C 797.921 -0.306119 -2.05128 0
M  V30 8314 C 798.346 1.0541 -1.55789 0
M  V30 8315 O 797.704 1.66993 -0.705909 0
M  V30 8316 C 797.752 -0.328195 -3.59103 0
M  V30 8317 O 796.856 0.680876 -4.06741 0
M  V30 8318 H 796.197 -0.137209 -0.649669 0
M  V30 8319 H 798.727 -1.01331 -1.77745 0
M  V30 8320 H 798.737 -0.175956 -4.0762 0
M  V30 8321 H 797.412 -1.32067 -3.94374 0
M  V30 8322 H 795.989 0.49398 -3.69614 0
M  V30 8323 N 798.174 1.49689 -0.493057 0
M  V30 8324 C 799.423 2.01622 0.0560733 0
M  V30 8325 C 799.736 1.37838 1.3878 0
M  V30 8326 O 800.942 1.81054 2.02316 0
M  V30 8327 C 799.398 3.59586 0.150409 0
M  V30 8328 C 799.006 4.32338 -1.1742 0
M  V30 8329 C 800.75 4.19489 0.650327 0
M  V30 8330 C 798.657 5.8214 -1.04246 0
M  V30 8331 H 797.587 0.753594 0.0247297 0
M  V30 8332 H 800.238 1.723 -0.631279 0
M  V30 8333 H 798.62 3.8559 0.902035 0
M  V30 8334 H 799.794 4.18042 -1.9385 0
M  V30 8335 H 798.109 3.84144 -1.60694 0
M  V30 8336 H 800.706 5.29181 0.766272 0
M  V30 8337 H 801.049 3.82326 1.6472 0
M  V30 8338 H 801.582 3.97775 -0.0445371 0
M  V30 8339 H 798.321 6.23814 -2.01336 0
M  V30 8340 H 797.841 5.98952 -0.31892 0
M  V30 8341 H 799.52 6.43004 -0.717957 0
M  V30 8342 N 799.652 0.226554 1.55963 0
M  V30 8343 C 800.9 -0.402991 1.98041 0
M  V30 8344 C 801.221 -1.59938 1.11557 0
M  V30 8345 O 800.491 -1.9494 0.193719 0
M  V30 8346 H 799.071 -0.15188 0.731397 0
M  V30 8347 H 801.733 0.320613 1.92245 0
M  V30 8348 H 800.829 -0.725937 3.0354 0
M  V30 8349 N 801.13 -1.57531 -0.0467866 0
M  V30 8350 C 802.06 -2.08425 -1.05268 0
M  V30 8351 C 803.041 -0.982941 -1.38825 0
M  V30 8352 O 804.226 -1.25716 -1.48018 0
M  V30 8353 C 801.356 -2.54897 -2.35891 0
M  V30 8354 C 800.31 -3.69132 -2.16623 0
M  V30 8355 C 799.636 -4.01747 -3.52851 0
M  V30 8356 C 800.936 -4.98243 -1.56689 0
M  V30 8357 H 802.63 -2.92716 -0.62908 0
M  V30 8358 H 800.176 -1.40816 -0.301156 0
M  V30 8359 H 802.129 -2.8912 -3.06574 0
M  V30 8360 H 800.853 -1.67666 -2.80278 0
M  V30 8361 H 799.512 -3.35231 -1.48377 0
M  V30 8362 H 799.16 -3.11608 -3.94853 0
M  V30 8363 H 798.86 -4.78681 -3.4079 0
M  V30 8364 H 800.384 -4.38487 -4.24925 0
M  V30 8365 H 801.798 -5.30535 -2.17268 0
M  V30 8366 H 800.195 -5.79669 -1.55255 0
M  V30 8367 H 801.265 -4.81986 -0.530827 0
M  V30 8368 N 802.608 0.318715 -1.54344 0
M  V30 8369 C 804.019 0.89285 -1.63967 0
M  V30 8370 C 804.37 1.88712 -0.536855 0
M  V30 8371 O 803.495 2.13877 0.329457 0
M  V30 8372 C 804.09 1.62618 -2.97222 0
M  V30 8373 C 802.649 2.14897 -3.09025 0
M  V30 8374 C 801.796 0.975909 -2.5956 0
M  V30 8375 H 804.747 0.0961687 -1.58408 0
M  V30 8376 H 804.768 2.4907 -2.87653 0
M  V30 8377 H 804.28 0.902286 -3.77466 0
M  V30 8378 H 802.381 2.90387 -2.33465 0
M  V30 8379 H 802.494 2.39565 -4.14904 0
M  V30 8380 H 800.858 1.35646 -2.15574 0
M  V30 8381 H 801.641 0.266253 -3.42266 0
M  V30 8382 N 804.086 1.46499 0.581025 0
M  V30 8383 C 805.497 1.4604 1.16315 0
M  V30 8384 C 805.848 0.202154 1.95156 0
M  V30 8385 O 804.973 -0.694638 2.04948 0
M  V30 8386 C 805.568 2.64593 2.11604 0
M  V30 8387 C 804.127 2.6717 2.65136 0
M  V30 8388 C 803.274 2.38753 1.4104 0
M  V30 8389 H 806.225 1.54354 0.368871 0
M  V30 8390 H 806.246 2.40207 2.95095 0
M  V30 8391 H 805.758 3.56154 1.54194 0
M  V30 8392 H 803.859 1.79685 3.26411 0
M  V30 8393 H 803.972 3.67182 3.07757 0
M  V30 8394 H 802.336 1.88845 1.70908 0
M  V30 8395 H 803.119 3.32493 0.854588 0
M  V30 8396 N 805.565 -0.825799 1.34232 0
M  V30 8397 C 806.976 -1.39835 1.23706 0
M  V30 8398 C 807.327 -1.95709 -0.138649 0
M  V30 8399 O 806.452 -1.89833 -1.03886 0
M  V30 8400 C 807.047 -2.54203 2.23978 0
M  V30 8401 C 805.606 -3.07374 2.17251 0
M  V30 8402 C 804.753 -1.80232 2.10741 0
M  V30 8403 H 807.704 -0.630442 1.4564 0
M  V30 8404 H 807.725 -3.32214 1.8551 0
M  V30 8405 H 807.237 -2.13506 3.24094 0
M  V30 8406 H 805.338 -3.52583 1.20483 0
M  V30 8407 H 805.451 -3.6666 3.08379 0
M  V30 8408 H 803.815 -2.01012 1.56417 0
M  V30 8409 H 804.598 -1.41713 3.12686 0
M  V30 8410 N 807.043 -1.17915 -1.04565 0
M  V30 8411 C 808.459 -0.927761 -1.29864 0
M  V30 8412 C 808.659 0.409536 -1.97294 0
M  V30 8413 O 807.715 1.14505 -2.25044 0
M  V30 8414 C 809.028 -2.08967 -2.16225 0
M  V30 8415 C 810.576 -2.12741 -2.29587 0
M  V30 8416 C 811.051 -3.28335 -3.19312 0
M  V30 8417 N 812.542 -3.28164 -3.26898 0
M  V30 8418 C 813.277 -4.14249 -3.96466 0
M  V30 8419 N 812.773 -5.10457 -4.68407 0
M  V30 8420 N 814.566 -4.02179 -3.92694 0
M  V30 8421 H 806.717 -2.03983 -0.592011 0
M  V30 8422 H 808.98 -0.891023 -0.323701 0
M  V30 8423 H 808.686 -3.05654 -1.73979 0
M  V30 8424 H 808.56 -2.04606 -3.16885 0
M  V30 8425 H 810.947 -1.16636 -2.71072 0
M  V30 8426 H 811.028 -2.21162 -1.28535 0
M  V30 8427 H 810.672 -4.2471 -2.78539 0
M  V30 8428 H 810.602 -3.17151 -4.20384 0
M  V30 8429 H 813.093 -2.58511 -2.75646 0
M  V30 8430 H 813.406 -5.72526 -5.1907 0
M  V30 8431 H 811.751 -5.14422 -4.67328 0
M  V30 8432 H 814.942 -3.26308 -3.3562 0
M  V30 8433 H 815.115 -4.69486 -4.4664 0
M  V30 8434 N 808.521 1.23394 -0.980386 0
M  V30 8435 C 809.769 1.91431 -0.647978 0
M  V30 8436 C 810.09 1.76871 0.821066 0
M  V30 8437 O 809.36 1.14808 1.58732 0
M  V30 8438 H 807.94 0.708516 -0.236673 0
M  V30 8439 H 810.602 1.50019 -1.2442 0
M  V30 8440 H 809.698 2.98854 -0.899592 0
M  V30 8441 N 809.999 0.752036 1.385 0
M  V30 8442 C 810.929 0.138718 2.33088 0
M  V30 8443 C 811.91 -0.705318 1.54788 0
M  V30 8444 O 813.095 -0.646821 1.83112 0
M  V30 8445 C 810.225 -0.75641 3.38963 0
M  V30 8446 C 809.179 -0.0152239 4.27997 0
M  V30 8447 C 808.505 -1.0285 5.24715 0
M  V30 8448 C 809.805 1.15226 5.09431 0
M  V30 8449 H 811.499 0.928852 2.84627 0
M  V30 8450 H 809.045 0.448111 1.3685 0
M  V30 8451 H 810.998 -1.19513 4.04097 0
M  V30 8452 H 809.722 -1.57885 2.85902 0
M  V30 8453 H 808.381 0.404061 3.64366 0
M  V30 8454 H 808.029 -1.84496 4.67943 0
M  V30 8455 H 807.729 -0.537238 5.85139 0
M  V30 8456 H 809.253 -1.46657 5.92726 0
M  V30 8457 H 810.667 0.791161 5.67815 0
M  V30 8458 H 809.064 1.57428 5.79082 0
M  V30 8459 H 810.134 1.9659 4.43261 0
M  V30 8460 N 811.477 -1.49425 0.500989 0
M  V30 8461 C 812.425 -2.30771 -0.291149 0
M  V30 8462 C 813.419 -1.3938 -0.962787 0
M  V30 8463 O 814.625 -1.56431 -0.890477 0
M  V30 8464 H 811 -0.743499 -0.11275 0
M  V30 8465 H 812.971 -2.95501 0.414917 0
M  V30 8466 C 811.72 -3.20725 -1.34279 0
M  V30 8467 H 811.043 -3.90975 -0.83538 0
M  V30 8468 H 812.483 -3.80583 -1.86903 0
M  V30 8469 C 810.942 -2.40334 -2.36095 0
M  V30 8470 O 811.472 -2.10749 -3.41976 0
M  V30 8471 N 809.678 -2.02359 -2.08565 0
M  V30 8472 H 809.225 -2.26619 -1.22482 0
M  V30 8473 H 809.183 -1.48878 -2.76916 0
M  V30 8474 N 812.955 -0.234822 -1.55841 0
M  V30 8475 C 813.885 0.664217 -2.23854 0
M  V30 8476 C 814.866 1.19076 -1.2147 0
M  V30 8477 O 816.051 1.23232 -1.50091 0
M  V30 8478 C 813.181 1.86666 -2.9287 0
M  V30 8479 C 812.135 1.47341 -4.01839 0
M  V30 8480 C 811.461 2.75571 -4.58219 0
M  V30 8481 C 812.761 0.653479 -5.18196 0
M  V30 8482 H 814.455 0.0971213 -2.99242 0
M  V30 8483 H 812.001 0.0452724 -1.43929 0
M  V30 8484 H 813.954 2.50116 -3.39146 0
M  V30 8485 H 812.678 2.45894 -2.1495 0
M  V30 8486 H 811.337 0.862314 -3.56314 0
M  V30 8487 H 810.985 3.32971 -3.77014 0
M  V30 8488 H 810.685 2.49987 -5.31771 0
M  V30 8489 H 812.209 3.39939 -5.07221 0
M  V30 8490 H 813.623 1.19198 -5.60771 0
M  V30 8491 H 812.02 0.494188 -5.98062 0
M  V30 8492 H 813.09 -0.337004 -4.83728 0
M  V30 8493 N 814.433 1.57553 0.0384317 0
M  V30 8494 C 815.363 2.0898 1.04161 0
M  V30 8495 C 816.344 0.99029 1.38301 0
M  V30 8496 O 817.529 1.26499 1.47349 0
M  V30 8497 C 814.659 2.56145 2.34536 0
M  V30 8498 C 813.613 3.70275 2.14663 0
M  V30 8499 C 812.939 4.03612 3.50715 0
M  V30 8500 C 814.239 4.99067 1.54045 0
M  V30 8501 H 815.933 2.93046 0.613548 0
M  V30 8502 H 813.479 1.40973 0.293684 0
M  V30 8503 H 815.432 2.90741 3.05037 0
M  V30 8504 H 814.156 1.6915 2.79385 0
M  V30 8505 H 812.815 3.36013 1.46597 0
M  V30 8506 H 812.463 3.13698 3.93195 0
M  V30 8507 H 812.163 4.80482 3.38247 0
M  V30 8508 H 813.687 4.40735 4.22593 0
M  V30 8509 H 815.101 5.3168 2.14451 0
M  V30 8510 H 813.498 5.80484 1.52178 0
M  V30 8511 H 814.568 4.8226 0.505259 0
M  V30 8512 N 815.911 -0.310526 1.54511 0
M  V30 8513 C 817.322 -0.884142 1.64438 0
M  V30 8514 C 817.673 -1.88425 0.546855 0
M  V30 8515 O 816.798 -2.14049 -0.31811 0
M  V30 8516 C 817.393 -1.6104 2.9808 0
M  V30 8517 C 815.952 -2.13255 3.1016 0
M  V30 8518 C 815.099 -0.96213 2.60074 0
M  V30 8519 H 818.05 -0.0877666 1.58457 0
M  V30 8520 H 818.071 -2.47541 2.8897 0
M  V30 8521 H 817.583 -0.882255 3.77939 0
M  V30 8522 H 815.684 -2.89145 2.35002 0
M  V30 8523 H 815.797 -2.37361 4.16169 0
M  V30 8524 H 814.161 -1.34501 2.16291 0
M  V30 8525 H 814.944 -0.248098 3.42402 0
M  V30 8526 N 817.389 -1.46805 -0.573248 0
M  V30 8527 C 818.336 -1.58084 -1.68161 0
M  V30 8528 C 819.306 -0.424636 -1.6058 0
M  V30 8529 O 820.491 -0.642623 -1.79652 0
M  V30 8530 C 817.631 -1.58601 -3.06496 0
M  V30 8531 C 816.744 -2.85023 -3.24632 0
M  V30 8532 C 815.879 -2.76981 -4.53271 0
M  V30 8533 C 814.918 -3.983 -4.64783 0
M  V30 8534 N 814.055 -3.88589 -5.84759 0
M  V30 8535 H 818.895 -2.52755 -1.57858 0
M  V30 8536 H 816.432 -1.25385 -0.769218 0
M  V30 8537 H 818.39 -1.56885 -3.86579 0
M  V30 8538 H 817.02 -0.674553 -3.15673 0
M  V30 8539 H 816.072 -2.96678 -2.38089 0
M  V30 8540 H 817.384 -3.7491 -3.29004 0
M  V30 8541 H 816.538 -2.73424 -5.41594 0
M  V30 8542 H 815.277 -1.84751 -4.51352 0
M  V30 8543 H 814.282 -4.02179 -3.74876 0
M  V30 8544 H 815.507 -4.91639 -4.68474 0
M  V30 8545 H 813.453 -2.99151 -5.83819 0
M  V30 8546 H 813.37 -4.7214 -5.90441 0
M  V30 8547 H 814.638 -3.89022 -6.75486 0
M  V30 8548 N 818.867 0.818669 -1.34668 0
M  V30 8549 C 820.092 1.61193 -1.30505 0
M  V30 8550 C 820.517 1.87734 0.117341 0
M  V30 8551 O 819.875 1.45591 1.08042 0
M  V30 8552 C 819.923 2.92733 -2.1057 0
M  V30 8553 O 819.027 3.85 -1.47813 0
M  V30 8554 H 818.368 0.490085 -0.44801 0
M  V30 8555 H 820.898 1.01701 -1.77534 0
M  V30 8556 H 820.908 3.42262 -2.22082 0
M  V30 8557 H 819.583 2.7274 -3.13984 0
M  V30 8558 H 818.16 3.43525 -1.45069 0
M  V30 8559 N 820.346 1.18468 1.03938 0
M  V30 8560 C 821.278 0.870615 2.12021 0
M  V30 8561 C 822.291 -0.132318 1.62261 0
M  V30 8562 O 823.48 0.0956901 1.78243 0
M  V30 8563 C 820.58 0.279727 3.37744 0
M  V30 8564 C 819.753 1.32863 4.16733 0
M  V30 8565 C 818.812 0.753204 5.20781 0
M  V30 8566 O 817.838 1.42825 5.5099 0
M  V30 8567 N 819.04 -0.448664 5.78764 0
M  V30 8568 H 821.805 1.80091 2.39556 0
M  V30 8569 H 819.366 1.08524 1.20142 0
M  V30 8570 H 821.358 -0.118829 4.04526 0
M  V30 8571 H 819.928 -0.554621 3.07641 0
M  V30 8572 H 819.148 1.90245 3.45254 0
M  V30 8573 H 820.436 2.03574 4.66299 0
M  V30 8574 H 819.834 -1.01481 5.56523 0
M  V30 8575 H 818.391 -0.789125 6.47005 0
M  V30 8576 N 821.824 -1.22873 0.986916 0
M  V30 8577 C 823.052 -1.95487 0.677663 0
M  V30 8578 C 823.467 -1.72978 -0.756572 0
M  V30 8579 O 822.824 -1.02517 -1.50985 0
M  V30 8580 C 822.875 -3.48337 0.966638 0
M  V30 8581 O 822.596 -3.70087 2.34451 0
M  V30 8582 C 824.097 -4.38142 0.674248 0
M  V30 8583 H 821.317 -0.622211 0.251185 0
M  V30 8584 H 823.861 -1.56187 1.32007 0
M  V30 8585 H 822.016 -3.85628 0.370137 0
M  V30 8586 H 822.43 -4.64332 2.43918 0
M  V30 8587 H 823.904 -5.44165 0.926759 0
M  V30 8588 H 824.381 -4.3745 -0.391728 0
M  V30 8589 H 824.987 -4.06469 1.25152 0
M  V30 8590 N 823.302 -0.75937 -1.38099 0
M  V30 8591 C 824.53 -0.329111 -2.04266 0
M  V30 8592 C 824.945 1.04453 -1.57274 0
M  V30 8593 O 824.302 1.66449 -0.748397 0
M  V30 8594 C 824.353 -0.349192 -3.5981 0
M  V30 8595 O 824.074 -1.66863 -4.05078 0
M  V30 8596 C 825.575 0.0942106 -4.432 0
M  V30 8597 H 822.795 -0.13971 -0.656294 0
M  V30 8598 H 825.339 -1.02984 -1.76677 0
M  V30 8599 H 823.494 0.302846 -3.86214 0
M  V30 8600 H 823.908 -1.59877 -4.9954 0
M  V30 8601 H 825.382 0.0290004 -5.51992 0
M  V30 8602 H 825.859 1.1429 -4.24069 0
M  V30 8603 H 826.465 -0.529171 -4.21995 0
M  V30 8604 N 824.78 1.49157 -0.508906 0
M  V30 8605 C 825.71 2.32109 0.254469 0
M  V30 8606 C 826.691 1.40754 0.955111 0
M  V30 8607 O 827.876 1.69658 0.944983 0
M  V30 8608 C 825.006 3.21458 1.3146 0
M  V30 8609 C 823.96 4.2167 0.733368 0
M  V30 8610 C 823.286 5.00009 1.8946 0
M  V30 8611 C 824.586 5.21544 -0.280875 0
M  V30 8612 H 826.28 2.9618 -0.43795 0
M  V30 8613 H 823.826 1.4243 -0.212062 0
M  V30 8614 H 825.779 3.78305 1.85643 0
M  V30 8615 H 824.503 2.55346 2.03632 0
M  V30 8616 H 823.162 3.65979 0.213231 0
M  V30 8617 H 822.81 4.30338 2.60419 0
M  V30 8618 H 822.51 5.67821 1.51173 0
M  V30 8619 H 824.034 5.59702 2.44061 0
M  V30 8620 H 825.448 5.73039 0.173095 0
M  V30 8621 H 823.845 5.97291 -0.580006 0
M  V30 8622 H 824.915 4.69969 -1.19404 0
M  V30 8623 N 826.258 0.243083 1.55714 0
M  V30 8624 C 827.206 -0.674349 2.2261 0
M  V30 8625 C 828.2 -1.18307 1.21243 0
M  V30 8626 O 829.406 -1.1404 1.39265 0
M  V30 8627 H 825.781 -0.235941 0.714028 0
M  V30 8628 H 827.752 -0.0869446 2.98273 0
M  V30 8629 C 826.501 -1.86206 2.93637 0
M  V30 8630 H 825.824 -1.47975 3.71407 0
M  V30 8631 H 827.264 -2.4813 3.43813 0
M  V30 8632 C 825.723 -2.73084 1.97298 0
M  V30 8633 O 826.253 -3.72497 1.50361 0
M  V30 8634 N 824.459 -2.39571 1.64482 0
M  V30 8635 H 824.006 -1.5878 2.02846 0
M  V30 8636 H 823.964 -2.97976 1.00288 0
M  V30 8637 N 827.736 -1.57571 -0.0300757 0
M  V30 8638 C 828.666 -2.0953 -1.03051 0
M  V30 8639 C 829.647 -0.99761 -1.37774 0
M  V30 8640 O 830.832 -1.27279 -1.46676 0
M  V30 8641 C 827.962 -2.57385 -2.33174 0
M  V30 8642 C 826.916 -3.71409 -2.12696 0
M  V30 8643 C 826.242 -4.05467 -3.4857 0
M  V30 8644 C 827.542 -4.99877 -1.51396 0
M  V30 8645 H 829.236 -2.93367 -0.597999 0
M  V30 8646 H 826.782 -1.41127 -0.286203 0
M  V30 8647 H 828.735 -2.92355 -3.03491 0
M  V30 8648 H 827.459 -1.70629 -2.78484 0
M  V30 8649 H 826.118 -3.36786 -1.44813 0
M  V30 8650 H 825.766 -3.15779 -3.91526 0
M  V30 8651 H 825.466 -4.82269 -3.35694 0
M  V30 8652 H 826.99 -4.4297 -4.2025 0
M  V30 8653 H 828.404 -5.3281 -2.11629 0
M  V30 8654 H 826.801 -5.81283 -1.49098 0
M  V30 8655 H 827.871 -4.82522 -0.479676 0
M  V30 8656 N 829.214 0.302327 -1.54673 0
M  V30 8657 C 830.442 1.05669 -1.77881 0
M  V30 8658 C 830.857 1.80983 -0.537648 0
M  V30 8659 O 830.214 1.7573 0.492467 0
M  V30 8660 C 830.265 2.03828 -2.98557 0
M  V30 8661 O 829.986 1.3157 -4.17877 0
M  V30 8662 C 831.487 2.91314 -3.34143 0
M  V30 8663 H 828.707 0.313436 -0.593295 0
M  V30 8664 H 831.251 0.342003 -2.0162 0
M  V30 8665 H 829.406 2.70801 -2.7703 0
M  V30 8666 H 829.82 1.97481 -4.85903 0
M  V30 8667 H 831.294 3.56042 -4.21827 0
M  V30 8668 H 831.771 3.59544 -2.52239 0
M  V30 8669 H 832.377 2.29874 -3.57824 0
M  V30 8670 N 830.692 1.47107 0.565454 0
M  V30 8671 C 831.938 1.54519 1.3227 0
M  V30 8672 C 832.293 0.201313 1.91344 0
M  V30 8673 O 831.586 -0.792058 1.74462 0
M  V30 8674 C 831.78 2.59309 2.45954 0
M  V30 8675 C 831.609 4.03756 1.98019 0
M  V30 8676 C 830.379 4.71293 1.8224 0
M  V30 8677 C 832.577 4.91029 1.52955 0
M  V30 8678 N 830.559 6.00288 1.28557 0
M  V30 8679 C 831.93 6.09986 1.10981 0
M  V30 8680 C 833.985 4.77539 1.4093 0
M  V30 8681 C 832.688 7.16943 0.581796 0
M  V30 8682 C 834.714 5.84584 0.895307 0
M  V30 8683 C 834.076 7.02725 0.485454 0
M  V30 8684 H 830.175 0.620177 0.476345 0
M  V30 8685 H 832.759 1.83814 0.641901 0
M  V30 8686 H 830.93 2.31896 3.11575 0
M  V30 8687 H 832.662 2.56614 3.1294 0
M  V30 8688 H 829.417 4.27074 2.04707 0
M  V30 8689 H 829.841 6.68991 1.03828 0
M  V30 8690 H 834.483 3.86574 1.71231 0
M  V30 8691 H 832.201 8.07661 0.266399 0
M  V30 8692 H 835.787 5.76191 0.805939 0
M  V30 8693 H 834.667 7.84144 0.0938828 0
M  V30 8694 N 832.17 -0.811516 1.35101 0
M  V30 8695 C 833.102 -1.93102 1.23468 0
M  V30 8696 C 834.115 -1.62021 0.159095 0
M  V30 8697 O 835.304 -1.73682 0.411945 0
M  V30 8698 C 832.404 -3.27345 0.877404 0
M  V30 8699 C 831.577 -3.86368 2.05033 0
M  V30 8700 C 830.636 -4.99009 1.66963 0
M  V30 8701 O 829.662 -5.16698 2.38772 0
M  V30 8702 N 830.864 -5.7749 0.590394 0
M  V30 8703 H 833.629 -2.0361 2.19916 0
M  V30 8704 H 831.19 -0.988687 1.28205 0
M  V30 8705 H 833.182 -4.00163 0.604298 0
M  V30 8706 H 831.752 -3.126 0.00275267 0
M  V30 8707 H 830.972 -3.05804 2.48752 0
M  V30 8708 H 832.26 -4.22533 2.83449 0
M  V30 8709 H 831.658 -5.657 -0.00633259 0
M  V30 8710 H 830.215 -6.50708 0.377055 0
M  V30 8711 N 833.648 -1.19017 -1.03309 0
M  V30 8712 C 835.059 -0.993206 -1.5809 0
M  V30 8713 C 835.41 0.45505 -1.9085 0
M  V30 8714 O 834.535 1.33372 -1.70414 0
M  V30 8715 C 835.13 -1.79661 -2.87241 0
M  V30 8716 C 833.689 -1.64377 -3.38611 0
M  V30 8717 C 832.836 -1.78628 -2.12102 0
M  V30 8718 H 835.787 -1.3345 -0.858879 0
M  V30 8719 H 835.808 -1.29019 -3.57958 0
M  V30 8720 H 835.32 -2.85061 -2.63366 0
M  V30 8721 H 833.421 -0.615447 -3.67482 0
M  V30 8722 H 833.534 -2.44651 -4.11926 0
M  V30 8723 H 831.898 -1.21648 -2.23772 0
M  V30 8724 H 832.681 -2.8548 -1.90673 0
M  V30 8725 N 835.127 1.22348 -0.993418 0
M  V30 8726 C 836.376 1.90422 -0.665019 0
M  V30 8727 C 836.689 1.78199 0.806512 0
M  V30 8728 O 837.895 2.41193 1.24652 0
M  V30 8729 C 836.351 3.41403 -1.13893 0
M  V30 8730 C 835.959 3.62262 -2.63572 0
M  V30 8731 C 837.703 4.15175 -0.884884 0
M  V30 8732 C 835.61 5.06947 -3.04564 0
M  V30 8733 H 834.54 0.713073 -0.245037 0
M  V30 8734 H 837.191 1.3856 -1.20305 0
M  V30 8735 H 835.573 3.9245 -0.529027 0
M  V30 8736 H 836.747 3.21705 -3.29913 0
M  V30 8737 H 835.062 3.01824 -2.86865 0
M  V30 8738 H 837.659 5.21813 -1.16684 0
M  V30 8739 H 838.002 4.15915 0.178982 0
M  V30 8740 H 838.535 3.70157 -1.45701 0
M  V30 8741 H 835.274 5.11346 -4.10128 0
M  V30 8742 H 834.794 5.48404 -2.42927 0
M  V30 8743 H 836.473 5.75374 -2.95894 0
M  V30 8744 N 836.605 0.766683 1.37694 0
M  V30 8745 C 837.852 0.328714 1.99814 0
M  V30 8746 C 838.18 -1.09333 1.60862 0
M  V30 8747 O 837.435 -1.7657 0.8439 0
M  V30 8748 C 837.734 0.413831 3.54996 0
M  V30 8749 C 837.4 1.7934 4.137 0
M  V30 8750 C 836.062 2.17092 4.29447 0
M  V30 8751 C 838.414 2.69776 4.45949 0
M  V30 8752 C 835.742 3.44726 4.74743 0
M  V30 8753 C 838.094 3.96814 4.92667 0
M  V30 8754 C 836.758 4.34618 5.0662 0
M  V30 8755 H 836.028 0.120285 0.731172 0
M  V30 8756 H 838.675 0.97972 1.64541 0
M  V30 8757 H 836.98 -0.320723 3.90485 0
M  V30 8758 H 838.677 0.0563369 4.0096 0
M  V30 8759 H 835.267 1.48997 4.01868 0
M  V30 8760 H 839.451 2.41871 4.33373 0
M  V30 8761 H 834.707 3.73917 4.83731 0
M  V30 8762 H 838.881 4.67022 5.16588 0
M  V30 8763 H 836.508 5.33578 5.41478 0
M  V30 8764 N 838.083 -1.48885 0.516809 0
M  V30 8765 C 839.494 -1.86557 0.0729921 0
M  V30 8766 C 839.845 -1.42767 -1.34581 0
M  V30 8767 O 838.97 -0.812514 -2.00567 0
M  V30 8768 C 839.565 -3.38567 0.125686 0
M  V30 8769 C 838.124 -3.75481 -0.262867 0
M  V30 8770 C 837.271 -2.72913 0.491281 0
M  V30 8771 H 840.222 -1.40978 0.728767 0
M  V30 8772 H 840.243 -3.74629 -0.665831 0
M  V30 8773 H 839.755 -3.70408 1.15842 0
M  V30 8774 H 837.856 -3.49251 -1.29824 0
M  V30 8775 H 837.969 -4.79052 0.067579 0
M  V30 8776 H 836.333 -2.54627 -0.0608525 0
M  V30 8777 H 837.116 -3.07599 1.5244 0
M  V30 8778 N 839.561 -0.251338 -1.55583 0
M  V30 8779 C 840.786 0.379136 -2.03905 0
M  V30 8780 C 841.211 1.50428 -1.12929 0
M  V30 8781 O 840.569 1.80882 -0.123114 0
M  V30 8782 C 840.617 0.86009 -3.50193 0
M  V30 8783 O 839.721 1.96932 -3.62342 0
M  V30 8784 H 839.062 0.0820183 -0.658915 0
M  V30 8785 H 841.592 -0.378692 -2.01065 0
M  V30 8786 H 841.602 1.16214 -3.91099 0
M  V30 8787 H 840.277 0.0367559 -4.15884 0
M  V30 8788 H 838.854 1.67163 -3.33333 0
M  V30 8789 N 841.039 1.57585 0.0217189 0
M  V30 8790 C 842.264 1.94267 0.726309 0
M  V30 8791 C 842.689 0.851904 1.67703 0
M  V30 8792 O 842.047 -0.191792 1.80283 0
M  V30 8793 C 842.095 3.30023 1.45318 0
M  V30 8794 O 841.199 3.22791 2.5667 0
M  V30 8795 H 840.54 0.634777 0.194818 0
M  V30 8796 H 843.07 2.04585 -0.0249985 0
M  V30 8797 H 843.08 3.65084 1.82147 0
M  V30 8798 H 841.755 4.08972 0.755962 0
M  V30 8799 H 840.332 2.99373 2.2233 0
M  V30 8800 N 842.517 -0.29412 1.54831 0
M  V30 8801 C 843.427 -1.3854 1.89325 0
M  V30 8802 C 844.443 -1.55127 0.788133 0
M  V30 8803 O 845.619 -1.6966 1.08524 0
M  V30 8804 C 842.684 -2.72809 2.13954 0
M  V30 8805 C 841.745 -2.65148 3.37631 0
M  V30 8806 C 840.978 -3.93014 3.61076 0
M  V30 8807 O 841.201 -4.927 2.87406 0
M  V30 8808 O 840.135 -3.94491 4.54599 0
M  V30 8809 H 843.961 -1.12289 2.82179 0
M  V30 8810 H 841.546 -0.490793 1.41108 0
M  V30 8811 H 843.428 -3.52238 2.31315 0
M  V30 8812 H 842.103 -2.9889 1.24285 0
M  V30 8813 H 841.01 -1.84168 3.25627 0
M  V30 8814 H 842.343 -2.4402 4.27452 0
M  V30 8815 N 843.995 -1.47404 -0.557645 0
M  V30 8816 C 845.272 -1.44488 -1.31843 0
M  V30 8817 C 845.652 -0.1416 -2.10625 0
M  V30 8818 O 845 0.876908 -2.11004 0
M  V30 8819 C 845.21 -2.69016 -2.22331 0
M  V30 8820 C 846.558 -3.16212 -2.83364 0
M  V30 8821 O 847.582 -2.69741 -2.32634 0
M  V30 8822 O 846.441 -3.96999 -3.75571 0
M  V30 8823 H 843.535 -0.57578 -0.593639 0
M  V30 8824 H 846.081 -1.59605 -0.576584 0
M  V30 8825 H 844.853 -3.55406 -1.63715 0
M  V30 8826 H 844.476 -2.56484 -3.03812 0
M  V30 8827 N 845.473 0.80434 -1.35529 0
M  V30 8828 C 846.75 1.5486 -1.1949 0
M  V30 8829 C 847.13 2.09897 0.22506 0
M  V30 8830 O 846.478 1.92643 1.22886 0
M  V30 8831 C 846.688 2.65535 -2.26478 0
M  V30 8832 C 848.036 3.33814 -2.62399 0
M  V30 8833 O 849.06 2.75807 -2.25409 0
M  V30 8834 O 847.919 4.38612 -3.26009 0
M  V30 8835 H 845.013 0.68433 -0.464351 0
M  V30 8836 H 847.559 0.844107 -1.47217 0
M  V30 8837 H 846.331 2.22754 -3.21709 0
M  V30 8838 H 845.954 3.43617 -2.00033 0
M  V30 8839 N 846.951 1.19563 1.02676 0
M  V30 8840 C 848.198 0.999568 1.7611 0
M  V30 8841 C 848.526 -0.469432 1.8875 0
M  V30 8842 O 847.781 -1.36481 1.40255 0
M  V30 8843 C 848.08 1.61619 3.18769 0
M  V30 8844 C 847.746 3.11366 3.26132 0
M  V30 8845 C 846.408 3.52234 3.27848 0
M  V30 8846 C 848.76 4.07374 3.25109 0
M  V30 8847 C 846.088 4.87658 3.26201 0
M  V30 8848 C 848.44 5.42731 3.25002 0
M  V30 8849 C 847.104 5.83027 3.25017 0
M  V30 8850 H 846.374 0.365768 0.644434 0
M  V30 8851 H 849.021 1.48838 1.20497 0
M  V30 8852 H 847.326 1.04974 3.77476 0
M  V30 8853 H 849.023 1.43975 3.74262 0
M  V30 8854 H 845.613 2.78804 3.25525 0
M  V30 8855 H 849.797 3.76842 3.22961 0
M  V30 8856 H 845.053 5.18156 3.24537 0
M  V30 8857 H 849.227 6.16879 3.23161 0
M  V30 8858 H 846.854 6.87936 3.23494 0
M  V30 8859 N 848.429 -1.21819 0.999893 0
M  V30 8860 C 849.659 -1.94475 0.697346 0
M  V30 8861 C 850.067 -1.73991 -0.743228 0
M  V30 8862 O 849.41 -1.04042 -1.51397 0
M  V30 8863 C 849.472 -3.47204 0.932181 0
M  V30 8864 C 849.136 -3.91432 2.3586 0
M  V30 8865 C 850.133 -3.98545 3.33853 0
M  V30 8866 C 847.818 -4.23888 2.69489 0
M  V30 8867 C 849.812 -4.37499 4.63545 0
M  V30 8868 C 847.499 -4.62519 3.99399 0
M  V30 8869 C 848.497 -4.69294 4.96238 0
M  V30 8870 O 848.185 -5.07048 6.23825 0
M  V30 8871 H 847.917 -0.625419 0.256567 0
M  V30 8872 H 850.471 -1.55728 1.33933 0
M  V30 8873 H 848.701 -3.85997 0.233025 0
M  V30 8874 H 850.39 -4.01078 0.623807 0
M  V30 8875 H 851.156 -3.73654 3.09205 0
M  V30 8876 H 847.035 -4.17815 1.94812 0
M  V30 8877 H 850.579 -4.42702 5.3913 0
M  V30 8878 H 846.476 -4.86864 4.23833 0
M  V30 8879 H 847.244 -5.25098 6.27865 0
M  V30 8880 N 849.908 -0.773975 -1.37286 0
M  V30 8881 C 851.154 -0.339809 -1.99933 0
M  V30 8882 C 851.487 1.0815 -1.61299 0
M  V30 8883 O 850.762 1.74442 -0.860252 0
M  V30 8884 C 851.045 -0.485919 -3.56806 0
M  V30 8885 C 850.898 -1.9498 -4.05343 0
M  V30 8886 C 852.217 0.108461 -4.39966 0
M  V30 8887 H 849.336 -0.124944 -0.726332 0
M  V30 8888 H 851.978 -0.977433 -1.6293 0
M  V30 8889 H 850.128 0.0569023 -3.88458 0
M  V30 8890 H 851.8 -2.5525 -3.84246 0
M  V30 8891 H 850.043 -2.45784 -3.57453 0
M  V30 8892 H 850.714 -2.00308 -5.14374 0
M  V30 8893 H 853.19 -0.354722 -4.14585 0
M  V30 8894 H 852.066 -0.0238926 -5.48895 0
M  V30 8895 H 852.327 1.19901 -4.25531 0
M  V30 8896 N 851.386 1.48609 -0.524698 0
M  V30 8897 C 852.296 2.33318 0.244923 0
M  V30 8898 C 853.312 1.46153 0.944214 0
M  V30 8899 O 854.488 1.79141 0.920347 0
M  V30 8900 C 851.553 3.22149 1.28144 0
M  V30 8901 C 850.614 4.25184 0.593068 0
M  V30 8902 C 849.847 5.0977 1.5802 0
M  V30 8903 O 850.07 4.96249 2.81235 0
M  V30 8904 O 849.004 5.9134 1.1225 0
M  V30 8905 H 852.83 3.00362 -0.449066 0
M  V30 8906 H 850.415 1.46643 -0.285689 0
M  V30 8907 H 852.297 3.77111 1.88057 0
M  V30 8908 H 850.972 2.57772 1.95793 0
M  V30 8909 H 849.879 3.74071 -0.0464214 0
M  V30 8910 H 851.212 4.92183 -0.0413893 0
M  V30 8911 N 852.864 0.259585 1.55447 0
M  V30 8912 C 854.11 -0.362143 1.9954 0
M  V30 8913 C 854.443 -1.5666 1.14767 0
M  V30 8914 O 853.718 -1.93319 0.214025 0
M  V30 8915 C 854.001 -0.759588 3.51998 0
M  V30 8916 C 853.854 0.451134 4.47532 0
M  V30 8917 C 855.173 -1.60186 4.09913 0
M  V30 8918 H 852.292 -0.130157 0.725416 0
M  V30 8919 H 854.934 0.363431 1.86492 0
M  V30 8920 H 853.084 -1.3778 3.63248 0
M  V30 8921 H 854.756 1.08965 4.48246 0
M  V30 8922 H 852.999 1.092 4.19831 0
M  V30 8923 H 853.67 0.129518 5.51848 0
M  V30 8924 H 856.146 -1.0799 4.01842 0
M  V30 8925 H 855.022 -1.84879 5.16828 0
M  V30 8926 H 855.283 -2.57787 3.59163 0
M  V30 8927 N 854.342 -1.57594 -0.0133615 0
M  V30 8928 C 855.252 -2.10991 -1.02566 0
M  V30 8929 C 856.268 -1.05208 -1.3859 0
M  V30 8930 O 857.444 -1.37034 -1.47593 0
M  V30 8931 C 854.509 -2.59165 -2.30292 0
M  V30 8932 C 853.57 -3.79495 -2.00704 0
M  V30 8933 C 852.803 -4.25361 -3.22341 0
M  V30 8934 O 853.026 -3.70645 -4.33565 0
M  V30 8935 O 851.96 -5.17649 -3.07121 0
M  V30 8936 H 855.786 -2.97678 -0.601806 0
M  V30 8937 H 853.371 -1.47598 -0.23135 0
M  V30 8938 H 855.253 -2.90409 -3.05354 0
M  V30 8939 H 853.928 -1.75582 -2.71942 0
M  V30 8940 H 852.835 -3.53245 -1.23161 0
M  V30 8941 H 854.168 -4.64109 -1.639 0
M  V30 8942 N 855.82 0.285905 -1.54985 0
M  V30 8943 C 857.236 0.632405 -1.46536 0
M  V30 8944 C 857.436 1.90074 -0.668888 0
M  V30 8945 O 856.492 2.51839 -0.182586 0
M  V30 8946 C 857.805 0.771361 -2.90638 0
M  V30 8947 C 859.353 0.866262 -3.00774 0
M  V30 8948 C 859.828 1.0371 -4.46103 0
M  V30 8949 N 861.319 1.10294 -4.49877 0
M  V30 8950 C 862.054 1.25369 -5.59527 0
M  V30 8951 N 861.55 1.37246 -6.7907 0
M  V30 8952 N 863.343 1.28377 -5.47244 0
M  V30 8953 H 855.494 -0.547226 -2.0523 0
M  V30 8954 H 857.757 -0.183298 -0.930111 0
M  V30 8955 H 857.463 -0.0899485 -3.51585 0
M  V30 8956 H 857.337 1.65569 -3.3892 0
M  V30 8957 H 859.724 1.71805 -2.39931 0
M  V30 8958 H 859.805 -0.0424049 -2.55765 0
M  V30 8959 H 859.449 0.190021 -5.07544 0
M  V30 8960 H 859.379 1.96022 -4.88757 0
M  V30 8961 H 861.87 1.02407 -3.6376 0
M  V30 8962 H 862.183 1.48546 -7.58389 0
M  V30 8963 H 860.528 1.34274 -6.81906 0
M  V30 8964 H 863.719 1.1872 -4.52795 0
M  V30 8965 H 863.892 1.39782 -6.32744 0
M  V30 8966 N 857.298 1.47698 0.54982 0
M  V30 8967 C 858.714 1.3338 0.876468 0
M  V30 8968 C 858.914 0.329837 1.98782 0
M  V30 8969 O 857.97 -0.256022 2.51199 0
M  V30 8970 C 859.283 2.72903 1.26272 0
M  V30 8971 C 860.831 2.81243 1.37373 0
M  V30 8972 C 861.306 4.21423 1.79351 0
M  V30 8973 N 862.797 4.24 1.86489 0
M  V30 8974 C 863.532 5.29386 2.20313 0
M  V30 8975 N 863.028 6.4507 2.527 0
M  V30 8976 N 864.821 5.16768 2.2115 0
M  V30 8977 H 856.972 2.11603 -0.183781 0
M  V30 8978 H 859.235 0.947798 -0.0195601 0
M  V30 8979 H 858.941 3.47836 0.519889 0
M  V30 8980 H 858.815 3.05151 2.21727 0
M  V30 8981 H 861.202 2.06577 2.10737 0
M  V30 8982 H 861.283 2.52639 0.400882 0
M  V30 8983 H 860.927 4.96597 1.06555 0
M  V30 8984 H 860.857 4.47456 2.77652 0
M  V30 8985 H 863.348 3.40547 1.63817 0
M  V30 8986 H 863.661 7.21236 2.77557 0
M  V30 8987 H 862.006 6.48377 2.50263 0
M  V30 8988 H 865.197 4.25416 1.95293 0
M  V30 8989 H 865.37 5.99004 2.4718 0
M  V30 8990 N 858.776 -0.797141 1.35954 0
M  V30 8991 C 860.001 -1.59097 1.33053 0
M  V30 8992 C 860.426 -1.87897 -0.0874592 0
M  V30 8993 O 859.784 -1.47291 -1.05712 0
M  V30 8994 C 859.832 -2.89346 2.152 0
M  V30 8995 O 858.936 -3.826 1.5392 0
M  V30 8996 H 858.277 -0.482895 0.45575 0
M  V30 8997 H 860.807 -0.988633 1.79129 0
M  V30 8998 H 860.817 -3.38686 2.27499 0
M  V30 8999 H 859.492 -2.6771 3.18283 0
M  V30 9000 H 858.069 -3.41174 1.50516 0
M  V30 9001 N 860.254 -1.20106 -1.0204 0
M  V30 9002 C 861.5 -1.01039 -1.75838 0
M  V30 9003 C 861.833 0.456819 -1.88751 0
M  V30 9004 O 861.108 1.33919 -1.41053 0
M  V30 9005 C 861.391 -1.69009 -3.17975 0
M  V30 9006 C 861.244 -3.2315 -3.1288 0
M  V30 9007 C 862.563 -1.42005 -4.16561 0
M  V30 9008 H 859.682 -0.368465 -0.638281 0
M  V30 9009 H 862.324 -1.48066 -1.19064 0
M  V30 9010 H 860.474 -1.29026 -3.66449 0
M  V30 9011 H 862.146 -3.72402 -2.72239 0
M  V30 9012 H 860.389 -3.54253 -2.50374 0
M  V30 9013 H 861.06 -3.65862 -4.13339 0
M  V30 9014 H 863.536 -1.76685 -3.76725 0
M  V30 9015 H 862.412 -1.92101 -5.14187 0
M  V30 9016 H 862.673 -0.346884 -4.40737 0
M  V30 9017 N 861.732 1.21287 -1.00634 0
M  V30 9018 C 862.664 2.2308 -0.526094 0
M  V30 9019 C 863.677 1.58157 0.386031 0
M  V30 9020 O 864.866 1.77528 0.186016 0
M  V30 9021 C 861.966 3.37937 0.255289 0
M  V30 9022 C 861.139 4.32449 -0.656236 0
M  V30 9023 C 860.198 5.26145 0.0757714 0
M  V30 9024 O 859.224 5.66601 -0.543325 0
M  V30 9025 N 860.426 5.6449 1.35391 0
M  V30 9026 H 863.191 2.64913 -1.40147 0
M  V30 9027 H 860.752 1.35724 -0.882641 0
M  V30 9028 H 862.744 3.97614 0.753977 0
M  V30 9029 H 861.314 2.95078 1.03187 0
M  V30 9030 H 860.534 3.70892 -1.3354 0
M  V30 9031 H 861.822 4.92526 -1.27653 0
M  V30 9032 H 861.22 5.33617 1.878 0
M  V30 9033 H 859.777 6.26524 1.79753 0
M  V30 9034 N 863.21 0.781244 1.36873 0
M  V30 9035 C 864.157 0.172146 2.30157 0
M  V30 9036 C 865.127 -0.679328 1.51573 0
M  V30 9037 O 866.312 -0.629713 1.80109 0
M  V30 9038 C 863.452 -0.693534 3.38059 0
M  V30 9039 C 862.565 0.175586 4.31643 0
M  V30 9040 C 861.7 -0.695695 5.26625 0
M  V30 9041 C 860.739 0.17538 6.11849 0
M  V30 9042 N 859.876 -0.654416 6.99043 0
M  V30 9043 H 864.716 0.973133 2.81663 0
M  V30 9044 H 862.253 0.491469 1.38647 0
M  V30 9045 H 864.211 -1.21035 3.99257 0
M  V30 9046 H 862.841 -1.46003 2.87894 0
M  V30 9047 H 861.893 0.810295 3.7167 0
M  V30 9048 H 863.205 0.847107 4.91554 0
M  V30 9049 H 862.359 -1.27863 5.93073 0
M  V30 9050 H 861.098 -1.40087 4.67148 0
M  V30 9051 H 860.103 0.77078 5.4437 0
M  V30 9052 H 861.328 0.87803 6.734 0
M  V30 9053 H 859.274 -1.34403 6.42084 0
M  V30 9054 H 859.191 -0.0403998 7.55989 0
M  V30 9055 H 860.459 -1.22144 7.69871 0
M  V30 9056 N 864.689 -1.48329 0.532571 0
M  V30 9057 C 865.914 -2.074 0.00147755 0
M  V30 9058 C 866.339 -1.38615 -1.27151 0
M  V30 9059 O 865.697 -0.452949 -1.75551 0
M  V30 9060 C 865.745 -3.60029 -0.202866 0
M  V30 9061 O 864.849 -3.92327 -1.27097 0
M  V30 9062 H 864.19 -0.662777 0.0402883 0
M  V30 9063 H 866.72 -1.90701 0.741224 0
M  V30 9064 H 866.73 -4.05783 -0.424722 0
M  V30 9065 H 865.405 -4.09496 0.727033 0
M  V30 9066 H 863.982 -3.58348 -1.03156 0
M  V30 9067 N 866.167 -0.267825 -1.55308 0
M  V30 9068 C 867.444 0.402449 -1.91415 0
M  V30 9069 C 867.824 1.7428 -1.1912 0
M  V30 9070 O 867.172 2.2631 -0.315609 0
M  V30 9071 C 867.382 0.549926 -3.4464 0
M  V30 9072 C 868.73 0.836188 -4.16285 0
M  V30 9073 O 869.754 0.635009 -3.50494 0
M  V30 9074 O 868.613 1.22051 -5.32697 0
M  V30 9075 H 865.707 0.219177 -0.797427 0
M  V30 9076 H 868.253 -0.313439 -1.6678 0
M  V30 9077 H 867.025 -0.393641 -3.89315 0
M  V30 9078 H 866.648 1.31556 -3.75205 0
M  V30 9079 N 867.645 1.57599 0.00500368 0
M  V30 9080 C 868.577 2.04949 1.02609 0
M  V30 9081 C 869.59 0.966507 1.31006 0
M  V30 9082 O 870.779 1.2434 1.2807 0
M  V30 9083 C 867.879 2.43023 2.36206 0
M  V30 9084 C 867.052 3.73993 2.26821 0
M  V30 9085 C 866.111 3.9899 3.43065 0
M  V30 9086 O 865.137 4.69725 3.21477 0
M  V30 9087 N 866.339 3.46496 4.65748 0
M  V30 9088 H 869.104 2.93167 0.622336 0
M  V30 9089 H 866.665 1.60752 0.192488 0
M  V30 9090 H 868.657 2.56863 3.12735 0
M  V30 9091 H 867.227 1.60349 2.68341 0
M  V30 9092 H 866.447 3.70277 1.35235 0
M  V30 9093 H 867.735 4.59865 2.17719 0
M  V30 9094 H 867.133 2.89206 4.86186 0
M  V30 9095 H 865.69 3.65675 5.3956 0
M  V30 9096 N 869.123 -0.277682 1.55134 0
M  V30 9097 C 870.055 -1.36531 1.84098 0
M  V30 9098 C 871.068 -1.45756 0.725194 0
M  V30 9099 O 872.257 -1.47656 1.00299 0
M  V30 9100 C 869.357 -2.74701 1.98476 0
M  V30 9101 C 868.53 -2.88125 3.29094 0
M  V30 9102 C 867.589 -4.0694 3.33596 0
M  V30 9103 O 866.615 -3.9792 4.06999 0
M  V30 9104 N 867.817 -5.18687 2.60661 0
M  V30 9105 H 870.582 -1.12032 2.77973 0
M  V30 9106 H 868.143 -0.467793 1.54995 0
M  V30 9107 H 870.135 -3.52471 1.98863 0
M  V30 9108 H 868.705 -2.92043 1.11488 0
M  V30 9109 H 867.925 -1.97277 3.41285 0
M  V30 9110 H 869.213 -2.94021 4.15246 0
M  V30 9111 H 868.611 -5.28901 2.00699 0
M  V30 9112 H 867.168 -5.94705 2.66776 0
M  V30 9113 N 870.601 -1.47988 -0.541979 0
M  V30 9114 C 871.549 -1.62044 -1.66867 0
M  V30 9115 C 872.543 -0.487217 -1.62242 0
M  V30 9116 O 873.749 -0.66554 -1.67244 0
M  V30 9117 H 870.124 -0.51024 -0.552412 0
M  V30 9118 H 872.095 -2.56695 -1.52153 0
M  V30 9119 C 870.844 -1.66615 -3.0518 0
M  V30 9120 H 870.167 -2.5317 -3.09427 0
M  V30 9121 H 871.607 -1.80496 -3.83663 0
M  V30 9122 C 870.066 -0.402421 -3.34488 0
M  V30 9123 O 870.596 0.48992 -3.98701 0
M  V30 9124 N 868.802 -0.277778 -2.89269 0
M  V30 9125 H 868.349 -1.00488 -2.37192 0
M  V30 9126 H 868.307 0.566784 -3.09249 0
M  V30 9127 N 872.079 0.78992 -1.36375 0
M  V30 9128 C 873.328 1.54296 -1.29906 0
M  V30 9129 C 873.641 1.95234 0.119651 0
M  V30 9130 O 874.847 2.69762 0.306708 0
M  V30 9131 C 873.303 2.78533 -2.27919 0
M  V30 9132 C 872.911 2.44767 -3.75224 0
M  V30 9133 C 874.655 3.56516 -2.30427 0
M  V30 9134 C 872.562 3.65397 -4.65015 0
M  V30 9135 H 871.492 0.579214 -0.482729 0
M  V30 9136 H 874.143 0.866845 -1.61735 0
M  V30 9137 H 872.525 3.47941 -1.89084 0
M  V30 9138 H 873.699 1.83259 -4.22792 0
M  V30 9139 H 872.014 1.79996 -3.75487 0
M  V30 9140 H 874.611 4.46143 -2.94722 0
M  V30 9141 H 874.954 3.95063 -1.31266 0
M  V30 9142 H 875.487 2.94087 -2.67876 0
M  V30 9143 H 872.226 3.31946 -5.65236 0
M  V30 9144 H 871.746 4.26072 -4.22164 0
M  V30 9145 H 873.425 4.32431 -4.81261 0
M  V30 9146 N 873.557 1.20646 1.01402 0
M  V30 9147 C 874.504 0.957618 2.09996 0
M  V30 9148 C 875.474 -0.113115 1.65714 0
M  V30 9149 O 876.659 0.032142 1.90773 0
M  V30 9150 C 873.799 0.5186 3.41181 0
M  V30 9151 C 872.912 1.65777 3.98926 0
M  V30 9152 C 872.047 1.16881 5.18182 0
M  V30 9153 C 871.086 2.2809 5.68015 0
M  V30 9154 N 870.223 1.80392 6.7853 0
M  V30 9155 H 875.063 1.88732 2.30617 0
M  V30 9156 H 872.6 0.940703 1.13089 0
M  V30 9157 H 874.558 0.245367 4.16478 0
M  V30 9158 H 873.188 -0.3741 3.20625 0
M  V30 9159 H 872.24 2.04586 3.207 0
M  V30 9160 H 873.552 2.49507 4.31912 0
M  V30 9161 H 872.706 0.851694 6.00692 0
M  V30 9162 H 871.445 0.301434 4.86768 0
M  V30 9163 H 870.45 2.60614 4.84108 0
M  V30 9164 H 871.675 3.15308 6.01463 0
M  V30 9165 H 869.621 0.959856 6.4894 0
M  V30 9166 H 869.538 2.57701 7.10722 0
M  V30 9167 H 870.806 1.51688 7.64598 0
M  V30 9168 N 875.035 -1.20752 1.01276 0
M  V30 9169 C 876.281 -1.90302 0.700924 0
M  V30 9170 C 876.614 -1.78406 -0.767142 0
M  V30 9171 O 875.889 -1.16575 -1.55694 0
M  V30 9172 C 876.172 -3.41831 1.13242 0
M  V30 9173 C 876.025 -3.6268 2.66051 0
M  V30 9174 C 877.344 -4.34486 0.700738 0
M  V30 9175 H 874.463 -0.69107 0.256107 0
M  V30 9176 H 877.105 -1.42227 1.25982 0
M  V30 9177 H 875.255 -3.82906 0.656902 0
M  V30 9178 H 876.927 -3.30882 3.21426 0
M  V30 9179 H 875.17 -3.06281 3.07204 0
M  V30 9180 H 875.841 -4.68882 2.91296 0
M  V30 9181 H 878.317 -4.01036 1.10948 0
M  V30 9182 H 877.193 -5.39136 1.03073 0
M  V30 9183 H 877.454 -4.40307 -0.39778 0
M  V30 9184 N 876.513 -0.788492 -1.36457 0
M  V30 9185 C 877.924 -0.423742 -1.81828 0
M  V30 9186 C 878.275 1.05221 -1.65599 0
M  V30 9187 O 877.4 1.8163 -1.17641 0
M  V30 9188 C 877.995 -0.762354 -3.30112 0
M  V30 9189 C 876.554 -0.450445 -3.73695 0
M  V30 9190 C 875.701 -0.997482 -2.58738 0
M  V30 9191 H 878.652 -0.981718 -1.24692 0
M  V30 9192 H 878.673 -0.0531136 -3.80463 0
M  V30 9193 H 878.185 -1.83662 -3.41891 0
M  V30 9194 H 876.286 0.615829 -3.67476 0
M  V30 9195 H 876.399 -0.970408 -4.69169 0
M  V30 9196 H 874.763 -0.420761 -2.51201 0
M  V30 9197 H 875.546 -2.07749 -2.73304 0
M  V30 9198 N 877.991 1.48044 -0.54043 0
M  V30 9199 C 879.239 2.02097 -0.0101367 0
M  V30 9200 C 879.56 1.41881 1.33771 0
M  V30 9201 O 878.83 0.587923 1.8687 0
M  V30 9202 H 877.41 0.747 -0.000758716 0
M  V30 9203 H 880.072 1.81639 -0.706634 0
M  V30 9204 H 879.168 3.11969 0.0904474 0
M  V30 9205 N 879.47 0.276058 1.55163 0
M  V30 9206 C 880.418 -0.626978 2.2399 0
M  V30 9207 C 881.412 -1.15708 1.23725 0
M  V30 9208 O 882.618 -1.1106 1.41653 0
M  V30 9209 H 878.993 -0.220742 0.718872 0
M  V30 9210 H 880.964 -0.0236569 2.98391 0
M  V30 9211 C 879.713 -1.79935 2.97521 0
M  V30 9212 H 879.036 -1.40064 3.74463 0
M  V30 9213 H 880.476 -2.40781 3.48999 0
M  V30 9214 C 878.935 -2.68838 2.03046 0
M  V30 9215 O 879.465 -3.69224 1.58229 0
M  V30 9216 N 877.671 -2.36028 1.69527 0
M  V30 9217 H 877.218 -1.54442 2.06169 0
M  V30 9218 H 877.176 -2.95782 1.06586 0
M  V30 9219 N 880.948 -1.576 0.00335426 0
M  V30 9220 C 881.878 -2.11668 -0.985839 0
M  V30 9221 C 882.859 -1.02661 -1.35627 0
M  V30 9222 O 884.044 -1.30361 -1.43943 0
M  V30 9223 C 881.174 -2.62273 -2.27662 0
M  V30 9224 C 880.128 -3.75837 -2.0477 0
M  V30 9225 C 879.454 -4.12769 -3.39891 0
M  V30 9226 C 880.754 -5.02975 -1.40759 0
M  V30 9227 H 882.448 -2.9457 -0.535637 0
M  V30 9228 H 879.994 -1.41702 -0.256204 0
M  V30 9229 H 881.947 -2.98727 -2.97221 0
M  V30 9230 H 880.671 -1.76498 -2.74802 0
M  V30 9231 H 879.33 -3.39782 -1.37636 0
M  V30 9232 H 878.978 -3.24013 -3.8474 0
M  V30 9233 H 878.678 -4.89281 -3.25389 0
M  V30 9234 H 880.202 -4.51784 -4.1076 0
M  V30 9235 H 881.616 -5.37179 -2.00279 0
M  V30 9236 H 880.013 -5.84315 -1.36734 0
M  V30 9237 H 881.083 -4.83431 -0.377218 0
M  V30 9238 N 882.426 0.269451 -1.5528 0
M  V30 9239 C 883.654 1.01872 -1.80082 0
M  V30 9240 C 884.069 1.79802 -0.575917 0
M  V30 9241 O 883.426 1.76735 0.455081 0
M  V30 9242 C 883.477 1.9745 -3.02813 0
M  V30 9243 O 883.198 1.22677 -4.20573 0
M  V30 9244 C 884.699 2.8416 -3.40247 0
M  V30 9245 H 881.919 0.300781 -0.59981 0
M  V30 9246 H 884.463 0.29916 -2.023 0
M  V30 9247 H 882.618 2.64864 -2.82712 0
M  V30 9248 H 883.032 1.87129 -4.89982 0
M  V30 9249 H 884.506 3.47014 -4.29284 0
M  V30 9250 H 884.983 3.54113 -2.59809 0
M  V30 9251 H 885.589 2.22232 -3.6262 0
M  V30 9252 N 883.904 1.48273 0.534124 0
M  V30 9253 C 885.129 1.59988 1.31979 0
M  V30 9254 C 885.554 0.258824 1.86311 0
M  V30 9255 O 884.912 -0.768885 1.64188 0
M  V30 9256 C 884.96 2.64642 2.44943 0
M  V30 9257 O 884.064 2.21515 3.47858 0
M  V30 9258 H 883.405 0.536625 0.391063 0
M  V30 9259 H 885.935 1.94229 0.643135 0
M  V30 9260 H 885.945 2.85786 2.91187 0
M  V30 9261 H 884.62 3.62004 2.04758 0
M  V30 9262 H 883.197 2.10567 3.0776 0
M  V30 9263 N 885.382 -0.782676 1.36792 0
M  V30 9264 C 886.628 -1.54311 1.3159 0
M  V30 9265 C 886.961 -1.93928 -0.102696 0
M  V30 9266 O 886.236 -1.63233 -1.05761 0
M  V30 9267 C 886.519 -2.81561 2.24489 0
M  V30 9268 C 886.372 -2.48268 3.75078 0
M  V30 9269 C 887.691 -3.83428 2.16034 0
M  V30 9270 H 884.81 -0.559828 0.479335 0
M  V30 9271 H 887.452 -0.898717 1.67401 0
M  V30 9272 H 885.602 -3.36549 1.9408 0
M  V30 9273 H 887.274 -1.99279 4.16036 0
M  V30 9274 H 885.517 -1.81116 3.94182 0
M  V30 9275 H 886.188 -3.39183 4.35499 0
M  V30 9276 H 888.664 -3.37905 2.42815 0
M  V30 9277 H 887.54 -4.70204 2.83194 0
M  V30 9278 H 887.801 -4.26887 1.14976 0
M  V30 9279 N 886.86 -1.21182 -1.00761 0
M  V30 9280 C 887.79 -0.992773 -2.11344 0
M  V30 9281 C 888.771 0.0813618 -1.69905 0
M  V30 9282 O 889.956 -0.0779503 -1.94043 0
M  V30 9283 C 887.086 -0.553826 -3.42856 0
M  V30 9284 C 886.04 -1.57223 -3.98077 0
M  V30 9285 C 885.366 -0.989605 -5.25463 0
M  V30 9286 C 886.666 -2.95839 -4.30438 0
M  V30 9287 H 888.36 -1.91766 -2.29927 0
M  V30 9288 H 885.906 -0.923426 -1.10494 0
M  V30 9289 H 887.859 -0.387771 -4.19612 0
M  V30 9290 H 886.583 0.406702 -3.24058 0
M  V30 9291 H 885.242 -1.7258 -3.23437 0
M  V30 9292 H 884.89 -0.0208743 -5.02996 0
M  V30 9293 H 884.59 -1.66984 -5.63374 0
M  V30 9294 H 886.114 -0.834815 -6.04866 0
M  V30 9295 H 887.528 -2.8394 -4.98047 0
M  V30 9296 H 885.925 -3.60851 -4.79486 0
M  V30 9297 H 886.995 -3.46882 -3.38823 0
M  V30 9298 N 888.338 1.20213 -1.01915 0
M  V30 9299 C 889.268 2.25336 -0.612023 0
M  V30 9300 C 890.249 1.65933 0.374186 0
M  V30 9301 O 891.434 1.92464 0.259053 0
M  V30 9302 C 888.564 3.47267 0.047904 0
M  V30 9303 C 887.518 4.1928 -0.859557 0
M  V30 9304 C 886.844 5.3466 -0.0652655 0
M  V30 9305 C 888.144 4.75143 -2.1688 0
M  V30 9306 H 889.838 2.59645 -1.49079 0
M  V30 9307 H 887.384 1.24808 -0.718263 0
M  V30 9308 H 889.337 4.19991 0.344294 0
M  V30 9309 H 888.061 3.12129 0.961404 0
M  V30 9310 H 886.72 3.48425 -1.13999 0
M  V30 9311 H 886.368 4.95767 0.849964 0
M  V30 9312 H 886.068 5.83772 -0.669618 0
M  V30 9313 H 887.592 6.10187 0.224612 0
M  V30 9314 H 889.006 5.39672 -1.9346 0
M  V30 9315 H 887.403 5.34702 -2.72422 0
M  V30 9316 H 888.473 3.93744 -2.83008 0
M  V30 9317 N 889.816 0.795718 1.36037 0
M  V30 9318 C 890.764 0.18649 2.31851 0
M  V30 9319 C 891.758 -0.657704 1.56111 0
M  V30 9320 O 892.964 -0.552083 1.71324 0
M  V30 9321 H 889.339 0.0415363 0.750852 0
M  V30 9322 H 891.31 1.00992 2.8079 0
M  V30 9323 C 890.059 -0.65918 3.41394 0
M  V30 9324 H 889.382 -0.01894 3.99796 0
M  V30 9325 H 890.822 -1.05202 4.10741 0
M  V30 9326 C 889.281 -1.82011 2.83502 0
M  V30 9327 O 889.811 -2.91703 2.76174 0
M  V30 9328 N 888.017 -1.62821 2.40703 0
M  V30 9329 H 887.564 -0.735965 2.46863 0
M  V30 9330 H 887.522 -2.40657 2.02316 0
M  V30 9331 N 891.294 -1.47756 0.548274 0
M  V30 9332 C 892.242 -2.3158 -0.217584 0
M  V30 9333 C 893.236 -1.42372 -0.917957 0
M  V30 9334 O 894.442 -1.59184 -0.840259 0
M  V30 9335 H 890.817 -0.74671 -0.0890388 0
M  V30 9336 H 892.788 -2.94032 0.508719 0
M  V30 9337 C 891.537 -3.24834 -1.24008 0
M  V30 9338 H 890.86 -3.93435 -0.710572 0
M  V30 9339 H 892.3 -3.86336 -1.74701 0
M  V30 9340 C 890.759 -2.47724 -2.2833 0
M  V30 9341 O 891.289 -2.21522 -3.35098 0
M  V30 9342 N 889.495 -2.08891 -2.02022 0
M  V30 9343 H 889.042 -2.30401 -1.1521 0
M  V30 9344 H 889 -1.57613 -2.7204 0
M  V30 9345 N 892.772 -0.284283 -1.55015 0
M  V30 9346 C 893.702 0.592663 -2.25853 0
M  V30 9347 C 894.683 1.15151 -1.25197 0
M  V30 9348 O 895.868 1.18395 -1.53936 0
M  V30 9349 C 892.998 1.77254 -2.98661 0
M  V30 9350 C 891.952 1.34482 -4.06323 0
M  V30 9351 C 891.278 2.60853 -4.66754 0
M  V30 9352 C 892.578 0.488288 -5.20013 0
M  V30 9353 H 894.272 0.00187041 -2.994 0
M  V30 9354 H 891.818 -0.000540402 -1.44 0
M  V30 9355 H 893.771 2.39199 -3.46932 0
M  V30 9356 H 892.495 2.38931 -2.22664 0
M  V30 9357 H 891.154 0.748519 -3.58877 0
M  V30 9358 H 890.802 3.20808 -3.87416 0
M  V30 9359 H 890.502 2.32942 -5.39455 0
M  V30 9360 H 892.026 3.23631 -5.1778 0
M  V30 9361 H 893.44 1.01298 -5.6428 0
M  V30 9362 H 891.837 0.303669 -5.99331 0
M  V30 9363 H 892.907 -0.490727 -4.8241 0
M  V30 9364 N 894.251 1.57596 -0.0117121 0
M  V30 9365 C 895.201 2.05641 0.98467 0
M  V30 9366 C 896.185 0.953422 1.2961 0
M  V30 9367 O 897.377 1.21712 1.28512 0
M  V30 9368 C 894.506 2.57285 2.27286 0
M  V30 9369 C 893.592 3.74483 1.99057 0
M  V30 9370 N 893.983 4.85741 1.41029 0
M  V30 9371 C 892.281 3.82637 2.2914 0
M  V30 9372 C 892.982 5.67094 1.29536 0
M  V30 9373 N 891.958 5.13459 1.78497 0
M  V30 9374 H 895.76 2.89069 0.530702 0
M  V30 9375 H 893.274 1.6124 0.193717 0
M  V30 9376 H 895.271 2.89988 2.99521 0
M  V30 9377 H 893.931 1.75281 2.73325 0
M  V30 9378 H 894.942 5.06352 1.08756 0
M  V30 9379 H 891.619 3.11509 2.77972 0
M  V30 9380 H 893.009 6.66525 0.848144 0
M  V30 9381 N 895.729 -0.261212 1.5542 0
M  V30 9382 C 897.14 -0.83138 1.67167 0
M  V30 9383 C 897.491 -1.8659 0.606525 0
M  V30 9384 O 896.616 -2.14953 -0.24985 0
M  V30 9385 C 897.211 -1.51475 3.03052 0
M  V30 9386 C 895.77 -2.0328 3.16787 0
M  V30 9387 C 894.917 -0.878903 2.63003 0
M  V30 9388 H 897.868 -0.0373102 1.58656 0
M  V30 9389 H 897.889 -2.38222 2.96699 0
M  V30 9390 H 897.401 -0.76157 3.80554 0
M  V30 9391 H 895.502 -2.81523 2.44082 0
M  V30 9392 H 895.615 -2.24001 4.2351 0
M  V30 9393 H 893.979 -1.27551 2.2046 0
M  V30 9394 H 894.762 -0.13904 3.43018 0
M  V30 9395 N 897.207 -1.48554 -0.526253 0
M  V30 9396 C 898.623 -1.34757 -0.855138 0
M  V30 9397 C 898.823 -0.36142 -1.98232 0
M  V30 9398 O 897.879 0.216026 -2.51574 0
M  V30 9399 C 899.192 -2.74877 -1.21915 0
M  V30 9400 C 900.74 -2.83393 -1.32882 0
M  V30 9401 C 901.215 -4.24223 -1.72624 0
M  V30 9402 N 902.706 -4.26913 -1.7972 0
M  V30 9403 C 903.441 -5.32824 -2.11863 0
M  V30 9404 N 902.937 -6.49008 -2.42405 0
M  V30 9405 N 904.73 -5.20221 -2.12901 0
M  V30 9406 H 896.881 -2.11284 0.217422 0
M  V30 9407 H 899.144 -0.947367 0.0346362 0
M  V30 9408 H 898.85 -3.48619 -0.464486 0
M  V30 9409 H 898.724 -3.0864 -2.16844 0
M  V30 9410 H 901.111 -2.09904 -2.07424 0
M  V30 9411 H 901.192 -2.53245 -0.360638 0
M  V30 9412 H 900.836 -4.98229 -0.986411 0
M  V30 9413 H 900.766 -4.51817 -2.70498 0
M  V30 9414 H 903.257 -3.4311 -1.58379 0
M  V30 9415 H 903.57 -7.25561 -2.66048 0
M  V30 9416 H 901.915 -6.52277 -2.39917 0
M  V30 9417 H 905.106 -4.28469 -1.885 0
M  V30 9418 H 905.279 -6.02861 -2.37619 0
M  V30 9419 N 898.685 0.775411 -1.37205 0
M  V30 9420 C 899.595 1.91967 -1.34855 0
M  V30 9421 C 900.611 1.72214 -0.248656 0
M  V30 9422 O 901.787 1.95512 -0.483421 0
M  V30 9423 C 898.852 3.27038 -1.15096 0
M  V30 9424 C 897.913 3.5947 -2.34691 0
M  V30 9425 C 897.146 4.88097 -2.15865 0
M  V30 9426 O 897.369 5.58871 -1.14102 0
M  V30 9427 O 896.303 5.19507 -3.03967 0
M  V30 9428 H 900.129 1.969 -2.31223 0
M  V30 9429 H 897.714 0.917647 -1.17897 0
M  V30 9430 H 899.596 4.07837 -1.0605 0
M  V30 9431 H 898.271 3.22965 -0.217999 0
M  V30 9432 H 897.178 2.7892 -2.49308 0
M  V30 9433 H 898.511 3.68282 -3.26541 0
M  V30 9434 N 900.163 1.21714 1.00117 0
M  V30 9435 C 901.095 0.937627 2.09144 0
M  V30 9436 C 902.108 -0.0806291 1.626 0
M  V30 9437 O 903.297 0.152348 1.77849 0
M  V30 9438 C 900.397 0.387036 3.36683 0
M  V30 9439 C 899.57 1.46054 4.12295 0
M  V30 9440 C 898.629 0.918505 5.18122 0
M  V30 9441 O 897.655 1.60282 5.46167 0
M  V30 9442 N 898.857 -0.264308 5.79898 0
M  V30 9443 H 901.622 1.87622 2.33705 0
M  V30 9444 H 899.183 1.12291 1.16629 0
M  V30 9445 H 901.175 0.00992825 4.04699 0
M  V30 9446 H 899.745 -0.456467 3.09249 0
M  V30 9447 H 898.965 2.01133 3.39027 0
M  V30 9448 H 900.253 2.18306 4.59587 0
M  V30 9449 H 899.651 -0.837242 5.5947 0
M  V30 9450 H 898.208 -0.582886 6.49188 0
M  V30 9451 N 901.641 -1.19671 1.02551 0
M  V30 9452 C 902.871 -1.92952 0.738441 0
M  V30 9453 C 903.279 -1.75528 -0.706155 0
M  V30 9454 O 902.622 -1.0723 -1.49156 0
M  V30 9455 C 902.684 -3.45149 1.00562 0
M  V30 9456 C 902.348 -3.86341 2.44109 0
M  V30 9457 C 903.345 -3.91374 3.42231 0
M  V30 9458 C 901.03 -4.18076 2.7842 0
M  V30 9459 C 903.024 -4.27568 4.7272 0
M  V30 9460 C 900.711 -4.53943 4.0912 0
M  V30 9461 C 901.709 -4.58663 5.06081 0
M  V30 9462 O 901.397 -4.93701 6.3444 0
M  V30 9463 H 901.129 -0.619836 0.269776 0
M  V30 9464 H 903.683 -1.52852 1.37206 0
M  V30 9465 H 901.913 -3.85416 0.314849 0
M  V30 9466 H 903.602 -3.99664 0.708742 0
M  V30 9467 H 904.368 -3.67011 3.17061 0
M  V30 9468 H 900.247 -4.13589 2.03631 0
M  V30 9469 H 903.791 -4.31166 5.48399 0
M  V30 9470 H 899.688 -4.77764 4.34064 0
M  V30 9471 H 900.456 -5.11662 6.38862 0
M  V30 9472 N 903.119 -0.802921 -1.35613 0
M  V30 9473 C 904.365 -0.382141 -1.99167 0
M  V30 9474 C 904.698 1.04704 -1.63556 0
M  V30 9475 O 903.973 1.72578 -0.89706 0
M  V30 9476 C 904.256 -0.561493 -3.55695 0
M  V30 9477 C 904.109 -2.03534 -4.01116 0
M  V30 9478 C 905.428 0.0151135 -4.40097 0
M  V30 9479 H 902.547 -0.140322 -0.723518 0
M  V30 9480 H 905.189 -1.01177 -1.6082 0
M  V30 9481 H 903.339 -0.0255083 -3.88492 0
M  V30 9482 H 905.011 -2.63343 -3.78746 0
M  V30 9483 H 903.254 -2.5331 -3.52159 0
M  V30 9484 H 903.925 -2.11173 -5.1001 0
M  V30 9485 H 906.401 -0.442582 -4.1374 0
M  V30 9486 H 905.277 -0.140316 -5.48721 0
M  V30 9487 H 905.538 1.10848 -4.27978 0
M  V30 9488 N 904.597 1.47463 -0.556102 0
M  V30 9489 C 905.843 2.02775 -0.0316806 0
M  V30 9490 C 906.176 1.42967 1.3143 0
M  V30 9491 O 905.451 0.584847 1.85499 0
M  V30 9492 C 905.734 3.60046 0.0625742 0
M  V30 9493 C 905.587 4.30288 -1.31043 0
M  V30 9494 C 906.906 4.33195 0.776553 0
M  V30 9495 H 904.025 0.736886 -0.0129869 0
M  V30 9496 H 906.667 1.75904 -0.718177 0
M  V30 9497 H 904.817 3.83071 0.647231 0
M  V30 9498 H 906.489 4.18607 -1.9382 0
M  V30 9499 H 904.732 3.90685 -1.8854 0
M  V30 9500 H 905.403 5.38861 -1.1972 0
M  V30 9501 H 907.879 4.15156 0.280147 0
M  V30 9502 H 906.755 5.42869 0.81146 0
M  V30 9503 H 907.016 4.02336 1.83244 0
M  V30 9504 N 906.075 0.2925 1.54862 0
M  V30 9505 C 907.491 -0.0611461 1.59483 0
M  V30 9506 C 907.691 -1.53141 1.30958 0
M  V30 9507 O 906.747 -2.28291 1.07887 0
M  V30 9508 C 908.06 0.329143 2.98893 0
M  V30 9509 C 909.608 0.2772 3.1177 0
M  V30 9510 C 910.083 0.642185 4.53475 0
M  V30 9511 N 911.574 0.594396 4.5937 0
M  V30 9512 C 912.309 0.849385 5.67074 0
M  V30 9513 N 911.805 1.1699 6.82851 0
M  V30 9514 N 913.598 0.777016 5.56704 0
M  V30 9515 H 905.749 1.25079 1.71665 0
M  V30 9516 H 908.012 0.506516 0.80134 0
M  V30 9517 H 907.718 1.35233 3.24661 0
M  V30 9518 H 907.592 -0.321442 3.75828 0
M  V30 9519 H 909.979 -0.736725 2.85756 0
M  V30 9520 H 910.06 0.962289 2.3701 0
M  V30 9521 H 909.704 1.65388 4.80218 0
M  V30 9522 H 909.634 -0.0648831 5.2656 0
M  V30 9523 H 912.125 0.357256 3.76208 0
M  V30 9524 H 912.438 1.35067 7.60905 0
M  V30 9525 H 910.783 1.20785 6.84424 0
M  V30 9526 H 913.974 0.526333 4.65132 0
M  V30 9527 H 914.147 0.979113 6.4056 0
M  V30 9528 N 907.553 -1.57587 0.0200696 0
M  V30 9529 C 908.516 -2.08595 -0.949767 0
M  V30 9530 C 909.516 -0.999215 -1.25985 0
M  V30 9531 O 910.706 -1.26115 -1.2017 0
M  V30 9532 C 907.838 -2.54424 -2.26895 0
M  V30 9533 H 909.031 -2.95563 -0.508161 0
M  V30 9534 H 906.584 -1.54631 -0.227798 0
M  V30 9535 H 907.319 -1.70758 -2.75703 0
M  V30 9536 H 907.104 -3.3381 -2.05702 0
M  V30 9537 H 908.594 -2.94144 -2.96427 0
M  V30 9538 N 909.032 0.252966 -1.55557 0
M  V30 9539 C 910.448 0.60118 -1.47844 0
M  V30 9540 C 910.648 1.88612 -0.709055 0
M  V30 9541 O 909.704 2.51395 -0.235964 0
M  V30 9542 C 911.017 0.709539 -2.92209 0
M  V30 9543 C 912.565 0.802269 -3.02544 0
M  V30 9544 C 913.04 0.94224 -4.48203 0
M  V30 9545 N 914.531 1.00726 -4.52116 0
M  V30 9546 C 915.266 1.13472 -5.6206 0
M  V30 9547 N 914.762 1.22811 -6.81828 0
M  V30 9548 N 916.555 1.1674 -5.49844 0
M  V30 9549 H 908.706 -0.590635 -2.04023 0
M  V30 9550 H 910.969 -0.202986 -0.926013 0
M  V30 9551 H 910.675 -0.164505 -3.51315 0
M  V30 9552 H 910.549 1.58343 -3.42356 0
M  V30 9553 H 912.936 1.66677 -2.43522 0
M  V30 9554 H 913.017 -0.0966469 -2.55617 0
M  V30 9555 H 912.661 0.0823209 -5.07833 0
M  V30 9556 H 912.591 1.85611 -4.92805 0
M  V30 9557 H 915.082 0.946684 -3.6585 0
M  V30 9558 H 915.395 1.32426 -7.61369 0
M  V30 9559 H 913.74 1.19779 -6.84601 0
M  V30 9560 H 916.931 1.09089 -4.55211 0
M  V30 9561 H 917.104 1.26329 -6.35567 0
M  V30 9562 N 910.51 1.48831 0.518367 0
M  V30 9563 C 911.756 1.57672 1.27543 0
M  V30 9564 C 912.089 0.254915 1.9252 0
M  V30 9565 O 911.364 -0.740107 1.79868 0
M  V30 9566 C 911.647 2.72345 2.35585 0
M  V30 9567 C 911.5 4.14267 1.75224 0
M  V30 9568 C 912.819 2.82726 3.37274 0
M  V30 9569 H 909.938 0.573926 0.462361 0
M  V30 9570 H 912.58 1.8105 0.576267 0
M  V30 9571 H 910.73 2.52543 2.95219 0
M  V30 9572 H 912.402 4.45539 1.19551 0
M  V30 9573 H 910.645 4.20724 1.05706 0
M  V30 9574 H 911.316 4.90345 2.53507 0
M  V30 9575 H 913.792 3.00699 2.8761 0
M  V30 9576 H 912.668 3.6467 4.10252 0
M  V30 9577 H 912.929 1.9136 3.9854 0
M  V30 9578 N 911.988 -0.768124 1.37614 0
M  V30 9579 C 912.936 -1.9029 1.33763 0
M  V30 9580 C 913.93 -1.67888 0.225814 0
M  V30 9581 O 915.136 -1.75634 0.394043 0
M  V30 9582 H 911.511 -0.625828 0.416945 0
M  V30 9583 H 913.482 -1.90654 2.29551 0
M  V30 9584 C 912.231 -3.27598 1.16511 0
M  V30 9585 H 911.554 -3.45414 2.01318 0
M  V30 9586 H 912.994 -4.07288 1.17867 0
M  V30 9587 C 911.453 -3.36653 -0.129001 0
M  V30 9588 O 911.983 -3.86023 -1.11128 0
M  V30 9589 N 910.189 -2.90036 -0.180926 0
M  V30 9590 H 909.736 -2.5005 0.619076 0
M  V30 9591 H 909.694 -2.96475 -1.04641 0
M  V30 9592 N 913.466 -1.22244 -0.994698 0
M  V30 9593 C 914.694 -1.07218 -1.76952 0
M  V30 9594 C 915.109 0.377388 -1.8499 0
M  V30 9595 O 914.466 1.26157 -1.31874 0
M  V30 9596 C 914.517 -1.67496 -3.20355 0
M  V30 9597 O 914.238 -3.06782 -3.12756 0
M  V30 9598 C 915.739 -1.57721 -4.14294 0
M  V30 9599 H 912.959 -0.375966 -0.555779 0
M  V30 9600 H 915.503 -1.61799 -1.25065 0
M  V30 9601 H 913.658 -1.16982 -3.69315 0
M  V30 9602 H 914.072 -3.35784 -4.02926 0
M  V30 9603 H 915.546 -2.04623 -5.12673 0
M  V30 9604 H 916.023 -0.533434 -4.35949 0
M  V30 9605 H 916.629 -2.07531 -3.71229 0
M  V30 9606 N 914.944 1.19125 -1.03184 0
M  V30 9607 C 915.891 2.2245 -0.6152 0
M  V30 9608 C 916.861 1.61869 0.372502 0
M  V30 9609 O 918.046 1.88901 0.268491 0
M  V30 9610 C 915.186 3.45091 0.0248027 0
M  V30 9611 C 914.299 4.20044 -1.0093 0
M  V30 9612 C 913.434 5.30119 -0.338744 0
M  V30 9613 C 912.473 5.96833 -1.35855 0
M  V30 9614 N 911.61 6.98464 -0.713594 0
M  V30 9615 H 916.45 2.57445 -1.50086 0
M  V30 9616 H 913.987 1.26485 -0.751005 0
M  V30 9617 H 915.945 4.15149 0.413131 0
M  V30 9618 H 914.575 3.10742 0.874028 0
M  V30 9619 H 913.627 3.48901 -1.51566 0
M  V30 9620 H 914.939 4.65796 -1.78425 0
M  V30 9621 H 914.093 6.0661 0.104269 0
M  V30 9622 H 912.832 4.85446 0.468382 0
M  V30 9623 H 911.837 5.1909 -1.81179 0
M  V30 9624 H 913.062 6.4359 -2.16722 0
M  V30 9625 H 911.008 6.55959 0.0733863 0
M  V30 9626 H 910.925 7.42422 -1.42638 0
M  V30 9627 H 912.193 7.78943 -0.294681 0
M  V30 9628 N 916.422 0.810101 1.35185 0
M  V30 9629 C 917.385 0.22852 2.28058 0
M  V30 9630 C 918.385 -0.586168 1.49735 0
M  V30 9631 O 919.575 -0.40414 1.69447 0
M  V30 9632 C 916.707 -0.681041 3.34028 0
M  V30 9633 H 917.9 1.04768 2.81005 0
M  V30 9634 H 915.453 0.58101 1.451 0
M  V30 9635 H 916.188 -1.52375 2.86273 0
M  V30 9636 H 915.973 -0.0985276 3.91976 0
M  V30 9637 H 917.463 -1.08217 4.03335 0
M  V30 9638 N 917.9 -1.47166 0.563914 0
M  V30 9639 C 918.832 -2.28165 -0.217583 0
M  V30 9640 C 919.845 -1.37405 -0.873134 0
M  V30 9641 O 921.034 -1.6217 -0.745857 0
M  V30 9642 C 918.134 -3.11873 -1.32621 0
M  V30 9643 C 917.307 -4.30637 -0.766177 0
M  V30 9644 C 916.366 -4.95889 -1.76014 0
M  V30 9645 O 915.392 -5.54071 -1.3036 0
M  V30 9646 N 916.594 -4.91191 -3.09373 0
M  V30 9647 H 919.359 -2.95876 0.477256 0
M  V30 9648 H 916.92 -1.5687 0.40043 0
M  V30 9649 H 918.912 -3.52392 -1.99003 0
M  V30 9650 H 917.482 -2.46361 -1.92419 0
M  V30 9651 H 916.702 -3.94129 0.0745998 0
M  V30 9652 H 917.99 -5.07442 -0.371472 0
M  V30 9653 H 917.388 -4.45133 -3.49104 0
M  V30 9654 H 915.945 -5.35708 -3.71295 0
M  V30 9655 N 919.378 -0.300708 -1.54705 0
M  V30 9656 C 920.626 0.308044 -1.99739 0
M  V30 9657 C 920.947 1.54433 -1.19061 0
M  V30 9658 O 920.217 1.93794 -0.286507 0
M  V30 9659 H 918.797 0.116811 -0.73781 0
M  V30 9660 H 921.459 -0.41197 -1.90496 0
M  V30 9661 H 920.555 0.580287 -3.06658 0
M  V30 9662 N 920.856 1.57574 -0.0284266 0
M  V30 9663 C 921.766 2.13637 0.96936 0
M  V30 9664 C 922.782 1.08845 1.35752 0
M  V30 9665 O 923.958 1.40899 1.43908 0
M  V30 9666 C 921.023 2.65179 2.2334 0
M  V30 9667 C 920.084 3.84683 1.90572 0
M  V30 9668 C 919.317 4.33758 3.1095 0
M  V30 9669 O 919.54 3.82009 4.23586 0
M  V30 9670 O 918.474 5.2561 2.93288 0
M  V30 9671 H 922.3 2.99169 0.52267 0
M  V30 9672 H 919.885 1.48159 0.192135 0
M  V30 9673 H 921.767 2.98402 2.97547 0
M  V30 9674 H 920.442 1.82731 2.67191 0
M  V30 9675 H 919.349 3.56386 1.13753 0
M  V30 9676 H 920.682 4.68292 1.51538 0
M  V30 9677 N 922.334 -0.244713 1.55689 0
M  V30 9678 C 923.58 -0.969623 1.78801 0
M  V30 9679 C 923.935 -1.8288 0.597716 0
M  V30 9680 O 923.228 -1.87184 -0.408978 0
M  V30 9681 C 923.422 -1.8617 3.05083 0
M  V30 9682 C 923.251 -1.09036 4.36281 0
M  V30 9683 C 922.021 -0.794585 4.99013 0
M  V30 9684 C 924.219 -0.466883 5.12176 0
M  V30 9685 N 922.201 0.000579944 6.139 0
M  V30 9686 C 923.572 0.192755 6.197 0
M  V30 9687 C 925.627 -0.377571 4.96466 0
M  V30 9688 C 924.33 0.933132 7.13222 0
M  V30 9689 C 926.356 0.349281 5.90368 0
M  V30 9690 C 925.718 0.997549 6.97301 0
M  V30 9691 H 921.817 -0.335845 0.70621 0
M  V30 9692 H 924.401 -0.242559 1.93183 0
M  V30 9693 H 922.572 -2.56077 2.92026 0
M  V30 9694 H 924.304 -2.52234 3.16481 0
M  V30 9695 H 921.059 -1.10691 4.60483 0
M  V30 9696 H 921.483 0.38632 6.75897 0
M  V30 9697 H 926.125 -0.86443 4.13869 0
M  V30 9698 H 923.843 1.43159 7.95318 0
M  V30 9699 H 927.429 0.419082 5.80289 0
M  V30 9700 H 926.309 1.551 7.68709 0
M  V30 9701 N 923.813 -1.49104 -0.510467 0
M  V30 9702 C 925.038 -1.62068 -1.29417 0
M  V30 9703 C 925.463 -0.288432 -1.85875 0
M  V30 9704 O 924.821 0.742667 -1.65391 0
M  V30 9705 C 924.869 -2.68506 -2.40701 0
M  V30 9706 O 923.973 -2.27021 -3.4429 0
M  V30 9707 H 923.314 -0.542778 -0.382476 0
M  V30 9708 H 925.844 -1.95228 -0.612154 0
M  V30 9709 H 925.854 -2.90383 -2.86604 0
M  V30 9710 H 924.529 -3.65216 -1.98973 0
M  V30 9711 H 923.106 -2.15436 -3.04371 0
M  V30 9712 N 925.291 0.760815 -1.38019 0
M  V30 9713 C 926.201 1.90526 -1.36884 0
M  V30 9714 C 927.217 1.71941 -0.266908 0
M  V30 9715 O 928.393 1.94988 -0.50413 0
M  V30 9716 C 925.458 3.25799 -1.18558 0
M  V30 9717 C 924.519 3.56961 -2.3849 0
M  V30 9718 C 923.752 4.8578 -2.21029 0
M  V30 9719 O 923.975 5.57629 -1.20023 0
M  V30 9720 O 922.909 5.16254 -3.0946 0
M  V30 9721 H 926.735 1.94437 -2.33298 0
M  V30 9722 H 924.32 0.905091 -1.18863 0
M  V30 9723 H 926.202 4.0669 -1.1037 0
M  V30 9724 H 924.877 3.22716 -0.252241 0
M  V30 9725 H 923.784 2.7626 -2.52252 0
M  V30 9726 H 925.117 3.64798 -3.30429 0
M  V30 9727 N 926.769 1.22769 0.988202 0
M  V30 9728 C 928.046 0.9635 1.70223 0
M  V30 9729 C 928.426 -0.520102 2.04593 0
M  V30 9730 O 927.774 -1.48934 1.73295 0
M  V30 9731 C 927.984 1.86583 2.94937 0
M  V30 9732 C 929.332 2.12469 3.67616 0
M  V30 9733 O 930.356 1.84069 3.04954 0
M  V30 9734 O 929.215 2.60595 4.80367 0
M  V30 9735 H 926.309 0.362737 0.743203 0
M  V30 9736 H 928.855 1.33776 1.04412 0
M  V30 9737 H 927.627 2.86913 2.66077 0
M  V30 9738 H 927.25 1.49344 3.68486 0
M  V30 9739 N 928.247 -1.18576 1.03814 0
M  V30 9740 C 929.177 -2.24334 0.647795 0
M  V30 9741 C 930.158 -1.66508 -0.34774 0
M  V30 9742 O 931.343 -1.92852 -0.228401 0
M  V30 9743 C 928.473 -3.47299 0.00734922 0
M  V30 9744 C 927.427 -4.17859 0.926152 0
M  V30 9745 C 926.753 -5.34489 0.150317 0
M  V30 9746 C 928.053 -4.71632 2.24411 0
M  V30 9747 H 929.747 -2.57241 1.53191 0
M  V30 9748 H 927.293 -1.23649 0.738028 0
M  V30 9749 H 929.246 -4.20486 -0.277434 0
M  V30 9750 H 927.97 -3.13619 -0.911626 0
M  V30 9751 H 926.629 -3.46567 1.19528 0
M  V30 9752 H 926.277 -4.97056 -0.770985 0
M  V30 9753 H 925.977 -5.82633 0.762407 0
M  V30 9754 H 927.501 -6.10467 -0.127508 0
M  V30 9755 H 928.915 -5.36526 2.02021 0
M  V30 9756 H 927.312 -5.303 2.80894 0
M  V30 9757 H 928.382 -3.89192 2.89236 0
M  V30 9758 N 929.725 -0.817259 -1.34754 0
M  V30 9759 C 930.953 -0.415451 -2.02686 0
M  V30 9760 C 931.368 0.97688 -1.61563 0
M  V30 9761 O 930.725 1.63125 -0.818321 0
M  V30 9762 C 930.776 -0.501486 -3.58005 0
M  V30 9763 O 930.497 -1.83893 -3.97637 0
M  V30 9764 C 931.998 -0.0938504 -4.43201 0
M  V30 9765 H 929.218 -0.16742 -0.649778 0
M  V30 9766 H 931.762 -1.10384 -1.7215 0
M  V30 9767 H 929.917 0.138766 -3.87151 0
M  V30 9768 H 930.331 -1.8092 -4.92309 0
M  V30 9769 H 931.805 -0.205145 -5.51619 0
M  V30 9770 H 932.282 0.962011 -4.28535 0
M  V30 9771 H 932.888 -0.707677 -4.19371 0
M  V30 9772 N 931.203 1.46865 -0.571711 0
M  V30 9773 C 932.166 2.28658 0.157499 0
M  V30 9774 C 933.166 1.37773 0.829172 0
M  V30 9775 O 934.356 1.6026 0.682811 0
M  V30 9776 C 931.488 3.17859 1.23202 0
M  V30 9777 H 932.681 2.94603 -0.561171 0
M  V30 9778 H 930.234 1.52793 -0.329229 0
M  V30 9779 H 930.969 2.56637 1.98262 0
M  V30 9780 H 930.754 3.84762 0.755031 0
M  V30 9781 H 932.244 3.7945 1.74378 0
M  V30 9782 N 932.681 0.308908 1.54543 0
M  V30 9783 C 933.927 -0.291311 2.01303 0
M  V30 9784 C 934.282 -1.50917 1.19339 0
M  V30 9785 O 933.575 -1.89776 0.263724 0
M  V30 9786 C 933.769 -0.691522 3.50646 0
M  V30 9787 C 933.598 0.486007 4.47066 0
M  V30 9788 C 932.368 0.980515 4.95695 0
M  V30 9789 C 934.566 1.33352 4.96711 0
M  V30 9790 N 932.548 2.12398 5.75986 0
M  V30 9791 C 933.919 2.32436 5.74781 0
M  V30 9792 C 935.974 1.36298 4.78881 0
M  V30 9793 C 934.677 3.34252 6.36921 0
M  V30 9794 C 936.703 2.36976 5.41845 0
M  V30 9795 C 936.065 3.34789 6.19755 0
M  V30 9796 H 932.164 -0.0708418 0.778785 0
M  V30 9797 H 934.748 0.440621 1.89649 0
M  V30 9798 H 932.919 -1.39261 3.62575 0
M  V30 9799 H 934.651 -1.27196 3.84192 0
M  V30 9800 H 931.406 0.55419 4.70346 0
M  V30 9801 H 931.83 2.70036 6.20814 0
M  V30 9802 H 936.472 0.620472 4.18222 0
M  V30 9803 H 934.19 4.09417 6.96709 0
M  V30 9804 H 937.776 2.40039 5.29974 0
M  V30 9805 H 936.656 4.11418 6.67611 0
M  V30 9806 N 934.159 -1.57557 0.0367827 0
M  V30 9807 C 935.387 -1.96419 -0.650168 0
M  V30 9808 C 935.802 -0.913656 -1.6522 0
M  V30 9809 O 935.159 0.103718 -1.82205 0
M  V30 9810 C 935.21 -3.35355 -1.3498 0
M  V30 9811 O 934.931 -4.36379 -0.387905 0
M  V30 9812 C 936.432 -3.88892 -2.12786 0
M  V30 9813 H 933.652 -0.646751 -0.178756 0
M  V30 9814 H 936.196 -2.04261 0.0988197 0
M  V30 9815 H 934.351 -3.28708 -2.05012 0
M  V30 9816 H 934.765 -5.16969 -0.885596 0
M  V30 9817 H 936.239 -4.88428 -2.5718 0
M  V30 9818 H 936.716 -3.23547 -2.97008 0
M  V30 9819 H 937.322 -3.98831 -1.47694 0
M  V30 9820 N 935.637 0.236453 -1.55816 0
M  V30 9821 C 936.567 1.29639 -1.94206 0
M  V30 9822 C 937.548 1.49667 -0.808319 0
M  V30 9823 O 938.733 1.621 -1.06945 0
M  V30 9824 C 935.863 2.64914 -2.24584 0
M  V30 9825 C 934.817 2.59565 -3.40308 0
M  V30 9826 C 934.143 3.98732 -3.56254 0
M  V30 9827 C 935.443 2.15642 -4.75706 0
M  V30 9828 H 937.137 0.977552 -2.82992 0
M  V30 9829 H 934.683 0.468804 -1.36155 0
M  V30 9830 H 936.636 3.39209 -2.50031 0
M  V30 9831 H 935.36 2.98455 -1.32636 0
M  V30 9832 H 934.019 1.87728 -3.14887 0
M  V30 9833 H 933.667 4.29556 -2.61707 0
M  V30 9834 H 933.367 3.96039 -4.34082 0
M  V30 9835 H 934.891 4.74711 -3.84033 0
M  V30 9836 H 936.305 2.79673 -5.00456 0
M  V30 9837 H 934.702 2.24039 -5.56711 0
M  V30 9838 H 935.772 1.10831 -4.72064 0
M  V30 9839 N 937.115 1.49373 0.502552 0
M  V30 9840 C 938.34 1.62752 1.28556 0
M  V30 9841 C 938.765 0.298285 1.8572 0
M  V30 9842 O 938.123 -0.733885 1.65782 0
M  V30 9843 C 938.171 2.69778 2.39274 0
M  V30 9844 O 937.275 2.28843 3.43081 0
M  V30 9845 H 936.616 0.544799 0.379592 0
M  V30 9846 H 939.146 1.9555 0.601792 0
M  V30 9847 H 939.156 2.91899 2.8506 0
M  V30 9848 H 937.831 3.66266 1.97033 0
M  V30 9849 H 936.408 2.17047 3.03224 0
M  V30 9850 N 938.594 -0.753485 1.38421 0
M  V30 9851 C 939.871 -1.50318 1.25155 0
M  V30 9852 C 940.251 -2.10588 -0.147003 0
M  V30 9853 O 939.599 -1.97071 -1.15651 0
M  V30 9854 C 939.809 -2.56946 2.36177 0
M  V30 9855 C 941.157 -3.23846 2.74607 0
M  V30 9856 O 942.181 -2.67251 2.3549 0
M  V30 9857 O 941.04 -4.2621 3.42064 0
M  V30 9858 H 938.134 -0.666624 0.48943 0
M  V30 9859 H 940.68 -0.788887 1.50249 0
M  V30 9860 H 939.452 -2.1066 3.29754 0
M  V30 9861 H 939.075 -3.35956 2.12648 0
M  V30 9862 N 940.072 -1.23292 -0.981677 0
M  V30 9863 C 941.321 -1.05832 -1.71705 0
M  V30 9864 C 941.634 0.40514 -1.91358 0
M  V30 9865 O 942.84 0.699645 -2.6233 0
M  V30 9866 C 941.296 -1.84532 -3.08992 0
M  V30 9867 C 940.904 -3.35199 -2.9723 0
M  V30 9868 C 942.648 -1.75557 -3.86497 0
M  V30 9869 C 940.555 -4.06296 -4.29741 0
M  V30 9870 H 939.485 -0.39241 -0.64384 0
M  V30 9871 H 942.136 -1.47247 -1.09502 0
M  V30 9872 H 940.518 -1.35923 -3.71942 0
M  V30 9873 H 941.692 -3.91286 -2.43377 0
M  V30 9874 H 940.007 -3.44973 -2.332 0
M  V30 9875 H 942.604 -2.25989 -4.84596 0
M  V30 9876 H 942.947 -0.718101 -4.1006 0
M  V30 9877 H 943.48 -2.21771 -3.30246 0
M  V30 9878 H 940.219 -5.10344 -4.11375 0
M  V30 9879 H 939.739 -3.54997 -4.83464 0
M  V30 9880 H 941.418 -4.12519 -4.98434 0
M  V30 9881 N 941.55 1.18024 -1.04442 0
M  V30 9882 C 942.48 2.23988 -0.659683 0
M  V30 9883 C 943.461 1.6669 0.338904 0
M  V30 9884 O 944.646 1.92971 0.21817 0
M  V30 9885 C 941.776 3.4729 -0.0257672 0
M  V30 9886 C 940.73 4.17362 -0.948299 0
M  V30 9887 C 940.056 5.34401 -0.17866 0
M  V30 9888 C 941.356 4.70435 -2.26909 0
M  V30 9889 H 943.05 2.56425 -1.54553 0
M  V30 9890 H 940.596 1.23256 -0.744575 0
M  V30 9891 H 942.549 4.20627 0.255131 0
M  V30 9892 H 941.273 3.14098 0.894981 0
M  V30 9893 H 939.932 3.45928 -1.21364 0
M  V30 9894 H 939.58 4.97458 0.744614 0
M  V30 9895 H 939.28 5.8222 -0.793294 0
M  V30 9896 H 940.804 6.10526 0.0951315 0
M  V30 9897 H 942.218 5.35447 -2.04864 0
M  V30 9898 H 940.615 5.28803 -2.83703 0
M  V30 9899 H 941.685 3.87653 -2.91296 0
M  V30 9900 N 943.028 0.824394 1.34319 0
M  V30 9901 C 944.439 0.471802 1.8064 0
M  V30 9902 C 944.79 -1.00793 1.6833 0
M  V30 9903 O 943.915 -1.78447 1.22416 0
M  V30 9904 C 944.51 0.849609 3.27974 0
M  V30 9905 C 943.069 0.549365 3.72369 0
M  V30 9906 C 942.216 1.06573 2.56003 0
M  V30 9907 H 945.167 1.01443 1.22045 0
M  V30 9908 H 945.188 0.153968 3.80188 0
M  V30 9909 H 944.7 1.92663 3.36902 0
M  V30 9910 H 942.801 -0.518182 3.68979 0
M  V30 9911 H 942.914 1.09446 4.66432 0
M  V30 9912 H 941.278 0.487214 2.49997 0
M  V30 9913 H 942.061 2.14923 2.677 0
M  V30 9914 N 944.506 -1.46559 0.579492 0
M  V30 9915 C 945.917 -1.8608 0.152052 0
M  V30 9916 C 946.268 -1.48346 -1.28405 0
M  V30 9917 O 945.393 -0.89685 -1.9694 0
M  V30 9918 C 945.988 -3.37729 0.269171 0
M  V30 9919 C 944.547 -3.76258 -0.103376 0
M  V30 9920 C 943.694 -2.70584 0.60659 0
M  V30 9921 H 946.645 -1.3776 0.787904 0
M  V30 9922 H 946.666 -3.77116 -0.506339 0
M  V30 9923 H 946.178 -3.65162 1.31448 0
M  V30 9924 H 944.279 -3.54443 -1.14895 0
M  V30 9925 H 944.392 -4.78335 0.270701 0
M  V30 9926 H 942.756 -2.54656 0.0471984 0
M  V30 9927 H 943.539 -3.00856 1.65349 0
M  V30 9928 N 945.984 -0.3171 -1.54377 0
M  V30 9929 C 946.916 0.58571 -2.2159 0
M  V30 9930 C 947.929 1.08495 -1.21378 0
M  V30 9931 O 949.118 0.999638 -1.47883 0
M  V30 9932 C 946.218 1.8157 -2.86156 0
M  V30 9933 C 945.391 1.45625 -4.12447 0
M  V30 9934 C 944.45 2.54308 -4.60667 0
M  V30 9935 O 943.476 2.18724 -5.25498 0
M  V30 9936 N 944.678 3.85129 -4.34345 0
M  V30 9937 H 947.443 0.0102247 -2.99698 0
M  V30 9938 H 945.004 -0.140011 -1.61293 0
M  V30 9939 H 946.996 2.53657 -3.15341 0
M  V30 9940 H 945.566 2.29919 -2.11793 0
M  V30 9941 H 944.786 0.567294 -3.90097 0
M  V30 9942 H 946.074 1.19169 -4.94648 0
M  V30 9943 H 945.472 4.16841 -3.8244 0
M  V30 9944 H 944.029 4.53466 -4.68201 0
M  V30 9945 N 947.462 1.57535 -0.0451378 0
M  V30 9946 C 948.873 1.80116 0.491426 0
M  V30 9947 C 949.224 0.956846 1.71286 0
M  V30 9948 O 948.349 0.17173 2.15718 0
M  V30 9949 C 948.944 3.26674 0.898315 0
M  V30 9950 C 947.503 3.50194 1.37989 0
M  V30 9951 C 946.65 2.75054 0.352202 0
M  V30 9952 H 949.601 1.56368 -0.271065 0
M  V30 9953 H 949.622 3.37263 1.76164 0
M  V30 9954 H 949.134 3.88099 0.009141 0
M  V30 9955 H 947.235 2.94041 2.28846 0
M  V30 9956 H 947.348 4.58909 1.37622 0
M  V30 9957 H 945.712 2.4101 0.823784 0
M  V30 9958 H 946.495 3.39203 -0.528782 0
M  V30 9959 N 948.94 -0.228186 1.55939 0
M  V30 9960 C 949.85 -1.30386 1.9503 0
M  V30 9961 C 950.866 -1.51645 0.853218 0
M  V30 9962 O 952.042 -1.64904 1.15623 0
M  V30 9963 C 949.107 -2.63489 2.25332 0
M  V30 9964 C 948.168 -2.5059 3.48573 0
M  V30 9965 C 947.401 -3.77345 3.7742 0
M  V30 9966 O 947.624 -4.80067 3.08045 0
M  V30 9967 O 946.558 -3.74855 4.70922 0
M  V30 9968 H 950.384 -1.0022 2.86687 0
M  V30 9969 H 947.969 -0.430503 1.43063 0
M  V30 9970 H 949.851 -3.4211 2.46046 0
M  V30 9971 H 948.526 -2.93349 1.3685 0
M  V30 9972 H 947.433 -1.70191 3.33145 0
M  V30 9973 H 948.766 -2.2567 4.37417 0
M  V30 9974 N 950.418 -1.49637 -0.494624 0
M  V30 9975 C 951.366 -1.6727 -1.61627 0
M  V30 9976 C 952.36 -0.538587 -1.6061 0
M  V30 9977 O 953.566 -0.718411 -1.65042 0
M  V30 9978 H 949.941 -0.527557 -0.535899 0
M  V30 9979 H 951.912 -2.61405 -1.43909 0
M  V30 9980 C 950.661 -1.7624 -2.99725 0
M  V30 9981 H 949.984 -2.62886 -3.01216 0
M  V30 9982 H 951.424 -1.92611 -3.77726 0
M  V30 9983 C 949.883 -0.508632 -3.33038 0
M  V30 9984 O 950.413 0.362828 -4.00058 0
M  V30 9985 N 948.619 -0.369667 -2.88239 0
M  V30 9986 H 948.166 -1.07984 -2.33875 0
M  V30 9987 H 948.124 0.468112 -3.10896 0
M  V30 9988 N 951.896 0.746133 -1.38819 0
M  V30 9989 C 953.145 1.50085 -1.34749 0
M  V30 9990 C 953.458 1.95516 0.0574786 0
M  V30 9991 O 954.664 2.70601 0.22073 0
M  V30 9992 C 953.12 2.71141 -2.36665 0
M  V30 9993 C 952.728 2.32706 -3.82821 0
M  V30 9994 C 954.472 3.49005 -2.41652 0
M  V30 9995 C 952.379 3.50418 -4.76405 0
M  V30 9996 H 951.309 0.563563 -0.500912 0
M  V30 9997 H 953.96 0.814951 -1.6441 0
M  V30 9998 H 952.342 3.4175 -2.00058 0
M  V30 9999 H 953.516 1.69715 -4.28408 0
M  V30 10000 H 951.831 1.67959 -3.81023 0
M  V30 10001 H 954.428 4.36541 -3.08766 0
M  V30 10002 H 954.771 3.90687 -1.43769 0
M  V30 10003 H 955.304 2.85416 -2.77097 0
M  V30 10004 H 952.043 3.13795 -5.75511 0
M  V30 10005 H 951.563 4.12426 -4.35505 0
M  V30 10006 H 953.242 4.16901 -4.94775 0
M  V30 10007 N 953.375 1.23811 0.975125 0
M  V30 10008 C 954.322 1.02394 2.06843 0
M  V30 10009 C 955.292 -0.060337 1.6599 0
M  V30 10010 O 956.477 0.0928187 1.90574 0
M  V30 10011 C 953.617 0.626882 3.39359 0
M  V30 10012 C 952.73 1.78385 3.9345 0
M  V30 10013 C 951.865 1.33307 5.14201 0
M  V30 10014 C 950.904 2.46045 5.60471 0
M  V30 10015 N 950.041 2.01888 6.72448 0
M  V30 10016 H 954.881 1.95973 2.24496 0
M  V30 10017 H 952.418 0.976206 1.10039 0
M  V30 10018 H 954.376 0.377742 4.15486 0
M  V30 10019 H 953.006 -0.271907 3.21653 0
M  V30 10020 H 952.058 2.14685 3.14029 0
M  V30 10021 H 953.37 2.63122 4.23755 0
M  V30 10022 H 952.524 1.04237 5.97678 0
M  V30 10023 H 951.263 0.456143 4.85562 0
M  V30 10024 H 950.268 2.75884 4.75571 0
M  V30 10025 H 951.493 3.34283 5.91127 0
M  V30 10026 H 949.439 1.16583 6.45558 0
M  V30 10027 H 949.356 2.80182 7.02164 0
M  V30 10028 H 950.624 1.75937 7.59386 0
M  V30 10029 N 954.853 -1.17469 1.05066 0
M  V30 10030 C 956.102 -1.87032 0.755114 0
M  V30 10031 C 956.415 -1.81844 -0.720572 0
M  V30 10032 O 957.621 -2.46866 -1.13002 0
M  V30 10033 C 956.077 -3.35581 1.30052 0
M  V30 10034 C 955.685 -3.49274 2.80556 0
M  V30 10035 C 957.429 -4.1048 1.08196 0
M  V30 10036 C 955.336 -4.91838 3.28404 0
M  V30 10037 H 954.266 -0.70057 0.278779 0
M  V30 10038 H 956.917 -1.32663 1.26779 0
M  V30 10039 H 955.299 -3.89479 0.715667 0
M  V30 10040 H 956.473 -3.05598 3.44886 0
M  V30 10041 H 954.788 -2.87793 3.00939 0
M  V30 10042 H 957.385 -5.15652 1.41447 0
M  V30 10043 H 957.728 -4.16295 0.0196603 0
M  V30 10044 H 958.261 -3.62784 1.63195 0
M  V30 10045 H 955 -4.91196 4.34058 0
M  V30 10046 H 954.52 -5.36189 2.68815 0
M  V30 10047 H 956.199 -5.60602 3.23009 0
M  V30 10048 N 956.331 -0.831506 -1.3388 0
M  V30 10049 C 957.556 -0.435954 -2.02766 0
M  V30 10050 C 957.981 0.952889 -1.62178 0
M  V30 10051 O 957.339 1.62166 -0.810681 0
M  V30 10052 C 957.387 -0.555907 -3.56289 0
M  V30 10053 O 956.491 0.420826 -4.10247 0
M  V30 10054 H 955.832 -0.178248 -0.639628 0
M  V30 10055 H 958.362 -1.1243 -1.70941 0
M  V30 10056 H 958.372 -0.434831 -4.05676 0
M  V30 10057 H 957.047 -1.56881 -3.85177 0
M  V30 10058 H 955.624 0.257919 -3.72007 0
M  V30 10059 N 957.809 1.4625 -0.587256 0
M  V30 10060 C 958.757 2.32076 0.156108 0
M  V30 10061 C 959.751 1.44756 0.879887 0
M  V30 10062 O 960.957 1.61356 0.797759 0
M  V30 10063 H 957.332 0.748808 0.0692098 0
M  V30 10064 H 959.303 2.9258 -0.586497 0
M  V30 10065 C 958.052 3.28008 1.15352 0
M  V30 10066 H 957.375 3.9518 0.60601 0
M  V30 10067 H 958.815 3.90832 1.64396 0
M  V30 10068 C 957.274 2.53691 2.21681 0
M  V30 10069 O 957.804 2.30329 3.29107 0
M  V30 10070 N 956.01 2.14174 1.96412 0
M  V30 10071 H 955.557 2.33374 1.09061 0
M  V30 10072 H 955.515 1.6477 2.67765 0
M  V30 10073 N 959.287 0.325282 1.54207 0
M  V30 10074 C 960.536 -0.27768 1.99779 0
M  V30 10075 C 960.849 -1.5311 1.21723 0
M  V30 10076 O 962.055 -2.21017 1.57682 0
M  V30 10077 C 960.511 -0.545329 3.55745 0
M  V30 10078 C 960.119 0.691143 4.42637 0
M  V30 10079 C 961.863 -1.10815 4.09781 0
M  V30 10080 C 959.77 0.395302 5.90077 0
M  V30 10081 H 958.7 -0.107536 0.746292 0
M  V30 10082 H 961.351 0.437773 1.78202 0
M  V30 10083 H 959.733 -1.32101 3.73317 0
M  V30 10084 H 960.907 1.46653 4.3684 0
M  V30 10085 H 959.222 1.1743 3.99499 0
M  V30 10086 H 961.819 -1.34414 5.1753 0
M  V30 10087 H 962.162 -2.05806 3.6187 0
M  V30 10088 H 962.695 -0.393608 3.95848 0
M  V30 10089 H 959.434 1.31443 6.42186 0
M  V30 10090 H 958.954 -0.34235 5.98822 0
M  V30 10091 H 960.633 0.00576877 6.47 0
M  V30 10092 N 960.765 -1.57509 0.0534917 0
M  V30 10093 C 961.993 -1.97098 -0.629298 0
M  V30 10094 C 962.408 -0.931128 -1.64242 0
M  V30 10095 O 961.765 0.0843866 -1.82305 0
M  V30 10096 C 961.816 -3.36767 -1.31415 0
M  V30 10097 O 961.537 -4.36766 -0.341599 0
M  V30 10098 C 963.038 -3.91127 -2.08649 0
M  V30 10099 H 960.258 -0.648611 -0.171886 0
M  V30 10100 H 962.802 -2.04145 0.120479 0
M  V30 10101 H 960.957 -3.30863 -2.01515 0
M  V30 10102 H 961.371 -5.1788 -0.830715 0
M  V30 10103 H 962.845 -4.91129 -2.51985 0
M  V30 10104 H 963.322 -3.26679 -2.9356 0
M  V30 10105 H 963.928 -4.00376 -1.43456 0
M  V30 10106 N 962.243 0.219913 -1.56058 0
M  V30 10107 C 963.193 1.27606 -1.88946 0
M  V30 10108 C 964.177 1.42209 -0.752691 0
M  V30 10109 O 965.369 1.44996 -1.01514 0
M  V30 10110 C 962.498 2.62614 -2.21108 0
M  V30 10111 C 961.584 2.51906 -3.4118 0
M  V30 10112 N 961.975 2.10851 -4.59756 0
M  V30 10113 C 960.273 2.82861 -3.44827 0
M  V30 10114 C 960.974 2.11434 -5.41914 0
M  V30 10115 N 959.95 2.51985 -4.81669 0
M  V30 10116 H 963.752 0.94957 -2.78137 0
M  V30 10117 H 961.266 0.428468 -1.56646 0
M  V30 10118 H 963.263 3.38869 -2.42844 0
M  V30 10119 H 961.923 2.96108 -1.3323 0
M  V30 10120 H 962.934 1.81956 -4.84884 0
M  V30 10121 H 959.611 3.20716 -2.67297 0
M  V30 10122 H 961.001 1.81803 -6.46836 0
M  V30 10123 N 963.721 1.49897 0.486681 0
M  V30 10124 C 964.946 1.64106 1.26823 0
M  V30 10125 C 965.371 0.317967 1.85393 0
M  V30 10126 O 964.729 -0.71626 1.66551 0
M  V30 10127 C 964.777 2.72301 2.36399 0
M  V30 10128 O 963.881 2.32469 3.40634 0
M  V30 10129 H 963.222 0.548794 0.373793 0
M  V30 10130 H 965.752 1.96177 0.581017 0
M  V30 10131 H 965.762 2.94906 2.81948 0
M  V30 10132 H 964.437 3.68335 1.93137 0
M  V30 10133 H 963.014 2.20251 3.00905 0
M  V30 10134 N 965.199 -0.738761 1.39212 0
M  V30 10135 C 966.424 -1.5331 1.39681 0
M  V30 10136 C 966.849 -1.88098 -0.00768715 0
M  V30 10137 O 966.207 -1.51642 -0.993699 0
M  V30 10138 C 966.255 -2.79958 2.27279 0
M  V30 10139 O 965.359 -3.75727 1.70008 0
M  V30 10140 H 964.7 -0.463131 0.475821 0
M  V30 10141 H 967.23 -0.911768 1.83161 0
M  V30 10142 H 967.24 -3.28732 2.41659 0
M  V30 10143 H 965.915 -2.5397 3.29351 0
M  V30 10144 H 964.492 -3.34483 1.64851 0
M  V30 10145 N 966.677 -1.24326 -0.968545 0
M  V30 10146 C 967.64 -1.03591 -2.04454 0
M  V30 10147 C 968.64 0.0064809 -1.60799 0
M  V30 10148 O 969.83 -0.234404 -1.72616 0
M  V30 10149 C 966.962 -0.56992 -3.36102 0
M  V30 10150 H 968.155 -1.99092 -2.24282 0
M  V30 10151 H 965.708 -1.06537 -1.14366 0
M  V30 10152 H 966.443 0.388325 -3.21967 0
M  V30 10153 H 966.228 -1.32227 -3.69132 0
M  V30 10154 H 967.718 -0.445854 -4.15213 0
M  V30 10155 N 968.156 1.1691 -1.05688 0
M  V30 10156 C 969.402 1.8757 -0.771071 0
M  V30 10157 C 969.735 1.8113 0.700399 0
M  V30 10158 O 969.01 1.22273 1.5126 0
M  V30 10159 C 969.293 3.37392 -1.25851 0
M  V30 10160 C 969.146 3.52556 -2.79329 0
M  V30 10161 C 970.465 4.31585 -0.861512 0
M  V30 10162 H 967.584 0.681089 -0.281579 0
M  V30 10163 H 970.226 1.37453 -1.31174 0
M  V30 10164 H 968.376 3.80204 -0.798563 0
M  V30 10165 H 970.048 3.18725 -3.33485 0
M  V30 10166 H 968.291 2.94668 -3.1836 0
M  V30 10167 H 968.962 4.57748 -3.08498 0
M  V30 10168 H 971.438 3.96642 -1.25756 0
M  V30 10169 H 970.314 5.34939 -1.23012 0
M  V30 10170 H 970.575 4.4148 0.234089 0
M  V30 10171 N 969.634 0.838594 1.33437 0
M  V30 10172 C 970.883 0.430484 1.97053 0
M  V30 10173 C 971.196 -1.01556 1.6717 0
M  V30 10174 O 972.402 -1.52834 2.24397 0
M  V30 10175 C 970.858 0.718828 3.52648 0
M  V30 10176 C 970.466 2.17953 3.91408 0
M  V30 10177 C 972.21 0.377654 4.22817 0
M  V30 10178 C 970.117 2.41194 5.39981 0
M  V30 10179 H 969.047 0.157239 0.737422 0
M  V30 10180 H 971.698 1.02714 1.5206 0
M  V30 10181 H 970.08 0.0518042 3.95966 0
M  V30 10182 H 971.254 2.88701 3.59149 0
M  V30 10183 H 969.569 2.48366 3.34221 0
M  V30 10184 H 972.166 0.528926 5.32077 0
M  V30 10185 H 972.509 -0.679338 4.1072 0
M  V30 10186 H 973.042 0.999899 3.85028 0
M  V30 10187 H 969.781 3.45457 5.57081 0
M  V30 10188 H 969.301 1.75007 5.73701 0
M  V30 10189 H 970.98 2.24334 6.06863 0
M  V30 10190 N 971.112 -1.45937 0.595003 0
M  V30 10191 C 972.337 -2.07207 0.0894416 0
M  V30 10192 C 972.762 -1.43884 -1.21157 0
M  V30 10193 O 972.12 -0.526998 -1.73472 0
M  V30 10194 C 972.168 -3.60565 -0.0499828 0
M  V30 10195 O 971.272 -3.97364 -1.10342 0
M  V30 10196 H 970.613 -0.660471 0.0683627 0
M  V30 10197 H 973.143 -1.87386 0.82144 0
M  V30 10198 H 973.153 -4.0722 -0.252234 0
M  V30 10199 H 971.828 -4.06044 0.90006 0
M  V30 10200 H 970.405 -3.62401 -0.878645 0
M  V30 10201 N 972.59 -0.333456 -1.54032 0
M  V30 10202 C 973.836 0.259248 -2.01741 0
M  V30 10203 C 974.191 1.48999 -1.21725 0
M  V30 10204 O 973.484 1.89333 -0.293882 0
M  V30 10205 C 973.678 0.63565 -3.51702 0
M  V30 10206 C 973.507 -0.55707 -4.46236 0
M  V30 10207 C 972.277 -1.05925 -4.94073 0
M  V30 10208 C 974.475 -1.41237 -4.94527 0
M  V30 10209 N 972.457 -2.21535 -5.72534 0
M  V30 10210 C 973.828 -2.41551 -5.71011 0
M  V30 10211 C 975.883 -1.43899 -4.76652 0
M  V30 10212 C 974.586 -3.44342 -6.31523 0
M  V30 10213 C 976.612 -2.45567 -5.38006 0
M  V30 10214 C 975.974 -3.44606 -6.1435 0
M  V30 10215 H 972.073 0.0584431 -0.779813 0
M  V30 10216 H 974.657 -0.470736 -1.88924 0
M  V30 10217 H 972.828 1.33475 -3.64745 0
M  V30 10218 H 974.56 1.21067 -3.86167 0
M  V30 10219 H 971.315 -0.628947 -4.69405 0
M  V30 10220 H 971.739 -2.79878 -6.16439 0
M  V30 10221 H 976.381 -0.686929 -4.17182 0
M  V30 10222 H 974.099 -4.20449 -6.90107 0
M  V30 10223 H 977.685 -2.4844 -5.26088 0
M  V30 10224 H 976.565 -4.21987 -6.60982 0
M  V30 10225 N 974.068 1.57479 -0.061844 0
M  V30 10226 C 975.296 1.97429 0.618837 0
M  V30 10227 C 975.711 0.939826 1.63746 0
M  V30 10228 O 975.068 -0.0747173 1.82347 0
M  V30 10229 C 975.119 3.3746 1.29628 0
M  V30 10230 O 974.84 4.36941 0.318431 0
M  V30 10231 C 976.341 3.92228 2.06572 0
M  V30 10232 H 973.561 0.649513 0.168444 0
M  V30 10233 H 976.105 2.04078 -0.131303 0
M  V30 10234 H 974.26 3.31928 1.99757 0
M  V30 10235 H 974.674 5.18313 0.803239 0
M  V30 10236 H 976.148 4.92458 2.49377 0
M  V30 10237 H 976.625 3.28231 2.91824 0
M  V30 10238 H 977.231 4.01131 1.4133 0
M  V30 10239 N 975.546 -0.211634 1.56173 0
M  V30 10240 C 976.795 -0.932647 1.78842 0
M  V30 10241 C 977.108 -1.85103 0.63217 0
M  V30 10242 O 978.314 -2.61143 0.742746 0
M  V30 10243 C 976.77 -1.70866 3.16753 0
M  V30 10244 C 976.378 -0.835934 4.40132 0
M  V30 10245 C 978.122 -2.4203 3.48743 0
M  V30 10246 C 976.029 -1.60987 5.69067 0
M  V30 10247 H 974.959 -0.351983 0.666801 0
M  V30 10248 H 977.61 -0.186284 1.82552 0
M  V30 10249 H 975.992 -2.4983 3.07247 0
M  V30 10250 H 977.166 -0.0861298 4.60719 0
M  V30 10251 H 975.481 -0.235941 4.15731 0
M  V30 10252 H 978.078 -3.00453 4.42303 0
M  V30 10253 H 978.421 -3.15406 2.71707 0
M  V30 10254 H 978.954 -1.70048 3.59623 0
M  V30 10255 H 975.693 -0.9192 6.49023 0
M  V30 10256 H 975.213 -2.33403 5.52524 0
M  V30 10257 H 976.892 -2.16798 6.09596 0
M  V30 10258 N 977.024 -1.50153 -0.478725 0
M  V30 10259 C 977.954 -1.71384 -1.58587 0
M  V30 10260 C 978.935 -0.562705 -1.60523 0
M  V30 10261 O 980.12 -0.80101 -1.76911 0
M  V30 10262 C 977.25 -1.80094 -2.96957 0
M  V30 10263 C 976.204 -2.95218 -3.09888 0
M  V30 10264 C 975.53 -2.89063 -4.49829 0
M  V30 10265 C 976.83 -4.35841 -2.8782 0
M  V30 10266 H 978.524 -2.64081 -1.41073 0
M  V30 10267 H 976.07 -1.27081 -0.677239 0
M  V30 10268 H 978.023 -1.93531 -3.74331 0
M  V30 10269 H 976.747 -0.840131 -3.1561 0
M  V30 10270 H 975.406 -2.81419 -2.34944 0
M  V30 10271 H 975.054 -1.90844 -4.6539 0
M  V30 10272 H 974.754 -3.66345 -4.59418 0
M  V30 10273 H 976.278 -3.04539 -5.29234 0
M  V30 10274 H 977.692 -4.50205 -3.54948 0
M  V30 10275 H 976.089 -5.14515 -3.0886 0
M  V30 10276 H 977.159 -4.48739 -1.83742 0
M  V30 10277 N 978.502 0.731368 -1.39602 0
M  V30 10278 C 979.779 1.48308 -1.27531 0
M  V30 10279 C 980.159 2.10795 0.113482 0
M  V30 10280 O 979.507 1.98886 1.12501 0
M  V30 10281 C 979.717 2.53156 -2.40235 0
M  V30 10282 C 981.065 3.19436 -2.79725 0
M  V30 10283 O 982.089 2.6347 -2.39712 0
M  V30 10284 O 980.948 4.20714 -3.48801 0
M  V30 10285 H 978.042 0.658753 -0.499973 0
M  V30 10286 H 980.588 0.764884 -1.51485 0
M  V30 10287 H 979.36 2.05387 -3.33064 0
M  V30 10288 H 978.983 3.3253 -2.17966 0
M  V30 10289 N 979.98 1.24838 0.961938 0
M  V30 10290 C 981.228 1.08936 1.70227 0
M  V30 10291 C 981.549 -0.371582 1.91427 0
M  V30 10292 O 980.819 -1.26461 1.49614 0
M  V30 10293 H 979.399 0.400128 0.630799 0
M  V30 10294 H 982.061 1.56848 1.15692 0
M  V30 10295 H 981.157 1.59195 2.68446 0
M  V30 10296 N 981.458 -1.16348 1.06306 0
M  V30 10297 C 982.688 -1.90505 0.799453 0
M  V30 10298 C 983.096 -1.77686 -0.649955 0
M  V30 10299 O 982.439 -1.11921 -1.45669 0
M  V30 10300 C 982.501 -3.41775 1.11492 0
M  V30 10301 C 982.165 -3.7838 2.56277 0
M  V30 10302 C 983.162 -3.80288 3.54509 0
M  V30 10303 C 980.847 -4.09007 2.9158 0
M  V30 10304 C 982.841 -4.12312 4.86084 0
M  V30 10305 C 980.528 -4.40697 4.23354 0
M  V30 10306 C 981.526 -4.4233 5.20416 0
M  V30 10307 O 981.214 -4.73267 6.49826 0
M  V30 10308 H 980.946 -0.61094 0.289359 0
M  V30 10309 H 983.5 -1.48409 1.41999 0
M  V30 10310 H 981.73 -3.84219 0.437306 0
M  V30 10311 H 983.419 -3.97207 0.835533 0
M  V30 10312 H 984.185 -3.56738 3.28577 0
M  V30 10313 H 980.064 -4.06901 2.16686 0
M  V30 10314 H 983.608 -4.13501 5.61838 0
M  V30 10315 H 979.505 -4.63713 4.49044 0
M  V30 10316 H 980.273 -4.91078 6.54817 0
M  V30 10317 N 982.937 -0.845659 -1.3299 0
M  V30 10318 C 984.162 -0.457435 -2.02293 0
M  V30 10319 C 984.587 0.935634 -1.63179 0
M  V30 10320 O 983.945 1.61297 -0.827835 0
M  V30 10321 C 983.993 -0.593665 -3.5568 0
M  V30 10322 O 983.097 0.37729 -4.10671 0
M  V30 10323 H 982.438 -0.185022 -0.637701 0
M  V30 10324 H 984.968 -1.14237 -1.69738 0
M  V30 10325 H 984.978 -0.477834 -4.05192 0
M  V30 10326 H 983.653 -1.60957 -3.83491 0
M  V30 10327 H 982.23 0.218448 -3.7226 0
M  V30 10328 N 984.415 1.45619 -0.602734 0
M  V30 10329 C 985.664 2.01483 -0.0936395 0
M  V30 10330 C 985.977 1.47753 1.28173 0
M  V30 10331 O 987.183 1.95562 1.88329 0
M  V30 10332 C 985.639 3.59711 -0.116738 0
M  V30 10333 C 985.247 4.22437 -1.49166 0
M  V30 10334 C 986.991 4.23157 0.337368 0
M  V30 10335 C 984.898 5.72803 -1.47141 0
M  V30 10336 H 983.828 0.753353 -0.0312382 0
M  V30 10337 H 986.479 1.67142 -0.757347 0
M  V30 10338 H 984.861 3.91218 0.613529 0
M  V30 10339 H 986.035 4.02511 -2.24325 0
M  V30 10340 H 984.35 3.71166 -1.88746 0
M  V30 10341 H 986.947 5.33407 0.371628 0
M  V30 10342 H 987.29 3.93491 1.35906 0
M  V30 10343 H 987.823 3.96349 -0.339474 0
M  V30 10344 H 984.562 6.07161 -2.47055 0
M  V30 10345 H 984.082 5.94936 -0.762329 0
M  V30 10346 H 985.761 6.35907 -1.19294 0
M  V30 10347 N 985.893 0.34162 1.53853 0
M  V30 10348 C 987.118 -0.259608 2.05769 0
M  V30 10349 C 987.543 -1.43588 1.21507 0
M  V30 10350 O 986.901 -1.79856 0.228364 0
M  V30 10351 C 986.949 -0.654455 3.54611 0
M  V30 10352 O 986.053 -1.75472 3.73207 0
M  V30 10353 H 985.394 -0.0434621 0.662576 0
M  V30 10354 H 987.924 0.495274 1.98515 0
M  V30 10355 H 987.934 -0.932142 3.97209 0
M  V30 10356 H 986.609 0.205779 4.15391 0
M  V30 10357 H 985.186 -1.47444 3.42512 0
M  V30 10358 N 987.371 -1.57444 0.0701946 0
M  V30 10359 C 988.596 -1.98171 -0.61181 0
M  V30 10360 C 989.021 -0.94823 -1.62451 0
M  V30 10361 O 988.379 0.0863553 -1.81094 0
M  V30 10362 C 988.427 -3.37934 -1.2583 0
M  V30 10363 O 987.531 -3.37207 -2.37414 0
M  V30 10364 H 986.872 -0.645056 -0.157477 0
M  V30 10365 H 989.402 -2.04091 0.144235 0
M  V30 10366 H 989.412 -3.75083 -1.60552 0
M  V30 10367 H 988.087 -4.12684 -0.516234 0
M  V30 10368 H 986.664 -3.11826 -2.04497 0
M  V30 10369 N 988.849 0.203349 -1.56283 0
M  V30 10370 C 990.098 0.92315 -1.79334 0
M  V30 10371 C 990.411 1.84765 -0.641977 0
M  V30 10372 O 991.617 2.60745 -0.756584 0
M  V30 10373 C 990.073 1.69184 -3.17655 0
M  V30 10374 C 989.681 0.812581 -4.40569 0
M  V30 10375 C 991.425 2.40177 -3.50022 0
M  V30 10376 C 989.332 1.57967 -5.69913 0
M  V30 10377 H 988.262 0.348442 -0.668659 0
M  V30 10378 H 990.913 0.1766 -1.82648 0
M  V30 10379 H 989.295 2.48197 -3.08568 0
M  V30 10380 H 990.469 0.0616956 -4.60759 0
M  V30 10381 H 988.784 0.21389 -4.1585 0
M  V30 10382 H 991.381 2.98103 -4.4389 0
M  V30 10383 H 991.724 3.13961 -2.73376 0
M  V30 10384 H 992.257 1.68138 -3.6052 0
M  V30 10385 H 988.996 0.884767 -6.49501 0
M  V30 10386 H 988.516 2.3047 -5.53754 0
M  V30 10387 H 990.195 2.13562 -6.10737 0
M  V30 10388 N 990.327 1.50405 0.470755 0
M  V30 10389 C 991.555 1.65168 1.24608 0
M  V30 10390 C 991.97 0.335153 1.85801 0
M  V30 10391 O 991.327 -0.682919 1.69241 0
M  V30 10392 C 991.378 2.74305 2.35455 0
M  V30 10393 O 991.099 4.00854 1.76771 0
M  V30 10394 C 992.6 3.00044 3.26326 0
M  V30 10395 H 989.82 0.555186 0.376842 0
M  V30 10396 H 992.364 1.9663 0.56187 0
M  V30 10397 H 990.519 2.45536 2.99651 0
M  V30 10398 H 990.933 4.61211 2.49769 0
M  V30 10399 H 992.407 3.8007 4.00313 0
M  V30 10400 H 992.884 2.11128 3.85126 0
M  V30 10401 H 993.49 3.30345 2.67866 0
M  V30 10402 N 991.805 -0.723954 1.39988 0
M  V30 10403 C 993.054 -1.47922 1.3712 0
M  V30 10404 C 993.367 -1.95582 -0.0263665 0
M  V30 10405 O 994.573 -2.70918 -0.177652 0
M  V30 10406 C 993.029 -2.67342 2.40949 0
M  V30 10407 C 992.637 -2.26586 3.86475 0
M  V30 10408 C 994.381 -3.45116 2.47174 0
M  V30 10409 C 992.288 -3.42794 4.81919 0
M  V30 10410 H 991.218 -0.555522 0.509815 0
M  V30 10411 H 993.869 -0.788692 1.65686 0
M  V30 10412 H 992.251 -3.38524 2.0547 0
M  V30 10413 H 993.425 -1.62878 4.31054 0
M  V30 10414 H 991.74 -1.61876 3.83647 0
M  V30 10415 H 994.337 -4.31573 3.15672 0
M  V30 10416 H 994.68 -3.8835 1.49966 0
M  V30 10417 H 995.213 -2.80971 2.81602 0
M  V30 10418 H 991.952 -3.046 5.8043 0
M  V30 10419 H 991.472 -4.05445 4.42012 0
M  V30 10420 H 993.151 -4.08977 5.01345 0
M  V30 10421 N 993.283 -1.25346 -0.955304 0
M  V30 10422 C 994.699 -1.02154 -1.22625 0
M  V30 10423 C 994.899 0.26206 -1.99789 0
M  V30 10424 O 993.955 0.974958 -2.32918 0
M  V30 10425 C 995.268 -2.2443 -2.00129 0
M  V30 10426 C 996.816 -2.29185 -2.13174 0
M  V30 10427 C 997.291 -3.51117 -2.94077 0
M  V30 10428 N 998.782 -3.51509 -3.01655 0
M  V30 10429 C 999.517 -4.42517 -3.64645 0
M  V30 10430 N 999.013 -5.43796 -4.29252 0
M  V30 10431 N 1000.81 -4.302 -3.61779 0
M  V30 10432 H 992.957 -2.07812 -0.439071 0
M  V30 10433 H 995.22 -0.91258 -0.256715 0
M  V30 10434 H 994.926 -3.17717 -1.50827 0
M  V30 10435 H 994.8 -2.27548 -3.00835 0
M  V30 10436 H 997.187 -1.36422 -2.61674 0
M  V30 10437 H 997.268 -2.30087 -1.11775 0
M  V30 10438 H 996.912 -4.44201 -2.46268 0
M  V30 10439 H 996.842 -3.4746 -3.95701 0
M  V30 10440 H 999.333 -2.78245 -2.55711 0
M  V30 10441 H 999.646 -6.09453 -4.75171 0
M  V30 10442 H 997.991 -5.4767 -4.27882 0
M  V30 10443 H 1001.18 -3.50304 -3.10491 0
M  V30 10444 H 1001.36 -5.01323 -4.10584 0
M  V30 10445 N 994.761 1.15782 -1.06922 0
M  V30 10446 C 995.991 1.90079 -0.809545 0
M  V30 10447 C 996.399 1.78028 0.640523 0
M  V30 10448 O 995.742 1.12692 1.45073 0
M  V30 10449 C 995.804 3.41179 -1.13302 0
M  V30 10450 C 995.468 3.77015 -2.5828 0
M  V30 10451 C 996.465 3.78403 -3.56521 0
M  V30 10452 C 994.15 4.07455 -2.93745 0
M  V30 10453 C 996.144 4.09729 -4.88264 0
M  V30 10454 C 993.831 4.38446 -4.25686 0
M  V30 10455 C 994.829 4.39564 -5.22755 0
M  V30 10456 O 994.517 4.69814 -6.52326 0
M  V30 10457 H 994.249 0.609397 -0.292595 0
M  V30 10458 H 996.803 1.47654 -1.42784 0
M  V30 10459 H 995.033 3.83982 -0.457676 0
M  V30 10460 H 996.722 3.96759 -0.856586 0
M  V30 10461 H 997.488 3.54991 -3.30464 0
M  V30 10462 H 993.367 4.05746 -2.1884 0
M  V30 10463 H 996.911 4.10516 -5.64023 0
M  V30 10464 H 992.808 4.61325 -4.51497 0
M  V30 10465 H 993.576 4.87598 -6.57412 0
M  V30 10466 N 996.239 0.8527 1.3254 0
M  V30 10467 C 997.186 0.293905 2.28921 0
M  V30 10468 C 998.156 -0.598027 1.54961 0
M  V30 10469 O 999.341 -0.533355 1.83194 0
M  V30 10470 C 996.481 -0.513361 3.4126 0
M  V30 10471 C 995.594 0.404144 4.30105 0
M  V30 10472 C 994.729 -0.415564 5.29572 0
M  V30 10473 C 993.768 0.499461 6.10059 0
M  V30 10474 N 992.905 -0.282949 7.0153 0
M  V30 10475 H 997.745 1.12107 2.76109 0
M  V30 10476 H 995.282 0.564272 1.35847 0
M  V30 10477 H 997.24 -0.997008 4.05112 0
M  V30 10478 H 995.87 -1.30537 2.95229 0
M  V30 10479 H 994.922 1.00617 3.66852 0
M  V30 10480 H 996.234 1.10648 4.86373 0
M  V30 10481 H 995.388 -0.962458 5.99017 0
M  V30 10482 H 994.127 -1.15127 4.73917 0
M  V30 10483 H 993.132 1.05825 5.39519 0
M  V30 10484 H 994.357 1.23375 6.67799 0
M  V30 10485 H 992.303 -1.00179 6.48306 0
M  V30 10486 H 992.22 0.36039 7.55141 0
M  V30 10487 H 993.488 -0.811632 7.75263 0
M  V30 10488 N 997.718 -1.45297 0.610449 0
M  V30 10489 C 998.964 -2.02518 0.106917 0
M  V30 10490 C 999.297 -1.47747 -1.26034 0
M  V30 10491 O 998.572 -0.65329 -1.832 0
M  V30 10492 C 998.855 -3.6003 0.0710975 0
M  V30 10493 C 998.708 -4.25128 1.46922 0
M  V30 10494 C 1000.03 -4.35778 -0.61524 0
M  V30 10495 H 997.146 -0.735896 0.040327 0
M  V30 10496 H 999.788 -1.73117 0.782968 0
M  V30 10497 H 997.938 -3.85209 -0.504611 0
M  V30 10498 H 999.61 -4.11125 2.09223 0
M  V30 10499 H 997.853 -3.83418 2.02911 0
M  V30 10500 H 998.524 -5.34046 1.39637 0
M  V30 10501 H 1001 -4.1591 -0.125871 0
M  V30 10502 H 999.876 -5.45506 -0.609419 0
M  V30 10503 H 1000.14 -4.08859 -1.68186 0
M  V30 10504 N 999.196 -0.349774 -1.5367 0
M  V30 10505 C 1000.13 0.538575 -2.22782 0
M  V30 10506 C 1001.14 1.05896 -1.23652 0
M  V30 10507 O 1002.33 0.968045 -1.4997 0
M  V30 10508 C 999.43 1.7546 -2.89943 0
M  V30 10509 C 998.603 1.36843 -4.15443 0
M  V30 10510 C 997.662 2.4448 -4.65957 0
M  V30 10511 O 996.688 2.07528 -5.3002 0
M  V30 10512 N 997.89 3.75829 -4.42417 0
M  V30 10513 H 1000.65 -0.053348 -2.99653 0
M  V30 10514 H 998.216 -0.174193 -1.6096 0
M  V30 10515 H 1000.21 2.46911 -3.20651 0
M  V30 10516 H 998.778 2.25375 -2.16622 0
M  V30 10517 H 997.998 0.484421 -3.91212 0
M  V30 10518 H 999.286 1.0865 -4.97064 0
M  V30 10519 H 998.684 4.08635 -3.91196 0
M  V30 10520 H 997.241 4.43432 -4.77714 0
M  V30 10521 N 1000.67 1.57404 -0.0785433 0
M  V30 10522 C 1001.92 1.93361 0.58786 0
M  V30 10523 C 1002.24 0.959856 1.6974 0
M  V30 10524 O 1001.51 0.0091173 1.95898 0
M  V30 10525 H 1000.09 0.713825 0.220141 0
M  V30 10526 H 1002.75 1.94411 -0.137986 0
M  V30 10527 H 1001.85 2.95346 1.00881 0
M  V30 10528 N 1002.15 -0.195058 1.56388 0
M  V30 10529 C 1003.1 -1.24175 1.94549 0
M  V30 10530 C 1004.07 -1.45229 0.806089 0
M  V30 10531 O 1005.25 -1.58362 1.06425 0
M  V30 10532 C 1002.39 -2.58145 2.29031 0
M  V30 10533 C 1001.51 -2.44669 3.56035 0
M  V30 10534 C 1000.64 -3.71342 3.7984 0
M  V30 10535 C 999.681 -3.52699 5.0027 0
M  V30 10536 N 998.818 -4.71385 5.20328 0
M  V30 10537 H 1003.66 -0.909319 2.83788 0
M  V30 10538 H 1001.19 -0.437641 1.40439 0
M  V30 10539 H 1003.15 -3.36195 2.4704 0
M  V30 10540 H 1001.78 -2.8943 1.42933 0
M  V30 10541 H 1000.83 -1.57916 3.46073 0
M  V30 10542 H 1002.15 -2.26827 4.44242 0
M  V30 10543 H 1001.3 -4.57832 3.98088 0
M  V30 10544 H 1000.04 -3.92138 2.89964 0
M  V30 10545 H 999.045 -2.64594 4.81944 0
M  V30 10546 H 1000.27 -3.33349 5.91655 0
M  V30 10547 H 998.216 -4.92444 4.33399 0
M  V30 10548 H 998.133 -4.56368 6.02714 0
M  V30 10549 H 999.401 -5.59226 5.43035 0
M  V30 10550 N 1003.63 -1.50653 -0.462772 0
M  V30 10551 C 1004.58 -1.70661 -1.58043 0
M  V30 10552 C 1005.57 -0.572533 -1.59432 0
M  V30 10553 O 1006.78 -0.753257 -1.63481 0
M  V30 10554 H 1003.15 -0.538805 -0.524588 0
M  V30 10555 H 1005.12 -2.64399 -1.38332 0
M  V30 10556 C 1003.87 -1.82558 -2.95919 0
M  V30 10557 H 1003.2 -2.69216 -2.95572 0
M  V30 10558 H 1004.64 -2.0058 -3.73556 0
M  V30 10559 C 1003.09 -0.57916 -3.31885 0
M  V30 10560 O 1003.62 0.277888 -4.00738 0
M  V30 10561 N 1001.83 -0.430723 -2.8739 0
M  V30 10562 H 1001.38 -1.1292 -2.31531 0
M  V30 10563 H 1001.34 0.402061 -3.11819 0
M  V30 10564 N 1005.11 0.71652 -1.4037 0
M  V30 10565 C 1006.02 1.86074 -1.42876 0
M  V30 10566 C 1007.03 1.71005 -0.321475 0
M  V30 10567 O 1008.21 1.93286 -0.565909 0
M  V30 10568 C 1005.28 3.21862 -1.28863 0
M  V30 10569 C 1004.34 3.49193 -2.49726 0
M  V30 10570 C 1003.57 4.78502 -2.36372 0
M  V30 10571 O 1003.79 5.53529 -1.37703 0
M  V30 10572 O 1002.73 5.06147 -3.25728 0
M  V30 10573 H 1006.55 1.86916 -2.39366 0
M  V30 10574 H 1004.14 0.866818 -1.21683 0
M  V30 10575 H 1006.02 4.02972 -1.23253 0
M  V30 10576 H 1004.69 3.2175 -0.354783 0
M  V30 10577 H 1003.6 2.68095 -2.60913 0
M  V30 10578 H 1004.93 3.54101 -3.41868 0
M  V30 10579 N 1006.59 1.25851 0.948643 0
M  V30 10580 C 1007.86 1.01717 1.67072 0
M  V30 10581 C 1008.24 -0.454749 2.06144 0
M  V30 10582 O 1007.59 -1.43345 1.77945 0
M  V30 10583 C 1007.8 1.95872 2.88852 0
M  V30 10584 C 1009.15 2.24057 3.60671 0
M  V30 10585 O 1010.17 1.93678 2.98944 0
M  V30 10586 O 1009.03 2.75745 4.71833 0
M  V30 10587 H 1006.13 0.386198 0.731287 0
M  V30 10588 H 1008.67 1.37031 1.00104 0
M  V30 10589 H 1007.44 2.95233 2.56814 0
M  V30 10590 H 1007.07 1.60992 3.63548 0
M  V30 10591 N 1008.06 -1.15214 1.07534 0
M  V30 10592 C 1009 -2.19634 0.655261 0
M  V30 10593 C 1010.01 -1.60139 -0.293165 0
M  V30 10594 O 1011.2 -1.78311 -0.0821957 0
M  V30 10595 C 1008.3 -3.38851 -0.0578281 0
M  V30 10596 C 1007.47 -4.27888 0.90725 0
M  V30 10597 C 1006.53 -5.25692 0.231115 0
M  V30 10598 O 1005.56 -5.62469 0.872746 0
M  V30 10599 N 1006.76 -5.71424 -1.0225 0
M  V30 10600 H 1009.52 -2.56292 1.55353 0
M  V30 10601 H 1007.08 -1.30347 0.960271 0
M  V30 10602 H 1009.08 -4.01334 -0.520874 0
M  V30 10603 H 1007.65 -3.00593 -0.858071 0
M  V30 10604 H 1006.87 -3.62475 1.54937 0
M  V30 10605 H 1008.15 -4.84246 1.56151 0
M  V30 10606 H 1007.55 -5.43659 -1.56369 0
M  V30 10607 H 1006.11 -6.35938 -1.42919 0
M  V30 10608 N 1009.54 -0.859717 -1.32086 0
M  V30 10609 C 1010.49 -0.279715 -2.26278 0
M  V30 10610 C 1011.48 0.577348 -1.50185 0
M  V30 10611 O 1012.67 0.425903 -1.71799 0
M  V30 10612 C 1009.8 0.526622 -3.39237 0
M  V30 10613 C 1008.88 -0.343112 -4.2271 0
M  V30 10614 N 1009.27 -1.43176 -4.85113 0
M  V30 10615 C 1007.57 -0.133744 -4.45799 0
M  V30 10616 C 1008.27 -1.96725 -5.47425 0
M  V30 10617 N 1007.25 -1.26569 -5.2866 0
M  V30 10618 H 1011.05 -1.11191 -2.72055 0
M  V30 10619 H 1008.57 -0.706372 -1.46233 0
M  V30 10620 H 1010.56 0.958587 -4.0573 0
M  V30 10621 H 1009.22 1.35655 -2.95005 0
M  V30 10622 H 1010.23 -1.81469 -4.85066 0
M  V30 10623 H 1006.91 0.661064 -4.12233 0
M  V30 10624 H 1008.3 -2.88006 -6.07044 0
M  V30 10625 N 1011.02 1.44971 -0.618145 0
M  V30 10626 C 1012.27 2.02458 -0.117656 0
M  V30 10627 C 1012.6 1.48413 1.25248 0
M  V30 10628 O 1011.87 0.662997 1.82851 0
M  V30 10629 C 1012.16 3.59987 -0.0901897 0
M  V30 10630 C 1012.01 4.24343 -1.49175 0
M  V30 10631 C 1013.33 4.36099 0.592121 0
M  V30 10632 H 1010.45 0.735672 -0.0442291 0
M  V30 10633 H 1013.09 1.727 -0.792138 0
M  V30 10634 H 1011.24 3.85471 0.484175 0
M  V30 10635 H 1012.91 4.10009 -2.114 0
M  V30 10636 H 1011.16 3.82337 -2.04941 0
M  V30 10637 H 1011.83 5.33298 -1.42468 0
M  V30 10638 H 1014.3 4.1597 0.103813 0
M  V30 10639 H 1013.18 5.45822 0.580481 0
M  V30 10640 H 1013.44 4.09746 1.66015 0
M  V30 10641 N 1012.5 0.357919 1.53482 0
M  V30 10642 C 1013.78 -0.290164 1.93436 0
M  V30 10643 C 1014.16 -1.67039 1.29079 0
M  V30 10644 O 1013.5 -2.24085 0.447017 0
M  V30 10645 C 1013.71 -0.348055 3.4726 0
M  V30 10646 C 1015.06 -0.59206 4.20452 0
M  V30 10647 O 1016.09 -0.429581 3.536 0
M  V30 10648 O 1014.94 -0.907855 5.38907 0
M  V30 10649 H 1012.04 -0.172312 0.80885 0
M  V30 10650 H 1014.58 0.410144 1.64669 0
M  V30 10651 H 1013.36 0.619953 3.86358 0
M  V30 10652 H 1012.98 -1.09457 3.82237 0
M  V30 10653 N 1013.98 -1.5736 0.0868897 0
M  V30 10654 C 1015.22 -1.94341 -0.579598 0
M  V30 10655 C 1015.56 -0.968238 -1.68341 0
M  V30 10656 O 1014.83 8.29649e-05 -1.945 0
M  V30 10657 C 1015.11 -3.41497 -1.14245 0
M  V30 10658 C 1014.97 -4.49778 -0.044255 0
M  V30 10659 C 1016.29 -3.89788 -2.04336 0
M  V30 10660 H 1013.4 -0.70668 -0.20922 0
M  V30 10661 H 1016.05 -1.89359 0.15593 0
M  V30 10662 H 1014.2 -3.45873 -1.76929 0
M  V30 10663 H 1015.87 -4.57517 0.58959 0
M  V30 10664 H 1014.11 -4.293 0.623207 0
M  V30 10665 H 1014.78 -5.4992 -0.478749 0
M  V30 10666 H 1017.26 -3.87513 -1.51569 0
M  V30 10667 H 1016.13 -4.93335 -2.40648 0
M  V30 10668 H 1016.4 -3.28603 -2.95757 0
M  V30 10669 N 1015.45 0.186762 -1.56489 0
M  V30 10670 C 1016.4 1.23141 -1.95205 0
M  V30 10671 C 1017.37 1.44799 -0.81378 0
M  V30 10672 O 1018.56 1.57795 -1.07263 0
M  V30 10673 C 1015.7 2.56926 -2.30397 0
M  V30 10674 C 1014.81 2.42777 -3.57328 0
M  V30 10675 C 1013.94 3.69323 -3.81804 0
M  V30 10676 C 1012.98 3.50041 -5.02133 0
M  V30 10677 N 1012.12 4.68619 -5.2282 0
M  V30 10678 H 1016.96 0.894256 -2.84266 0
M  V30 10679 H 1014.5 0.430187 -1.40669 0
M  V30 10680 H 1016.46 3.3488 -2.4882 0
M  V30 10681 H 1015.09 2.88668 -1.44466 0
M  V30 10682 H 1014.14 1.56078 -3.46906 0
M  V30 10683 H 1015.45 2.24468 -4.45439 0
M  V30 10684 H 1014.6 4.55715 -4.00511 0
M  V30 10685 H 1013.34 3.90595 -2.92039 0
M  V30 10686 H 1012.35 2.62034 -4.8334 0
M  V30 10687 H 1013.57 3.30206 -5.93414 0
M  V30 10688 H 1011.52 4.90139 -4.36005 0
M  V30 10689 H 1011.44 4.53165 -6.05126 0
M  V30 10690 H 1012.7 5.56338 -5.45993 0
M  V30 10691 N 1016.93 1.50896 0.454776 0
M  V30 10692 C 1018.18 1.61936 1.20248 0
M  V30 10693 C 1018.49 0.332983 1.92745 0
M  V30 10694 O 1019.7 0.322512 2.69578 0
M  V30 10695 C 1018.16 2.85916 2.18587 0
M  V30 10696 C 1017.76 4.21492 1.51818 0
M  V30 10697 C 1019.51 3.06307 2.93898 0
M  V30 10698 C 1017.42 5.3664 2.48539 0
M  V30 10699 H 1016.35 0.603098 0.452536 0
M  V30 10700 H 1019 1.77345 0.471257 0
M  V30 10701 H 1017.38 2.64101 2.95071 0
M  V30 10702 H 1018.55 4.53623 0.810123 0
M  V30 10703 H 1016.87 4.06837 0.887265 0
M  V30 10704 H 1019.46 3.89507 3.66317 0
M  V30 10705 H 1019.81 2.18683 3.54236 0
M  V30 10706 H 1020.34 3.2838 2.24525 0
M  V30 10707 H 1017.08 6.26469 1.92916 0
M  V30 10708 H 1016.6 5.08907 3.17449 0
M  V30 10709 H 1018.28 5.67881 3.10033 0
M  V30 10710 N 1018.41 -0.709066 1.40748 0
M  V30 10711 C 1019.36 -1.82312 1.4153 0
M  V30 10712 C 1020.33 -1.63868 0.271392 0
M  V30 10713 O 1021.51 -1.8491 0.470431 0
M  V30 10714 C 1018.65 -3.2008 1.29006 0
M  V30 10715 C 1017.77 -3.50051 2.53156 0
M  V30 10716 C 1016.9 -4.7736 2.33025 0
M  V30 10717 C 1015.94 -5.00255 3.52719 0
M  V30 10718 N 1015.08 -6.18782 3.31743 0
M  V30 10719 H 1019.92 -1.80978 2.36751 0
M  V30 10720 H 1017.45 -0.883975 1.17577 0
M  V30 10721 H 1019.41 -3.99645 1.19749 0
M  V30 10722 H 1018.04 -3.20626 0.374014 0
M  V30 10723 H 1017.09 -2.64993 2.72916 0
M  V30 10724 H 1018.41 -3.62877 3.42231 0
M  V30 10725 H 1017.56 -5.64954 2.21159 0
M  V30 10726 H 1016.3 -4.66756 1.41386 0
M  V30 10727 H 1015.3 -4.11114 3.65055 0
M  V30 10728 H 1016.53 -5.12728 4.45295 0
M  V30 10729 H 1014.47 -6.09416 2.42791 0
M  V30 10730 H 1014.39 -6.32313 4.14386 0
M  V30 10731 H 1015.66 -7.09146 3.23623 0
M  V30 10732 N 1019.89 -1.26353 -0.941956 0
M  V30 10733 C 1020.84 -1.07654 -2.06188 0
M  V30 10734 C 1021.83 -0.00369741 -1.694 0
M  V30 10735 O 1023.04 -0.160316 -1.79285 0
M  V30 10736 H 1019.41 -0.331274 -0.675101 0
M  V30 10737 H 1021.38 -2.02566 -2.19111 0
M  V30 10738 C 1020.13 -0.725436 -3.40048 0
M  V30 10739 H 1019.46 -1.54283 -3.68832 0
M  V30 10740 H 1020.9 -0.634383 -4.19227 0
M  V30 10741 C 1019.35 0.569369 -3.32054 0
M  V30 10742 O 1019.88 1.60791 -3.68116 0
M  V30 10743 N 1018.09 0.559714 -2.85159 0
M  V30 10744 H 1017.64 -0.285817 -2.56009 0
M  V30 10745 H 1017.6 1.42617 -2.80193 0
M  V30 10746 N 1021.37 1.14642 -1.08144 0
M  V30 10747 C 1022.33 2.17834 -0.712799 0
M  V30 10748 C 1023.33 1.58828 0.251041 0
M  V30 10749 O 1024.52 1.74173 0.0309381 0
M  V30 10750 C 1021.65 3.4086 -0.0519477 0
M  V30 10751 H 1022.85 2.51961 -1.62653 0
M  V30 10752 H 1020.4 1.29243 -0.878971 0
M  V30 10753 H 1021.13 3.12311 0.873636 0
M  V30 10754 H 1020.92 3.84952 -0.745286 0
M  V30 10755 H 1022.41 4.17163 0.191031 0
M  V30 10756 N 1022.85 0.866709 1.31628 0
M  V30 10757 C 1024.07 0.49039 2.01004 0
M  V30 10758 C 1024.49 -0.916244 1.65077 0
M  V30 10759 O 1023.85 -1.59975 0.8783 0
M  V30 10760 C 1023.9 0.634011 3.55897 0
M  V30 10761 O 1023.62 1.98525 3.90537 0
M  V30 10762 C 1025.12 0.258277 4.42547 0
M  V30 10763 H 1022.34 0.191421 0.643117 0
M  V30 10764 H 1024.88 1.16698 1.67934 0
M  V30 10765 H 1023.04 0.00501801 3.874 0
M  V30 10766 H 1023.45 1.99067 4.85255 0
M  V30 10767 H 1024.93 0.409733 5.50477 0
M  V30 10768 H 1025.4 -0.802301 4.3181 0
M  V30 10769 H 1026.01 0.862837 4.16456 0
M  V30 10770 N 1024.32 -1.44642 0.625825 0
M  V30 10771 C 1025.57 -2.01308 0.125682 0
M  V30 10772 C 1025.89 -1.49773 -1.25807 0
M  V30 10773 O 1027.09 -1.98533 -1.85194 0
M  V30 10774 C 1025.55 -3.59479 0.17395 0
M  V30 10775 C 1025.16 -4.20011 1.55868 0
M  V30 10776 C 1026.9 -4.2364 -0.270005 0
M  V30 10777 C 1024.81 -5.7039 1.56235 0
M  V30 10778 H 1023.74 -0.75276 0.0432194 0
M  V30 10779 H 1026.39 -1.65916 0.783842 0
M  V30 10780 H 1024.77 -3.92145 -0.551212 0
M  V30 10781 H 1025.94 -3.98891 2.307 0
M  V30 10782 H 1024.26 -3.68116 1.94627 0
M  V30 10783 H 1026.86 -5.33931 -0.28672 0
M  V30 10784 H 1027.2 -3.95603 -1.29629 0
M  V30 10785 H 1027.73 -3.95759 0.402487 0
M  V30 10786 H 1024.47 -6.03154 2.56683 0
M  V30 10787 H 1023.99 -5.93648 0.856881 0
M  V30 10788 H 1025.67 -6.33929 1.29396 0
M  V30 10789 N 1025.8 -0.366053 -1.5329 0
M  V30 10790 C 1027.03 0.224236 -2.05681 0
M  V30 10791 C 1027.44 1.42412 -1.23952 0
M  V30 10792 O 1026.8 1.80334 -0.280309 0
M  V30 10793 C 1026.85 0.617266 -3.56191 0
M  V30 10794 O 1026.57 -0.534931 -4.34822 0
M  V30 10795 C 1028.07 1.26589 -4.24841 0
M  V30 10796 H 1025.29 0.0392928 -0.669849 0
M  V30 10797 H 1027.84 -0.52456 -1.97658 0
M  V30 10798 H 1025.99 1.31598 -3.64364 0
M  V30 10799 H 1026.41 -0.217123 -5.2405 0
M  V30 10800 H 1027.88 1.49146 -5.31469 0
M  V30 10801 H 1028.36 2.22633 -3.78591 0
M  V30 10802 H 1028.96 0.6086 -4.20923 0
M  V30 10803 N 1027.28 1.57312 -0.0952337 0
M  V30 10804 C 1028.21 2.11059 0.893678 0
M  V30 10805 C 1029.22 1.04787 1.24594 0
M  V30 10806 O 1030.41 1.32233 1.19903 0
M  V30 10807 C 1027.51 2.57552 2.20272 0
M  V30 10808 C 1026.69 3.87661 2.02578 0
M  V30 10809 C 1025.75 4.2 3.16996 0
M  V30 10810 O 1024.77 4.89219 2.90953 0
M  V30 10811 N 1025.97 3.75414 4.42769 0
M  V30 10812 H 1028.74 2.96532 0.434632 0
M  V30 10813 H 1026.3 1.6165 0.0898661 0
M  V30 10814 H 1028.29 2.76232 2.95766 0
M  V30 10815 H 1026.86 1.7709 2.576 0
M  V30 10816 H 1026.08 3.78128 1.11413 0
M  V30 10817 H 1027.37 4.7278 1.88032 0
M  V30 10818 H 1026.77 3.1954 4.66809 0
M  V30 10819 H 1025.32 3.99249 5.15212 0
M  V30 10820 N 1028.76 -0.17846 1.56586 0
M  V30 10821 C 1029.99 -0.910674 1.85446 0
M  V30 10822 C 1030.4 -1.76647 0.677675 0
M  V30 10823 O 1029.74 -1.80086 -0.362584 0
M  V30 10824 C 1029.8 -1.84363 3.08627 0
M  V30 10825 C 1029.46 -1.16814 4.41818 0
M  V30 10826 C 1030.46 -0.53703 5.17119 0
M  V30 10827 C 1028.15 -1.16703 4.88555 0
M  V30 10828 C 1030.14 0.0861778 6.37342 0
M  V30 10829 C 1027.83 -0.539992 6.0871 0
M  V30 10830 C 1028.83 0.0855135 6.82946 0
M  V30 10831 O 1028.51 0.70268 8.00823 0
M  V30 10832 H 1028.25 -0.270377 0.619574 0
M  V30 10833 H 1030.8 -0.185591 2.0456 0
M  V30 10834 H 1029.03 -2.60884 2.85441 0
M  V30 10835 H 1030.72 -2.44506 3.23993 0
M  V30 10836 H 1031.48 -0.529915 4.82096 0
M  V30 10837 H 1027.36 -1.64329 4.30717 0
M  V30 10838 H 1030.91 0.575011 6.95226 0
M  V30 10839 H 1026.8 -0.544666 6.43198 0
M  V30 10840 H 1027.57 0.601224 8.16289 0
M  V30 10841 N 1030.24 -1.51135 -0.446768 0
M  V30 10842 C 1031.17 -1.67949 -1.55967 0
M  V30 10843 C 1032.18 -0.560337 -1.52853 0
M  V30 10844 O 1033.37 -0.83435 -1.578 0
M  V30 10845 C 1030.47 -1.6703 -2.9488 0
M  V30 10846 C 1029.64 -2.95377 -3.22601 0
M  V30 10847 C 1028.7 -2.86772 -4.4119 0
M  V30 10848 O 1027.73 -3.60722 -4.40304 0
M  V30 10849 N 1028.93 -2.01979 -5.44228 0
M  V30 10850 H 1031.69 -2.63951 -1.41951 0
M  V30 10851 H 1029.26 -1.48903 -0.635569 0
M  V30 10852 H 1031.25 -1.58854 -3.7222 0
M  V30 10853 H 1029.82 -0.786623 -3.02541 0
M  V30 10854 H 1029.04 -3.17494 -2.33647 0
M  V30 10855 H 1030.33 -3.80356 -3.37945 0
M  V30 10856 H 1029.72 -1.41257 -5.4778 0
M  V30 10857 H 1028.28 -1.99689 -6.20457 0
M  V30 10858 N 1031.71 0.701592 -1.41122 0
M  V30 10859 C 1032.64 1.82815 -1.45262 0
M  V30 10860 C 1033.62 1.67215 -0.311939 0
M  V30 10861 O 1034.81 1.87038 -0.522538 0
M  V30 10862 C 1031.94 3.20899 -1.32819 0
M  V30 10863 C 1030.89 3.51194 -2.44636 0
M  V30 10864 C 1030.22 4.8857 -2.17263 0
M  V30 10865 C 1031.52 3.50777 -3.86979 0
M  V30 10866 H 1033.21 1.79608 -2.39544 0
M  V30 10867 H 1030.76 0.862693 -1.15298 0
M  V30 10868 H 1032.71 3.99417 -1.34329 0
M  V30 10869 H 1031.44 3.24717 -0.350191 0
M  V30 10870 H 1030.1 2.75024 -2.42399 0
M  V30 10871 H 1029.74 4.89007 -1.17819 0
M  V30 10872 H 1029.44 5.09805 -2.92186 0
M  V30 10873 H 1030.97 5.69405 -2.20478 0
M  V30 10874 H 1032.38 4.19309 -3.90964 0
M  V30 10875 H 1030.78 3.83542 -4.61536 0
M  V30 10876 H 1031.85 2.49873 -4.15562 0
M  V30 10877 N 1033.19 1.2685 0.935242 0
M  V30 10878 C 1034.14 1.08923 2.03481 0
M  V30 10879 C 1035.11 -0.00749786 1.66098 0
M  V30 10880 O 1036.29 0.153401 1.90182 0
M  V30 10881 C 1033.43 0.734529 3.37192 0
M  V30 10882 C 1032.55 1.90812 3.87576 0
M  V30 10883 C 1031.68 1.49599 5.097 0
M  V30 10884 C 1030.72 2.63752 5.5236 0
M  V30 10885 N 1029.86 2.23179 6.65684 0
M  V30 10886 H 1034.7 2.03016 2.18148 0
M  V30 10887 H 1032.23 1.01072 1.06878 0
M  V30 10888 H 1034.19 0.509734 4.14074 0
M  V30 10889 H 1032.82 -0.169438 3.22355 0
M  V30 10890 H 1031.87 2.24567 3.0704 0
M  V30 10891 H 1033.19 2.7647 4.1517 0
M  V30 10892 H 1032.34 1.23199 5.9406 0
M  V30 10893 H 1031.08 0.61039 4.83865 0
M  V30 10894 H 1030.08 2.90874 4.66554 0
M  V30 10895 H 1031.31 3.5292 5.80193 0
M  V30 10896 H 1029.26 1.37061 6.41522 0
M  V30 10897 H 1029.17 3.02379 6.92895 0
M  V30 10898 H 1030.44 2.00007 7.53404 0
M  V30 10899 N 1034.67 -1.14067 1.0875 0
M  V30 10900 C 1035.92 -1.84819 0.817698 0
M  V30 10901 C 1036.24 -1.83545 -0.658488 0
M  V30 10902 O 1035.51 -1.28633 -1.47751 0
M  V30 10903 H 1034.09 -0.68433 0.299502 0
M  V30 10904 H 1036.75 -1.38208 1.37421 0
M  V30 10905 H 1035.85 -2.89541 1.16501 0
M  V30 10906 N 1036.15 -0.873678 -1.31166 0
M  V30 10907 C 1037.08 -0.348011 -2.30892 0
M  V30 10908 C 1038.06 0.563092 -1.60509 0
M  V30 10909 O 1039.24 0.479332 -1.88192 0
M  V30 10910 C 1036.37 0.448158 -3.44396 0
M  V30 10911 C 1035.33 -0.370179 -4.26396 0
M  V30 10912 C 1034.65 0.551903 -5.31844 0
M  V30 10913 C 1035.95 -1.60624 -4.96988 0
M  V30 10914 H 1037.65 -1.18134 -2.75109 0
M  V30 10915 H 1035.19 -0.569502 -1.3226 0
M  V30 10916 H 1037.15 0.826458 -4.13216 0
M  V30 10917 H 1035.87 1.31503 -2.98956 0
M  V30 10918 H 1034.53 -0.730472 -3.59249 0
M  V30 10919 H 1034.18 1.41616 -4.82653 0
M  V30 10920 H 1033.88 0.00823478 -5.87599 0
M  V30 10921 H 1035.4 0.926965 -6.03523 0
M  V30 10922 H 1036.82 -1.29917 -5.58386 0
M  V30 10923 H 1035.21 -2.08926 -5.62557 0
M  V30 10924 H 1036.28 -2.357 -4.23761 0
M  V30 10925 N 1037.63 1.44308 -0.633487 0
M  V30 10926 C 1038.54 2.34492 0.0711787 0
M  V30 10927 C 1039.55 1.52754 0.8332 0
M  V30 10928 O 1040.73 1.85475 0.784929 0
M  V30 10929 C 1037.79 3.30767 1.03895 0
M  V30 10930 C 1036.85 4.28412 0.276043 0
M  V30 10931 C 1036.09 5.20087 1.19772 0
M  V30 10932 O 1036.31 5.15743 2.4365 0
M  V30 10933 O 1035.24 5.98038 0.680764 0
M  V30 10934 H 1039.07 2.96203 -0.67063 0
M  V30 10935 H 1036.66 1.4412 -0.393678 0
M  V30 10936 H 1038.54 3.90021 1.59566 0
M  V30 10937 H 1037.21 2.71586 1.76133 0
M  V30 10938 H 1036.12 3.72696 -0.32377 0
M  V30 10939 H 1037.45 4.9052 -0.406364 0
M  V30 10940 N 1039.1 0.374177 1.53094 0
M  V30 10941 C 1040.52 -0.103172 1.86415 0
M  V30 10942 C 1040.87 -1.47439 1.29446 0
M  V30 10943 O 1039.99 -2.07333 0.619853 0
M  V30 10944 C 1040.59 -0.193988 3.38244 0
M  V30 10945 C 1039.15 -0.615605 3.71332 0
M  V30 10946 C 1038.29 0.23186 2.76329 0
M  V30 10947 H 1041.24 0.592644 1.47219 0
M  V30 10948 H 1041.26 -1.01597 3.66686 0
M  V30 10949 H 1040.78 0.80414 3.79678 0
M  V30 10950 H 1038.88 -1.62165 3.3546 0
M  V30 10951 H 1038.99 -0.38425 4.77557 0
M  V30 10952 H 1037.35 -0.300579 2.5292 0
M  V30 10953 H 1038.14 1.22769 3.20597 0
M  V30 10954 N 1040.58 -1.57259 0.103575 0
M  V30 10955 C 1041.49 -2.18018 -0.866327 0
M  V30 10956 C 1042.51 -1.15198 -1.30404 0
M  V30 10957 O 1043.68 -1.47605 -1.37021 0
M  V30 10958 C 1040.75 -2.75533 -2.10434 0
M  V30 10959 C 1039.81 -3.93337 -1.72002 0
M  V30 10960 C 1039.04 -4.481 -2.89901 0
M  V30 10961 O 1039.27 -4.01784 -4.04877 0
M  V30 10962 O 1038.2 -5.39004 -2.67877 0
M  V30 10963 H 1042.03 -3.01322 -0.379338 0
M  V30 10964 H 1039.61 -1.48907 -0.121228 0
M  V30 10965 H 1041.49 -3.12259 -2.8297 0
M  V30 10966 H 1040.17 -1.9527 -2.58169 0
M  V30 10967 H 1039.08 -3.61408 -0.966193 0
M  V30 10968 H 1040.41 -4.74989 -1.29022 0
M  V30 10969 N 1042.06 0.170153 -1.56679 0
M  V30 10970 C 1043.29 0.902134 -1.86197 0
M  V30 10971 C 1043.7 1.75775 -0.689098 0
M  V30 10972 O 1043.06 1.79271 0.341763 0
M  V30 10973 C 1043.11 1.77792 -3.14757 0
M  V30 10974 O 1042.83 0.956817 -4.27524 0
M  V30 10975 C 1044.33 2.61947 -3.57629 0
M  V30 10976 H 1041.55 0.262026 -0.617724 0
M  V30 10977 H 1044.1 0.169899 -2.03793 0
M  V30 10978 H 1042.25 2.46348 -2.98984 0
M  V30 10979 H 1042.67 1.5559 -5.00891 0
M  V30 10980 H 1044.14 3.19011 -4.50484 0
M  V30 10981 H 1044.62 3.36873 -2.81803 0
M  V30 10982 H 1045.22 1.98721 -3.76019 0
M  V30 10983 N 1043.54 1.5137 0.438746 0
M  V30 10984 C 1044.5 1.71993 1.51496 0
M  V30 10985 C 1045.5 0.589978 1.49586 0
M  V30 10986 O 1046.69 0.857505 1.51633 0
M  V30 10987 C 1043.82 1.77508 2.91039 0
M  V30 10988 H 1045.02 2.68041 1.34514 0
M  V30 10989 H 1042.57 1.41338 0.667326 0
M  V30 10990 H 1043.3 0.832698 3.13427 0
M  V30 10991 H 1043.09 2.59627 2.9383 0
M  V30 10992 H 1044.58 1.95308 3.69113 0
M  V30 10993 N 1045.02 -0.694098 1.41492 0
M  V30 10994 C 1046.25 -1.48071 1.44078 0
M  V30 10995 C 1046.65 -1.89147 0.0448984 0
M  V30 10996 O 1046 -1.57441 -0.946464 0
M  V30 10997 C 1046.06 -2.77324 2.28761 0
M  V30 10998 C 1045.72 -2.58443 3.76904 0
M  V30 10999 C 1046.72 -2.24294 4.69029 0
M  V30 11000 C 1044.41 -2.74037 4.20962 0
M  V30 11001 C 1046.4 -2.0598 6.03201 0
M  V30 11002 C 1044.09 -2.5534 5.55198 0
M  V30 11003 C 1045.08 -2.21362 6.46133 0
M  V30 11004 O 1044.77 -2.02829 7.77892 0
M  V30 11005 H 1044.5 -0.462794 0.492745 0
M  V30 11006 H 1047.06 -0.861968 1.86438 0
M  V30 11007 H 1045.29 -3.4161 1.81217 0
M  V30 11008 H 1046.98 -3.39134 2.23031 0
M  V30 11009 H 1047.74 -2.11859 4.36281 0
M  V30 11010 H 1043.62 -2.99467 3.50486 0
M  V30 11011 H 1047.17 -1.79382 6.74142 0
M  V30 11012 H 1043.06 -2.67366 5.87525 0
M  V30 11013 H 1043.83 -2.17581 7.89051 0
M  V30 11014 N 1046.49 -1.27344 -0.928501 0
M  V30 11015 C 1047.43 -1.05797 -2.03322 0
M  V30 11016 C 1048.44 -0.0143086 -1.62794 0
M  V30 11017 O 1049.63 -0.25578 -1.76658 0
M  V30 11018 C 1046.73 -0.582673 -3.33853 0
M  V30 11019 C 1045.9 -1.69844 -4.03078 0
M  V30 11020 C 1044.96 -1.21902 -5.11885 0
M  V30 11021 O 1043.99 -1.91853 -5.35893 0
M  V30 11022 N 1045.19 -0.0742392 -5.80453 0
M  V30 11023 H 1047.95 -2.00928 -2.22369 0
M  V30 11024 H 1045.51 -1.189 -1.09883 0
M  V30 11025 H 1047.51 -0.245862 -4.03952 0
M  V30 11026 H 1046.08 0.27539 -3.11385 0
M  V30 11027 H 1045.3 -2.20557 -3.26723 0
M  V30 11028 H 1046.58 -2.4473 -4.46077 0
M  V30 11029 H 1045.98 0.509631 -5.634 0
M  V30 11030 H 1044.54 0.203399 -6.51483 0
M  V30 11031 N 1047.97 1.13488 -1.09353 0
M  V30 11032 C 1049.22 1.85022 -0.830354 0
M  V30 11033 C 1049.55 1.83266 0.64242 0
M  V30 11034 O 1048.83 1.27024 1.47293 0
M  V30 11035 C 1049.11 3.33218 -1.36521 0
M  V30 11036 C 1048.96 3.43491 -2.90404 0
M  V30 11037 C 1050.28 4.28626 -0.998381 0
M  V30 11038 H 1047.4 0.671786 -0.303105 0
M  V30 11039 H 1050.04 1.33211 -1.3548 0
M  V30 11040 H 1048.19 3.77471 -0.919117 0
M  V30 11041 H 1049.86 3.07954 -3.43456 0
M  V30 11042 H 1048.11 2.84391 -3.27573 0
M  V30 11043 H 1048.78 4.47702 -3.22905 0
M  V30 11044 H 1051.25 3.9244 -1.38311 0
M  V30 11045 H 1050.13 5.30754 -1.39968 0
M  V30 11046 H 1050.39 4.42001 0.093517 0
M  V30 11047 N 1049.45 0.880621 1.30701 0
M  V30 11048 C 1050.73 0.41712 1.91101 0
M  V30 11049 C 1051.11 -1.10177 1.80067 0
M  V30 11050 O 1050.46 -1.93513 1.21511 0
M  V30 11051 C 1050.67 0.910364 3.36917 0
M  V30 11052 C 1052.01 0.942764 4.14001 0
M  V30 11053 O 1053.04 0.856733 3.45743 0
M  V30 11054 O 1051.9 1.06913 5.3594 0
M  V30 11055 H 1048.99 0.126775 0.817225 0
M  V30 11056 H 1051.54 0.969236 1.39298 0
M  V30 11057 H 1050.31 1.95414 3.39012 0
M  V30 11058 H 1049.93 0.337164 3.96168 0
M  V30 11059 N 1050.93 -1.4397 0.641131 0
M  V30 11060 C 1052.18 -2.01163 0.147026 0
M  V30 11061 C 1052.49 -1.51099 -1.24211 0
M  V30 11062 O 1053.7 -2.00487 -1.83078 0
M  V30 11063 C 1052.15 -3.59275 0.212068 0
M  V30 11064 C 1051.76 -4.18334 1.60314 0
M  V30 11065 C 1053.51 -4.23903 -0.225057 0
M  V30 11066 C 1051.41 -5.68701 1.62276 0
M  V30 11067 H 1050.34 -0.75226 0.051201 0
M  V30 11068 H 1052.99 -1.65075 0.801396 0
M  V30 11069 H 1051.38 -3.92708 -0.509589 0
M  V30 11070 H 1052.55 -3.96422 2.34918 0
M  V30 11071 H 1050.86 -3.66031 1.9852 0
M  V30 11072 H 1053.46 -5.34205 -0.230074 0
M  V30 11073 H 1053.8 -3.96956 -1.25426 0
M  V30 11074 H 1054.34 -3.95309 0.44444 0
M  V30 11075 H 1051.08 -6.00397 2.63066 0
M  V30 11076 H 1050.6 -5.92705 0.919797 0
M  V30 11077 H 1052.28 -6.32521 1.36112 0
M  V30 11078 N 1052.41 -0.382291 -1.52893 0
M  V30 11079 C 1053.65 0.202133 -2.01489 0
M  V30 11080 C 1053.98 1.47399 -1.26901 0
M  V30 11081 O 1053.24 1.92439 -0.355771 0
M  V30 11082 C 1053.54 0.523437 -3.53546 0
M  V30 11083 C 1053.2 -0.656042 -4.46102 0
M  V30 11084 C 1051.86 -0.979633 -4.71123 0
M  V30 11085 C 1054.22 -1.44545 -5.00756 0
M  V30 11086 C 1051.54 -2.0943 -5.48047 0
M  V30 11087 C 1053.9 -2.55066 -5.78899 0
M  V30 11088 C 1052.56 -2.87942 -6.02201 0
M  V30 11089 H 1051.83 0.0739659 -0.737299 0
M  V30 11090 H 1054.48 -0.518196 -1.84356 0
M  V30 11091 H 1052.78 1.325 -3.68715 0
M  V30 11092 H 1054.48 0.988148 -3.88634 0
M  V30 11093 H 1051.07 -0.393818 -4.26787 0
M  V30 11094 H 1055.25 -1.20869 -4.81357 0
M  V30 11095 H 1050.51 -2.3528 -5.64317 0
M  V30 11096 H 1054.68 -3.1664 -6.20252 0
M  V30 11097 H 1052.31 -3.74435 -6.61591 0
M  V30 11098 N 1053.89 1.57202 -0.111913 0
M  V30 11099 C 1054.85 2.13778 0.826534 0
M  V30 11100 C 1055.85 1.07097 1.19945 0
M  V30 11101 O 1057.04 1.32906 1.12613 0
M  V30 11102 C 1054.17 2.6722 2.11675 0
M  V30 11103 H 1055.36 2.98023 0.334975 0
M  V30 11104 H 1052.92 1.55696 0.137256 0
M  V30 11105 H 1053.65 1.86542 2.65278 0
M  V30 11106 H 1053.44 3.45235 1.8589 0
M  V30 11107 H 1054.93 3.10926 2.78774 0
M  V30 11108 N 1055.36 -0.161842 1.56767 0
M  V30 11109 C 1056.27 -1.21996 2.00385 0
M  V30 11110 C 1057.29 -1.4789 0.916768 0
M  V30 11111 O 1058.47 -1.59852 1.22513 0
M  V30 11112 C 1055.53 -2.53695 2.36305 0
M  V30 11113 C 1054.59 -2.3558 3.58888 0
M  V30 11114 C 1053.82 -3.60998 3.93085 0
M  V30 11115 O 1054.05 -4.6657 3.28129 0
M  V30 11116 O 1052.98 -3.54544 4.86397 0
M  V30 11117 H 1056.81 -0.879701 2.9068 0
M  V30 11118 H 1054.39 -0.369437 1.4476 0
M  V30 11119 H 1056.27 -3.31366 2.60335 0
M  V30 11120 H 1054.95 -2.87281 1.49169 0
M  V30 11121 H 1053.86 -1.55908 3.40064 0
M  V30 11122 H 1055.19 -2.06915 4.46595 0
M  V30 11123 N 1056.84 -1.516 -0.430713 0
M  V30 11124 C 1057.79 -1.73975 -1.54387 0
M  V30 11125 C 1058.78 -0.606222 -1.58181 0
M  V30 11126 O 1059.99 -0.787764 -1.61846 0
M  V30 11127 H 1056.36 -0.549811 -0.513041 0
M  V30 11128 H 1058.34 -2.67274 -1.32692 0
M  V30 11129 C 1057.08 -1.88794 -2.9198 0
M  V30 11130 H 1056.41 -2.75425 -2.89795 0
M  V30 11131 H 1057.85 -2.08458 -3.69217 0
M  V30 11132 C 1056.31 -0.649427 -3.30581 0
M  V30 11133 O 1056.84 0.192823 -4.01237 0
M  V30 11134 N 1055.04 -0.491586 -2.86412 0
M  V30 11135 H 1054.59 -1.17806 -2.29084 0
M  V30 11136 H 1054.55 0.33583 -3.12601 0
M  V30 11137 N 1058.32 0.686584 -1.41858 0
M  V30 11138 C 1059.27 1.82167 -1.4463 0
M  V30 11139 C 1060.26 1.66286 -0.323313 0
M  V30 11140 O 1061.47 1.73038 -0.495773 0
M  V30 11141 H 1057.84 0.600454 -0.452724 0
M  V30 11142 H 1059.81 1.76947 -2.40276 0
M  V30 11143 C 1058.56 3.20248 -1.35412 0
M  V30 11144 H 1057.89 3.33089 -2.21115 0
M  V30 11145 H 1059.33 3.99723 -1.41413 0
M  V30 11146 C 1057.78 3.36832 -0.0674972 0
M  V30 11147 O 1058.31 3.91845 0.884325 0
M  V30 11148 N 1056.52 2.90598 0.011519 0
M  V30 11149 H 1056.07 2.46016 -0.76381 0
M  V30 11150 H 1056.03 3.02072 0.871774 0
M  V30 11151 N 1059.8 1.27835 0.921735 0
M  V30 11152 C 1061.05 1.13904 1.6646 0
M  V30 11153 C 1061.36 -0.313379 1.93073 0
M  V30 11154 O 1062.57 -0.573687 2.6537 0
M  V30 11155 C 1061.02 1.99064 2.99836 0
M  V30 11156 C 1060.63 3.48998 2.80899 0
M  V30 11157 C 1062.37 1.93797 3.77681 0
M  V30 11158 C 1060.28 4.26337 4.09867 0
M  V30 11159 H 1059.21 0.422681 0.624385 0
M  V30 11160 H 1061.86 1.52303 1.02352 0
M  V30 11161 H 1060.24 1.53514 3.65034 0
M  V30 11162 H 1061.42 4.02452 2.24431 0
M  V30 11163 H 1059.73 3.55707 2.16476 0
M  V30 11164 H 1062.33 2.48852 4.73262 0
M  V30 11165 H 1062.67 0.912928 4.06167 0
M  V30 11166 H 1063.21 2.37275 3.19289 0
M  V30 11167 H 1059.94 5.2939 3.86557 0
M  V30 11168 H 1059.46 3.77659 4.65976 0
M  V30 11169 H 1061.14 4.3583 4.78185 0
M  V30 11170 N 1061.28 -1.12907 1.09954 0
M  V30 11171 C 1062.52 -1.83941 0.837255 0
M  V30 11172 C 1062.84 -1.84234 -0.638984 0
M  V30 11173 O 1062.11 -1.30193 -1.46378 0
M  V30 11174 H 1060.69 -0.681115 0.306743 0
M  V30 11175 H 1063.36 -1.36743 1.38879 0
M  V30 11176 H 1062.45 -2.88289 1.19565 0
M  V30 11177 N 1062.75 -0.88754 -1.30232 0
M  V30 11178 C 1063.98 -0.521562 -2.00735 0
M  V30 11179 C 1064.4 0.883247 -1.66073 0
M  V30 11180 O 1063.76 1.58581 -0.878731 0
M  V30 11181 C 1063.81 -0.706521 -3.53611 0
M  V30 11182 O 1062.91 0.246447 -4.11663 0
M  V30 11183 H 1062.25 -0.205216 -0.631492 0
M  V30 11184 H 1064.78 -1.19579 -1.66018 0
M  V30 11185 H 1064.79 -0.606501 -4.03467 0
M  V30 11186 H 1063.47 -1.73076 -3.78177 0
M  V30 11187 H 1062.05 0.0999062 -3.72766 0
M  V30 11188 N 1064.23 1.43628 -0.648757 0
M  V30 11189 C 1065.46 2.06732 -0.166284 0
M  V30 11190 C 1065.88 1.48281 1.15734 0
M  V30 11191 O 1065.24 0.591018 1.71396 0
M  V30 11192 C 1065.29 3.60502 -0.0838732 0
M  V30 11193 O 1064.39 4.01186 0.955185 0
M  V30 11194 H 1063.73 0.657479 -0.0928285 0
M  V30 11195 H 1066.26 1.84208 -0.890421 0
M  V30 11196 H 1066.27 4.07875 0.100923 0
M  V30 11197 H 1064.95 4.02424 -1.05014 0
M  V30 11198 H 1063.53 3.65412 0.743537 0
M  V30 11199 N 1065.71 0.390394 1.52688 0
M  V30 11200 C 1066.66 -0.4591 2.28024 0
M  V30 11201 C 1067.65 -1.06212 1.31967 0
M  V30 11202 O 1068.86 -1.00247 1.49501 0
M  V30 11203 H 1065.23 -0.16681 0.733266 0
M  V30 11204 H 1067.2 0.197747 2.97744 0
M  V30 11205 C 1065.95 -1.5737 3.10048 0
M  V30 11206 H 1065.28 -1.11901 3.83821 0
M  V30 11207 H 1066.72 -2.1423 3.65898 0
M  V30 11208 C 1065.18 -2.53036 2.22429 0
M  V30 11209 O 1065.71 -3.5647 1.85181 0
M  V30 11210 N 1063.91 -2.22802 1.86567 0
M  V30 11211 H 1063.46 -1.38723 2.17057 0
M  V30 11212 H 1063.42 -2.87061 1.28233 0
M  V30 11213 N 1067.19 -1.57141 0.120249 0
M  V30 11214 C 1068.6 -1.82256 -0.404931 0
M  V30 11215 C 1068.95 -1.03748 -1.66526 0
M  V30 11216 O 1068.08 -0.274456 -2.14653 0
M  V30 11217 C 1068.67 -3.30588 -0.741431 0
M  V30 11218 C 1067.23 -3.56379 -1.21124 0
M  V30 11219 C 1066.38 -2.76421 -0.220569 0
M  V30 11220 H 1069.33 -1.54897 0.345361 0
M  V30 11221 H 1069.35 -3.45284 -1.59872 0
M  V30 11222 H 1068.86 -3.87701 0.176036 0
M  V30 11223 H 1066.96 -3.04625 -2.14556 0
M  V30 11224 H 1067.07 -4.64952 -1.1557 0
M  V30 11225 H 1065.44 -2.44666 -0.707857 0
M  V30 11226 H 1066.22 -3.36294 0.690018 0
M  V30 11227 N 1068.67 0.153526 -1.5685 0
M  V30 11228 C 1069.63 1.17362 -1.96873 0
M  V30 11229 C 1070.63 1.36219 -0.854456 0
M  V30 11230 O 1071.82 1.33322 -1.1212 0
M  V30 11231 C 1068.95 2.53523 -2.27901 0
M  V30 11232 H 1070.14 0.830432 -2.88173 0
M  V30 11233 H 1067.7 0.396633 -1.51184 0
M  V30 11234 H 1068.43 2.92824 -1.39371 0
M  V30 11235 H 1068.22 2.41198 -3.09137 0
M  V30 11236 H 1069.71 3.27006 -2.59725 0
M  V30 11237 N 1070.14 1.51827 0.422667 0
M  V30 11238 C 1071.39 1.6522 1.17084 0
M  V30 11239 C 1071.72 0.375508 1.90841 0
M  V30 11240 O 1070.97 -0.641029 1.84903 0
M  V30 11241 C 1071.27 2.81572 2.20119 0
M  V30 11242 C 1070.94 4.20303 1.63268 0
M  V30 11243 C 1069.6 4.5804 1.47488 0
M  V30 11244 C 1071.95 5.06812 1.21618 0
M  V30 11245 C 1069.28 5.79979 0.885531 0
M  V30 11246 C 1071.63 6.29343 0.641071 0
M  V30 11247 C 1070.3 6.65841 0.470286 0
M  V30 11248 H 1069.57 0.604581 0.428442 0
M  V30 11249 H 1072.21 1.85896 0.459874 0
M  V30 11250 H 1070.52 2.55175 2.97309 0
M  V30 11251 H 1072.22 2.89132 2.77856 0
M  V30 11252 H 1068.81 3.90557 1.76531 0
M  V30 11253 H 1072.99 4.78251 1.32624 0
M  V30 11254 H 1068.25 6.06892 0.741105 0
M  V30 11255 H 1072.42 6.9571 0.309888 0
M  V30 11256 H 1070.05 7.60199 0.0115038 0
M  V30 11257 N 1071.62 -0.679052 1.4222 0
M  V30 11258 C 1072.85 -1.47248 1.46058 0
M  V30 11259 C 1073.27 -1.87962 0.0720987 0
M  V30 11260 O 1072.63 -1.5572 -0.928488 0
M  V30 11261 C 1072.68 -2.70067 2.38948 0
M  V30 11262 O 1071.78 -3.68178 1.85791 0
M  V30 11263 H 1071.12 -0.442533 0.495036 0
M  V30 11264 H 1073.65 -0.833263 1.86863 0
M  V30 11265 H 1073.66 -3.18187 2.55385 0
M  V30 11266 H 1072.34 -2.39773 3.39826 0
M  V30 11267 H 1070.92 -3.2719 1.78889 0
M  V30 11268 N 1073.1 -1.28322 -0.914942 0
M  V30 11269 C 1074.05 -1.08788 -2.00373 0
M  V30 11270 C 1075.03 -0.0118996 -1.60896 0
M  V30 11271 O 1076.23 -0.231902 -1.75474 0
M  V30 11272 C 1073.36 -0.750508 -3.34996 0
M  V30 11273 C 1072.44 -1.86527 -3.80879 0
M  V30 11274 N 1072.83 -3.10672 -3.99145 0
M  V30 11275 C 1071.13 -1.75485 -4.10026 0
M  V30 11276 C 1071.83 -3.833 -4.37557 0
M  V30 11277 N 1070.81 -3.11141 -4.45749 0
M  V30 11278 H 1074.61 -2.02984 -2.12544 0
M  V30 11279 H 1072.12 -1.19224 -1.1027 0
M  V30 11280 H 1074.12 -0.591644 -4.1268 0
M  V30 11281 H 1072.78 0.183696 -3.2418 0
M  V30 11282 H 1073.79 -3.46295 -3.85097 0
M  V30 11283 H 1070.47 -0.89234 -4.07852 0
M  V30 11284 H 1071.86 -4.90061 -4.59662 0
M  V30 11285 N 1074.58 1.12322 -1.10551 0
M  V30 11286 C 1075.49 2.21678 -0.767862 0
M  V30 11287 C 1076.5 1.72404 0.235132 0
M  V30 11288 O 1077.68 2.01266 0.0735912 0
M  V30 11289 C 1074.75 3.46087 -0.205999 0
M  V30 11290 C 1073.81 4.10195 -1.26642 0
M  V30 11291 C 1073.04 5.28666 -0.731274 0
M  V30 11292 O 1073.26 5.68686 0.44189 0
M  V30 11293 O 1072.2 5.83121 -1.49176 0
M  V30 11294 H 1076.02 2.52955 -1.6807 0
M  V30 11295 H 1073.61 1.2068 -0.880728 0
M  V30 11296 H 1075.49 4.21273 0.103435 0
M  V30 11297 H 1074.16 3.16484 0.679685 0
M  V30 11298 H 1073.07 3.36784 -1.62873 0
M  V30 11299 H 1074.4 4.43957 -2.12516 0
M  V30 11300 N 1076.06 0.894434 1.2976 0
M  V30 11301 C 1076.99 0.3847 2.30309 0
M  V30 11302 C 1077.97 -0.537486 1.61385 0
M  V30 11303 O 1079.15 -0.449332 1.8893 0
M  V30 11304 C 1076.28 -0.393311 3.45066 0
M  V30 11305 C 1075.24 0.437968 4.25753 0
M  V30 11306 C 1074.56 -0.467221 5.32655 0
M  V30 11307 C 1075.86 1.6851 4.9437 0
M  V30 11308 H 1077.56 1.22496 2.73194 0
M  V30 11309 H 1075.1 0.590471 1.31337 0
M  V30 11310 H 1077.06 -0.760614 4.14479 0
M  V30 11311 H 1075.78 -1.2673 3.0101 0
M  V30 11312 H 1074.44 0.787533 3.58041 0
M  V30 11313 H 1074.09 -1.33919 4.84845 0
M  V30 11314 H 1073.79 0.0852482 5.87538 0
M  V30 11315 H 1075.31 -0.830833 6.04921 0
M  V30 11316 H 1076.72 1.38784 5.56248 0
M  V30 11317 H 1075.12 2.17849 5.59162 0
M  V30 11318 H 1076.19 2.42412 4.19958 0
M  V30 11319 N 1077.53 -1.43282 0.656365 0
M  V30 11320 C 1078.78 -2.02075 0.171293 0
M  V30 11321 C 1079.11 -1.51682 -1.21269 0
M  V30 11322 O 1078.39 -0.711243 -1.81029 0
M  V30 11323 C 1078.67 -3.59621 0.185602 0
M  V30 11324 C 1078.52 -4.20239 1.60373 0
M  V30 11325 C 1079.84 -4.37515 -0.476289 0
M  V30 11326 H 1076.96 -0.73424 0.0637185 0
M  V30 11327 H 1079.6 -1.70539 0.837648 0
M  V30 11328 H 1077.75 -3.86619 -0.381804 0
M  V30 11329 H 1079.43 -4.0426 2.22197 0
M  V30 11330 H 1077.67 -3.76769 2.15006 0
M  V30 11331 H 1078.34 -5.29333 1.56557 0
M  V30 11332 H 1080.82 -4.16099 0.00651073 0
M  V30 11333 H 1079.69 -5.47169 -0.435562 0
M  V30 11334 H 1079.95 -4.14003 -1.55093 0
M  V30 11335 N 1079.01 -0.398486 -1.52479 0
M  V30 11336 C 1080.24 0.180557 -2.06111 0
M  V30 11337 C 1080.66 1.39751 -1.26945 0
M  V30 11338 O 1080.01 1.79699 -0.318497 0
M  V30 11339 C 1080.06 0.541573 -3.5742 0
M  V30 11340 O 1079.79 -0.627043 -4.33589 0
M  V30 11341 C 1081.29 1.17549 -4.27431 0
M  V30 11342 H 1078.51 0.0250754 -0.670531 0
M  V30 11343 H 1081.05 -0.566368 -1.96501 0
M  V30 11344 H 1079.21 1.23839 -3.67073 0
M  V30 11345 H 1079.62 -0.328233 -5.23472 0
M  V30 11346 H 1081.09 1.37839 -5.34513 0
M  V30 11347 H 1081.57 2.14553 -3.83228 0
M  V30 11348 H 1082.18 0.51918 -4.22119 0
M  V30 11349 N 1080.49 1.57075 -0.12858 0
M  V30 11350 C 1081.42 2.18833 0.814519 0
M  V30 11351 C 1082.4 1.13114 1.2704 0
M  V30 11352 O 1083.59 1.41387 1.33129 0
M  V30 11353 C 1080.72 2.79535 2.06101 0
M  V30 11354 C 1079.67 3.9092 1.74257 0
M  V30 11355 C 1079 4.38473 3.06015 0
M  V30 11356 C 1080.3 5.1257 1.00345 0
M  V30 11357 H 1081.99 2.97895 0.299862 0
M  V30 11358 H 1079.54 1.4329 0.14279 0
M  V30 11359 H 1081.49 3.21401 2.72543 0
M  V30 11360 H 1080.21 1.97777 2.59907 0
M  V30 11361 H 1078.87 3.49645 1.102 0
M  V30 11362 H 1078.52 3.53561 3.57776 0
M  V30 11363 H 1078.22 5.13591 2.85479 0
M  V30 11364 H 1079.75 4.82997 3.7356 0
M  V30 11365 H 1081.16 5.51395 1.56959 0
M  V30 11366 H 1079.56 5.93333 0.898693 0
M  V30 11367 H 1080.63 4.84899 -0.0081335 0
M  V30 11368 N 1081.97 -0.145205 1.5693 0
M  V30 11369 C 1083.38 -0.705089 1.72874 0
M  V30 11370 C 1083.73 -1.81577 0.743261 0
M  V30 11371 O 1082.86 -2.16214 -0.0897153 0
M  V30 11372 C 1083.45 -1.28578 3.13454 0
M  V30 11373 C 1082.01 -1.79221 3.30994 0
M  V30 11374 C 1081.16 -0.681392 2.68798 0
M  V30 11375 H 1084.11 0.0804798 1.58496 0
M  V30 11376 H 1084.13 -2.15558 3.13552 0
M  V30 11377 H 1083.64 -0.477186 3.85155 0
M  V30 11378 H 1081.74 -2.62642 2.64292 0
M  V30 11379 H 1081.86 -1.91969 4.38959 0
M  V30 11380 H 1080.22 -1.10847 2.29314 0
M  V30 11381 H 1081 0.115786 3.43105 0
M  V30 11382 N 1083.45 -1.52049 -0.414609 0
M  V30 11383 C 1084.36 -1.7788 -1.52958 0
M  V30 11384 C 1085.37 -0.66408 -1.60829 0
M  V30 11385 O 1086.55 -0.948882 -1.77646 0
M  V30 11386 C 1083.61 -1.91906 -2.88744 0
M  V30 11387 C 1082.68 -3.15803 -2.90804 0
M  V30 11388 C 1081.91 -3.29151 -4.20114 0
M  V30 11389 O 1082.13 -2.47892 -5.13718 0
M  V30 11390 O 1081.07 -4.2227 -4.28919 0
M  V30 11391 H 1084.89 -2.72506 -1.34067 0
M  V30 11392 H 1082.48 -1.36826 -0.599918 0
M  V30 11393 H 1084.36 -2.02986 -3.6929 0
M  V30 11394 H 1083.03 -1.00468 -3.07714 0
M  V30 11395 H 1081.94 -3.10185 -2.09131 0
M  V30 11396 H 1083.27 -4.07004 -2.76783 0
M  V30 11397 N 1084.93 0.6715 -1.42579 0
M  V30 11398 C 1086.15 1.46471 -1.46836 0
M  V30 11399 C 1086.58 1.87921 -0.0820658 0
M  V30 11400 O 1085.93 1.5621 0.920217 0
M  V30 11401 C 1085.98 2.68796 -2.40377 0
M  V30 11402 O 1085.09 3.67188 -1.87741 0
M  V30 11403 H 1084.43 0.439901 -0.497376 0
M  V30 11404 H 1086.96 0.823342 -1.87303 0
M  V30 11405 H 1086.97 3.16828 -2.57068 0
M  V30 11406 H 1085.64 2.37967 -3.41093 0
M  V30 11407 H 1084.22 3.26237 -1.80621 0
M  V30 11408 N 1086.4 1.28806 0.908124 0
M  V30 11409 C 1087.34 1.09018 2.01613 0
M  V30 11410 C 1088.35 0.0402059 1.6275 0
M  V30 11411 O 1089.54 0.283853 1.76229 0
M  V30 11412 C 1086.64 0.635712 3.32884 0
M  V30 11413 C 1085.81 1.76235 4.00325 0
M  V30 11414 C 1084.87 1.3003 5.09881 0
M  V30 11415 O 1083.9 2.00354 5.32773 0
M  V30 11416 N 1085.1 0.166575 5.80261 0
M  V30 11417 H 1087.86 2.0444 2.19144 0
M  V30 11418 H 1085.42 1.20633 1.07978 0
M  V30 11419 H 1087.42 0.310097 4.0351 0
M  V30 11420 H 1085.99 -0.225816 3.11783 0
M  V30 11421 H 1085.21 2.25727 3.23173 0
M  V30 11422 H 1086.49 2.51796 4.42127 0
M  V30 11423 H 1085.89 -0.419934 5.64139 0
M  V30 11424 H 1084.45 -0.0997281 6.51724 0
M  V30 11425 N 1087.88 -1.11734 1.11145 0
M  V30 11426 C 1088.84 -2.15868 0.770303 0
M  V30 11427 C 1089.84 -1.59438 -0.208842 0
M  V30 11428 O 1091.03 -1.74193 0.0152516 0
M  V30 11429 C 1088.17 -3.40603 0.142303 0
M  V30 11430 H 1089.36 -2.4756 1.69276 0
M  V30 11431 H 1086.91 -1.26867 0.912929 0
M  V30 11432 H 1087.65 -3.14517 -0.790526 0
M  V30 11433 H 1087.43 -3.8284 0.847087 0
M  V30 11434 H 1088.92 -4.17523 -0.0803608 0
M  V30 11435 N 1089.36 -0.901303 -1.29284 0
M  V30 11436 C 1090.77 -0.576317 -1.77582 0
M  V30 11437 C 1091.12 0.908078 -1.73921 0
M  V30 11438 O 1090.25 1.71006 -1.32611 0
M  V30 11439 C 1090.84 -1.03938 -3.22463 0
M  V30 11440 C 1089.4 -0.765533 -3.68533 0
M  V30 11441 C 1088.55 -1.21318 -2.49354 0
M  V30 11442 H 1091.5 -1.08386 -1.15923 0
M  V30 11443 H 1091.52 -0.375367 -3.78644 0
M  V30 11444 H 1091.03 -2.11977 -3.25096 0
M  V30 11445 H 1089.13 0.302176 -3.71373 0
M  V30 11446 H 1089.25 -1.36454 -4.59257 0
M  V30 11447 H 1087.61 -0.632141 -2.46731 0
M  V30 11448 H 1088.39 -2.30165 -2.54714 0
M  V30 11449 N 1090.84 1.42931 -0.663954 0
M  V30 11450 C 1091.8 2.29197 0.0117626 0
M  V30 11451 C 1092.8 1.42767 0.739875 0
M  V30 11452 O 1093.99 1.64278 0.579509 0
M  V30 11453 C 1091.12 3.2505 1.02738 0
M  V30 11454 H 1092.32 2.90438 -0.747391 0
M  V30 11455 H 1089.87 1.5039 -0.425733 0
M  V30 11456 H 1090.6 2.68726 1.8154 0
M  V30 11457 H 1090.39 3.88785 0.508809 0
M  V30 11458 H 1091.88 3.89771 1.49893 0
M  V30 11459 N 1092.32 0.406567 1.52266 0
M  V30 11460 C 1093.59 -0.228477 1.94261 0
M  V30 11461 C 1093.97 -1.62848 1.34328 0
M  V30 11462 O 1093.32 -2.22549 0.518082 0
M  V30 11463 C 1093.53 -0.237401 3.48192 0
M  V30 11464 C 1094.88 -0.457997 4.22123 0
M  V30 11465 O 1095.9 -0.316868 3.54788 0
M  V30 11466 O 1094.76 -0.735946 5.41522 0
M  V30 11467 H 1091.86 -0.146492 0.813922 0
M  V30 11468 H 1094.4 0.462325 1.63281 0
M  V30 11469 H 1093.17 0.742556 3.8419 0
M  V30 11470 H 1092.8 -0.972408 3.85526 0
M  V30 11471 N 1093.79 -1.57004 0.136909 0
M  V30 11472 C 1094.72 -2.19262 -0.802902 0
M  V30 11473 C 1095.71 -1.13786 -1.26439 0
M  V30 11474 O 1096.89 -1.42091 -1.32377 0
M  V30 11475 C 1094.02 -2.80624 -2.04615 0
M  V30 11476 C 1092.97 -3.91839 -1.72181 0
M  V30 11477 C 1092.3 -4.4009 -3.03686 0
M  V30 11478 C 1093.6 -5.13095 -0.976249 0
M  V30 11479 H 1095.29 -2.98049 -0.28406 0
M  V30 11480 H 1092.84 -1.43364 -0.135189 0
M  V30 11481 H 1094.79 -3.22842 -2.70834 0
M  V30 11482 H 1093.52 -1.99153 -2.58855 0
M  V30 11483 H 1092.18 -3.50224 -1.08344 0
M  V30 11484 H 1091.82 -3.55454 -3.55896 0
M  V30 11485 H 1091.52 -5.15098 -2.82751 0
M  V30 11486 H 1093.05 -4.84971 -3.70993 0
M  V30 11487 H 1094.46 -5.5222 -1.54033 0
M  V30 11488 H 1092.86 -5.93801 -0.867214 0
M  V30 11489 H 1093.93 -4.84888 0.0338488 0
M  V30 11490 N 1095.27 0.136881 -1.57004 0
M  V30 11491 C 1096.52 0.8461 -1.83536 0
M  V30 11492 C 1096.84 1.81246 -0.71937 0
M  V30 11493 O 1096.11 1.94191 0.258161 0
M  V30 11494 H 1094.69 0.315446 -0.677128 0
M  V30 11495 H 1097.35 0.128469 -1.94476 0
M  V30 11496 H 1096.45 1.40221 -2.78827 0
M  V30 11497 N 1096.75 1.52266 0.40654 0
M  V30 11498 C 1098 1.66123 1.15097 0
M  V30 11499 C 1098.32 0.394836 1.90961 0
M  V30 11500 O 1097.59 -0.590349 1.86793 0
M  V30 11501 H 1096.17 0.612317 0.427875 0
M  V30 11502 H 1098.83 1.89318 0.463106 0
M  V30 11503 H 1097.93 2.50351 1.86361 0
M  V30 11504 N 1098.23 -0.663929 1.42933 0
M  V30 11505 C 1099.48 -1.42111 1.43697 0
M  V30 11506 C 1099.8 -1.94913 0.0583858 0
M  V30 11507 O 1099.07 -1.73757 -0.904719 0
M  V30 11508 H 1097.65 -0.527391 0.529026 0
M  V30 11509 H 1100.31 -0.783766 1.78446 0
M  V30 11510 H 1099.41 -2.26877 2.1432 0
M  V30 11511 N 1099.71 -1.29285 -0.901281 0
M  V30 11512 C 1100.65 -1.1428 -2.00521 0
M  V30 11513 C 1101.62 -0.0365428 -1.6606 0
M  V30 11514 O 1102.81 -0.203771 -1.89709 0
M  V30 11515 C 1099.95 -0.823671 -3.35126 0
M  V30 11516 C 1099.06 -2.01021 -3.8238 0
M  V30 11517 C 1098.2 -1.6306 -5.05554 0
M  V30 11518 C 1097.24 -2.78304 -5.45173 0
M  V30 11519 N 1096.37 -2.4075 -6.59533 0
M  V30 11520 H 1101.21 -2.08729 -2.12688 0
M  V30 11521 H 1098.75 -1.0387 -1.04161 0
M  V30 11522 H 1100.71 -0.61934 -4.12577 0
M  V30 11523 H 1099.34 0.0839113 -3.22691 0
M  V30 11524 H 1098.39 -2.32629 -3.00978 0
M  V30 11525 H 1099.7 -2.8738 -4.07694 0
M  V30 11526 H 1098.86 -1.38906 -5.90584 0
M  V30 11527 H 1097.59 -0.738464 -4.82077 0
M  V30 11528 H 1096.6 -3.03142 -4.58678 0
M  V30 11529 H 1097.82 -3.68179 -5.70632 0
M  V30 11530 H 1095.77 -1.54022 -6.37662 0
M  V30 11531 H 1095.69 -3.20643 -6.84634 0
M  V30 11532 H 1096.96 -2.19912 -7.47836 0
M  V30 11533 N 1101.18 1.11143 -1.11736 0
M  V30 11534 C 1102.12 2.16467 -0.722299 0
M  V30 11535 C 1103.1 1.60118 0.283006 0
M  V30 11536 O 1104.28 1.87651 0.178696 0
M  V30 11537 C 1101.41 3.38632 -0.0679339 0
M  V30 11538 C 1100.45 4.13654 -1.03888 0
M  V30 11539 S 1101.29 4.70187 -2.5629 0
M  V30 11540 C 1102.44 5.95671 -1.92163 0
M  V30 11541 H 1102.67 2.49644 -1.61447 0
M  V30 11542 H 1100.21 1.22816 -0.935708 0
M  V30 11543 H 1102.17 4.09378 0.303253 0
M  V30 11544 H 1100.83 3.03709 0.80124 0
M  V30 11545 H 1100.02 5.01221 -0.528522 0
M  V30 11546 H 1099.62 3.48683 -1.35265 0
M  V30 11547 H 1101.91 6.65681 -1.25994 0
M  V30 11548 H 1102.86 6.51357 -2.77741 0
M  V30 11549 H 1103.26 5.47359 -1.3805 0
M  V30 11550 N 1102.66 0.908147 1.28804 0
M  V30 11551 C 1103.59 0.409106 2.29888 0
M  V30 11552 C 1104.57 -0.520338 1.61946 0
M  V30 11553 O 1105.76 -0.429268 1.89396 0
M  V30 11554 C 1102.89 -0.35669 3.45463 0
M  V30 11555 C 1101.84 0.4831 4.25265 0
M  V30 11556 C 1101.17 -0.4107 5.3312 0
M  V30 11557 C 1102.47 1.73744 4.92555 0
M  V30 11558 H 1104.16 1.25386 2.7188 0
M  V30 11559 H 1101.71 0.604368 1.30703 0
M  V30 11560 H 1103.66 -0.71661 4.15262 0
M  V30 11561 H 1102.39 -1.2353 3.02337 0
M  V30 11562 H 1101.04 0.825464 3.57186 0
M  V30 11563 H 1100.69 -1.28769 4.86238 0
M  V30 11564 H 1100.39 0.14756 5.87415 0
M  V30 11565 H 1101.92 -0.766626 6.05768 0
M  V30 11566 H 1103.33 1.44676 5.54745 0
M  V30 11567 H 1101.73 2.23767 5.5682 0
M  V30 11568 H 1102.8 2.46853 4.17363 0
M  V30 11569 N 1104.14 -1.42577 0.671525 0
M  V30 11570 C 1105.07 -2.33499 0.00506984 0
M  V30 11571 C 1106.05 -1.50497 -0.792763 0
M  V30 11572 O 1107.24 -1.79109 -0.750574 0
M  V30 11573 C 1104.37 -3.34077 -0.949194 0
M  V30 11574 C 1103.32 -4.27208 -0.260187 0
M  V30 11575 C 1102.65 -5.17968 -1.32716 0
M  V30 11576 C 1103.95 -5.15192 0.858772 0
M  V30 11577 H 1105.64 -2.89477 0.764407 0
M  V30 11578 H 1103.19 -1.39191 0.369043 0
M  V30 11579 H 1105.14 -3.96594 -1.42448 0
M  V30 11580 H 1103.86 -2.76396 -1.73991 0
M  V30 11581 H 1102.52 -3.66082 0.194834 0
M  V30 11582 H 1102.17 -4.56615 -2.10979 0
M  V30 11583 H 1101.87 -5.81104 -0.871293 0
M  V30 11584 H 1103.39 -5.83359 -1.80345 0
M  V30 11585 H 1104.81 -5.71412 0.464844 0
M  V30 11586 H 1103.21 -5.87144 1.24023 0
M  V30 11587 H 1104.28 -4.53787 1.70895 0
M  V30 11588 N 1105.62 -0.414636 -1.52048 0
M  V30 11589 C 1106.87 0.16073 -2.01059 0
M  V30 11590 C 1107.18 1.45753 -1.30443 0
M  V30 11591 O 1108.39 2.11448 -1.703 0
M  V30 11592 C 1106.84 0.336993 -3.58319 0
M  V30 11593 C 1106.45 -0.948037 -4.37854 0
M  V30 11594 C 1108.19 0.867353 -4.15545 0
M  V30 11595 C 1106.1 -0.738662 -5.86769 0
M  V30 11596 H 1105.03 0.0638419 -0.751292 0
M  V30 11597 H 1107.68 -0.540925 -1.75346 0
M  V30 11598 H 1106.06 1.10111 -3.80383 0
M  V30 11599 H 1107.24 -1.71873 -4.27547 0
M  V30 11600 H 1105.55 -1.40522 -3.91972 0
M  V30 11601 H 1108.15 1.04012 -5.24486 0
M  V30 11602 H 1108.49 1.84358 -3.73253 0
M  V30 11603 H 1109.03 0.162148 -3.97469 0
M  V30 11604 H 1105.77 -1.6866 -6.3343 0
M  V30 11605 H 1105.29 -0.00736294 -5.998 0
M  V30 11606 H 1106.96 -0.382978 -6.45866 0
M  V30 11607 N 1107.1 1.56929 -0.145233 0
M  V30 11608 C 1108.06 2.15483 0.781002 0
M  V30 11609 C 1109.06 1.09617 1.17647 0
M  V30 11610 O 1110.25 1.35265 1.09768 0
M  V30 11611 C 1107.38 2.7165 2.05959 0
M  V30 11612 H 1108.57 2.98667 0.271685 0
M  V30 11613 H 1106.13 1.55952 0.1042 0
M  V30 11614 H 1106.86 1.92127 2.61262 0
M  V30 11615 H 1106.65 3.491 1.78526 0
M  V30 11616 H 1108.14 3.16769 2.72116 0
M  V30 11617 N 1108.58 -0.128553 1.57075 0
M  V30 11618 C 1109.82 -0.836536 1.83535 0
M  V30 11619 C 1110.14 -1.81491 0.7294 0
M  V30 11620 O 1111.34 -2.56838 0.880128 0
M  V30 11621 C 1109.8 -1.53836 3.25365 0
M  V30 11622 C 1109.41 -0.601454 4.43944 0
M  V30 11623 C 1111.15 -2.23204 3.61082 0
M  V30 11624 C 1109.06 -1.30596 5.768 0
M  V30 11625 H 1107.99 -0.316142 0.684522 0
M  V30 11626 H 1110.64 -0.0892555 1.83283 0
M  V30 11627 H 1109.02 -2.33192 3.20058 0
M  V30 11628 H 1110.2 0.158209 4.60528 0
M  V30 11629 H 1108.51 -0.0152393 4.16397 0
M  V30 11630 H 1111.11 -2.76585 4.57608 0
M  V30 11631 H 1111.45 -3.0056 2.88044 0
M  V30 11632 H 1111.98 -1.50746 3.68131 0
M  V30 11633 H 1108.72 -0.573874 6.52983 0
M  V30 11634 H 1108.24 -2.03787 5.6412 0
M  V30 11635 H 1109.92 -1.8418 6.20231 0
M  V30 11636 N 1110.05 -1.5248 -0.398459 0
M  V30 11637 C 1110.98 -1.79549 -1.49279 0
M  V30 11638 C 1111.96 -0.647004 -1.57315 0
M  V30 11639 O 1113.15 -0.893661 -1.72416 0
M  V30 11640 C 1110.28 -1.95582 -2.86993 0
M  V30 11641 C 1109.23 -3.1123 -2.93803 0
M  V30 11642 C 1108.56 -3.12501 -4.33874 0
M  V30 11643 C 1109.86 -4.50485 -2.64312 0
M  V30 11644 H 1111.55 -2.71187 -1.26877 0
M  V30 11645 H 1109.1 -1.30492 -0.608924 0
M  V30 11646 H 1111.05 -2.13102 -3.63546 0
M  V30 11647 H 1109.78 -1.00625 -3.10712 0
M  V30 11648 H 1108.44 -2.93477 -2.19697 0
M  V30 11649 H 1108.08 -2.15245 -4.54619 0
M  V30 11650 H 1107.78 -3.90183 -4.39353 0
M  V30 11651 H 1109.31 -3.32164 -5.12347 0
M  V30 11652 H 1110.72 -4.68387 -3.30585 0
M  V30 11653 H 1109.12 -5.30163 -2.81153 0
M  V30 11654 H 1110.19 -4.57848 -1.59696 0
M  V30 11655 N 1111.53 0.65634 -1.43283 0
M  V30 11656 C 1112.78 1.41347 -1.44449 0
M  V30 11657 C 1113.1 1.94879 -0.0687217 0
M  V30 11658 O 1112.37 1.74235 0.895492 0
M  V30 11659 H 1110.95 0.524578 -0.531815 0
M  V30 11660 H 1113.61 0.774292 -1.7886 0
M  V30 11661 H 1112.71 2.25737 -2.15521 0
M  V30 11662 N 1113.01 1.29761 0.894412 0
M  V30 11663 C 1114.23 1.21064 1.68399 0
M  V30 11664 C 1114.66 -0.224608 1.86754 0
M  V30 11665 O 1114.02 -1.16199 1.39167 0
M  V30 11666 C 1114.07 1.93468 3.04306 0
M  V30 11667 O 1113.17 1.25533 3.9283 0
M  V30 11668 H 1112.51 0.419223 0.514925 0
M  V30 11669 H 1115.04 1.71421 1.11696 0
M  V30 11670 H 1115.05 2.02127 3.54413 0
M  V30 11671 H 1113.73 2.97857 2.90265 0
M  V30 11672 H 1112.3 1.25168 3.51266 0
M  V30 11673 N 1114.49 -1.10549 1.12324 0
M  V30 11674 C 1115.45 -2.15039 0.793156 0
M  V30 11675 C 1116.45 -1.59651 -0.19192 0
M  V30 11676 O 1117.64 -1.74167 0.0337262 0
M  V30 11677 C 1114.77 -3.40433 0.17842 0
M  V30 11678 H 1115.97 -2.4575 1.71892 0
M  V30 11679 H 1113.52 -1.25892 0.926333 0
M  V30 11680 H 1114.25 -3.15338 -0.757122 0
M  V30 11681 H 1114.04 -3.81921 0.887645 0
M  V30 11682 H 1115.53 -4.17584 -0.0360724 0
M  V30 11683 N 1115.97 -0.914965 -1.28321 0
M  V30 11684 C 1117.21 -0.547665 -1.94538 0
M  V30 11685 C 1117.53 0.911834 -1.72368 0
M  V30 11686 O 1116.8 1.64481 -1.06408 0
M  V30 11687 H 1115.38 -0.199549 -0.719853 0
M  V30 11688 H 1118.05 -1.16459 -1.5628 0
M  V30 11689 H 1117.14 -0.743138 -3.03124 0
M  V30 11690 N 1117.44 1.42219 -0.679077 0
M  V30 11691 C 1118.38 2.28152 0.0468359 0
M  V30 11692 C 1119.35 1.41307 0.804433 0
M  V30 11693 O 1120.54 1.70744 0.798673 0
M  V30 11694 C 1117.67 3.21236 1.07355 0
M  V30 11695 C 1116.71 4.24515 0.411042 0
M  V30 11696 S 1117.54 5.28958 -0.834506 0
M  V30 11697 C 1118.7 6.25608 0.191029 0
M  V30 11698 H 1118.93 2.89371 -0.682045 0
M  V30 11699 H 1116.47 1.47112 -0.468767 0
M  V30 11700 H 1118.42 3.75402 1.66082 0
M  V30 11701 H 1117.09 2.59145 1.7749 0
M  V30 11702 H 1116.28 4.89849 1.1859 0
M  V30 11703 H 1115.88 3.73859 -0.102742 0
M  V30 11704 H 1118.17 6.69323 1.04944 0
M  V30 11705 H 1119.12 7.06806 -0.427959 0
M  V30 11706 H 1119.52 5.61926 0.538422 0
M  V30 11707 N 1118.92 0.422693 1.51826 0
M  V30 11708 C 1120.15 -0.147744 2.06372 0
M  V30 11709 C 1120.56 -1.37714 1.29152 0
M  V30 11710 O 1119.92 -1.7917 0.347046 0
M  V30 11711 C 1119.97 -0.484642 3.58237 0
M  V30 11712 O 1119.69 0.695944 4.32537 0
M  V30 11713 C 1121.19 -1.10734 4.29247 0
M  V30 11714 H 1118.41 -0.0144047 0.670845 0
M  V30 11715 H 1120.96 0.597558 1.95575 0
M  V30 11716 H 1119.11 -1.17984 3.68997 0
M  V30 11717 H 1119.53 0.411471 5.22884 0
M  V30 11718 H 1121 -1.29318 5.36639 0
M  V30 11719 H 1121.48 -2.08429 3.86593 0
M  V30 11720 H 1122.08 -0.451958 4.22892 0
M  V30 11721 N 1120.4 -1.5685 0.153553 0
M  V30 11722 C 1121.64 -1.98226 -0.498586 0
M  V30 11723 C 1122 -1.03671 -1.61605 0
M  V30 11724 O 1123.2 -1.34117 -2.32951 0
M  V30 11725 C 1121.48 -3.43539 -0.985678 0
M  V30 11726 S 1123.03 -4.0694 -1.6415 0
M  V30 11727 H 1119.85 -0.692533 -0.160993 0
M  V30 11728 H 1122.45 -1.93936 0.246817 0
M  V30 11729 H 1121.16 -4.10081 -0.161708 0
M  V30 11730 H 1120.69 -3.51557 -1.76555 0
M  V30 11731 H 1122.7 -4.0053 -2.929 0
M  V30 11732 N 1121.88 0.120221 -1.57141 0
M  V30 11733 C 1122.81 1.14876 -2.03287 0
M  V30 11734 C 1123.79 1.43259 -0.917112 0
M  V30 11735 O 1124.97 1.53721 -1.18674 0
M  V30 11736 C 1122.1 2.47525 -2.43616 0
M  V30 11737 C 1121.06 2.33607 -3.58625 0
M  V30 11738 C 1120.38 3.71207 -3.84849 0
M  V30 11739 C 1121.68 1.79761 -4.90391 0
M  V30 11740 H 1123.38 0.764943 -2.89463 0
M  V30 11741 H 1120.92 0.366516 -1.39258 0
M  V30 11742 H 1122.88 3.19728 -2.74504 0
M  V30 11743 H 1121.6 2.87794 -1.54409 0
M  V30 11744 H 1120.26 1.63853 -3.27945 0
M  V30 11745 H 1119.91 4.0896 -2.9285 0
M  V30 11746 H 1119.61 3.62749 -4.62263 0
M  V30 11747 H 1121.13 4.44917 -4.18188 0
M  V30 11748 H 1122.55 2.4178 -5.19822 0
M  V30 11749 H 1120.94 1.82126 -5.71795 0
M  V30 11750 H 1122.01 0.755087 -4.78985 0
M  V30 11751 N 1123.36 1.52689 0.390367 0
M  V30 11752 C 1124.58 1.71541 1.15678 0
M  V30 11753 C 1125 0.433171 1.83764 0
M  V30 11754 O 1124.36 -0.592248 1.72623 0
M  V30 11755 C 1124.41 2.864 2.20584 0
M  V30 11756 O 1124.13 4.0966 1.55274 0
M  V30 11757 C 1125.63 3.1692 3.09962 0
M  V30 11758 H 1122.85 0.574381 0.346883 0
M  V30 11759 H 1125.39 1.99332 0.456851 0
M  V30 11760 H 1123.55 2.61075 2.86214 0
M  V30 11761 H 1123.96 4.73802 2.2497 0
M  V30 11762 H 1125.44 4.00755 3.79604 0
M  V30 11763 H 1125.91 2.31245 3.73393 0
M  V30 11764 H 1126.52 3.4408 2.49979 0
M  V30 11765 N 1124.83 -0.648732 1.43629 0
M  V30 11766 C 1126.08 -1.41066 1.45699 0
M  V30 11767 C 1126.41 -1.94024 0.082612 0
M  V30 11768 O 1125.69 -1.7257 -0.897207 0
M  V30 11769 C 1125.97 -2.58882 2.50304 0
M  V30 11770 C 1125.82 -2.11387 3.97033 0
M  V30 11771 C 1127.14 -3.61092 2.51597 0
M  V30 11772 H 1124.26 -0.511591 0.530512 0
M  V30 11773 H 1126.9 -0.735069 1.75205 0
M  V30 11774 H 1125.05 -3.16518 2.25274 0
M  V30 11775 H 1126.73 -1.58718 4.33136 0
M  V30 11776 H 1124.97 -1.4272 4.0965 0
M  V30 11777 H 1125.64 -2.96129 4.65845 0
M  V30 11778 H 1128.12 -3.13223 2.73917 0
M  V30 11779 H 1126.99 -4.41071 3.26722 0
M  V30 11780 H 1127.25 -4.13985 1.55141 0
M  V30 11781 N 1126.31 -1.30234 -0.887518 0
M  V30 11782 C 1127.24 -1.18969 -2.00919 0
M  V30 11783 C 1128.22 -0.080952 -1.69907 0
M  V30 11784 O 1129.41 -0.262546 -1.92417 0
M  V30 11785 C 1126.54 -0.878094 -3.36016 0
M  V30 11786 C 1125.49 -1.94449 -3.81279 0
M  V30 11787 C 1124.82 -1.48594 -5.13638 0
M  V30 11788 C 1126.12 -3.35519 -4.00281 0
M  V30 11789 H 1127.81 -2.12808 -2.10602 0
M  V30 11790 H 1125.36 -1.02454 -1.01189 0
M  V30 11791 H 1127.31 -0.785954 -4.14006 0
M  V30 11792 H 1126.04 0.0959779 -3.26459 0
M  V30 11793 H 1124.69 -2.02622 -3.05516 0
M  V30 11794 H 1124.34 -0.500204 -5.00507 0
M  V30 11795 H 1124.04 -2.19921 -5.44893 0
M  V30 11796 H 1125.57 -1.40754 -5.94156 0
M  V30 11797 H 1126.98 -3.30119 -4.68716 0
M  V30 11798 H 1125.38 -4.0491 -4.42909 0
M  V30 11799 H 1126.45 -3.77597 -3.04218 0
M  V30 11800 N 1127.79 1.09952 -1.12909 0
M  V30 11801 C 1128.72 2.18477 -0.824014 0
M  V30 11802 C 1129.7 1.68744 0.214324 0
M  V30 11803 O 1130.89 1.94057 0.0744281 0
M  V30 11804 C 1128.02 3.46143 -0.283308 0
M  V30 11805 C 1126.97 4.09178 -1.25528 0
M  V30 11806 C 1126.3 5.31604 -0.574574 0
M  V30 11807 C 1127.6 4.52308 -2.6118 0
M  V30 11808 H 1129.29 2.44254 -1.73148 0
M  V30 11809 H 1126.84 1.17394 -0.833952 0
M  V30 11810 H 1128.79 4.21361 -0.057583 0
M  V30 11811 H 1127.51 3.19872 0.659525 0
M  V30 11812 H 1126.17 3.35973 -1.4669 0
M  V30 11813 H 1125.82 5.01611 0.37356 0
M  V30 11814 H 1125.52 5.74732 -1.22299 0
M  V30 11815 H 1127.04 6.0955 -0.358004 0
M  V30 11816 H 1128.46 5.18776 -2.44017 0
M  V30 11817 H 1126.86 5.06302 -3.22147 0
M  V30 11818 H 1127.93 3.64977 -3.19249 0
M  V30 11819 N 1129.27 0.921757 1.27833 0
M  V30 11820 C 1130.23 0.420978 2.25301 0
M  V30 11821 C 1131.23 -0.457158 1.54165 0
M  V30 11822 O 1132.42 -0.259079 1.72263 0
M  V30 11823 C 1129.55 -0.395501 3.38598 0
M  V30 11824 H 1130.75 1.28206 2.71115 0
M  V30 11825 H 1128.3 0.701893 1.39654 0
M  V30 11826 H 1129.03 -1.27565 2.98157 0
M  V30 11827 H 1128.82 0.234029 3.91401 0
M  V30 11828 H 1130.31 -0.736444 4.11055 0
M  V30 11829 N 1130.75 -1.41857 0.686609 0
M  V30 11830 C 1131.99 -2.01368 0.213801 0
M  V30 11831 C 1132.32 -1.5434 -1.18361 0
M  V30 11832 O 1131.58 -0.741447 -1.81111 0
M  V30 11833 C 1131.88 -3.56783 0.209951 0
M  V30 11834 C 1131.54 -4.23288 1.55365 0
M  V30 11835 C 1130.2 -4.41169 1.92154 0
M  V30 11836 C 1132.56 -4.6066 2.43807 0
M  V30 11837 C 1129.88 -4.93697 3.16986 0
M  V30 11838 C 1132.24 -5.14573 3.67963 0
M  V30 11839 C 1130.9 -5.30667 4.04906 0
M  V30 11840 H 1130.17 -0.736858 0.0782352 0
M  V30 11841 H 1132.82 -1.69879 0.88393 0
M  V30 11842 H 1131.12 -3.88009 -0.543712 0
M  V30 11843 H 1132.82 -4.00625 -0.173267 0
M  V30 11844 H 1129.41 -4.09738 1.2575 0
M  V30 11845 H 1133.59 -4.46507 2.16668 0
M  V30 11846 H 1128.85 -5.04342 3.45615 0
M  V30 11847 H 1133.02 -5.42473 4.36687 0
M  V30 11848 H 1130.65 -5.71133 5.01709 0
M  V30 11849 N 1132.22 -0.430739 -1.51599 0
M  V30 11850 C 1133.15 0.374695 -2.30474 0
M  V30 11851 C 1134.14 1.02694 -1.35602 0
M  V30 11852 O 1135.32 1.03184 -1.6452 0
M  V30 11853 C 1132.45 1.47981 -3.14196 0
M  V30 11854 C 1131.4 0.951415 -4.17291 0
M  V30 11855 C 1130.73 2.15177 -4.89492 0
M  V30 11856 C 1132.03 -0.00957951 -5.22299 0
M  V30 11857 H 1133.72 -0.283508 -2.98055 0
M  V30 11858 H 1131.27 -0.13779 -1.43339 0
M  V30 11859 H 1133.22 2.05043 -3.68151 0
M  V30 11860 H 1131.95 2.16621 -2.44424 0
M  V30 11861 H 1130.61 0.403052 -3.64378 0
M  V30 11862 H 1130.25 2.82421 -4.1623 0
M  V30 11863 H 1129.95 1.80464 -5.59202 0
M  V30 11864 H 1131.48 2.72806 -5.46269 0
M  V30 11865 H 1132.89 0.470527 -5.71366 0
M  V30 11866 H 1131.29 -0.268959 -5.99497 0
M  V30 11867 H 1132.36 -0.948297 -4.75537 0
M  V30 11868 N 1133.7 1.56767 -0.161869 0
M  V30 11869 C 1134.95 1.95769 0.485536 0
M  V30 11870 C 1135.26 1.05006 1.65025 0
M  V30 11871 O 1136.47 1.33649 2.36326 0
M  V30 11872 C 1134.93 3.4807 0.915176 0
M  V30 11873 C 1134.53 4.47443 -0.223416 0
M  V30 11874 C 1136.28 3.95909 1.53153 0
M  V30 11875 C 1134.19 5.90971 0.225325 0
M  V30 11876 H 1133.12 0.730911 0.185161 0
M  V30 11877 H 1135.77 1.81808 -0.248592 0
M  V30 11878 H 1134.15 3.57415 1.705 0
M  V30 11879 H 1135.32 4.49805 -1.00061 0
M  V30 11880 H 1133.64 4.09606 -0.749127 0
M  V30 11881 H 1136.23 5.00592 1.87915 0
M  V30 11882 H 1136.58 3.38307 2.42599 0
M  V30 11883 H 1137.11 3.89542 0.806322 0
M  V30 11884 H 1133.85 6.52426 -0.634124 0
M  V30 11885 H 1133.37 5.91936 0.96808 0
M  V30 11886 H 1135.05 6.43497 0.672373 0
M  V30 11887 N 1135.18 -0.111886 1.57202 0
M  V30 11888 C 1136.43 -0.817022 1.84412 0
M  V30 11889 C 1136.74 -1.80708 0.748608 0
M  V30 11890 O 1137.95 -2.55891 0.907319 0
M  V30 11891 C 1136.4 -1.50376 3.26979 0
M  V30 11892 C 1136.01 -0.554334 4.44557 0
M  V30 11893 C 1137.76 -2.19361 3.63429 0
M  V30 11894 C 1135.66 -1.24471 5.78153 0
M  V30 11895 H 1134.59 -0.308864 0.687836 0
M  V30 11896 H 1137.24 -0.0698109 1.83367 0
M  V30 11897 H 1135.63 -2.29785 3.22514 0
M  V30 11898 H 1136.8 0.207045 4.60335 0
M  V30 11899 H 1135.12 0.0289261 4.1639 0
M  V30 11900 H 1137.71 -2.71716 4.60515 0
M  V30 11901 H 1138.06 -2.97488 2.91215 0
M  V30 11902 H 1138.59 -1.46833 3.69709 0
M  V30 11903 H 1135.33 -0.504584 6.53555 0
M  V30 11904 H 1134.85 -1.97792 5.66249 0
M  V30 11905 H 1136.53 -1.77591 6.2215 0
M  V30 11906 N 1136.66 -1.52894 -0.382264 0
M  V30 11907 C 1137.59 -1.81122 -1.47367 0
M  V30 11908 C 1138.57 -0.663653 -1.56619 0
M  V30 11909 O 1139.75 -0.911898 -1.71459 0
M  V30 11910 C 1136.88 -1.98615 -2.84902 0
M  V30 11911 C 1135.84 -3.14328 -2.90485 0
M  V30 11912 C 1135.16 -3.17086 -4.30535 0
M  V30 11913 C 1136.46 -4.53263 -2.59519 0
M  V30 11914 H 1138.16 -2.72518 -1.23993 0
M  V30 11915 H 1135.7 -1.3113 -0.595049 0
M  V30 11916 H 1137.66 -2.16946 -3.61265 0
M  V30 11917 H 1136.38 -1.03915 -3.09628 0
M  V30 11918 H 1135.04 -2.95791 -2.16572 0
M  V30 11919 H 1134.69 -2.20055 -4.52311 0
M  V30 11920 H 1134.39 -3.94821 -4.3519 0
M  V30 11921 H 1135.91 -3.3758 -5.08795 0
M  V30 11922 H 1137.33 -4.71867 -3.25598 0
M  V30 11923 H 1135.72 -5.33115 -2.75514 0
M  V30 11924 H 1136.79 -4.59516 -1.54831 0
M  V30 11925 N 1138.14 0.641106 -1.43971 0
M  V30 11926 C 1139.07 1.76645 -1.46046 0
M  V30 11927 C 1140.08 1.58881 -0.355049 0
M  V30 11928 O 1141.27 1.67379 -0.620207 0
M  V30 11929 C 1138.37 3.14237 -1.26918 0
M  V30 11930 C 1137.54 3.5855 -2.50521 0
M  V30 11931 C 1136.6 4.74986 -2.26438 0
M  V30 11932 O 1135.63 4.83807 -2.99866 0
M  V30 11933 N 1136.83 5.66016 -1.28866 0
M  V30 11934 H 1139.6 1.75339 -2.43056 0
M  V30 11935 H 1137.16 0.82535 -1.39282 0
M  V30 11936 H 1139.15 3.89837 -1.0867 0
M  V30 11937 H 1137.72 3.10244 -0.383082 0
M  V30 11938 H 1136.94 2.73265 -2.84112 0
M  V30 11939 H 1138.23 3.84906 -3.32754 0
M  V30 11940 H 1137.63 5.61574 -0.682018 0
M  V30 11941 H 1136.18 6.41286 -1.16599 0
M  V30 11942 N 1139.62 1.30703 0.880598 0
M  V30 11943 C 1140.55 1.20033 2.00286 0
M  V30 11944 C 1141.53 0.0899614 1.69862 0
M  V30 11945 O 1142.71 0.272747 1.92275 0
M  V30 11946 C 1139.84 0.895902 3.35546 0
M  V30 11947 C 1138.8 1.96468 3.80242 0
M  V30 11948 C 1138.12 1.51316 5.12843 0
M  V30 11949 C 1139.42 3.37637 3.98496 0
M  V30 11950 H 1141.12 2.13922 2.0947 0
M  V30 11951 H 1138.66 1.02989 1.00644 0
M  V30 11952 H 1140.61 0.807899 4.13583 0
M  V30 11953 H 1139.34 -0.0786636 3.26505 0
M  V30 11954 H 1138 2.0424 3.04437 0
M  V30 11955 H 1137.65 0.52674 5.00234 0
M  V30 11956 H 1137.35 2.22807 5.43719 0
M  V30 11957 H 1138.87 1.43903 5.93401 0
M  V30 11958 H 1140.28 3.326 4.66959 0
M  V30 11959 H 1138.68 4.07253 4.40755 0
M  V30 11960 H 1139.75 3.79205 3.02211 0
M  V30 11961 N 1141.09 -1.09351 1.1349 0
M  V30 11962 C 1142.04 -2.16008 0.812981 0
M  V30 11963 C 1143.01 -1.64566 -0.225252 0
M  V30 11964 O 1144.2 -1.90552 -0.0973261 0
M  V30 11965 C 1141.34 -3.43913 0.285996 0
M  V30 11966 C 1140.45 -4.09251 1.38338 0
M  V30 11967 C 1139.58 -5.24916 0.814652 0
M  V30 11968 C 1138.62 -5.82178 1.89038 0
M  V30 11969 N 1137.76 -6.89203 1.33955 0
M  V30 11970 H 1142.6 -2.42887 1.72655 0
M  V30 11971 H 1140.14 -1.19209 0.861833 0
M  V30 11972 H 1142.09 -4.17183 -0.0376794 0
M  V30 11973 H 1140.72 -3.17349 -0.590707 0
M  V30 11974 H 1139.78 -3.33838 1.82363 0
M  V30 11975 H 1141.09 -4.4784 2.19638 0
M  V30 11976 H 1140.24 -6.05086 0.442306 0
M  V30 11977 H 1138.98 -4.87691 -0.029416 0
M  V30 11978 H 1137.99 -5.00669 2.27179 0
M  V30 11979 H 1139.21 -6.21464 2.73787 0
M  V30 11980 H 1137.16 -6.53956 0.517494 0
M  V30 11981 H 1137.07 -7.26565 2.08902 0
M  V30 11982 H 1138.34 -7.73126 0.994793 0
M  V30 11983 N 1142.57 -0.928524 -1.27343 0
M  V30 11984 C 1143.99 -0.62889 -1.46687 0
M  V30 11985 C 1144.19 0.821592 -1.83989 0
M  V30 11986 O 1143.24 1.59941 -1.95385 0
M  V30 11987 C 1144.56 -1.57947 -2.55878 0
M  V30 11988 C 1146.1 -1.58778 -2.69738 0
M  V30 11989 C 1146.58 -2.52535 -3.82087 0
M  V30 11990 N 1148.07 -2.50747 -3.89462 0
M  V30 11991 C 1148.81 -3.19981 -4.75814 0
M  V30 11992 N 1148.3 -3.98598 -5.66649 0
M  V30 11993 N 1150.09 -3.08996 -4.69551 0
M  V30 11994 H 1142.25 -1.86625 -1.01414 0
M  V30 11995 H 1144.51 -0.801293 -0.50659 0
M  V30 11996 H 1144.21 -2.61427 -2.35264 0
M  V30 11997 H 1144.09 -1.3218 -3.53282 0
M  V30 11998 H 1146.48 -0.560292 -2.89732 0
M  V30 11999 H 1146.56 -1.88594 -1.72817 0
M  V30 12000 H 1146.2 -3.55395 -3.62846 0
M  V30 12001 H 1146.13 -2.20015 -4.78436 0
M  V30 12002 H 1148.62 -1.93651 -3.24511 0
M  V30 12003 H 1148.93 -4.4841 -6.29403 0
M  V30 12004 H 1147.28 -4.02701 -5.66442 0
M  V30 12005 H 1150.47 -2.4707 -3.97585 0
M  V30 12006 H 1150.64 -3.63223 -5.36631 0
M  V30 12007 N 1144.05 1.41491 -0.694123 0
M  V30 12008 C 1145.01 2.2917 -0.0368562 0
M  V30 12009 C 1146.01 1.44305 0.709426 0
M  V30 12010 O 1147.2 1.6547 0.544533 0
M  V30 12011 C 1144.33 3.27156 0.958201 0
M  V30 12012 H 1145.53 2.88787 -0.808829 0
M  V30 12013 H 1143.08 1.49453 -0.457538 0
M  V30 12014 H 1143.82 2.72516 1.75799 0
M  V30 12015 H 1143.6 3.89776 0.426227 0
M  V30 12016 H 1145.09 3.92863 1.41592 0
M  V30 12017 N 1145.53 0.438773 1.51369 0
M  V30 12018 C 1146.48 -0.386324 2.29369 0
M  V30 12019 C 1147.47 -1.0196 1.3528 0
M  V30 12020 O 1148.68 -0.9544 1.52615 0
M  V30 12021 H 1145.05 -0.143397 0.738201 0
M  V30 12022 H 1147.02 0.292372 2.96964 0
M  V30 12023 C 1145.77 -1.47426 3.14898 0
M  V30 12024 H 1145.09 -0.996335 3.87186 0
M  V30 12025 H 1146.53 -2.02481 3.72529 0
M  V30 12026 C 1144.99 -2.45831 2.30366 0
M  V30 12027 O 1145.52 -3.50398 1.96428 0
M  V30 12028 N 1143.73 -2.16754 1.93561 0
M  V30 12029 H 1143.28 -1.31748 2.2136 0
M  V30 12030 H 1143.23 -2.82836 1.373 0
M  V30 12031 N 1147.01 -1.56678 0.170181 0
M  V30 12032 C 1148.25 -1.9714 -0.475767 0
M  V30 12033 C 1148.58 -1.05611 -1.62972 0
M  V30 12034 O 1147.86 -0.103017 -1.94227 0
M  V30 12035 C 1148.14 -3.47072 -0.959828 0
M  V30 12036 C 1148 -4.4938 0.194225 0
M  V30 12037 C 1149.31 -4.00071 -1.83387 0
M  V30 12038 H 1146.43 -0.716776 -0.171466 0
M  V30 12039 H 1149.08 -1.88266 0.256086 0
M  V30 12040 H 1147.23 -3.54766 -1.58346 0
M  V30 12041 H 1148.9 -4.53748 0.83128 0
M  V30 12042 H 1147.14 -4.25393 0.849893 0
M  V30 12043 H 1147.81 -5.51685 -0.186575 0
M  V30 12044 H 1150.29 -3.95002 -1.30815 0
M  V30 12045 H 1149.16 -5.05398 -2.14159 0
M  V30 12046 H 1149.42 -3.43819 -2.77923 0
M  V30 12047 N 1148.48 0.103547 -1.57259 0
M  V30 12048 C 1149.42 1.15225 -1.98131 0
M  V30 12049 C 1150.43 1.36793 -0.882692 0
M  V30 12050 O 1151.62 1.35595 -1.16088 0
M  V30 12051 C 1148.72 2.50941 -2.27776 0
M  V30 12052 C 1147.89 2.49765 -3.59077 0
M  V30 12053 C 1146.95 3.67344 -3.76756 0
M  V30 12054 O 1145.98 3.50221 -4.48702 0
M  V30 12055 N 1147.18 4.86504 -3.16692 0
M  V30 12056 H 1149.94 0.804448 -2.88702 0
M  V30 12057 H 1147.5 0.292636 -1.59233 0
M  V30 12058 H 1149.5 3.28186 -2.36804 0
M  V30 12059 H 1148.07 2.77843 -1.43255 0
M  V30 12060 H 1147.29 1.58125 -3.61096 0
M  V30 12061 H 1148.57 2.4605 -4.4535 0
M  V30 12062 H 1147.97 5.03319 -2.58236 0
M  V30 12063 H 1146.53 5.61371 -3.31218 0
M  V30 12064 N 1149.96 1.53094 0.37415 0
M  V30 12065 C 1151.38 1.42676 0.715246 0
M  V30 12066 C 1151.58 0.558992 1.93591 0
M  V30 12067 O 1150.63 0.0381328 2.52471 0
M  V30 12068 C 1151.95 2.85746 0.936459 0
M  V30 12069 C 1153.49 2.95322 1.03701 0
M  V30 12070 C 1153.97 4.39436 1.29075 0
M  V30 12071 N 1155.46 4.42826 1.35864 0
M  V30 12072 C 1156.2 5.51433 1.57191 0
M  V30 12073 N 1155.69 6.701 1.75891 0
M  V30 12074 N 1157.48 5.38998 1.59491 0
M  V30 12075 H 1149.64 2.08025 -0.428854 0
M  V30 12076 H 1151.9 0.939078 -0.129758 0
M  V30 12077 H 1151.6 3.51523 0.111448 0
M  V30 12078 H 1151.48 3.28887 1.84698 0
M  V30 12079 H 1153.87 2.29704 1.85257 0
M  V30 12080 H 1153.95 2.55588 0.104066 0
M  V30 12081 H 1153.59 5.05625 0.480231 0
M  V30 12082 H 1153.52 4.76735 2.23677 0
M  V30 12083 H 1156.01 3.57301 1.23061 0
M  V30 12084 H 1156.32 7.48643 1.91713 0
M  V30 12085 H 1154.67 6.73102 1.73086 0
M  V30 12086 H 1157.86 4.45257 1.44444 0
M  V30 12087 H 1158.03 6.23705 1.75771 0
M  V30 12088 N 1151.44 -0.633461 1.44309 0
M  V30 12089 C 1152.86 -0.951379 1.28144 0
M  V30 12090 C 1153.06 -2.00344 0.215512 0
M  V30 12091 O 1152.11 -2.49321 -0.399389 0
M  V30 12092 C 1153.42 -1.41686 2.65227 0
M  V30 12093 C 1154.97 -1.53247 2.72918 0
M  V30 12094 C 1155.45 -2.03179 4.10466 0
M  V30 12095 N 1156.94 -2.10453 4.1263 0
M  V30 12096 C 1157.67 -2.50254 5.15907 0
M  V30 12097 N 1157.17 -2.89209 6.29547 0
M  V30 12098 N 1158.96 -2.50368 5.03262 0
M  V30 12099 H 1151.11 0.0623574 2.12308 0
M  V30 12100 H 1153.38 -0.0347244 0.947364 0
M  V30 12101 H 1153.08 -0.71814 3.4429 0
M  V30 12102 H 1152.96 -2.3883 2.91959 0
M  V30 12103 H 1155.34 -2.22216 1.94176 0
M  V30 12104 H 1155.42 -0.544836 2.4993 0
M  V30 12105 H 1155.07 -1.34806 4.89683 0
M  V30 12106 H 1155 -3.02809 4.3083 0
M  V30 12107 H 1157.49 -1.83042 3.30612 0
M  V30 12108 H 1157.8 -3.18386 7.04166 0
M  V30 12109 H 1156.15 -2.86966 6.32989 0
M  V30 12110 H 1159.34 -2.19324 4.13539 0
M  V30 12111 H 1159.51 -2.81062 5.83873 0
M  V30 12112 N 1152.92 -1.31168 -0.873655 0
M  V30 12113 C 1153.85 -1.12836 -1.98351 0
M  V30 12114 C 1154.83 -0.0328679 -1.62567 0
M  V30 12115 O 1156.01 -0.18859 -1.87554 0
M  V30 12116 C 1153.14 -0.72332 -3.30886 0
M  V30 12117 C 1152.19 -1.82132 -3.85656 0
M  V30 12118 S 1153.02 -3.42604 -4.11562 0
M  V30 12119 C 1154.18 -3.04028 -5.471 0
M  V30 12120 H 1154.41 -2.06793 -2.13597 0
M  V30 12121 H 1151.94 -1.15611 -1.0234 0
M  V30 12122 H 1153.9 -0.496371 -4.07488 0
M  V30 12123 H 1152.56 0.197077 -3.13481 0
M  V30 12124 H 1151.75 -1.49046 -4.81458 0
M  V30 12125 H 1151.36 -2.00314 -3.15833 0
M  V30 12126 H 1153.65 -2.52692 -6.28612 0
M  V30 12127 H 1154.59 -3.9878 -5.85133 0
M  V30 12128 H 1155 -2.41574 -5.10198 0
M  V30 12129 N 1154.4 1.08748 -1.14068 0
M  V30 12130 C 1155.36 2.1375 -0.827266 0
M  V30 12131 C 1156.36 1.59936 0.166496 0
M  V30 12132 O 1157.55 1.74092 -0.0614305 0
M  V30 12133 C 1154.68 3.40106 -0.232557 0
M  V30 12134 H 1155.87 2.42985 -1.7578 0
M  V30 12135 H 1153.43 1.24402 -0.946244 0
M  V30 12136 H 1154.16 3.16503 0.706859 0
M  V30 12137 H 1153.95 3.8046 -0.948293 0
M  V30 12138 H 1155.44 4.17589 -0.0303662 0
M  V30 12139 N 1155.87 0.935264 1.26849 0
M  V30 12140 C 1156.81 0.397539 2.25726 0
M  V30 12141 C 1157.82 -0.475928 1.55688 0
M  V30 12142 O 1159.01 -0.287329 1.76172 0
M  V30 12143 C 1156.11 -0.448308 3.35922 0
M  V30 12144 C 1155.28 0.407624 4.35496 0
M  V30 12145 C 1154.34 -0.376815 5.24849 0
M  V30 12146 O 1153.37 0.218109 5.68782 0
M  V30 12147 N 1154.57 -1.67481 5.55815 0
M  V30 12148 H 1157.33 1.24753 2.72501 0
M  V30 12149 H 1154.89 0.803505 1.40554 0
M  V30 12150 H 1156.89 -0.980338 3.92647 0
M  V30 12151 H 1155.46 -1.19908 2.88688 0
M  V30 12152 H 1154.68 1.12091 3.77928 0
M  V30 12153 H 1155.96 0.992512 4.99026 0
M  V30 12154 H 1155.36 -2.18037 5.21993 0
M  V30 12155 H 1153.92 -2.15321 6.15207 0
M  V30 12156 N 1157.35 -1.41121 0.701616 0
M  V30 12157 C 1158.32 -2.29148 0.0490091 0
M  V30 12158 C 1159.32 -1.44679 -0.701763 0
M  V30 12159 O 1160.51 -1.65757 -0.53575 0
M  V30 12160 C 1157.64 -3.2766 -0.940837 0
M  V30 12161 H 1158.83 -2.88354 0.824133 0
M  V30 12162 H 1156.38 -1.49209 0.465457 0
M  V30 12163 H 1157.12 -2.73445 -1.74351 0
M  V30 12164 H 1156.9 -3.89997 -0.405551 0
M  V30 12165 H 1158.39 -3.93609 -1.39507 0
M  V30 12166 N 1158.83 -0.446794 -1.51134 0
M  V30 12167 C 1160.08 0.116493 -2.02165 0
M  V30 12168 C 1160.41 1.41884 -1.33039 0
M  V30 12169 O 1159.66 1.90757 -0.437071 0
M  V30 12170 C 1159.96 0.373015 -3.55448 0
M  V30 12171 C 1159.63 -0.844659 -4.42918 0
M  V30 12172 C 1158.29 -1.17857 -4.66544 0
M  V30 12173 C 1160.64 -1.65653 -4.94174 0
M  V30 12174 C 1157.97 -2.32486 -5.38672 0
M  V30 12175 C 1160.32 -2.7939 -5.6756 0
M  V30 12176 C 1158.98 -3.13224 -5.89446 0
M  V30 12177 H 1158.25 0.0426279 -0.739773 0
M  V30 12178 H 1160.9 -0.595921 -1.81992 0
M  V30 12179 H 1159.21 1.16742 -3.74003 0
M  V30 12180 H 1160.9 0.822425 -3.92476 0
M  V30 12181 H 1157.49 -0.574478 -4.24733 0
M  V30 12182 H 1161.68 -1.41176 -4.75797 0
M  V30 12183 H 1156.93 -2.59003 -5.5383 0
M  V30 12184 H 1161.11 -3.42662 -6.06264 0
M  V30 12185 H 1158.73 -4.02158 -6.45115 0
M  V30 12186 N 1160.31 1.56586 -0.178487 0
M  V30 12187 C 1161.24 2.155 0.780543 0
M  V30 12188 C 1162.25 1.11244 1.18864 0
M  V30 12189 O 1163.44 1.38403 1.12725 0
M  V30 12190 C 1160.54 2.68867 2.0631 0
M  V30 12191 C 1159.72 3.97854 1.81744 0
M  V30 12192 C 1158.77 4.36213 2.94287 0
M  V30 12193 O 1157.8 5.03954 2.64612 0
M  V30 12194 N 1159 3.98356 4.22247 0
M  V30 12195 H 1161.77 2.98419 0.276836 0
M  V30 12196 H 1159.33 1.61899 0.00405241 0
M  V30 12197 H 1161.32 2.91522 2.80708 0
M  V30 12198 H 1159.89 1.90496 2.47851 0
M  V30 12199 H 1159.11 3.83502 0.912127 0
M  V30 12200 H 1160.4 4.82083 1.62707 0
M  V30 12201 H 1159.8 3.43835 4.49215 0
M  V30 12202 H 1158.35 4.25998 4.93325 0
M  V30 12203 N 1161.79 -0.095206 1.57312 0
M  V30 12204 C 1162.73 -1.13438 2.03063 0
M  V30 12205 C 1163.73 -1.41478 0.931679 0
M  V30 12206 O 1164.93 -1.41161 1.11686 0
M  V30 12207 H 1161.31 -0.383042 0.647134 0
M  V30 12208 H 1163.28 -0.722186 2.89529 0
M  V30 12209 C 1162.03 -2.44641 2.47075 0
M  V30 12210 H 1161.35 -2.23908 3.31218 0
M  V30 12211 H 1162.79 -3.15855 2.82863 0
M  V30 12212 C 1161.25 -3.08931 1.34399 0
M  V30 12213 O 1161.78 -3.96021 0.673071 0
M  V30 12214 N 1159.99 -2.6918 1.09501 0
M  V30 12215 H 1159.53 -1.98451 1.6424 0
M  V30 12216 H 1159.49 -3.12522 0.34311 0
M  V30 12217 N 1163.26 -1.53291 -0.366026 0
M  V30 12218 C 1164.51 -1.69702 -1.11036 0
M  V30 12219 C 1164.84 -0.44728 -1.88979 0
M  V30 12220 O 1164.12 0.55542 -1.86401 0
M  V30 12221 C 1164.4 -2.94661 -2.06995 0
M  V30 12222 C 1164.25 -4.29791 -1.32663 0
M  V30 12223 C 1165.57 -3.15219 -3.07123 0
M  V30 12224 H 1162.69 -0.617525 -0.402284 0
M  V30 12225 H 1165.33 -1.85929 -0.391223 0
M  V30 12226 H 1163.48 -2.80958 -2.68318 0
M  V30 12227 H 1165.16 -4.55305 -0.741266 0
M  V30 12228 H 1163.4 -4.29223 -0.628484 0
M  V30 12229 H 1164.07 -5.13359 -2.02896 0
M  V30 12230 H 1166.55 -3.28105 -2.55903 0
M  V30 12231 H 1165.42 -4.04088 -3.71489 0
M  V30 12232 H 1165.68 -2.30479 -3.77269 0
M  V30 12233 N 1164.74 0.6258 -1.44643 0
M  V30 12234 C 1166.16 0.944569 -1.28647 0
M  V30 12235 C 1166.36 2.00227 -0.226134 0
M  V30 12236 O 1165.41 2.4953 0.386161 0
M  V30 12237 C 1166.73 1.40278 -2.65975 0
M  V30 12238 C 1168.28 1.51797 -2.73727 0
M  V30 12239 C 1168.75 2.01 -4.11537 0
M  V30 12240 N 1170.24 2.08262 -4.13741 0
M  V30 12241 C 1170.98 2.47515 -5.17227 0
M  V30 12242 N 1170.47 2.85867 -6.31072 0
M  V30 12243 N 1172.27 2.47695 -5.04583 0
M  V30 12244 H 1164.42 -0.0736157 -2.12272 0
M  V30 12245 H 1166.68 0.0296998 -0.947535 0
M  V30 12246 H 1166.39 0.699871 -3.44666 0
M  V30 12247 H 1166.26 2.37279 -2.93221 0
M  V30 12248 H 1168.65 2.21183 -1.95351 0
M  V30 12249 H 1168.73 0.531574 -2.50216 0
M  V30 12250 H 1168.37 1.32207 -4.90391 0
M  V30 12251 H 1168.3 3.0052 -4.32429 0
M  V30 12252 H 1170.79 1.81286 -3.31578 0
M  V30 12253 H 1171.11 3.14647 -7.05845 0
M  V30 12254 H 1169.45 2.83605 -6.34502 0
M  V30 12255 H 1172.64 2.17127 -4.14697 0
M  V30 12256 H 1172.81 2.77962 -5.85356 0
M  V30 12257 N 1166.22 1.31629 0.866686 0
M  V30 12258 C 1167.13 1.21524 2.00671 0
M  V30 12259 C 1168.15 0.131277 1.73504 0
M  V30 12260 O 1169.32 0.349699 1.98341 0
M  V30 12261 C 1166.39 0.926491 3.34091 0
M  V30 12262 C 1165.45 2.09769 3.7456 0
M  V30 12263 C 1164.68 1.82262 5.01614 0
M  V30 12264 O 1164.9 0.759329 5.65323 0
M  V30 12265 O 1163.84 2.68031 5.38928 0
M  V30 12266 H 1167.66 2.17335 2.1213 0
M  V30 12267 H 1165.25 1.11401 0.995499 0
M  V30 12268 H 1167.13 0.78144 4.14091 0
M  V30 12269 H 1165.81 -0.00155829 3.237 0
M  V30 12270 H 1164.71 2.29816 2.95187 0
M  V30 12271 H 1166.05 3.0081 3.89582 0
M  V30 12272 N 1167.7 -1.08142 1.14644 0
M  V30 12273 C 1168.61 -2.18675 0.849607 0
M  V30 12274 C 1169.63 -1.73158 -0.170983 0
M  V30 12275 O 1170.8 -2.014 0.0011579 0
M  V30 12276 C 1167.87 -3.45084 0.334305 0
M  V30 12277 C 1166.93 -4.05213 1.41779 0
M  V30 12278 C 1166.16 -5.25588 0.926981 0
M  V30 12279 O 1166.38 -5.69934 -0.230522 0
M  V30 12280 O 1165.32 -5.77183 1.70715 0
M  V30 12281 H 1169.14 -2.46542 1.77343 0
M  V30 12282 H 1166.73 -1.17328 0.924911 0
M  V30 12283 H 1168.61 -4.21367 0.0529893 0
M  V30 12284 H 1167.29 -3.18788 -0.561755 0
M  V30 12285 H 1166.19 -3.30507 1.7526 0
M  V30 12286 H 1167.53 -4.35764 2.28847 0
M  V30 12287 N 1169.18 -0.941978 -1.26351 0
M  V30 12288 C 1170.59 -0.632522 -1.75659 0
M  V30 12289 C 1170.94 0.852287 -1.76722 0
M  V30 12290 O 1170.06 1.66701 -1.37985 0
M  V30 12291 C 1170.66 -1.14145 -3.18993 0
M  V30 12292 C 1169.22 -0.882391 -3.65911 0
M  V30 12293 C 1168.37 -1.29189 -2.45368 0
M  V30 12294 H 1171.32 -1.12019 -1.12416 0
M  V30 12295 H 1171.34 -0.495639 -3.77258 0
M  V30 12296 H 1170.85 -2.22213 -3.18187 0
M  V30 12297 H 1168.95 0.183873 -3.72146 0
M  V30 12298 H 1169.06 -1.50996 -4.54683 0
M  V30 12299 H 1167.43 -0.710316 -2.44595 0
M  V30 12300 H 1168.21 -2.38152 -2.47262 0
M  V30 12301 N 1170.66 1.40747 -0.709091 0
M  V30 12302 C 1171.62 2.29118 -0.0611607 0
M  V30 12303 C 1172.62 1.45049 0.694081 0
M  V30 12304 O 1173.81 1.66039 0.526952 0
M  V30 12305 C 1170.94 3.28154 0.923447 0
M  V30 12306 H 1172.13 2.87913 -0.839413 0
M  V30 12307 H 1169.69 1.4896 -0.473363 0
M  V30 12308 H 1170.42 2.74366 1.72899 0
M  V30 12309 H 1170.21 3.90207 0.384862 0
M  V30 12310 H 1171.7 3.94343 1.37417 0
M  V30 12311 N 1172.13 0.454803 1.50895 0
M  V30 12312 C 1173.38 -0.105927 2.02523 0
M  V30 12313 C 1173.71 -1.40825 1.33724 0
M  V30 12314 O 1172.99 -1.89038 0.457683 0
M  V30 12315 C 1173.27 -0.306635 3.58792 0
M  V30 12316 C 1173.12 1.01556 4.38185 0
M  V30 12317 C 1174.44 -1.06858 4.2693 0
M  V30 12318 H 1171.56 -0.0370232 0.736069 0
M  V30 12319 H 1174.2 0.597215 1.8037 0
M  V30 12320 H 1172.35 -0.905563 3.77799 0
M  V30 12321 H 1174.03 1.64981 4.30789 0
M  V30 12322 H 1172.27 1.61608 4.02574 0
M  V30 12323 H 1172.94 0.828959 5.4574 0
M  V30 12324 H 1175.42 -0.561086 4.123 0
M  V30 12325 H 1174.29 -1.1778 5.36115 0
M  V30 12326 H 1174.55 -2.10111 3.8898 0
M  V30 12327 N 1173.61 -1.56489 0.186789 0
M  V30 12328 C 1174.54 -2.15911 -0.769104 0
M  V30 12329 C 1175.56 -1.11872 -1.18273 0
M  V30 12330 O 1176.75 -1.38999 -1.1199 0
M  V30 12331 C 1173.85 -2.69957 -2.04882 0
M  V30 12332 C 1173.02 -3.98812 -1.79631 0
M  V30 12333 C 1172.08 -4.37767 -2.9197 0
M  V30 12334 O 1171.1 -5.0535 -2.61935 0
M  V30 12335 N 1172.31 -4.0059 -4.20128 0
M  V30 12336 H 1175.07 -2.98561 -0.261007 0
M  V30 12337 H 1172.63 -1.61899 0.00453357 0
M  V30 12338 H 1174.62 -2.93006 -2.79158 0
M  V30 12339 H 1173.19 -1.91808 -2.46837 0
M  V30 12340 H 1172.41 -3.8398 -0.891776 0
M  V30 12341 H 1173.7 -4.82939 -1.60148 0
M  V30 12342 H 1173.1 -3.46213 -4.47385 0
M  V30 12343 H 1171.66 -4.28608 -4.91059 0
M  V30 12344 N 1175.09 0.086862 -1.5736 0
M  V30 12345 C 1176.34 0.78884 -1.86504 0
M  V30 12346 C 1176.66 1.78329 -0.77646 0
M  V30 12347 O 1175.92 1.94354 0.229122 0
M  V30 12348 C 1176.22 1.54537 -3.22263 0
M  V30 12349 C 1175.88 0.692284 -4.45554 0
M  V30 12350 C 1174.55 0.45714 -4.79024 0
M  V30 12351 C 1176.9 0.0997695 -5.21105 0
M  V30 12352 C 1174.23 -0.380247 -5.85466 0
M  V30 12353 C 1176.58 -0.724986 -6.28432 0
M  V30 12354 C 1175.24 -0.970144 -6.60412 0
M  V30 12355 H 1174.51 0.288657 -0.682465 0
M  V30 12356 H 1177.16 0.050059 -1.91435 0
M  V30 12357 H 1175.46 2.35594 -3.13053 0
M  V30 12358 H 1177.16 2.09305 -3.42042 0
M  V30 12359 H 1173.75 0.885675 -4.19349 0
M  V30 12360 H 1177.94 0.268583 -4.95573 0
M  V30 12361 H 1173.19 -0.579084 -6.08651 0
M  V30 12362 H 1177.37 -1.19093 -6.86141 0
M  V30 12363 H 1174.99 -1.6208 -7.42721 0
M  V30 12364 N 1176.57 1.53483 0.357892 0
M  V30 12365 C 1177.52 1.81143 1.45911 0
M  V30 12366 C 1178.51 0.681002 1.55109 0
M  V30 12367 O 1179.72 0.864086 1.57904 0
M  V30 12368 H 1176.09 0.573663 0.486225 0
M  V30 12369 H 1178.06 2.733 1.19789 0
M  V30 12370 C 1176.81 2.02509 2.8264 0
M  V30 12371 H 1176.13 2.88938 2.76324 0
M  V30 12372 H 1177.57 2.25837 3.58851 0
M  V30 12373 C 1176.03 0.806412 3.27106 0
M  V30 12374 O 1176.56 -0.00116809 4.017 0
M  V30 12375 N 1174.77 0.627677 2.8374 0
M  V30 12376 H 1174.32 1.28601 2.23203 0
M  V30 12377 H 1174.27 -0.186301 3.13848 0
M  V30 12378 N 1178.05 -0.61812 1.44973 0
M  V30 12379 C 1179.27 -1.40921 1.52171 0
M  V30 12380 C 1179.7 -1.87487 0.151755 0
M  V30 12381 O 1179.05 -1.59518 -0.861606 0
M  V30 12382 C 1179.1 -2.59689 2.50188 0
M  V30 12383 O 1178.21 -3.59967 2.0124 0
M  V30 12384 H 1177.55 -0.421138 0.51336 0
M  V30 12385 H 1180.08 -0.753258 1.90229 0
M  V30 12386 H 1180.09 -3.07069 2.6865 0
M  V30 12387 H 1178.76 -2.25144 3.4969 0
M  V30 12388 H 1177.34 -3.19308 1.92605 0
M  V30 12389 N 1179.52 -1.32087 -0.859693 0
M  V30 12390 C 1180.77 -1.22119 -1.61033 0
M  V30 12391 C 1181.09 0.218289 -1.93774 0
M  V30 12392 O 1180.36 1.14172 -1.5919 0
M  V30 12393 H 1178.94 -0.448989 -0.597008 0
M  V30 12394 H 1181.6 -1.65545 -1.02863 0
M  V30 12395 H 1180.7 -1.80023 -2.54947 0
M  V30 12396 N 1181 1.07532 -1.15215 0
M  V30 12397 C 1182.23 1.83817 -0.949687 0
M  V30 12398 C 1182.64 1.82004 0.501991 0
M  V30 12399 O 1182 1.23014 1.34811 0
M  V30 12400 C 1182.05 3.30978 -1.45382 0
M  V30 12401 O 1181.77 3.32844 -2.84863 0
M  V30 12402 C 1183.27 4.24037 -1.29257 0
M  V30 12403 H 1180.49 0.58 -0.337404 0
M  V30 12404 H 1183.04 1.35752 -1.52944 0
M  V30 12405 H 1181.19 3.76399 -0.916638 0
M  V30 12406 H 1181.61 4.24773 -3.07682 0
M  V30 12407 H 1183.08 5.25371 -1.69379 0
M  V30 12408 H 1183.56 4.38563 -0.236519 0
M  V30 12409 H 1184.16 3.8445 -1.81874 0
M  V30 12410 N 1182.48 0.948665 1.2585 0
M  V30 12411 C 1183.41 0.482036 2.2847 0
M  V30 12412 C 1184.39 -0.468553 1.63519 0
M  V30 12413 O 1185.58 -0.368796 1.90666 0
M  V30 12414 C 1182.71 -0.246603 3.46423 0
M  V30 12415 C 1181.66 0.61815 4.23513 0
M  V30 12416 C 1180.99 -0.240884 5.34157 0
M  V30 12417 C 1182.29 1.89327 4.86778 0
M  V30 12418 H 1183.98 1.33973 2.67753 0
M  V30 12419 H 1181.53 0.645645 1.28715 0
M  V30 12420 H 1183.48 -0.584135 4.17332 0
M  V30 12421 H 1182.2 -1.13849 3.06114 0
M  V30 12422 H 1180.86 0.938682 3.54379 0
M  V30 12423 H 1180.51 -1.13235 4.90089 0
M  V30 12424 H 1180.21 0.334367 5.86648 0
M  V30 12425 H 1181.73 -0.573517 6.07901 0
M  V30 12426 H 1183.15 1.62252 5.49861 0
M  V30 12427 H 1181.55 2.41369 5.49419 0
M  V30 12428 H 1182.62 2.60006 4.09298 0
M  V30 12429 N 1183.96 -1.40369 0.716545 0
M  V30 12430 C 1184.92 -2.29083 0.0733105 0
M  V30 12431 C 1185.92 -1.45415 -0.686378 0
M  V30 12432 O 1187.11 -1.66316 -0.518139 0
M  V30 12433 C 1184.24 -3.28639 -0.906032 0
M  V30 12434 H 1185.44 -2.87464 0.85467 0
M  V30 12435 H 1182.99 -1.48706 0.481256 0
M  V30 12436 H 1183.72 -2.75279 -1.71441 0
M  V30 12437 H 1183.51 -3.90405 -0.364163 0
M  V30 12438 H 1185 -3.95066 -1.35324 0
M  V30 12439 N 1185.44 -0.462799 -1.50652 0
M  V30 12440 C 1186.37 0.325724 -2.31217 0
M  V30 12441 C 1187.35 0.997942 -1.3775 0
M  V30 12442 O 1188.53 0.996707 -1.66671 0
M  V30 12443 C 1185.66 1.41283 -3.17264 0
M  V30 12444 C 1184.62 0.862687 -4.19216 0
M  V30 12445 C 1183.94 2.04746 -4.93946 0
M  V30 12446 C 1185.24 -0.120365 -5.22161 0
M  V30 12447 H 1186.94 -0.346666 -2.97386 0
M  V30 12448 H 1184.48 -0.168163 -1.43015 0
M  V30 12449 H 1186.44 1.97188 -3.72418 0
M  V30 12450 H 1185.16 2.11387 -2.48964 0
M  V30 12451 H 1183.82 0.325671 -3.65151 0
M  V30 12452 H 1183.47 2.73529 -4.22127 0
M  V30 12453 H 1183.17 1.68562 -5.62904 0
M  V30 12454 H 1184.69 2.61157 -5.51932 0
M  V30 12455 H 1186.1 0.349226 -5.72235 0
M  V30 12456 H 1184.5 -0.396061 -5.98792 0
M  V30 12457 H 1185.57 -1.04895 -4.73418 0
M  V30 12458 N 1186.91 1.56388 -0.195085 0
M  V30 12459 C 1187.86 2.20431 0.742484 0
M  V30 12460 C 1188.86 1.17548 1.21979 0
M  V30 12461 O 1190.06 1.35693 1.18269 0
M  V30 12462 H 1186.44 0.706435 0.257786 0
M  V30 12463 H 1188.41 2.97865 0.178624 0
M  V30 12464 C 1187.16 2.87772 1.95147 0
M  V30 12465 H 1186.48 3.66681 1.59326 0
M  V30 12466 H 1187.92 3.36021 2.58585 0
M  V30 12467 C 1186.38 1.88807 2.79022 0
M  V30 12468 O 1186.91 1.38836 3.76945 0
M  V30 12469 N 1185.12 1.57037 2.44515 0
M  V30 12470 H 1184.66 1.97868 1.64943 0
M  V30 12471 H 1184.62 0.910776 3.00919 0
M  V30 12472 N 1188.39 -0.0785156 1.57404 0
M  V30 12473 C 1189.81 -0.433143 1.5361 0
M  V30 12474 C 1190.01 -1.79564 0.914283 0
M  V30 12475 O 1189.06 -2.47215 0.513899 0
M  V30 12476 C 1190.38 -0.380387 2.98284 0
M  V30 12477 C 1191.93 -0.461056 3.09586 0
M  V30 12478 C 1192.4 -0.438276 4.55898 0
M  V30 12479 N 1193.89 -0.498548 4.60509 0
M  V30 12480 C 1194.63 -0.503028 5.71189 0
M  V30 12481 N 1194.12 -0.462724 6.91253 0
M  V30 12482 N 1195.92 -0.549083 5.59412 0
M  V30 12483 H 1188.07 0.813724 1.96195 0
M  V30 12484 H 1190.33 0.304644 0.897717 0
M  V30 12485 H 1190.04 0.553932 3.4731 0
M  V30 12486 H 1189.91 -1.19313 3.57833 0
M  V30 12487 H 1192.3 -1.3858 2.60537 0
M  V30 12488 H 1192.38 0.380138 2.5296 0
M  V30 12489 H 1192.02 0.482588 5.05602 0
M  V30 12490 H 1191.95 -1.29691 5.1038 0
M  V30 12491 H 1194.44 -0.534219 3.74105 0
M  V30 12492 H 1194.76 -0.469883 7.7137 0
M  V30 12493 H 1193.1 -0.429515 6.93672 0
M  V30 12494 H 1196.29 -0.578215 4.64515 0
M  V30 12495 H 1196.46 -0.549105 6.45669 0
M  V30 12496 N 1189.87 -1.5367 -0.349747 0
M  V30 12497 C 1190.82 -1.81223 -1.42922 0
M  V30 12498 C 1191.79 -0.657536 -1.52531 0
M  V30 12499 O 1192.97 -0.90134 -1.68168 0
M  V30 12500 C 1190.11 -2.022 -2.79659 0
M  V30 12501 C 1189.23 -3.29915 -2.78891 0
M  V30 12502 C 1188.36 -3.40993 -4.07305 0
M  V30 12503 C 1187.4 -4.6268 -4.00741 0
M  V30 12504 N 1186.54 -4.70826 -5.20833 0
M  V30 12505 H 1191.38 -2.73328 -1.18727 0
M  V30 12506 H 1188.91 -1.35386 -0.57525 0
M  V30 12507 H 1190.87 -2.12351 -3.59114 0
M  V30 12508 H 1189.5 -1.13416 -3.0222 0
M  V30 12509 H 1188.55 -3.28637 -1.91577 0
M  V30 12510 H 1189.87 -4.19459 -2.69917 0
M  V30 12511 H 1189.02 -3.50542 -4.95182 0
M  V30 12512 H 1187.76 -2.49493 -4.19052 0
M  V30 12513 H 1186.76 -4.53215 -3.11249 0
M  V30 12514 H 1187.99 -5.55538 -3.90582 0
M  V30 12515 H 1185.93 -3.82233 -5.33136 0
M  V30 12516 H 1185.85 -5.54297 -5.14092 0
M  V30 12517 H 1187.12 -4.84677 -6.10499 0
M  V30 12518 N 1191.35 0.610423 -1.45298 0
M  V30 12519 C 1192.59 1.37154 -1.49388 0
M  V30 12520 C 1192.93 1.93737 -0.134025 0
M  V30 12521 O 1192.2 1.74888 0.851138 0
M  V30 12522 C 1192.49 2.52155 -2.5708 0
M  V30 12523 C 1192.34 2.00786 -4.02498 0
M  V30 12524 C 1193.66 3.54294 -2.61082 0
M  V30 12525 H 1190.78 0.497346 -0.54389 0
M  V30 12526 H 1193.42 0.688358 -1.77092 0
M  V30 12527 H 1191.57 3.10434 -2.33587 0
M  V30 12528 H 1193.24 1.47178 -4.37191 0
M  V30 12529 H 1191.48 1.31809 -4.1329 0
M  V30 12530 H 1192.15 2.83674 -4.73533 0
M  V30 12531 H 1194.63 3.05851 -2.82125 0
M  V30 12532 H 1193.51 4.32254 -3.38301 0
M  V30 12533 H 1193.77 4.09726 -1.66063 0
M  V30 12534 N 1192.83 1.32541 0.852676 0
M  V30 12535 C 1193.77 1.21643 1.96142 0
M  V30 12536 C 1194.74 0.0981496 1.6581 0
M  V30 12537 O 1195.93 0.27404 1.88822 0
M  V30 12538 C 1193.07 0.947483 3.31838 0
M  V30 12539 C 1192.18 2.15074 3.74656 0
M  V30 12540 C 1191.32 1.81711 4.99154 0
M  V30 12541 C 1190.36 2.98346 5.34468 0
M  V30 12542 N 1189.49 2.65062 6.50143 0
M  V30 12543 H 1194.33 2.16479 2.04795 0
M  V30 12544 H 1191.87 1.07664 1.00234 0
M  V30 12545 H 1193.83 0.772038 4.09994 0
M  V30 12546 H 1192.46 0.0359112 3.2278 0
M  V30 12547 H 1191.51 2.43639 2.92137 0
M  V30 12548 H 1192.82 3.02314 3.96747 0
M  V30 12549 H 1191.98 1.60729 5.85022 0
M  V30 12550 H 1190.71 0.916875 4.79004 0
M  V30 12551 H 1189.72 3.19956 4.47111 0
M  V30 12552 H 1190.94 3.89104 5.56574 0
M  V30 12553 H 1188.89 1.77582 6.31507 0
M  V30 12554 H 1188.81 3.45832 6.72262 0
M  V30 12555 H 1190.08 2.47516 7.39159 0
M  V30 12556 N 1194.3 -1.0692 1.15784 0
M  V30 12557 C 1195.25 -2.16335 0.854506 0
M  V30 12558 C 1196.25 -1.68505 -0.173868 0
M  V30 12559 O 1197.45 -1.79977 -0.0284722 0
M  V30 12560 H 1193.83 -0.706103 0.258694 0
M  V30 12561 H 1195.8 -2.39135 1.78486 0
M  V30 12562 C 1194.55 -3.45778 0.365042 0
M  V30 12563 H 1193.87 -3.82971 1.14776 0
M  V30 12564 H 1195.31 -4.23567 0.191504 0
M  V30 12565 C 1193.77 -3.24258 -0.914253 0
M  V30 12566 O 1194.3 -3.49236 -1.98487 0
M  V30 12567 N 1192.51 -2.77722 -0.855501 0
M  V30 12568 H 1192.05 -2.57595 0.0159233 0
M  V30 12569 H 1192.01 -2.63702 -1.71198 0
M  V30 12570 N 1195.78 -0.955326 -1.25345 0
M  V30 12571 C 1196.73 -0.467205 -2.2786 0
M  V30 12572 C 1197.72 0.462873 -1.62954 0
M  V30 12573 O 1198.93 0.339526 -1.76769 0
M  V30 12574 H 1195.31 -0.132586 -0.74022 0
M  V30 12575 H 1197.28 -1.34406 -2.66416 0
M  V30 12576 C 1196.03 0.238898 -3.46878 0
M  V30 12577 H 1195.35 -0.467644 -3.97056 0
M  V30 12578 H 1196.79 0.544444 -4.2049 0
M  V30 12579 C 1195.25 1.46164 -3.03542 0
M  V30 12580 O 1195.78 2.55933 -3.09615 0
M  V30 12581 N 1193.98 1.32324 -2.58725 0
M  V30 12582 H 1193.53 0.430131 -2.53984 0
M  V30 12583 H 1193.49 2.14253 -2.30094 0
M  V30 12584 N 1197.26 1.39987 -0.723979 0
M  V30 12585 C 1198.67 1.83606 -0.338461 0
M  V30 12586 C 1199.02 1.6051 1.12831 0
M  V30 12587 O 1198.15 1.09041 1.8692 0
M  V30 12588 C 1198.74 3.33308 -0.607533 0
M  V30 12589 C 1197.3 3.75389 -0.275632 0
M  V30 12590 C 1196.45 2.6311 -0.875699 0
M  V30 12591 H 1199.4 1.29135 -0.922483 0
M  V30 12592 H 1199.42 3.80297 0.124424 0
M  V30 12593 H 1198.93 3.50087 -1.67514 0
M  V30 12594 H 1197.03 3.64203 0.786579 0
M  V30 12595 H 1197.15 4.73185 -0.750492 0
M  V30 12596 H 1195.51 2.5289 -0.303122 0
M  V30 12597 H 1196.29 2.82698 -1.94774 0
M  V30 12598 N 1198.74 0.470782 1.50404 0
M  V30 12599 C 1200.02 -0.145879 1.95055 0
M  V30 12600 C 1200.4 -1.57004 1.41114 0
M  V30 12601 O 1199.74 -2.20152 0.612006 0
M  V30 12602 C 1199.95 -0.0895071 3.48885 0
M  V30 12603 C 1201.3 -0.278548 4.23685 0
M  V30 12604 O 1202.33 -0.166105 3.55812 0
M  V30 12605 O 1201.19 -0.505606 5.44156 0
M  V30 12606 H 1198.28 -0.111838 0.819403 0
M  V30 12607 H 1200.83 0.531162 1.61173 0
M  V30 12608 H 1199.6 0.904836 3.80695 0
M  V30 12609 H 1199.22 -0.808019 3.89303 0
M  V30 12610 N 1200.22 -1.56282 0.203376 0
M  V30 12611 C 1201.63 -1.84146 -0.307752 0
M  V30 12612 C 1201.98 -1.12429 -1.60792 0
M  V30 12613 O 1201.1 -0.387852 -2.12896 0
M  V30 12614 C 1201.7 -3.34053 -0.565152 0
M  V30 12615 C 1200.26 -3.62298 -1.02063 0
M  V30 12616 C 1199.41 -2.77202 -0.0737343 0
M  V30 12617 H 1202.36 -1.52848 0.426983 0
M  V30 12618 H 1202.38 -3.53273 -1.41345 0
M  V30 12619 H 1201.89 -3.86222 0.381301 0
M  V30 12620 H 1199.99 -3.1557 -1.98107 0
M  V30 12621 H 1200.1 -4.70424 -0.907614 0
M  V30 12622 H 1198.47 -2.48074 -0.577169 0
M  V30 12623 H 1199.25 -3.32164 0.86731 0
M  V30 12624 N 1201.7 0.070167 -1.57444 0
M  V30 12625 C 1202.92 0.781894 -1.91557 0
M  V30 12626 C 1203.34 1.71037 -0.799489 0
M  V30 12627 O 1202.7 1.81082 0.227062 0
M  V30 12628 C 1202.75 1.57415 -3.25427 0
M  V30 12629 O 1202.47 0.682991 -4.32743 0
M  V30 12630 C 1203.97 2.38673 -3.73564 0
M  V30 12631 H 1201.19 0.222211 -0.633138 0
M  V30 12632 H 1203.73 0.0399504 -2.04461 0
M  V30 12633 H 1201.89 2.26835 -3.14045 0
M  V30 12634 H 1202.3 1.2342 -5.09772 0
M  V30 12635 H 1203.78 2.89716 -4.6986 0
M  V30 12636 H 1204.25 3.18269 -3.02657 0
M  V30 12637 H 1204.86 1.74405 -3.87896 0
M  V30 12638 N 1203.17 1.53854 0.341593 0
M  V30 12639 C 1204.42 1.7041 1.07905 0
M  V30 12640 C 1204.74 0.475039 1.89744 0
M  V30 12641 O 1205.94 0.521589 2.66443 0
M  V30 12642 C 1204.4 3.01342 1.96776 0
M  V30 12643 C 1204.01 4.31592 1.20135 0
M  V30 12644 C 1205.75 3.27264 2.70367 0
M  V30 12645 C 1203.66 5.53598 2.08047 0
M  V30 12646 H 1202.59 0.635005 0.406553 0
M  V30 12647 H 1205.24 1.80353 0.338409 0
M  V30 12648 H 1203.62 2.85261 2.74667 0
M  V30 12649 H 1204.79 4.58382 0.471404 0
M  V30 12650 H 1203.11 4.12298 0.583039 0
M  V30 12651 H 1205.71 4.15607 3.36415 0
M  V30 12652 H 1206.05 2.44357 3.37039 0
M  V30 12653 H 1206.58 3.4413 1.99548 0
M  V30 12654 H 1203.32 6.39053 1.45914 0
M  V30 12655 H 1202.84 5.31052 2.78825 0
M  V30 12656 H 1204.52 5.89314 2.67055 0
M  V30 12657 N 1204.65 -0.602709 1.4562 0
M  V30 12658 C 1205.88 -1.38608 1.53203 0
M  V30 12659 C 1206.29 -1.88478 0.165098 0
M  V30 12660 O 1205.63 -1.63142 -0.844421 0
M  V30 12661 C 1205.69 -2.62214 2.45935 0
M  V30 12662 C 1205.36 -2.3395 3.92577 0
M  V30 12663 C 1206.36 -1.94011 4.82344 0
M  V30 12664 C 1204.04 -2.46711 4.37537 0
M  V30 12665 C 1206.03 -1.67202 6.15079 0
M  V30 12666 C 1203.72 -2.19515 5.70313 0
M  V30 12667 C 1204.72 -1.79823 6.58903 0
M  V30 12668 O 1204.41 -1.52948 7.89216 0
M  V30 12669 H 1204.14 -0.43052 0.52118 0
M  V30 12670 H 1206.69 -0.741655 1.91543 0
M  V30 12671 H 1204.92 -3.29394 2.02575 0
M  V30 12672 H 1206.61 -3.24264 2.44147 0
M  V30 12673 H 1207.38 -1.83684 4.48871 0
M  V30 12674 H 1203.26 -2.76572 3.68821 0
M  V30 12675 H 1206.8 -1.36146 6.84186 0
M  V30 12676 H 1202.7 -2.2946 6.03339 0
M  V30 12677 H 1203.47 -1.6696 8.01291 0
M  V30 12678 N 1206.13 -1.32992 -0.845635 0
M  V30 12679 C 1207.54 -1.21616 -1.41656 0
M  V30 12680 C 1207.89 0.167687 -1.95482 0
M  V30 12681 O 1207.02 1.06692 -1.8827 0
M  V30 12682 C 1207.61 -2.2018 -2.575 0
M  V30 12683 C 1206.17 -2.12664 -3.10565 0
M  V30 12684 C 1205.32 -2.08042 -1.83341 0
M  V30 12685 H 1208.27 -1.44688 -0.651993 0
M  V30 12686 H 1208.29 -1.80558 -3.34931 0
M  V30 12687 H 1207.8 -3.20888 -2.18294 0
M  V30 12688 H 1205.9 -1.15235 -3.54333 0
M  V30 12689 H 1206.02 -3.02902 -3.71197 0
M  V30 12690 H 1204.38 -1.53416 -2.03312 0
M  V30 12691 H 1205.16 -3.10547 -1.46339 0
M  V30 12692 N 1207.61 1.06304 -1.1635 0
M  V30 12693 C 1208.85 1.79366 -0.94634 0
M  V30 12694 C 1209.19 1.86981 0.524569 0
M  V30 12695 O 1208.46 1.36134 1.38917 0
M  V30 12696 C 1208.74 3.23861 -1.57436 0
M  V30 12697 C 1208.6 3.24327 -3.1166 0
M  V30 12698 C 1209.92 4.21409 -1.26895 0
M  V30 12699 H 1207.04 0.65115 -0.345215 0
M  V30 12700 H 1209.68 1.24325 -1.43678 0
M  V30 12701 H 1207.83 3.70862 -1.15731 0
M  V30 12702 H 1209.5 2.85488 -3.62346 0
M  V30 12703 H 1207.74 2.62983 -3.44997 0
M  V30 12704 H 1208.41 4.2626 -3.50723 0
M  V30 12705 H 1210.89 3.8285 -1.62989 0
M  V30 12706 H 1209.77 5.20778 -1.73439 0
M  V30 12707 H 1210.03 4.41701 -0.187768 0
M  V30 12708 N 1209.09 0.96196 1.24836 0
M  V30 12709 C 1210.02 0.506241 2.27946 0
M  V30 12710 C 1211 -0.451183 1.64007 0
M  V30 12711 O 1212.18 -0.348552 1.91046 0
M  V30 12712 C 1209.31 -0.209846 3.46665 0
M  V30 12713 C 1208.27 0.663035 4.22833 0
M  V30 12714 C 1207.59 -0.184216 5.34383 0
M  V30 12715 C 1208.89 1.94479 4.84742 0
M  V30 12716 H 1210.59 1.36805 2.66317 0
M  V30 12717 H 1208.13 0.65926 1.28023 0
M  V30 12718 H 1210.08 -0.539838 4.17928 0
M  V30 12719 H 1208.81 -1.10596 3.07305 0
M  V30 12720 H 1207.47 0.976216 3.53363 0
M  V30 12721 H 1207.12 -1.08031 4.91262 0
M  V30 12722 H 1206.82 0.39657 5.8626 0
M  V30 12723 H 1208.34 -0.509009 6.08475 0
M  V30 12724 H 1209.75 1.68074 5.48109 0
M  V30 12725 H 1208.15 2.47183 5.46828 0
M  V30 12726 H 1209.22 2.64332 4.06517 0
M  V30 12727 N 1210.56 -1.39601 0.731392 0
M  V30 12728 C 1211.84 -1.94531 0.20422 0
M  V30 12729 C 1212.22 -1.66845 -1.29329 0
M  V30 12730 O 1211.57 -0.994706 -2.05713 0
M  V30 12731 C 1211.78 -3.44891 0.53395 0
M  V30 12732 C 1213.13 -4.21863 0.481298 0
M  V30 12733 O 1214.15 -3.53073 0.470929 0
M  V30 12734 O 1213.01 -5.44452 0.472663 0
M  V30 12735 H 1210.1 -0.826214 0.0360436 0
M  V30 12736 H 1212.65 -1.49121 0.810005 0
M  V30 12737 H 1211.42 -3.58463 1.56907 0
M  V30 12738 H 1211.04 -3.97472 -0.10099 0
M  V30 12739 N 1212.04 -0.478751 -1.50152 0
M  V30 12740 C 1213.29 0.0657809 -2.03294 0
M  V30 12741 C 1213.64 1.36719 -1.35373 0
M  V30 12742 O 1212.94 1.8567 -0.473005 0
M  V30 12743 C 1213.13 0.297535 -3.56159 0
M  V30 12744 C 1212.96 -0.979859 -4.38895 0
M  V30 12745 C 1211.73 -1.52535 -4.81727 0
M  V30 12746 C 1213.93 -1.8773 -4.78813 0
M  V30 12747 N 1211.91 -2.75097 -5.48812 0
M  V30 12748 C 1213.28 -2.94876 -5.45388 0
M  V30 12749 C 1215.34 -1.88676 -4.60767 0
M  V30 12750 C 1214.04 -4.02968 -5.95827 0
M  V30 12751 C 1216.06 -2.95728 -5.12151 0
M  V30 12752 C 1215.43 -4.01594 -5.78707 0
M  V30 12753 H 1211.53 -0.0161501 -0.781833 0
M  V30 12754 H 1214.11 -0.648664 -1.83577 0
M  V30 12755 H 1212.28 0.981023 -3.75806 0
M  V30 12756 H 1214.01 0.837091 -3.95948 0
M  V30 12757 H 1210.77 -1.07349 -4.61273 0
M  V30 12758 H 1211.19 -3.37359 -5.86956 0
M  V30 12759 H 1215.83 -1.08143 -4.08736 0
M  V30 12760 H 1213.55 -4.84312 -6.46891 0
M  V30 12761 H 1217.14 -2.97453 -5.00013 0
M  V30 12762 H 1216.02 -4.83067 -6.17751 0
M  V30 12763 N 1213.52 1.56172 -0.211661 0
M  V30 12764 C 1214.47 2.21206 0.719063 0
M  V30 12765 C 1215.46 1.18835 1.20725 0
M  V30 12766 O 1216.67 1.36939 1.16823 0
M  V30 12767 H 1213.04 0.709129 0.250279 0
M  V30 12768 H 1215.01 2.98038 0.147022 0
M  V30 12769 C 1213.76 2.89826 1.92084 0
M  V30 12770 H 1213.09 3.68351 1.55428 0
M  V30 12771 H 1214.53 3.38744 2.55006 0
M  V30 12772 C 1212.99 1.91756 2.77004 0
M  V30 12773 O 1213.52 1.42826 3.75451 0
M  V30 12774 N 1211.72 1.59622 2.42836 0
M  V30 12775 H 1211.27 1.99606 1.62835 0
M  V30 12776 H 1211.23 0.942641 2.99936 0
M  V30 12777 N 1215 -0.0618163 1.57479 0
M  V30 12778 C 1216.28 -0.792636 1.7882 0
M  V30 12779 C 1216.66 -1.95283 0.801724 0
M  V30 12780 O 1216 -2.27917 -0.163095 0
M  V30 12781 C 1216.21 -1.25629 3.25605 0
M  V30 12782 C 1217.56 -1.68561 3.89708 0
M  V30 12783 O 1218.59 -1.35171 3.29556 0
M  V30 12784 O 1217.44 -2.30417 4.95551 0
M  V30 12785 H 1214.54 -0.380595 0.734218 0
M  V30 12786 H 1217.08 -0.0411205 1.6965 0
M  V30 12787 H 1215.86 -0.426582 3.88968 0
M  V30 12788 H 1215.48 -2.06882 3.39537 0
M  V30 12789 N 1216.48 -1.54033 -0.333429 0
M  V30 12790 C 1217.73 -1.70979 -1.07 0
M  V30 12791 C 1218.04 -0.485095 -1.89489 0
M  V30 12792 O 1219.24 -0.535712 -2.66162 0
M  V30 12793 C 1217.7 -3.02382 -1.95175 0
M  V30 12794 C 1217.31 -4.32223 -1.17844 0
M  V30 12795 C 1219.05 -3.28693 -2.68628 0
M  V30 12796 C 1216.96 -5.54693 -2.05109 0
M  V30 12797 H 1215.89 -0.637152 -0.403179 0
M  V30 12798 H 1218.54 -1.80529 -0.328839 0
M  V30 12799 H 1216.92 -2.86714 -2.73151 0
M  V30 12800 H 1218.1 -4.58626 -0.447089 0
M  V30 12801 H 1216.41 -4.12601 -0.561166 0
M  V30 12802 H 1219.01 -4.17385 -3.34207 0
M  V30 12803 H 1219.35 -2.46141 -3.35738 0
M  V30 12804 H 1219.88 -3.45183 -1.9772 0
M  V30 12805 H 1216.62 -6.39818 -1.42523 0
M  V30 12806 H 1216.14 -5.32524 -2.76005 0
M  V30 12807 H 1217.82 -5.90722 -2.63926 0
M  V30 12808 N 1217.95 0.594978 -1.45938 0
M  V30 12809 C 1218.9 1.70489 -1.5557 0
M  V30 12810 C 1219.87 1.61193 -0.400751 0
M  V30 12811 O 1221.06 1.80587 -0.615882 0
M  V30 12812 C 1218.2 3.08817 -1.54033 0
M  V30 12813 C 1217.31 3.28827 -2.80173 0
M  V30 12814 C 1216.44 4.57333 -2.70222 0
M  V30 12815 C 1215.48 4.70644 -3.91357 0
M  V30 12816 N 1214.62 5.90463 -3.79865 0
M  V30 12817 H 1219.46 1.61593 -2.50383 0
M  V30 12818 H 1217 0.787747 -1.24229 0
M  V30 12819 H 1218.96 3.88865 -1.51129 0
M  V30 12820 H 1217.59 3.1664 -0.627617 0
M  V30 12821 H 1216.64 2.42467 -2.9311 0
M  V30 12822 H 1217.95 3.34534 -3.69985 0
M  V30 12823 H 1217.1 5.45593 -2.65354 0
M  V30 12824 H 1215.84 4.54045 -1.7803 0
M  V30 12825 H 1214.85 3.80805 -3.9657 0
M  V30 12826 H 1216.07 4.75721 -4.8463 0
M  V30 12827 H 1214.02 5.88196 -2.90451 0
M  V30 12828 H 1213.94 5.97385 -4.63322 0
M  V30 12829 H 1215.2 6.81187 -3.78952 0
M  V30 12830 N 1219.43 1.33438 0.838571 0
M  V30 12831 C 1220.68 1.24912 1.59384 0
M  V30 12832 C 1221.01 -0.185017 1.93618 0
M  V30 12833 O 1220.26 -1.14229 1.58904 0
M  V30 12834 C 1220.56 2.07002 2.9135 0
M  V30 12835 C 1220.23 3.5619 2.76477 0
M  V30 12836 C 1218.89 3.96862 2.72129 0
M  V30 12837 C 1221.24 4.5099 2.61261 0
M  V30 12838 C 1218.57 5.30551 2.50464 0
M  V30 12839 C 1220.92 5.84841 2.4113 0
M  V30 12840 C 1219.59 6.24696 2.35183 0
M  V30 12841 H 1218.86 0.457084 0.583228 0
M  V30 12842 H 1221.5 1.65027 0.971506 0
M  V30 12843 H 1219.81 1.59665 3.57791 0
M  V30 12844 H 1221.5 1.97762 3.48843 0
M  V30 12845 H 1218.09 3.23896 2.80695 0
M  V30 12846 H 1222.28 4.20476 2.63655 0
M  V30 12847 H 1217.53 5.60468 2.44307 0
M  V30 12848 H 1221.71 6.57901 2.2834 0
M  V30 12849 H 1219.34 7.28225 2.18156 0
M  V30 12850 N 1220.91 -1.05686 1.16912 0
M  V30 12851 C 1221.84 -2.1329 0.839044 0
M  V30 12852 C 1222.86 -1.62047 -0.156392 0
M  V30 12853 O 1224.04 -1.78366 0.0692192 0
M  V30 12854 C 1221.14 -3.38122 0.229558 0
M  V30 12855 C 1220.32 -4.18659 1.26662 0
M  V30 12856 C 1219.38 -5.21842 0.675811 0
M  V30 12857 O 1218.4 -5.53049 1.3463 0
M  V30 12858 N 1219.6 -5.78034 -0.534532 0
M  V30 12859 H 1222.37 -2.42203 1.76515 0
M  V30 12860 H 1219.93 -1.2174 1.06729 0
M  V30 12861 H 1221.92 -4.04305 -0.178868 0
M  V30 12862 H 1220.49 -3.06783 -0.60023 0
M  V30 12863 H 1219.71 -3.4804 1.85099 0
M  V30 12864 H 1221 -4.6927 1.9663 0
M  V30 12865 H 1220.4 -5.54955 -1.09731 0
M  V30 12866 H 1218.96 -6.45763 -0.885087 0
M  V30 12867 N 1222.39 -0.968567 -1.24324 0
M  V30 12868 C 1223.67 -0.547774 -1.87773 0
M  V30 12869 C 1224.05 0.975107 -1.87229 0
M  V30 12870 O 1223.39 1.84683 -1.34553 0
M  V30 12871 C 1223.6 -1.1403 -3.29846 0
M  V30 12872 C 1224.95 -1.22572 -4.06523 0
M  V30 12873 O 1225.98 -1.09287 -3.3902 0
M  V30 12874 O 1224.83 -1.43579 -5.27302 0
M  V30 12875 H 1221.93 -0.182771 -0.806551 0
M  V30 12876 H 1224.47 -1.06289 -1.3229 0
M  V30 12877 H 1223.25 -2.18303 -3.24745 0
M  V30 12878 H 1222.87 -0.609275 -3.92904 0
M  V30 12879 N 1223.87 1.39211 -0.738786 0
M  V30 12880 C 1225.11 2.00733 -0.288817 0
M  V30 12881 C 1225.45 1.58494 1.1222 0
M  V30 12882 O 1224.72 0.815579 1.76575 0
M  V30 12883 C 1225 3.57928 -0.394956 0
M  V30 12884 C 1224.86 4.10174 -1.84601 0
M  V30 12885 C 1226.18 4.39548 0.220395 0
M  V30 12886 H 1223.29 0.729276 -0.106418 0
M  V30 12887 H 1225.94 1.65365 -0.935652 0
M  V30 12888 H 1224.09 3.88188 0.155744 0
M  V30 12889 H 1225.76 3.90618 -2.45388 0
M  V30 12890 H 1224 3.63593 -2.36607 0
M  V30 12891 H 1224.67 5.19305 -1.87152 0
M  V30 12892 H 1227.15 4.15354 -0.249098 0
M  V30 12893 H 1226.02 5.48778 0.115806 0
M  V30 12894 H 1226.29 4.22341 1.30691 0
M  V30 12895 N 1225.34 0.486708 1.49896 0
M  V30 12896 C 1226.59 -0.0646197 2.01596 0
M  V30 12897 C 1226.91 -1.39363 1.37249 0
M  V30 12898 O 1228.11 -2.03082 1.80194 0
M  V30 12899 C 1226.57 -0.16565 3.59519 0
M  V30 12900 C 1226.18 1.15586 4.32832 0
M  V30 12901 C 1227.92 -0.668103 4.1921 0
M  V30 12902 C 1225.83 1.01778 5.82576 0
M  V30 12903 H 1224.76 -0.0279241 0.753483 0
M  V30 12904 H 1227.41 0.623969 1.72566 0
M  V30 12905 H 1225.79 -0.918372 3.85204 0
M  V30 12906 H 1226.96 1.92076 4.1886 0
M  V30 12907 H 1225.28 1.59064 3.84822 0
M  V30 12908 H 1227.88 -0.788698 5.28851 0
M  V30 12909 H 1228.22 -1.66339 3.81624 0
M  V30 12910 H 1228.75 0.0276746 3.9779 0
M  V30 12911 H 1225.49 1.9869 6.24662 0
M  V30 12912 H 1225.01 0.293527 5.99081 0
M  V30 12913 H 1226.69 0.690693 6.43303 0
M  V30 12914 N 1226.82 -1.56058 0.219941 0
M  V30 12915 C 1228.07 -1.97869 -0.411383 0
M  V30 12916 C 1228.39 -1.10878 -1.60409 0
M  V30 12917 O 1227.66 -0.185454 -1.9502 0
M  V30 12918 H 1226.24 -0.730747 -0.154979 0
M  V30 12919 H 1228.9 -1.92379 0.312461 0
M  V30 12920 H 1228 -3.0323 -0.738798 0
M  V30 12921 N 1228.3 0.053464 -1.57509 0
M  V30 12922 C 1229.21 1.07902 -2.08313 0
M  V30 12923 C 1230.23 1.41223 -1.01647 0
M  V30 12924 O 1231.4 1.51032 -1.33233 0
M  V30 12925 C 1228.47 2.36813 -2.5322 0
M  V30 12926 C 1227.53 2.10297 -3.74264 0
M  V30 12927 C 1226.76 3.33062 -4.1702 0
M  V30 12928 O 1226.99 4.42857 -3.59491 0
M  V30 12929 O 1225.92 3.20195 -5.09665 0
M  V30 12930 H 1229.75 0.677368 -2.9605 0
M  V30 12931 H 1227.33 0.268838 -1.46961 0
M  V30 12932 H 1229.21 3.12645 -2.82544 0
M  V30 12933 H 1227.89 2.76323 -1.68605 0
M  V30 12934 H 1226.79 1.32111 -3.49996 0
M  V30 12935 H 1228.13 1.75658 -4.59788 0
M  V30 12936 N 1229.78 1.54207 0.325255 0
M  V30 12937 C 1231.03 1.71991 1.0613 0
M  V30 12938 C 1231.35 0.495505 1.88599 0
M  V30 12939 O 1230.62 -0.490504 1.8966 0
M  V30 12940 H 1229.2 0.634137 0.394816 0
M  V30 12941 H 1231.86 1.91507 0.362101 0
M  V30 12942 H 1230.96 2.59878 1.72829 0
M  V30 12943 N 1231.26 -0.58723 1.46251 0
M  V30 12944 C 1232.21 -1.71771 1.56836 0
M  V30 12945 C 1233.2 -1.63664 0.437096 0
M  V30 12946 O 1234.41 -1.69212 0.613797 0
M  V30 12947 H 1230.78 -0.567841 0.493012 0
M  V30 12948 H 1232.75 -1.59974 2.51895 0
M  V30 12949 C 1231.5 -3.10159 1.57152 0
M  V30 12950 H 1230.82 -3.17066 2.43535 0
M  V30 12951 H 1232.26 -3.89032 1.68613 0
M  V30 12952 C 1230.72 -3.35567 0.299374 0
M  V30 12953 O 1231.25 -3.97006 -0.612291 0
M  V30 12954 N 1229.46 -2.89987 0.188695 0
M  V30 12955 H 1229.01 -2.4017 0.93147 0
M  V30 12956 H 1228.96 -3.0736 -0.661612 0
M  V30 12957 N 1232.74 -1.33881 -0.831482 0
M  V30 12958 C 1233.98 -1.25755 -1.58719 0
M  V30 12959 C 1234.31 0.174746 -1.93713 0
M  V30 12960 O 1233.57 1.13384 -1.59507 0
M  V30 12961 C 1233.86 -2.08544 -2.90249 0
M  V30 12962 C 1233.53 -3.57651 -2.74585 0
M  V30 12963 C 1232.19 -3.983 -2.7002 0
M  V30 12964 C 1234.54 -4.52369 -2.58866 0
M  V30 12965 C 1231.87 -5.31872 -2.47647 0
M  V30 12966 C 1234.22 -5.86112 -2.38025 0
M  V30 12967 C 1232.89 -6.25934 -2.31867 0
M  V30 12968 H 1232.16 -0.460171 -0.580796 0
M  V30 12969 H 1234.81 -1.6554 -0.96274 0
M  V30 12970 H 1233.11 -1.6156 -3.56939 0
M  V30 12971 H 1234.81 -1.99609 -3.47789 0
M  V30 12972 H 1231.4 -3.2538 -2.78973 0
M  V30 12973 H 1235.58 -4.21868 -2.61421 0
M  V30 12974 H 1230.84 -5.61756 -2.41331 0
M  V30 12975 H 1235.01 -6.59103 -2.24847 0
M  V30 12976 H 1232.64 -7.29372 -2.14291 0
M  V30 12977 N 1234.21 1.05064 -1.1747 0
M  V30 12978 C 1235.46 1.77737 -0.961979 0
M  V30 12979 C 1235.78 1.88198 0.510551 0
M  V30 12980 O 1235.05 1.39968 1.37062 0
M  V30 12981 H 1233.63 0.658366 -0.352935 0
M  V30 12982 H 1236.29 1.26851 -1.47969 0
M  V30 12983 H 1235.39 2.79368 -1.39141 0
M  V30 12984 N 1235.69 0.975146 1.23809 0
M  V30 12985 C 1236.62 0.469151 2.24347 0
M  V30 12986 C 1237.64 -0.426156 1.57123 0
M  V30 12987 O 1238.83 -0.231136 1.76997 0
M  V30 12988 C 1235.93 -0.34121 3.37178 0
M  V30 12989 C 1235.1 0.545968 4.33979 0
M  V30 12990 C 1234.16 -0.209648 5.25782 0
M  V30 12991 O 1233.18 0.398953 5.678 0
M  V30 12992 N 1234.39 -1.49713 5.60862 0
M  V30 12993 H 1237.15 1.33359 2.68394 0
M  V30 12994 H 1234.71 0.847814 1.37927 0
M  V30 12995 H 1236.7 -0.854924 3.95567 0
M  V30 12996 H 1235.27 -1.10663 2.92357 0
M  V30 12997 H 1234.49 1.24057 3.7417 0
M  V30 12998 H 1235.78 1.15077 4.95615 0
M  V30 12999 H 1235.18 -2.0132 5.28665 0
M  V30 13000 H 1233.74 -1.95639 6.21746 0
M  V30 13001 N 1237.17 -1.38817 0.746158 0
M  V30 13002 C 1238.42 -2.00577 0.299458 0
M  V30 13003 C 1238.75 -1.59087 -1.11378 0
M  V30 13004 O 1238.02 -0.824932 -1.7614 0
M  V30 13005 C 1238.31 -3.57713 0.413932 0
M  V30 13006 C 1238.16 -4.09189 1.86774 0
M  V30 13007 C 1239.48 -4.39659 -0.197082 0
M  V30 13008 H 1236.6 -0.728702 0.110285 0
M  V30 13009 H 1239.24 -1.64866 0.944408 0
M  V30 13010 H 1237.39 -3.88265 -0.135155 0
M  V30 13011 H 1239.06 -3.89311 2.47456 0
M  V30 13012 H 1237.3 -3.62333 2.38532 0
M  V30 13013 H 1237.98 -5.18305 1.89904 0
M  V30 13014 H 1240.45 -4.15216 0.271121 0
M  V30 13015 H 1239.33 -5.48832 -0.0867011 0
M  V30 13016 H 1239.59 -4.23028 -1.2845 0
M  V30 13017 N 1238.65 -0.49465 -1.49636 0
M  V30 13018 C 1239.58 0.276606 -2.31856 0
M  V30 13019 C 1240.56 0.968499 -1.39836 0
M  V30 13020 O 1241.74 0.96113 -1.68748 0
M  V30 13021 C 1238.87 1.34522 -3.20189 0
M  V30 13022 C 1237.83 0.773571 -4.20951 0
M  V30 13023 C 1237.15 1.94223 -4.98178 0
M  V30 13024 C 1238.45 -0.231096 -5.21788 0
M  V30 13025 H 1240.15 -0.409668 -2.96584 0
M  V30 13026 H 1237.69 -0.198461 -1.42626 0
M  V30 13027 H 1239.65 1.89244 -3.76517 0
M  V30 13028 H 1238.37 2.06059 -2.53392 0
M  V30 13029 H 1237.03 0.248144 -3.65759 0
M  V30 13030 H 1236.68 2.64514 -4.27834 0
M  V30 13031 H 1236.38 1.56584 -5.66353 0
M  V30 13032 H 1237.9 2.49391 -5.57348 0
M  V30 13033 H 1239.32 0.227768 -5.72847 0
M  V30 13034 H 1237.71 -0.522984 -5.97817 0
M  V30 13035 H 1238.78 -1.14914 -4.71087 0
M  V30 13036 N 1240.13 1.55939 -0.228214 0
M  V30 13037 C 1241.07 2.20581 0.679157 0
M  V30 13038 C 1242.04 1.16355 1.18536 0
M  V30 13039 O 1243.23 1.44735 1.24324 0
M  V30 13040 C 1240.37 2.89477 1.87875 0
M  V30 13041 C 1239.48 4.08313 1.41083 0
M  V30 13042 C 1238.62 4.64974 2.56851 0
M  V30 13043 C 1237.65 5.76098 2.06828 0
M  V30 13044 N 1236.79 6.27021 3.15894 0
M  V30 13045 H 1241.63 2.97753 0.121203 0
M  V30 13046 H 1239.17 1.47021 0.0480688 0
M  V30 13047 H 1241.13 3.2761 2.58317 0
M  V30 13048 H 1239.76 2.14811 2.40948 0
M  V30 13049 H 1238.81 3.75621 0.601102 0
M  V30 13050 H 1240.12 4.8859 1.00408 0
M  V30 13051 H 1239.27 5.05584 3.35365 0
M  V30 13052 H 1238.01 3.83875 3.00818 0
M  V30 13053 H 1237.02 5.34984 1.26778 0
M  V30 13054 H 1238.24 6.59037 1.63852 0
M  V30 13055 H 1236.19 5.48833 3.5933 0
M  V30 13056 H 1236.11 7.02439 2.79491 0
M  V30 13057 H 1237.37 6.72289 3.94523 0
M  V30 13058 N 1241.6 -0.0451101 1.57535 0
M  V30 13059 C 1242.57 -1.03521 2.0449 0
M  V30 13060 C 1243.57 -1.30009 0.946265 0
M  V30 13061 O 1244.76 -1.25282 1.21038 0
M  V30 13062 C 1241.89 -2.37221 2.44824 0
M  V30 13063 H 1243.08 -0.629943 2.93209 0
M  V30 13064 H 1240.64 -0.291544 1.53557 0
M  V30 13065 H 1241.37 -2.82528 1.59212 0
M  V30 13066 H 1241.16 -2.19329 3.25018 0
M  V30 13067 H 1242.65 -3.08337 2.81635 0
M  V30 13068 N 1243.08 -1.54377 -0.317073 0
M  V30 13069 C 1244.5 -1.45232 -0.6618 0
M  V30 13070 C 1244.7 -0.630457 -1.91383 0
M  V30 13071 O 1243.75 -0.13181 -2.52156 0
M  V30 13072 C 1245.07 -2.89025 -0.829761 0
M  V30 13073 C 1246.62 -2.98967 -0.926685 0
M  V30 13074 C 1247.09 -4.43923 -1.12677 0
M  V30 13075 N 1248.58 -4.47564 -1.19335 0
M  V30 13076 C 1249.32 -5.56887 -1.36617 0
M  V30 13077 N 1248.81 -6.76167 -1.50899 0
M  V30 13078 N 1250.61 -5.44546 -1.39377 0
M  V30 13079 H 1242.76 -2.0629 0.505766 0
M  V30 13080 H 1245.02 -0.933615 0.164522 0
M  V30 13081 H 1244.73 -3.51695 0.0190945 0
M  V30 13082 H 1244.6 -3.35515 -1.72364 0
M  V30 13083 H 1246.99 -2.36421 -1.76604 0
M  V30 13084 H 1247.07 -2.55798 -0.00913402 0
M  V30 13085 H 1246.71 -5.07059 -0.29224 0
M  V30 13086 H 1246.64 -4.84708 -2.05829 0
M  V30 13087 H 1249.13 -3.61623 -1.09715 0
M  V30 13088 H 1249.45 -7.55242 -1.63796 0
M  V30 13089 H 1247.79 -6.79062 -1.47985 0
M  V30 13090 H 1250.98 -4.50311 -1.27819 0
M  V30 13091 H 1251.15 -6.29799 -1.52502 0
M  V30 13092 N 1244.56 0.579466 -1.4656 0
M  V30 13093 C 1245.81 1.33379 -1.51304 0
M  V30 13094 C 1246.12 1.94855 -0.170507 0
M  V30 13095 O 1247.33 2.71331 -0.0957704 0
M  V30 13096 C 1245.78 2.41748 -2.66619 0
M  V30 13097 C 1245.39 1.8656 -4.07307 0
M  V30 13098 C 1247.14 3.18502 -2.80636 0
M  V30 13099 C 1245.04 2.92578 -5.13957 0
M  V30 13100 H 1243.97 0.501422 -0.56311 0
M  V30 13101 H 1246.62 0.618025 -1.72779 0
M  V30 13102 H 1245.01 3.16138 -2.3848 0
M  V30 13103 H 1246.18 1.18692 -4.45252 0
M  V30 13104 H 1244.5 1.22464 -3.97984 0
M  V30 13105 H 1247.09 3.9763 -3.57483 0
M  V30 13106 H 1247.44 3.71295 -1.8827 0
M  V30 13107 H 1247.97 2.51219 -3.08437 0
M  V30 13108 H 1244.71 2.44668 -6.08126 0
M  V30 13109 H 1244.23 3.58926 -4.80554 0
M  V30 13110 H 1245.91 3.56471 -5.39942 0
M  V30 13111 N 1246.04 1.3432 0.824371 0
M  V30 13112 C 1246.99 1.25776 1.93517 0
M  V30 13113 C 1247.96 0.133298 1.65564 0
M  V30 13114 O 1249.14 0.31403 1.88198 0
M  V30 13115 C 1246.28 1.01766 3.29754 0
M  V30 13116 C 1245.39 2.22973 3.7001 0
M  V30 13117 C 1244.53 1.92258 4.95187 0
M  V30 13118 C 1243.57 3.09616 5.2802 0
M  V30 13119 N 1242.7 2.78793 6.44375 0
M  V30 13120 H 1247.54 2.20774 2.00157 0
M  V30 13121 H 1245.08 1.09766 0.979274 0
M  V30 13122 H 1247.04 0.858831 4.08265 0
M  V30 13123 H 1245.67 0.10437 3.22631 0
M  V30 13124 H 1244.72 2.49781 2.86903 0
M  V30 13125 H 1246.03 3.10661 3.90245 0
M  V30 13126 H 1245.19 1.73102 5.81481 0
M  V30 13127 H 1243.93 1.01827 4.76951 0
M  V30 13128 H 1242.93 3.29368 4.40223 0
M  V30 13129 H 1244.16 4.00822 5.48196 0
M  V30 13130 H 1242.1 1.90938 6.27598 0
M  V30 13131 H 1242.02 3.60014 6.64775 0
M  V30 13132 H 1243.29 2.63139 7.33743 0
M  V30 13133 N 1247.52 -1.0444 1.18026 0
M  V30 13134 C 1248.46 -2.12365 0.903865 0
M  V30 13135 C 1249.43 -1.65373 -0.155252 0
M  V30 13136 O 1250.62 -1.90793 -0.016419 0
M  V30 13137 C 1247.76 -3.4239 0.431603 0
M  V30 13138 C 1246.87 -4.03016 1.55571 0
M  V30 13139 C 1246.01 -5.20988 1.03655 0
M  V30 13140 C 1245.05 -5.73636 2.1356 0
M  V30 13141 N 1244.18 -6.82901 1.63066 0
M  V30 13142 H 1249.02 -2.35346 1.82802 0
M  V30 13143 H 1246.56 -1.15447 0.911618 0
M  V30 13144 H 1248.52 -4.16967 0.139296 0
M  V30 13145 H 1247.15 -3.19569 -0.455576 0
M  V30 13146 H 1246.2 -3.25803 1.96358 0
M  V30 13147 H 1247.51 -4.38122 2.38434 0
M  V30 13148 H 1246.67 -6.02665 0.698546 0
M  V30 13149 H 1245.4 -4.87377 0.177457 0
M  V30 13150 H 1244.41 -4.90583 2.4821 0
M  V30 13151 H 1245.63 -6.09293 2.99899 0
M  V30 13152 H 1243.58 -6.51172 0.794394 0
M  V30 13153 H 1243.5 -7.1705 2.3953 0
M  V30 13154 H 1244.77 -7.68211 1.32181 0
M  V30 13155 N 1248.99 -0.981699 -1.2329 0
M  V30 13156 C 1250.27 -0.567659 -1.87182 0
M  V30 13157 C 1250.65 0.955194 -1.88253 0
M  V30 13158 O 1250 1.83245 -1.36504 0
M  V30 13159 C 1250.21 -1.17522 -3.28618 0
M  V30 13160 C 1251.56 -1.26877 -4.052 0
M  V30 13161 O 1252.58 -1.12877 -3.37842 0
M  V30 13162 O 1251.44 -1.49163 -5.2575 0
M  V30 13163 H 1248.53 -0.191315 -0.804567 0
M  V30 13164 H 1251.08 -1.07686 -1.31155 0
M  V30 13165 H 1249.85 -2.21735 -3.22411 0
M  V30 13166 H 1249.48 -0.650913 -3.92236 0
M  V30 13167 N 1250.47 1.3842 -0.753509 0
M  V30 13168 C 1251.72 1.99723 -0.309021 0
M  V30 13169 C 1252.04 1.60111 1.11308 0
M  V30 13170 O 1251.31 0.85792 1.76115 0
M  V30 13171 H 1249.89 0.738667 -0.111266 0
M  V30 13172 H 1252.55 1.69186 -0.967586 0
M  V30 13173 H 1251.65 3.09874 -0.372095 0
M  V30 13174 N 1251.95 0.502579 1.49372 0
M  V30 13175 C 1252.88 -0.264307 2.31999 0
M  V30 13176 C 1253.86 -0.96107 1.40348 0
M  V30 13177 O 1255.05 -0.952167 1.69255 0
M  V30 13178 C 1252.18 -1.32822 3.20898 0
M  V30 13179 C 1251.13 -0.751236 4.21355 0
M  V30 13180 C 1250.46 -1.91578 4.99201 0
M  V30 13181 C 1251.76 0.258764 5.21659 0
M  V30 13182 H 1253.45 0.425391 2.96363 0
M  V30 13183 H 1251 0.206022 1.42519 0
M  V30 13184 H 1252.95 -1.87245 3.77515 0
M  V30 13185 H 1251.67 -2.04712 2.54481 0
M  V30 13186 H 1250.33 -0.228743 3.65886 0
M  V30 13187 H 1249.98 -2.62241 4.2923 0
M  V30 13188 H 1249.68 -1.53578 5.67175 0
M  V30 13189 H 1251.2 -2.46432 5.58663 0
M  V30 13190 H 1252.62 -0.197385 5.7296 0
M  V30 13191 H 1251.02 0.554681 5.97531 0
M  V30 13192 H 1252.09 1.1741 4.70471 0
M  V30 13193 N 1253.43 -1.55816 0.23648 0
M  V30 13194 C 1254.84 -1.59159 -0.118601 0
M  V30 13195 C 1255.04 -1.25352 -1.57763 0
M  V30 13196 O 1254.1 -0.995863 -2.32032 0
M  V30 13197 C 1255.41 -2.99885 0.221175 0
M  V30 13198 C 1256.96 -3.12567 0.164624 0
M  V30 13199 C 1257.44 -4.55496 0.478285 0
M  V30 13200 N 1258.93 -4.61215 0.428402 0
M  V30 13201 C 1259.66 -5.69768 0.644398 0
M  V30 13202 N 1259.16 -6.86624 0.922966 0
M  V30 13203 N 1260.95 -5.59143 0.575814 0
M  V30 13204 H 1253.1 -1.76063 1.18809 0
M  V30 13205 H 1255.37 -0.819079 0.477297 0
M  V30 13206 H 1255.07 -3.29326 1.2344 0
M  V30 13207 H 1254.95 -3.74425 -0.456723 0
M  V30 13208 H 1257.33 -2.82914 -0.839263 0
M  V30 13209 H 1257.41 -2.40325 0.876219 0
M  V30 13210 H 1257.06 -4.85868 1.47968 0
M  V30 13211 H 1256.99 -5.25984 -0.254671 0
M  V30 13212 H 1259.48 -3.77251 0.221398 0
M  V30 13213 H 1259.79 -7.6528 1.07548 0
M  V30 13214 H 1258.14 -6.88333 0.960325 0
M  V30 13215 H 1261.33 -4.66727 0.358307 0
M  V30 13216 H 1261.5 -6.43674 0.747548 0
M  V30 13217 N 1254.91 0.036755 -1.57557 0
M  V30 13218 C 1255.84 1.07261 -2.01421 0
M  V30 13219 C 1256.82 1.35609 -0.897161 0
M  V30 13220 O 1258 1.48395 -1.16237 0
M  V30 13221 C 1255.13 2.40912 -2.38074 0
M  V30 13222 C 1254.17 2.28471 -3.60143 0
M  V30 13223 S 1255.01 1.64544 -5.09594 0
M  V30 13224 C 1256.16 2.99701 -5.49482 0
M  V30 13225 H 1256.4 0.698959 -2.88967 0
M  V30 13226 H 1253.93 0.246481 -1.5242 0
M  V30 13227 H 1255.89 3.17776 -2.59862 0
M  V30 13228 H 1254.55 2.75427 -1.50993 0
M  V30 13229 H 1253.74 3.27117 -3.8342 0
M  V30 13230 H 1253.34 1.59749 -3.38166 0
M  V30 13231 H 1255.64 3.96032 -5.49695 0
M  V30 13232 H 1256.58 2.81166 -6.49885 0
M  V30 13233 H 1256.99 3.0192 -4.76975 0
M  V30 13234 N 1256.39 1.54543 0.308881 0
M  V30 13235 C 1257.66 1.64118 1.06418 0
M  V30 13236 C 1258.04 0.484402 2.05467 0
M  V30 13237 O 1257.39 -0.519752 2.2251 0
M  V30 13238 C 1257.6 3.01776 1.75306 0
M  V30 13239 C 1258.95 3.58324 2.27792 0
M  V30 13240 O 1259.97 3.04177 1.85351 0
M  V30 13241 O 1258.83 4.53113 3.05533 0
M  V30 13242 H 1255.93 0.665172 0.491401 0
M  V30 13243 H 1258.47 1.66889 0.307598 0
M  V30 13244 H 1257.24 3.77407 1.03341 0
M  V30 13245 H 1256.87 3.02748 2.57739 0
M  V30 13246 N 1257.86 -0.571685 1.46866 0
M  V30 13247 C 1258.83 -1.66198 1.57832 0
M  V30 13248 C 1259.83 -1.54242 0.454547 0
M  V30 13249 O 1261.02 -1.58661 0.719191 0
M  V30 13250 C 1258.15 -3.05678 1.5091 0
M  V30 13251 H 1259.34 -1.57829 2.5501 0
M  V30 13252 H 1256.89 -0.790433 1.3484 0
M  V30 13253 H 1257.63 -3.19593 0.550529 0
M  V30 13254 H 1257.41 -3.15765 2.32454 0
M  V30 13255 H 1258.9 -3.85027 1.61692 0
M  V30 13256 N 1259.34 -1.34755 -0.817236 0
M  V30 13257 C 1260.3 -1.26687 -1.91006 0
M  V30 13258 C 1261.3 -0.180745 -1.59781 0
M  V30 13259 O 1262.49 -0.433748 -1.68714 0
M  V30 13260 C 1259.63 -0.957293 -3.27183 0
M  V30 13261 H 1260.82 -2.23846 -1.99582 0
M  V30 13262 H 1258.37 -1.19125 -1.01187 0
M  V30 13263 H 1259.11 0.0108917 -3.24298 0
M  V30 13264 H 1258.89 -1.74297 -3.5123 0
M  V30 13265 H 1260.38 -0.926161 -4.072 0
M  V30 13266 N 1260.82 1.03812 -1.18578 0
M  V30 13267 C 1262.07 1.76455 -0.977071 0
M  V30 13268 C 1262.38 1.8926 0.493964 0
M  V30 13269 O 1263.59 2.58781 0.821256 0
M  V30 13270 C 1262.04 3.17264 -1.69917 0
M  V30 13271 C 1261.65 3.12543 -3.20969 0
M  V30 13272 C 1263.4 3.94266 -1.57337 0
M  V30 13273 C 1261.3 4.48226 -3.85807 0
M  V30 13274 H 1260.23 0.661445 -0.361949 0
M  V30 13275 H 1262.88 1.16252 -1.41978 0
M  V30 13276 H 1261.27 3.77878 -1.18424 0
M  V30 13277 H 1262.44 2.61364 -3.79507 0
M  V30 13278 H 1260.75 2.49039 -3.33719 0
M  V30 13279 H 1263.35 4.9461 -2.03137 0
M  V30 13280 H 1263.69 4.12963 -0.526033 0
M  V30 13281 H 1264.23 3.40232 -2.06124 0
M  V30 13282 H 1260.97 4.34734 -4.90599 0
M  V30 13283 H 1260.49 4.99497 -3.32058 0
M  V30 13284 H 1262.17 5.17135 -3.88819 0
M  V30 13285 N 1262.3 0.988223 1.22768 0
M  V30 13286 C 1263.24 0.534605 2.24523 0
M  V30 13287 C 1264.21 -0.430615 1.60421 0
M  V30 13288 O 1265.4 -0.336417 1.87811 0
M  V30 13289 C 1262.54 -0.149195 3.44777 0
M  V30 13290 C 1261.65 0.85721 4.2341 0
M  V30 13291 C 1260.79 0.147411 5.30995 0
M  V30 13292 C 1259.83 1.1425 6.01343 0
M  V30 13293 N 1258.96 0.461327 7.00583 0
M  V30 13294 H 1263.8 1.40708 2.62689 0
M  V30 13295 H 1261.34 0.704918 1.2911 0
M  V30 13296 H 1263.3 -0.562527 4.1339 0
M  V30 13297 H 1261.93 -0.985485 3.07389 0
M  V30 13298 H 1260.98 1.38889 3.54138 0
M  V30 13299 H 1262.29 1.61517 4.71926 0
M  V30 13300 H 1261.45 -0.32289 6.0584 0
M  V30 13301 H 1260.19 -0.643085 4.83442 0
M  V30 13302 H 1259.19 1.62348 5.25284 0
M  V30 13303 H 1260.42 1.93379 6.50985 0
M  V30 13304 H 1258.36 -0.309818 6.55268 0
M  V30 13305 H 1258.28 1.15781 7.47082 0
M  V30 13306 H 1259.55 0.0136734 7.79499 0
M  V30 13307 N 1263.78 -1.38018 0.760839 0
M  V30 13308 C 1265.19 -1.53437 0.439239 0
M  V30 13309 C 1265.39 -1.72184 -1.04666 0
M  V30 13310 O 1264.45 -1.73698 -1.83263 0
M  V30 13311 C 1265.76 -2.73724 1.24481 0
M  V30 13312 C 1267.31 -2.87579 1.23561 0
M  V30 13313 C 1267.78 -4.10836 2.02429 0
M  V30 13314 N 1269.27 -4.17928 1.99727 0
M  V30 13315 C 1270.01 -5.12309 2.57541 0
M  V30 13316 N 1269.51 -6.12317 3.24098 0
M  V30 13317 N 1271.3 -5.04712 2.47431 0
M  V30 13318 H 1263.45 -1.241 1.72375 0
M  V30 13319 H 1265.71 -0.603427 0.73115 0
M  V30 13320 H 1265.42 -2.663 2.29732 0
M  V30 13321 H 1265.29 -3.67111 0.866579 0
M  V30 13322 H 1267.68 -2.9448 0.191122 0
M  V30 13323 H 1267.76 -1.95183 1.6534 0
M  V30 13324 H 1267.4 -4.04696 3.06893 0
M  V30 13325 H 1267.33 -5.02326 1.58039 0
M  V30 13326 H 1269.83 -3.46307 1.51262 0
M  V30 13327 H 1270.14 -6.80842 3.65615 0
M  V30 13328 H 1268.48 -6.12628 3.28195 0
M  V30 13329 H 1271.67 -4.25524 1.95057 0
M  V30 13330 H 1271.85 -5.78085 2.92783 0
M  V30 13331 N 1265.25 -0.510493 -1.49103 0
M  V30 13332 C 1266.19 0.309697 -2.26089 0
M  V30 13333 C 1267.16 0.962061 -1.31084 0
M  V30 13334 O 1268.35 0.990296 -1.60391 0
M  V30 13335 C 1265.48 1.43693 -3.06708 0
M  V30 13336 C 1264.52 0.897978 -4.1694 0
M  V30 13337 S 1265.35 -0.218781 -5.35053 0
M  V30 13338 C 1266.51 0.911396 -6.19229 0
M  V30 13339 H 1266.74 -0.343702 -2.95307 0
M  V30 13340 H 1264.28 -0.295944 -1.51537 0
M  V30 13341 H 1266.23 2.08277 -3.53739 0
M  V30 13342 H 1264.9 2.06198 -2.36941 0
M  V30 13343 H 1264.09 1.74303 -4.729 0
M  V30 13344 H 1263.69 0.329192 -3.72548 0
M  V30 13345 H 1265.98 1.8145 -6.5275 0
M  V30 13346 H 1266.93 0.390201 -7.07024 0
M  V30 13347 H 1267.33 1.18301 -5.51965 0
M  V30 13348 N 1266.73 1.55688 -0.24474 0
M  V30 13349 C 1267.68 2.21289 0.655723 0
M  V30 13350 C 1268.65 1.17606 1.17295 0
M  V30 13351 O 1269.83 1.46045 1.22782 0
M  V30 13352 C 1266.97 2.91453 1.84794 0
M  V30 13353 C 1266.09 4.09787 1.36744 0
M  V30 13354 C 1265.22 4.67672 2.51905 0
M  V30 13355 C 1264.26 5.78259 2.00706 0
M  V30 13356 N 1263.4 6.30336 3.09225 0
M  V30 13357 H 1268.24 2.97865 0.0896156 0
M  V30 13358 H 1265.77 1.47064 0.0324725 0
M  V30 13359 H 1267.73 3.30331 2.54828 0
M  V30 13360 H 1266.36 2.17355 2.38656 0
M  V30 13361 H 1265.41 3.76237 0.561228 0
M  V30 13362 H 1266.73 4.89627 0.952199 0
M  V30 13363 H 1265.88 5.09113 3.29984 0
M  V30 13364 H 1264.62 3.87044 2.9673 0
M  V30 13365 H 1263.62 5.36298 1.21097 0
M  V30 13366 H 1264.85 6.60737 1.56853 0
M  V30 13367 H 1262.8 5.52614 3.53489 0
M  V30 13368 H 1262.71 7.05364 2.72025 0
M  V30 13369 H 1263.98 6.76435 3.8737 0
M  V30 13370 N 1268.21 -0.0283989 1.57574 0
M  V30 13371 C 1269.12 -1.04575 2.10003 0
M  V30 13372 C 1270.14 -1.39588 1.03881 0
M  V30 13373 O 1271.31 -1.48894 1.35619 0
M  V30 13374 C 1268.38 -2.32755 2.56955 0
M  V30 13375 C 1267.44 -2.04317 3.77562 0
M  V30 13376 C 1266.67 -3.26385 4.22266 0
M  V30 13377 O 1266.89 -4.37082 3.66491 0
M  V30 13378 O 1265.83 -3.12046 5.14695 0
M  V30 13379 H 1269.65 -0.630183 2.9709 0
M  V30 13380 H 1267.24 -0.245423 1.4737 0
M  V30 13381 H 1269.12 -3.08111 2.87482 0
M  V30 13382 H 1267.8 -2.73605 1.72979 0
M  V30 13383 H 1266.7 -1.26527 3.52054 0
M  V30 13384 H 1268.04 -1.68321 4.62524 0
M  V30 13385 N 1269.69 -1.54705 -0.300681 0
M  V30 13386 C 1270.92 -1.77735 -1.05327 0
M  V30 13387 C 1271.33 -0.53709 -1.81417 0
M  V30 13388 O 1270.67 0.502663 -1.76689 0
M  V30 13389 C 1270.73 -2.93222 -2.07993 0
M  V30 13390 C 1270.39 -4.313 -1.51095 0
M  V30 13391 C 1271.39 -5.11317 -0.94082 0
M  V30 13392 C 1269.08 -4.77901 -1.54648 0
M  V30 13393 C 1271.07 -6.36055 -0.413791 0
M  V30 13394 C 1268.76 -6.02602 -1.01558 0
M  V30 13395 C 1269.76 -6.81515 -0.450209 0
M  V30 13396 O 1269.44 -8.03867 0.0726375 0
M  V30 13397 H 1269.18 -0.596468 -0.318122 0
M  V30 13398 H 1271.73 -2.02475 -0.345404 0
M  V30 13399 H 1269.96 -2.64108 -2.82461 0
M  V30 13400 H 1271.65 -3.03826 -2.69156 0
M  V30 13401 H 1272.41 -4.76458 -0.906268 0
M  V30 13402 H 1268.29 -4.16507 -1.97594 0
M  V30 13403 H 1271.84 -6.97594 0.0281534 0
M  V30 13404 H 1267.73 -6.36948 -1.04728 0
M  V30 13405 H 1268.5 -8.1849 -0.0406321 0
M  V30 13406 N 1271.17 0.563888 -1.47167 0
M  V30 13407 C 1272.13 1.65359 -1.58711 0
M  V30 13408 C 1273.13 1.53999 -0.46272 0
M  V30 13409 O 1274.32 1.58277 -0.727595 0
M  V30 13410 C 1271.45 3.04874 -1.52529 0
M  V30 13411 H 1272.64 1.56475 -2.55843 0
M  V30 13412 H 1270.2 0.783271 -1.35257 0
M  V30 13413 H 1270.93 3.19297 -0.56747 0
M  V30 13414 H 1270.72 3.14528 -2.34125 0
M  V30 13415 H 1272.21 3.84164 -1.63731 0
M  V30 13416 N 1272.64 1.35187 0.810078 0
M  V30 13417 C 1273.87 1.31528 1.60359 0
M  V30 13418 C 1274.29 -0.105385 1.87805 0
M  V30 13419 O 1273.65 -1.07113 1.46276 0
M  V30 13420 C 1273.7 2.12429 2.91386 0
M  V30 13421 O 1272.8 1.50262 3.84051 0
M  V30 13422 H 1272.15 0.451122 0.487222 0
M  V30 13423 H 1274.68 1.78178 1.00568 0
M  V30 13424 H 1274.69 2.24257 3.40841 0
M  V30 13425 H 1273.36 3.15714 2.70735 0
M  V30 13426 H 1271.94 1.47253 3.42594 0
M  V30 13427 N 1274.12 -1.03182 1.19127 0
M  V30 13428 C 1275.07 -2.11394 0.926339 0
M  V30 13429 C 1276.04 -1.65528 -0.137703 0
M  V30 13430 O 1277.22 -1.908 0.00381804 0
M  V30 13431 C 1274.36 -3.41913 0.467894 0
M  V30 13432 C 1273.48 -4.01343 1.59837 0
M  V30 13433 C 1272.61 -5.1986 1.09175 0
M  V30 13434 C 1271.65 -5.71339 2.19632 0
M  V30 13435 N 1270.79 -6.81133 1.703 0
M  V30 13436 H 1275.63 -2.33393 1.85288 0
M  V30 13437 H 1273.17 -1.14473 0.923811 0
M  V30 13438 H 1275.12 -4.16796 0.183513 0
M  V30 13439 H 1273.75 -3.20034 -0.421656 0
M  V30 13440 H 1272.81 -3.23702 1.99803 0
M  V30 13441 H 1274.12 -4.35568 2.43068 0
M  V30 13442 H 1273.27 -6.0189 0.762427 0
M  V30 13443 H 1272.01 -4.87161 0.22914 0
M  V30 13444 H 1271.02 -4.87923 2.53399 0
M  V30 13445 H 1272.24 -6.06078 3.06344 0
M  V30 13446 H 1270.19 -6.50293 0.863415 0
M  V30 13447 H 1270.1 -7.1447 2.47122 0
M  V30 13448 H 1271.37 -7.66766 1.40321 0
M  V30 13449 N 1275.6 -0.99472 -1.22242 0
M  V30 13450 C 1276.88 -0.587481 -1.86569 0
M  V30 13451 C 1277.26 0.935174 -1.89256 0
M  V30 13452 O 1276.61 1.81787 -1.3844 0
M  V30 13453 C 1276.82 -1.21001 -3.27353 0
M  V30 13454 C 1278.16 -1.31167 -4.03832 0
M  V30 13455 O 1279.19 -1.16454 -3.36626 0
M  V30 13456 O 1278.05 -1.54731 -5.24138 0
M  V30 13457 H 1275.14 -0.199838 -0.802492 0
M  V30 13458 H 1277.69 -1.09071 -1.30006 0
M  V30 13459 H 1276.46 -2.25143 -3.20041 0
M  V30 13460 H 1276.08 -0.692479 -3.91523 0
M  V30 13461 N 1277.08 1.37613 -0.768148 0
M  V30 13462 C 1278.36 1.93921 -0.255724 0
M  V30 13463 C 1278.74 1.70215 1.2486 0
M  V30 13464 O 1278.08 1.0489 2.03003 0
M  V30 13465 C 1278.29 3.43354 -0.625204 0
M  V30 13466 C 1279.64 4.20439 -0.592978 0
M  V30 13467 O 1280.67 3.51701 -0.564375 0
M  V30 13468 O 1279.52 5.43008 -0.616849 0
M  V30 13469 H 1276.62 0.824968 -0.0579366 0
M  V30 13470 H 1279.16 1.46921 -0.849257 0
M  V30 13471 H 1277.94 3.54177 -1.66356 0
M  V30 13472 H 1277.56 3.976 -0.00442816 0
M  V30 13473 N 1278.56 0.518393 1.4883 0
M  V30 13474 C 1279.51 -0.270295 2.26392 0
M  V30 13475 C 1280.49 -0.9202 1.31989 0
M  V30 13476 O 1281.68 -0.824923 1.56601 0
M  V30 13477 C 1278.81 -1.32368 3.16755 0
M  V30 13478 C 1277.9 -0.679143 4.18627 0
M  V30 13479 N 1278.29 0.228392 5.05284 0
M  V30 13480 C 1276.59 -0.937712 4.36031 0
M  V30 13481 C 1277.29 0.599076 5.78607 0
M  V30 13482 N 1276.26 -0.0371273 5.43587 0
M  V30 13483 H 1280.07 0.428066 2.90766 0
M  V30 13484 H 1277.58 0.335632 1.58894 0
M  V30 13485 H 1279.58 -1.9023 3.70969 0
M  V30 13486 H 1278.24 -2.02354 2.53935 0
M  V30 13487 H 1279.25 0.600292 5.14409 0
M  V30 13488 H 1275.92 -1.62901 3.84408 0
M  V30 13489 H 1277.31 1.34256 6.5835 0
M  V30 13490 N 1280.03 -1.55556 0.252993 0
M  V30 13491 C 1281.45 -1.59276 -0.101714 0
M  V30 13492 C 1281.65 -1.27018 -1.56424 0
M  V30 13493 O 1280.71 -1.02042 -2.30963 0
M  V30 13494 C 1282.02 -2.99634 0.252969 0
M  V30 13495 C 1283.57 -3.12375 0.197767 0
M  V30 13496 C 1284.04 -4.54963 0.52657 0
M  V30 13497 N 1285.53 -4.60734 0.477296 0
M  V30 13498 C 1286.27 -5.69052 0.704793 0
M  V30 13499 N 1285.76 -6.85607 0.99574 0
M  V30 13500 N 1287.56 -5.58501 0.635086 0
M  V30 13501 H 1279.71 -1.74793 1.2067 0
M  V30 13502 H 1281.97 -0.813971 0.485958 0
M  V30 13503 H 1281.68 -3.27998 1.26926 0
M  V30 13504 H 1281.55 -3.74888 -0.416984 0
M  V30 13505 H 1283.94 -2.83788 -0.809209 0
M  V30 13506 H 1284.02 -2.39382 0.901659 0
M  V30 13507 H 1283.66 -4.84271 1.53113 0
M  V30 13508 H 1283.59 -5.26224 -0.198869 0
M  V30 13509 H 1286.08 -3.76995 0.261398 0
M  V30 13510 H 1286.4 -7.64096 1.15659 0
M  V30 13511 H 1284.74 -6.87276 1.03328 0
M  V30 13512 H 1287.93 -4.6632 0.407789 0
M  V30 13513 H 1288.11 -6.42845 0.815777 0
M  V30 13514 N 1281.51 0.0200419 -1.57587 0
M  V30 13515 C 1282.79 0.744946 -1.80859 0
M  V30 13516 C 1283.17 1.93089 -0.853218 0
M  V30 13517 O 1282.52 2.28269 0.10261 0
M  V30 13518 C 1282.73 1.16952 -3.28821 0
M  V30 13519 C 1284.08 1.5817 -3.9404 0
M  V30 13520 O 1285.1 1.26385 -3.33024 0
M  V30 13521 O 1283.96 2.17197 -5.01486 0
M  V30 13522 H 1281.05 0.360995 -0.744051 0
M  V30 13523 H 1283.6 -0.00387374 -1.697 0
M  V30 13524 H 1282.37 0.323304 -3.89962 0
M  V30 13525 H 1281.99 1.97807 -3.44903 0
M  V30 13526 N 1282.99 1.54862 0.292472 0
M  V30 13527 C 1284.24 1.74548 1.02661 0
M  V30 13528 C 1284.57 0.535895 1.86972 0
M  V30 13529 O 1283.82 -0.482016 1.89671 0
M  V30 13530 C 1284.12 2.99214 1.95463 0
M  V30 13531 C 1283.79 4.32628 1.2706 0
M  V30 13532 C 1282.45 4.68892 1.08138 0
M  V30 13533 C 1284.8 5.15296 0.782278 0
M  V30 13534 C 1282.13 5.85397 0.39081 0
M  V30 13535 C 1284.48 6.32512 0.105392 0
M  V30 13536 C 1283.14 6.67431 -0.0957097 0
M  V30 13537 H 1282.41 0.638717 0.375662 0
M  V30 13538 H 1285.06 1.89125 0.300672 0
M  V30 13539 H 1283.37 2.79454 2.74613 0
M  V30 13540 H 1285.06 3.1164 2.52352 0
M  V30 13541 H 1281.65 4.04113 1.42796 0
M  V30 13542 H 1285.84 4.87771 0.916151 0
M  V30 13543 H 1281.09 6.10989 0.224095 0
M  V30 13544 H 1285.27 6.95833 -0.280845 0
M  V30 13545 H 1282.89 7.57562 -0.63281 0
M  V30 13546 N 1284.47 -0.556076 1.47464 0
M  V30 13547 C 1285.43 -1.64515 1.59586 0
M  V30 13548 C 1286.43 -1.53751 0.470881 0
M  V30 13549 O 1287.62 -1.57889 0.735979 0
M  V30 13550 C 1284.75 -3.0406 1.54143 0
M  V30 13551 H 1285.95 -1.55116 2.56669 0
M  V30 13552 H 1283.5 -0.776087 1.35671 0
M  V30 13553 H 1284.23 -3.18991 0.584395 0
M  V30 13554 H 1284.02 -3.13282 2.3579 0
M  V30 13555 H 1285.51 -3.8329 1.65766 0
M  V30 13556 N 1285.95 -1.35615 -0.802897 0
M  V30 13557 C 1287.2 -1.28839 -1.55708 0
M  V30 13558 C 1287.52 0.135906 -1.94526 0
M  V30 13559 O 1286.79 1.07317 -1.6389 0
M  V30 13560 H 1285.37 -0.473906 -0.577427 0
M  V30 13561 H 1288.03 -1.69759 -0.957487 0
M  V30 13562 H 1287.12 -1.90675 -2.47082 0
M  V30 13563 N 1287.43 1.02549 -1.19673 0
M  V30 13564 C 1288.34 2.14373 -0.952972 0
M  V30 13565 C 1289.35 1.73776 0.0881727 0
M  V30 13566 O 1290.53 2.01165 -0.0972471 0
M  V30 13567 C 1287.59 3.43096 -0.498569 0
M  V30 13568 C 1286.65 3.97987 -1.60951 0
M  V30 13569 C 1285.89 5.20567 -1.17669 0
M  V30 13570 O 1286.11 5.70385 -0.0416636 0
M  V30 13571 O 1285.04 5.6838 -1.98059 0
M  V30 13572 H 1288.87 2.378 -1.88904 0
M  V30 13573 H 1286.45 1.12781 -0.979836 0
M  V30 13574 H 1288.34 4.20634 -0.253968 0
M  V30 13575 H 1287.01 3.21105 0.409018 0
M  V30 13576 H 1285.92 3.21768 -1.90829 0
M  V30 13577 H 1287.25 4.24349 -2.49377 0
M  V30 13578 N 1288.9 1.00119 1.21713 0
M  V30 13579 C 1289.83 0.578504 2.2622 0
M  V30 13580 C 1290.81 -0.398777 1.6536 0
M  V30 13581 O 1292 -0.287596 1.92059 0
M  V30 13582 C 1289.13 -0.0994508 3.47158 0
M  V30 13583 C 1288.08 0.79722 4.2051 0
M  V30 13584 C 1287.41 -0.0141125 5.34698 0
M  V30 13585 C 1288.71 2.09802 4.7831 0
M  V30 13586 H 1290.4 1.45208 2.6183 0
M  V30 13587 H 1287.95 0.699656 1.2586 0
M  V30 13588 H 1289.9 -0.406605 4.19434 0
M  V30 13589 H 1288.63 -1.00763 3.10667 0
M  V30 13590 H 1287.29 1.08814 3.50079 0
M  V30 13591 H 1286.93 -0.923468 4.9445 0
M  V30 13592 H 1286.63 0.582883 5.84702 0
M  V30 13593 H 1288.16 -0.31517 6.09786 0
M  V30 13594 H 1289.57 1.85427 5.42485 0
M  V30 13595 H 1287.97 2.64455 5.38687 0
M  V30 13596 H 1289.04 2.77132 3.97902 0
M  V30 13597 N 1290.38 -1.37203 0.775435 0
M  V30 13598 C 1291.29 -2.34019 0.165062 0
M  V30 13599 C 1292.31 -1.6036 -0.675316 0
M  V30 13600 O 1293.48 -1.9243 -0.594375 0
M  V30 13601 C 1290.55 -3.3954 -0.700957 0
M  V30 13602 C 1289.61 -4.29015 0.156304 0
M  V30 13603 C 1288.84 -5.29497 -0.668476 0
M  V30 13604 O 1289.07 -5.37636 -1.90535 0
M  V30 13605 O 1288 -6.01852 -0.0757351 0
M  V30 13606 H 1291.83 -2.87955 0.965184 0
M  V30 13607 H 1289.41 -1.39429 0.536654 0
M  V30 13608 H 1291.29 -4.04094 -1.19524 0
M  V30 13609 H 1289.97 -2.87926 -1.4792 0
M  V30 13610 H 1288.87 -3.67549 0.69703 0
M  V30 13611 H 1290.21 -4.83944 0.897725 0
M  V30 13612 N 1291.86 -0.526279 -1.48553 0
M  V30 13613 C 1293.11 0.00918008 -2.02798 0
M  V30 13614 C 1293.44 1.34284 -1.4029 0
M  V30 13615 O 1292.71 1.86639 -0.547355 0
M  V30 13616 C 1293 0.135102 -3.59846 0
M  V30 13617 C 1292.85 -1.22347 -4.32841 0
M  V30 13618 C 1294.17 0.863673 -4.31542 0
M  V30 13619 H 1291.29 0.00186216 -0.736998 0
M  V30 13620 H 1293.93 -0.682591 -1.77315 0
M  V30 13621 H 1292.08 0.724279 -3.81689 0
M  V30 13622 H 1293.75 -1.85347 -4.22427 0
M  V30 13623 H 1291.99 -1.80631 -3.94405 0
M  V30 13624 H 1292.67 -1.08839 -5.41164 0
M  V30 13625 H 1295.14 0.363734 -4.14507 0
M  V30 13626 H 1294.02 0.92067 -5.41124 0
M  V30 13627 H 1294.28 1.91313 -3.98562 0
M  V30 13628 N 1293.34 1.5542 -0.261239 0
M  V30 13629 C 1294.27 2.24949 0.626126 0
M  V30 13630 C 1295.25 1.23474 1.16997 0
M  V30 13631 O 1296.43 1.52161 1.20667 0
M  V30 13632 C 1293.56 2.95996 1.81669 0
M  V30 13633 C 1292.52 4.04282 1.40499 0
M  V30 13634 C 1291.84 4.62831 2.67753 0
M  V30 13635 C 1293.14 5.1923 0.56543 0
M  V30 13636 H 1294.84 2.99364 0.0463164 0
M  V30 13637 H 1292.38 1.43985 0.0208366 0
M  V30 13638 H 1294.34 3.43343 2.44323 0
M  V30 13639 H 1293.06 2.19093 2.42211 0
M  V30 13640 H 1291.72 3.57726 0.801712 0
M  V30 13641 H 1291.37 3.82611 3.26524 0
M  V30 13642 H 1291.07 5.35938 2.40925 0
M  V30 13643 H 1292.59 5.12918 3.31281 0
M  V30 13644 H 1294.01 5.62714 1.09663 0
M  V30 13645 H 1292.4 5.98814 0.392607 0
M  V30 13646 H 1293.47 4.83086 -0.419059 0
M  V30 13647 N 1294.82 -0.0116844 1.57596 0
M  V30 13648 C 1296.06 -0.703597 1.91908 0
M  V30 13649 C 1296.42 -1.71581 0.861628 0
M  V30 13650 O 1297.62 -2.45724 1.08963 0
M  V30 13651 C 1295.89 -1.34031 3.31316 0
M  V30 13652 S 1297.45 -2.05896 3.87495 0
M  V30 13653 H 1294.27 -0.23269 0.671846 0
M  V30 13654 H 1296.87 0.0421973 1.95454 0
M  V30 13655 H 1295.57 -0.590617 4.06128 0
M  V30 13656 H 1295.11 -2.12428 3.31116 0
M  V30 13657 H 1297.12 -3.33266 3.67626 0
M  V30 13658 N 1296.29 -1.55015 -0.284256 0
M  V30 13659 C 1297.24 -1.87122 -1.35107 0
M  V30 13660 C 1298.21 -0.721638 -1.49605 0
M  V30 13661 O 1299.4 -0.971855 -1.64194 0
M  V30 13662 C 1296.54 -2.1388 -2.70831 0
M  V30 13663 C 1295.65 -3.41447 -2.64647 0
M  V30 13664 C 1294.78 -3.57961 -3.92476 0
M  V30 13665 C 1293.82 -4.79261 -3.80757 0
M  V30 13666 N 1292.96 -4.92492 -5.00395 0
M  V30 13667 H 1297.8 -2.78117 -1.07027 0
M  V30 13668 H 1295.34 -1.37704 -0.517311 0
M  V30 13669 H 1297.29 -2.27391 -3.49784 0
M  V30 13670 H 1295.92 -1.26132 -2.97137 0
M  V30 13671 H 1294.98 -3.36467 -1.77466 0
M  V30 13672 H 1296.29 -4.3053 -2.51884 0
M  V30 13673 H 1295.44 -3.71229 -4.79868 0
M  V30 13674 H 1294.18 -2.67042 -4.08093 0
M  V30 13675 H 1293.19 -4.66008 -2.91747 0
M  V30 13676 H 1294.41 -5.71604 -3.66669 0
M  V30 13677 H 1292.36 -4.04501 -5.16445 0
M  V30 13678 H 1292.27 -5.75603 -4.9012 0
M  V30 13679 H 1293.54 -5.10134 -5.89392 0
M  V30 13680 N 1297.77 0.548248 -1.47757 0
M  V30 13681 C 1298.7 1.66409 -1.63799 0
M  V30 13682 C 1299.68 1.62973 -0.487211 0
M  V30 13683 O 1300.87 1.80455 -0.717612 0
M  V30 13684 C 1298 3.05035 -1.66046 0
M  V30 13685 C 1296.95 3.23322 -2.80441 0
M  V30 13686 C 1296.28 4.62824 -2.67765 0
M  V30 13687 C 1297.58 3.07837 -4.2194 0
M  V30 13688 H 1299.27 1.53239 -2.57212 0
M  V30 13689 H 1296.82 0.735783 -1.23783 0
M  V30 13690 H 1298.77 3.82951 -1.75859 0
M  V30 13691 H 1297.49 3.19185 -0.69199 0
M  V30 13692 H 1296.15 2.47816 -2.70153 0
M  V30 13693 H 1295.8 4.73786 -1.68927 0
M  V30 13694 H 1295.5 4.76007 -3.44515 0
M  V30 13695 H 1297.03 5.42864 -2.7952 0
M  V30 13696 H 1298.44 3.75563 -4.33157 0
M  V30 13697 H 1296.84 3.32525 -4.99547 0
M  V30 13698 H 1297.91 2.04474 -4.3968 0
M  V30 13699 N 1299.25 1.36039 0.795694 0
M  V30 13700 C 1300.5 1.29663 1.55023 0
M  V30 13701 C 1300.82 -0.125588 1.94595 0
M  V30 13702 O 1300.09 -1.06447 1.64456 0
M  V30 13703 H 1298.67 0.476962 0.574906 0
M  V30 13704 H 1301.33 1.70265 0.948471 0
M  V30 13705 H 1300.43 1.91982 2.46068 0
M  V30 13706 N 1300.73 -1.01913 1.20215 0
M  V30 13707 C 1301.68 -2.08774 0.916367 0
M  V30 13708 C 1302.66 -1.60431 -0.122796 0
M  V30 13709 O 1303.85 -1.76799 0.0842336 0
M  V30 13710 C 1300.98 -3.40102 0.467517 0
M  V30 13711 C 1300.07 -3.95153 1.53997 0
M  V30 13712 N 1300.46 -4.23745 2.76178 0
M  V30 13713 C 1298.76 -4.23274 1.40554 0
M  V30 13714 C 1299.46 -4.681 3.45336 0
M  V30 13715 N 1298.44 -4.70224 2.72745 0
M  V30 13716 H 1302.24 -2.28786 1.84484 0
M  V30 13717 H 1299.75 -1.19861 1.09577 0
M  V30 13718 H 1301.75 -4.16184 0.244195 0
M  V30 13719 H 1300.41 -3.21505 -0.454358 0
M  V30 13720 H 1301.42 -4.12728 3.12852 0
M  V30 13721 H 1298.1 -4.1389 0.547877 0
M  V30 13722 H 1299.49 -4.99063 4.49873 0
M  V30 13723 N 1302.21 -1.00763 -1.2118 0
M  V30 13724 C 1303.16 -0.541218 -2.21483 0
M  V30 13725 C 1304.14 0.398597 -1.55885 0
M  V30 13726 O 1305.33 0.22302 -1.75589 0
M  V30 13727 C 1302.46 0.128145 -3.43061 0
M  V30 13728 C 1301.55 -0.832845 -4.15842 0
M  V30 13729 N 1301.94 -1.98673 -4.65148 0
M  V30 13730 C 1300.24 -0.651779 -4.41212 0
M  V30 13731 C 1300.94 -2.59112 -5.20803 0
M  V30 13732 N 1299.91 -1.87249 -5.10332 0
M  V30 13733 H 1303.72 -1.42105 -2.57262 0
M  V30 13734 H 1301.23 -0.871796 -1.37016 0
M  V30 13735 H 1303.23 0.479771 -4.1413 0
M  V30 13736 H 1301.89 1.00392 -3.0879 0
M  V30 13737 H 1302.9 -2.36701 -4.60644 0
M  V30 13738 H 1299.57 0.1767 -4.17126 0
M  V30 13739 H 1300.96 -3.56713 -5.69391 0
M  V30 13740 N 1303.68 1.3679 -0.7827 0
M  V30 13741 C 1305.1 1.82006 -0.41603 0
M  V30 13742 C 1305.45 1.65151 1.05922 0
M  V30 13743 O 1304.57 1.1687 1.82127 0
M  V30 13744 C 1305.17 3.30432 -0.748353 0
M  V30 13745 C 1303.73 3.73883 -0.4346 0
M  V30 13746 C 1302.87 2.59159 -0.986505 0
M  V30 13747 H 1305.82 1.25107 -0.976423 0
M  V30 13748 H 1305.84 3.80482 -0.036985 0
M  V30 13749 H 1305.36 3.42667 -1.82212 0
M  V30 13750 H 1303.46 3.67211 0.631401 0
M  V30 13751 H 1303.57 4.69577 -0.950511 0
M  V30 13752 H 1301.93 2.51377 -0.410108 0
M  V30 13753 H 1302.72 2.74182 -2.06589 0
M  V30 13754 N 1305.16 0.53415 1.48272 0
M  V30 13755 C 1306.11 -0.239672 2.31362 0
M  V30 13756 C 1307.1 -0.931501 1.4149 0
M  V30 13757 O 1308.31 -0.855411 1.58375 0
M  V30 13758 H 1304.69 -0.09616 0.745827 0
M  V30 13759 H 1306.66 0.480638 2.94504 0
M  V30 13760 C 1305.41 -1.27102 3.23636 0
M  V30 13761 H 1304.73 -0.748082 3.92739 0
M  V30 13762 H 1306.17 -1.78379 3.84652 0
M  V30 13763 C 1304.63 -2.30683 2.45534 0
M  V30 13764 O 1305.16 -3.37197 2.18314 0
M  V30 13765 N 1303.36 -2.04006 2.06954 0
M  V30 13766 H 1302.91 -1.17403 2.29291 0
M  V30 13767 H 1302.87 -2.73531 1.5501 0
M  V30 13768 N 1306.64 -1.55279 0.269478 0
M  V30 13769 C 1307.89 -1.98649 -0.349522 0
M  V30 13770 C 1308.2 -1.16125 -1.57399 0
M  V30 13771 O 1309.41 -1.49612 -2.26558 0
M  V30 13772 C 1307.86 -3.53547 -0.673224 0
M  V30 13773 C 1307.47 -4.44841 0.531119 0
M  V30 13774 C 1309.22 -4.05519 -1.25516 0
M  V30 13775 C 1307.12 -5.91119 0.182317 0
M  V30 13776 H 1306.05 -0.74193 -0.13437 0
M  V30 13777 H 1308.7 -1.79664 0.373246 0
M  V30 13778 H 1307.09 -3.68311 -1.45474 0
M  V30 13779 H 1308.26 -4.41843 1.3081 0
M  V30 13780 H 1306.58 -4.03472 1.02952 0
M  V30 13781 H 1309.17 -5.12347 -1.52984 0
M  V30 13782 H 1309.52 -3.54215 -2.18718 0
M  V30 13783 H 1310.05 -3.94172 -0.536059 0
M  V30 13784 H 1306.79 -6.46507 1.08206 0
M  V30 13785 H 1306.31 -5.97199 -0.558008 0
M  V30 13786 H 1307.99 -6.466 -0.227484 0
M  V30 13787 N 1308.12 0.00332656 -1.576 0
M  V30 13788 C 1309.37 0.688044 -1.89602 0
M  V30 13789 C 1309.68 1.75121 -0.871316 0
M  V30 13790 O 1310.89 2.49032 -1.08144 0
M  V30 13791 C 1309.34 1.27494 -3.36561 0
M  V30 13792 C 1308.95 0.246771 -4.4732 0
M  V30 13793 C 1310.69 1.93804 -3.77677 0
M  V30 13794 C 1308.6 0.843471 -5.85354 0
M  V30 13795 H 1307.53 0.260747 -0.707479 0
M  V30 13796 H 1310.18 -0.0566727 -1.83412 0
M  V30 13797 H 1308.56 2.07022 -3.37577 0
M  V30 13798 H 1309.74 -0.523668 -4.57815 0
M  V30 13799 H 1308.05 -0.3157 -4.15202 0
M  V30 13800 H 1310.65 2.39347 -4.78139 0
M  V30 13801 H 1310.99 2.7672 -3.11017 0
M  V30 13802 H 1311.53 1.21015 -3.78946 0
M  V30 13803 H 1308.27 0.0531655 -6.55478 0
M  V30 13804 H 1307.79 1.58315 -5.7853 0
M  V30 13805 H 1309.46 1.34311 -6.32906 0
M  V30 13806 N 1309.6 1.55164 0.276031 0
M  V30 13807 C 1310.54 1.88623 1.36104 0
M  V30 13808 C 1311.54 0.762265 1.51281 0
M  V30 13809 O 1312.74 0.946573 1.53101 0
M  V30 13810 H 1309.12 0.59863 0.455133 0
M  V30 13811 H 1311.09 2.79266 1.05134 0
M  V30 13812 C 1309.84 2.17207 2.71508 0
M  V30 13813 H 1309.16 3.03179 2.6062 0
M  V30 13814 H 1310.6 2.44541 3.46375 0
M  V30 13815 C 1309.06 0.978671 3.22372 0
M  V30 13816 O 1309.59 0.211766 4.01141 0
M  V30 13817 N 1307.8 0.777199 2.80014 0
M  V30 13818 H 1307.34 1.40252 2.16072 0
M  V30 13819 H 1307.3 -0.0196754 3.14394 0
M  V30 13820 N 1311.07 -0.540404 1.48045 0
M  V30 13821 C 1312 -1.65538 1.6468 0
M  V30 13822 C 1312.99 -1.62713 0.495847 0
M  V30 13823 O 1314.17 -1.80072 0.727172 0
M  V30 13824 C 1311.3 -3.0415 1.67661 0
M  V30 13825 C 1310.25 -3.2183 2.82152 0
M  V30 13826 C 1309.58 -4.61397 2.70216 0
M  V30 13827 C 1310.88 -3.05596 4.23567 0
M  V30 13828 H 1312.57 -1.51873 2.58021 0
M  V30 13829 H 1310.12 -0.729208 1.24171 0
M  V30 13830 H 1312.07 -3.82013 1.77887 0
M  V30 13831 H 1310.8 -3.18814 0.708907 0
M  V30 13832 H 1309.46 -2.4638 2.71463 0
M  V30 13833 H 1309.1 -4.72883 1.71437 0
M  V30 13834 H 1308.8 -4.74174 3.47035 0
M  V30 13835 H 1310.33 -5.41374 2.82395 0
M  V30 13836 H 1311.74 -3.73261 4.35143 0
M  V30 13837 H 1310.14 -3.29871 5.01303 0
M  V30 13838 H 1311.21 -2.0214 4.40758 0
M  V30 13839 N 1312.55 -1.36459 -0.788468 0
M  V30 13840 C 1313.48 -1.33545 -1.91541 0
M  V30 13841 C 1314.46 -0.206762 -1.68839 0
M  V30 13842 O 1315.65 -0.404553 -1.89939 0
M  V30 13843 C 1312.78 -1.12492 -3.28577 0
M  V30 13844 C 1311.73 -2.22196 -3.65805 0
M  V30 13845 C 1311.06 -1.86285 -5.01201 0
M  V30 13846 C 1312.36 -3.64286 -3.7429 0
M  V30 13847 H 1314.05 -2.27844 -1.94236 0
M  V30 13848 H 1311.6 -1.09677 -0.933105 0
M  V30 13849 H 1313.55 -1.09089 -4.07035 0
M  V30 13850 H 1312.28 -0.146446 -3.26272 0
M  V30 13851 H 1310.93 -2.24727 -2.89644 0
M  V30 13852 H 1310.58 -0.87009 -4.95417 0
M  V30 13853 H 1310.28 -2.59734 -5.27079 0
M  V30 13854 H 1311.81 -1.84439 -5.82078 0
M  V30 13855 H 1313.22 -3.63977 -4.42937 0
M  V30 13856 H 1311.62 -4.36648 -4.11653 0
M  V30 13857 H 1312.69 -3.99123 -2.75371 0
M  V30 13858 N 1314.03 1.01274 -1.20754 0
M  V30 13859 C 1315.28 1.74586 -1.01804 0
M  V30 13860 C 1315.6 1.89727 0.450419 0
M  V30 13861 O 1314.87 1.44257 1.32539 0
M  V30 13862 H 1313.45 0.646804 -0.373702 0
M  V30 13863 H 1316.11 1.22079 -1.5193 0
M  V30 13864 H 1315.21 2.748 -1.47958 0
M  V30 13865 N 1315.51 1.01404 1.20644 0
M  V30 13866 C 1316.47 0.586941 2.21557 0
M  V30 13867 C 1317.47 -0.341543 1.57131 0
M  V30 13868 O 1318.66 -0.130585 1.7371 0
M  V30 13869 C 1315.79 -0.143248 3.40599 0
M  V30 13870 H 1316.99 1.47964 2.60858 0
M  V30 13871 H 1314.54 0.803551 1.34063 0
M  V30 13872 H 1315.28 -1.05097 3.06798 0
M  V30 13873 H 1315.06 0.523716 3.88587 0
M  V30 13874 H 1316.55 -0.429504 4.15385 0
M  V30 13875 N 1316.99 -1.36373 0.789944 0
M  V30 13876 C 1318.23 -2.0106 0.367995 0
M  V30 13877 C 1318.59 -1.61336 -1.0409 0
M  V30 13878 O 1319.79 -2.18618 -1.56396 0
M  V30 13879 C 1318.06 -3.53492 0.527106 0
M  V30 13880 S 1319.62 -4.38375 0.193113 0
M  V30 13881 H 1316.44 -0.696965 0.140573 0
M  V30 13882 H 1319.04 -1.66256 1.02855 0
M  V30 13883 H 1317.75 -3.7989 1.55279 0
M  V30 13884 H 1317.28 -3.93116 -0.149364 0
M  V30 13885 H 1319.29 -4.85913 -1.00513 0
M  V30 13886 N 1318.47 -0.542005 -1.47987 0
M  V30 13887 C 1319.38 0.217677 -2.33588 0
M  V30 13888 C 1320.39 0.927093 -1.47245 0
M  V30 13889 O 1321.57 0.899378 -1.80203 0
M  V30 13890 C 1318.63 1.24376 -3.23622 0
M  V30 13891 C 1317.69 0.543407 -4.25847 0
M  V30 13892 C 1316.93 1.5206 -5.11579 0
M  V30 13893 O 1317.15 2.75425 -4.99497 0
M  V30 13894 O 1316.08 1.05341 -5.9261 0
M  V30 13895 H 1319.91 -0.484089 -2.99817 0
M  V30 13896 H 1317.49 -0.302783 -1.463 0
M  V30 13897 H 1319.38 1.83644 -3.7928 0
M  V30 13898 H 1318.05 1.92772 -2.6004 0
M  V30 13899 H 1316.96 -0.090074 -3.73992 0
M  V30 13900 H 1318.29 -0.0988264 -4.92101 0
M  V30 13901 N 1319.94 1.55134 -0.277709 0
M  V30 13902 C 1320.89 2.19317 0.623216 0
M  V30 13903 C 1321.88 1.15863 1.11645 0
M  V30 13904 O 1323.07 1.41668 1.0611 0
M  V30 13905 C 1320.2 2.91976 1.80568 0
M  V30 13906 C 1319.28 4.02722 1.3295 0
M  V30 13907 N 1319.68 5.02582 0.569654 0
M  V30 13908 C 1317.97 4.1584 1.61224 0
M  V30 13909 C 1318.67 5.80825 0.318983 0
M  V30 13910 N 1317.65 5.36229 0.892145 0
M  V30 13911 H 1321.45 2.93879 0.0348669 0
M  V30 13912 H 1318.97 1.62196 -0.0813871 0
M  V30 13913 H 1320.96 3.36408 2.46242 0
M  V30 13914 H 1319.62 2.18925 2.39796 0
M  V30 13915 H 1320.63 5.17446 0.216749 0
M  V30 13916 H 1317.31 3.53981 2.21368 0
M  V30 13917 H 1318.7 6.71275 -0.289742 0
M  V30 13918 N 1321.42 0.00503138 1.57599 0
M  V30 13919 C 1322.84 -0.351109 1.5569 0
M  V30 13920 C 1323.04 -1.74465 1.00818 0
M  V30 13921 O 1322.09 -2.44144 0.64422 0
M  V30 13922 C 1323.41 -0.221738 2.99881 0
M  V30 13923 C 1324.95 -0.296303 3.11594 0
M  V30 13924 C 1325.43 -0.195998 4.5758 0
M  V30 13925 N 1326.92 -0.253741 4.62504 0
M  V30 13926 C 1327.66 -0.199546 5.73053 0
M  V30 13927 N 1327.15 -0.0956553 6.92734 0
M  V30 13928 N 1328.94 -0.251779 5.61536 0
M  V30 13929 H 1321.1 0.916578 1.91605 0
M  V30 13930 H 1323.36 0.351802 0.880306 0
M  V30 13931 H 1323.06 0.737255 3.43886 0
M  V30 13932 H 1322.94 -1.00178 3.63654 0
M  V30 13933 H 1325.33 -1.24574 2.67517 0
M  V30 13934 H 1325.41 0.513692 2.50589 0
M  V30 13935 H 1325.05 0.749918 5.02333 0
M  V30 13936 H 1324.98 -1.02455 5.16537 0
M  V30 13937 H 1327.47 -0.335163 3.76411 0
M  V30 13938 H 1327.78 -0.0603357 7.72776 0
M  V30 13939 H 1326.13 -0.0612113 6.94973 0
M  V30 13940 H 1329.32 -0.331173 4.66927 0
M  V30 13941 H 1329.49 -0.206078 6.47672 0
M  V30 13942 N 1322.9 -1.55308 -0.267798 0
M  V30 13943 C 1324.15 -1.75811 -0.996734 0
M  V30 13944 C 1324.47 -0.565161 -1.8663 0
M  V30 13945 O 1323.74 0.419775 -1.9135 0
M  V30 13946 H 1322.32 -0.648353 -0.371008 0
M  V30 13947 H 1324.98 -1.92719 -0.290775 0
M  V30 13948 H 1324.08 -2.66113 -1.63064 0
M  V30 13949 N 1324.38 0.532545 -1.4833 0
M  V30 13950 C 1325.61 1.31141 -1.59642 0
M  V30 13951 C 1326.02 1.87476 -0.254835 0
M  V30 13952 O 1325.36 1.66985 0.765622 0
M  V30 13953 C 1325.42 2.50182 -2.58165 0
M  V30 13954 C 1325.08 2.14953 -4.03292 0
M  V30 13955 C 1326.08 1.70777 -4.91051 0
M  V30 13956 C 1323.77 2.25555 -4.4881 0
M  V30 13957 C 1325.76 1.37665 -6.22356 0
M  V30 13958 C 1323.45 1.92055 -5.80136 0
M  V30 13959 C 1324.45 1.48181 -6.66732 0
M  V30 13960 O 1324.13 1.15119 -7.95615 0
M  V30 13961 H 1323.87 0.405164 -0.541127 0
M  V30 13962 H 1326.42 0.649423 -1.94863 0
M  V30 13963 H 1324.65 3.19353 -2.1806 0
M  V30 13964 H 1326.34 3.12246 -2.5934 0
M  V30 13965 H 1327.1 1.62059 -4.57124 0
M  V30 13966 H 1322.98 2.5866 -3.81597 0
M  V30 13967 H 1326.53 1.03348 -6.89902 0
M  V30 13968 H 1322.42 2.00413 -6.136 0
M  V30 13969 H 1323.19 1.28539 -8.08344 0
M  V30 13970 N 1325.86 1.36875 0.78122 0
M  V30 13971 C 1326.79 1.34559 1.9083 0
M  V30 13972 C 1327.77 0.215713 1.68727 0
M  V30 13973 O 1328.95 0.41462 1.89722 0
M  V30 13974 C 1326.08 1.14233 3.27976 0
M  V30 13975 C 1325.04 2.24132 3.64621 0
M  V30 13976 C 1324.36 1.8894 5.00206 0
M  V30 13977 C 1325.66 3.66266 3.72353 0
M  V30 13978 H 1327.36 2.28871 1.93025 0
M  V30 13979 H 1324.9 1.10171 0.927275 0
M  V30 13980 H 1326.85 1.11246 4.06451 0
M  V30 13981 H 1325.58 0.163747 3.26189 0
M  V30 13982 H 1324.24 2.26259 2.88448 0
M  V30 13983 H 1323.89 0.896351 4.94949 0
M  V30 13984 H 1323.59 2.62525 5.25694 0
M  V30 13985 H 1325.11 1.87523 5.81092 0
M  V30 13986 H 1326.52 3.66321 4.41001 0
M  V30 13987 H 1324.92 4.38825 4.09332 0
M  V30 13988 H 1325.99 4.00578 2.7325 0
M  V30 13989 N 1327.33 -1.00632 1.21289 0
M  V30 13990 C 1328.56 -1.77709 1.05371 0
M  V30 13991 C 1328.97 -1.84933 -0.39956 0
M  V30 13992 O 1328.31 -1.30881 -1.28903 0
M  V30 13993 C 1328.38 -3.23206 1.5741 0
M  V30 13994 C 1328.04 -3.39563 3.05852 0
M  V30 13995 C 1329.04 -3.27952 4.03415 0
M  V30 13996 C 1326.72 -3.65048 3.4503 0
M  V30 13997 C 1328.72 -3.41587 5.38142 0
M  V30 13998 C 1326.4 -3.78325 4.7991 0
M  V30 13999 C 1327.4 -3.66601 5.76275 0
M  V30 14000 O 1327.09 -3.79458 7.08708 0
M  V30 14001 H 1326.82 -0.565369 0.370585 0
M  V30 14002 H 1329.38 -1.27483 1.6105 0
M  V30 14003 H 1327.61 -3.74562 0.96126 0
M  V30 14004 H 1329.29 -3.81953 1.37356 0
M  V30 14005 H 1330.06 -3.0819 3.74492 0
M  V30 14006 H 1325.94 -3.73256 2.70557 0
M  V30 14007 H 1329.48 -3.32353 6.13341 0
M  V30 14008 H 1325.38 -3.97591 5.08519 0
M  V30 14009 H 1326.15 -3.96413 7.161 0
M  V30 14010 N 1328.81 -1.02043 -1.20104 0
M  V30 14011 C 1329.74 -0.614421 -2.25271 0
M  V30 14012 C 1330.72 0.37242 -1.65973 0
M  V30 14013 O 1331.91 0.257005 -1.92492 0
M  V30 14014 C 1329.04 0.0442085 -3.47272 0
M  V30 14015 C 1327.99 -0.864019 -4.19188 0
M  V30 14016 C 1327.32 -0.0709551 -5.34653 0
M  V30 14017 C 1328.62 -2.17385 -4.74912 0
M  V30 14018 H 1330.31 -1.49355 -2.59487 0
M  V30 14019 H 1327.86 -0.719591 -1.24731 0
M  V30 14020 H 1329.81 0.339825 -4.20028 0
M  V30 14021 H 1328.53 0.958082 -3.12231 0
M  V30 14022 H 1327.19 -1.1437 -3.48303 0
M  V30 14023 H 1326.84 0.844688 -4.95857 0
M  V30 14024 H 1326.54 -0.67583 -5.83701 0
M  V30 14025 H 1328.07 0.218118 -6.1021 0
M  V30 14026 H 1329.48 -1.94034 -5.39466 0
M  V30 14027 H 1327.88 -2.72991 -5.34412 0
M  V30 14028 H 1328.95 -2.83427 -3.93443 0
M  V30 14029 N 1330.29 1.35952 -0.797165 0
M  V30 14030 C 1331.25 2.28266 -0.206748 0
M  V30 14031 C 1332.25 1.49169 0.60043 0
M  V30 14032 O 1333.44 1.69054 0.42029 0
M  V30 14033 C 1330.58 3.33363 0.712884 0
M  V30 14034 H 1331.77 2.81992 -1.02082 0
M  V30 14035 H 1329.32 1.45648 -0.567138 0
M  V30 14036 H 1330.06 2.84806 1.551 0
M  V30 14037 H 1329.84 3.91864 0.135926 0
M  V30 14038 H 1331.33 4.02284 1.1206 0
M  V30 14039 N 1331.77 0.549846 1.47697 0
M  V30 14040 C 1333.02 0.0209424 2.01689 0
M  V30 14041 C 1333.33 -1.33417 1.43036 0
M  V30 14042 O 1334.54 -1.95257 1.88646 0
M  V30 14043 C 1332.99 -0.0130171 3.59898 0
M  V30 14044 C 1332.6 1.3384 4.2754 0
M  V30 14045 C 1334.34 -0.489701 4.21666 0
M  V30 14046 C 1332.25 1.26395 5.77735 0
M  V30 14047 H 1331.18 0.00405885 0.753989 0
M  V30 14048 H 1333.83 0.696599 1.69764 0
M  V30 14049 H 1332.21 -0.754168 3.88752 0
M  V30 14050 H 1333.39 2.09668 4.10336 0
M  V30 14051 H 1331.7 1.75242 3.77729 0
M  V30 14052 H 1334.3 -0.563684 5.31721 0
M  V30 14053 H 1334.64 -1.50004 3.88336 0
M  V30 14054 H 1335.18 0.196366 3.97315 0
M  V30 14055 H 1331.92 2.25005 6.15673 0
M  V30 14056 H 1331.44 0.547353 5.97297 0
M  V30 14057 H 1333.11 0.962918 6.39794 0
M  V30 14058 N 1333.25 -1.54984 0.285932 0
M  V30 14059 C 1334.16 -2.26621 -0.606648 0
M  V30 14060 C 1335.17 -1.29595 -1.16108 0
M  V30 14061 O 1336.35 -1.62551 -1.18908 0
M  V30 14062 C 1333.41 -2.98156 -1.76929 0
M  V30 14063 C 1332.47 -4.10685 -1.25045 0
M  V30 14064 C 1331.71 -4.788 -2.35768 0
M  V30 14065 O 1331.93 -4.46183 -3.55354 0
M  V30 14066 O 1330.86 -5.66523 -2.03312 0
M  V30 14067 H 1334.69 -3.03689 -0.0259981 0
M  V30 14068 H 1332.28 -1.49306 0.0529355 0
M  V30 14069 H 1334.16 -3.43076 -2.44697 0
M  V30 14070 H 1332.83 -2.23996 -2.33683 0
M  V30 14071 H 1331.74 -3.70198 -0.538919 0
M  V30 14072 H 1333.07 -4.86778 -0.728528 0
M  V30 14073 N 1334.72 -0.0133892 -1.57594 0
M  V30 14074 C 1335.95 0.67827 -1.95149 0
M  V30 14075 C 1336.36 1.67089 -0.887572 0
M  V30 14076 O 1335.71 1.8316 0.140774 0
M  V30 14077 C 1335.77 1.45441 -3.28766 0
M  V30 14078 C 1335.43 0.621889 -4.52749 0
M  V30 14079 C 1336.43 -0.0961541 -5.19811 0
M  V30 14080 C 1334.11 0.563917 -4.99124 0
M  V30 14081 C 1336.11 -0.86101 -6.31558 0
M  V30 14082 C 1333.79 -0.204654 -6.10757 0
M  V30 14083 C 1334.79 -0.915839 -6.76832 0
M  V30 14084 O 1334.48 -1.67184 -7.86323 0
M  V30 14085 H 1334.21 0.192983 -0.647869 0
M  V30 14086 H 1336.77 -0.0646816 -2.05298 0
M  V30 14087 H 1335 2.24215 -3.15063 0
M  V30 14088 H 1336.69 2.03268 -3.51336 0
M  V30 14089 H 1337.45 -0.0606029 -4.84962 0
M  V30 14090 H 1333.33 1.10702 -4.47511 0
M  V30 14091 H 1336.87 -1.41664 -6.83064 0
M  V30 14092 H 1332.77 -0.241979 -6.45046 0
M  V30 14093 H 1333.54 -1.58996 -8.02909 0
M  V30 14094 N 1336.2 1.55448 0.259558 0
M  V30 14095 C 1337.17 1.88459 1.30445 0
M  V30 14096 C 1338.17 0.760096 1.41701 0
M  V30 14097 O 1339.36 1.02819 1.4062 0
M  V30 14098 C 1336.49 2.10181 2.68397 0
M  V30 14099 H 1337.68 2.81877 1.02398 0
M  V30 14100 H 1335.23 1.48145 0.498262 0
M  V30 14101 H 1335.97 1.19189 3.01603 0
M  V30 14102 H 1335.75 2.92066 2.6161 0
M  V30 14103 H 1337.24 2.36947 3.43869 0
M  V30 14104 N 1337.68 -0.524672 1.4861 0
M  V30 14105 C 1339.09 -1.10655 1.50374 0
M  V30 14106 C 1339.44 -1.94242 0.276512 0
M  V30 14107 O 1338.57 -2.07451 -0.615887 0
M  V30 14108 C 1339.16 -2.01348 2.72478 0
M  V30 14109 C 1337.72 -2.54743 2.77097 0
M  V30 14110 C 1336.87 -1.31822 2.43964 0
M  V30 14111 H 1339.82 -0.309674 1.55649 0
M  V30 14112 H 1339.84 -2.85709 2.51297 0
M  V30 14113 H 1339.35 -1.40485 3.61781 0
M  V30 14114 H 1337.45 -3.19313 1.92016 0
M  V30 14115 H 1337.57 -2.93514 3.78664 0
M  V30 14116 H 1335.93 -1.63574 1.95233 0
M  V30 14117 H 1336.71 -0.727026 3.35513 0
M  V30 14118 N 1339.16 -1.37287 -0.77395 0
M  V30 14119 C 1340.11 -1.29389 -1.8773 0
M  V30 14120 C 1341.09 -0.182167 -1.59865 0
M  V30 14121 O 1342.28 -0.416367 -1.72033 0
M  V30 14122 C 1339.41 -1.10094 -3.25168 0
M  V30 14123 C 1338.5 -2.25801 -3.58991 0
M  V30 14124 N 1338.89 -3.51182 -3.64012 0
M  V30 14125 C 1337.19 -2.17907 -3.89144 0
M  V30 14126 C 1337.89 -4.27468 -3.9452 0
M  V30 14127 N 1336.87 -3.56583 -4.10304 0
M  V30 14128 H 1340.67 -2.24344 -1.8986 0
M  V30 14129 H 1338.18 -1.30228 -0.970282 0
M  V30 14130 H 1340.18 -1.02521 -4.04098 0
M  V30 14131 H 1338.84 -0.160535 -3.24303 0
M  V30 14132 H 1339.85 -3.85118 -3.46272 0
M  V30 14133 H 1336.53 -1.3191 -3.96113 0
M  V30 14134 H 1337.92 -5.3597 -4.05198 0
M  V30 14135 N 1340.64 0.999871 -1.21821 0
M  V30 14136 C 1341.88 1.73497 -1.0365 0
M  V30 14137 C 1342.21 1.90194 0.430271 0
M  V30 14138 O 1341.48 1.45655 1.31002 0
M  V30 14139 H 1340.06 0.642804 -0.380541 0
M  V30 14140 H 1342.72 1.20461 -1.53216 0
M  V30 14141 H 1341.81 2.73215 -1.50864 0
M  V30 14142 N 1342.11 1.02678 1.19562 0
M  V30 14143 C 1343.06 0.599259 2.24748 0
M  V30 14144 C 1344.06 -0.367079 1.65375 0
M  V30 14145 O 1345.26 -0.235887 1.78448 0
M  V30 14146 H 1341.64 0.175517 0.73123 0
M  V30 14147 H 1343.61 1.4971 2.58127 0
M  V30 14148 C 1342.36 -0.0362515 3.47681 0
M  V30 14149 H 1341.68 0.698343 3.93654 0
M  V30 14150 H 1343.12 -0.298361 4.22949 0
M  V30 14151 C 1341.58 -1.28218 3.11547 0
M  V30 14152 O 1342.11 -2.37446 3.24009 0
M  V30 14153 N 1340.32 -1.17014 2.66 0
M  V30 14154 H 1339.86 -0.28132 2.56059 0
M  V30 14155 H 1339.82 -2.00473 2.42194 0
M  V30 14156 N 1343.59 -1.35528 0.804364 0
M  V30 14157 C 1344.52 -2.32388 0.227604 0
M  V30 14158 C 1345.5 -1.57368 -0.645709 0
M  V30 14159 O 1346.69 -1.85448 -0.576441 0
M  V30 14160 C 1343.82 -3.41603 -0.62645 0
M  V30 14161 C 1342.77 -4.27743 0.148187 0
M  V30 14162 C 1342.1 -5.28259 -0.827425 0
M  V30 14163 C 1343.4 -5.04661 1.34591 0
M  V30 14164 H 1345.09 -2.80874 1.03684 0
M  V30 14165 H 1342.64 -1.3504 0.500031 0
M  V30 14166 H 1344.59 -4.08365 -1.03999 0
M  V30 14167 H 1343.32 -2.91721 -1.46855 0
M  V30 14168 H 1341.97 -3.62558 0.542874 0
M  V30 14169 H 1341.62 -4.74645 -1.66496 0
M  V30 14170 H 1341.32 -5.86763 -0.313453 0
M  V30 14171 H 1342.85 -5.97893 -1.23921 0
M  V30 14172 H 1344.26 -5.6438 1.00736 0
M  V30 14173 H 1342.66 -5.7265 1.79422 0
M  V30 14174 H 1343.73 -4.35432 2.1337 0
M  V30 14175 N 1345.07 -0.557671 -1.47404 0
M  V30 14176 C 1346 0.178019 -2.3282 0
M  V30 14177 C 1346.98 0.908318 -1.43818 0
M  V30 14178 O 1348.17 0.888693 -1.72673 0
M  V30 14179 C 1345.3 1.2082 -3.25607 0
M  V30 14180 C 1344.25 0.594335 -4.23853 0
M  V30 14181 C 1343.58 1.72919 -5.05968 0
M  V30 14182 C 1344.88 -0.452196 -5.20339 0
M  V30 14183 H 1346.57 -0.535091 -2.9458 0
M  V30 14184 H 1344.12 -0.258775 -1.41656 0
M  V30 14185 H 1346.07 1.73104 -3.84204 0
M  V30 14186 H 1344.79 1.95126 -2.61903 0
M  V30 14187 H 1343.45 0.0927898 -3.66483 0
M  V30 14188 H 1343.1 2.4613 -4.38668 0
M  V30 14189 H 1342.8 1.32422 -5.72484 0
M  V30 14190 H 1344.33 2.25527 -5.67424 0
M  V30 14191 H 1345.74 -0.0154011 -5.73298 0
M  V30 14192 H 1344.14 -0.776068 -5.95061 0
M  V30 14193 H 1345.21 -1.34791 -4.65789 0
M  V30 14194 N 1346.55 1.54831 -0.294147 0
M  V30 14195 C 1347.83 1.92071 0.369902 0
M  V30 14196 C 1348.21 1.22061 1.72233 0
M  V30 14197 O 1347.55 0.353975 2.25742 0
M  V30 14198 C 1347.76 3.45524 0.49135 0
M  V30 14199 C 1349.11 4.17644 0.765411 0
M  V30 14200 O 1350.14 3.51521 0.575428 0
M  V30 14201 O 1349 5.34692 1.12992 0
M  V30 14202 H 1346.09 0.801033 0.20561 0
M  V30 14203 H 1348.64 1.66224 -0.341702 0
M  V30 14204 H 1347.41 3.88591 -0.459663 0
M  V30 14205 H 1347.03 3.77384 1.25169 0
M  V30 14206 N 1348.03 0.0217466 1.57585 0
M  V30 14207 C 1349.27 -0.658487 1.91495 0
M  V30 14208 C 1349.6 -1.72557 0.897462 0
M  V30 14209 O 1348.86 -1.95471 -0.0946909 0
M  V30 14210 C 1349.16 -1.3197 3.32143 0
M  V30 14211 C 1348.82 -0.383706 4.49264 0
M  V30 14212 C 1347.48 -0.126065 4.81035 0
M  V30 14213 C 1349.84 0.259445 5.20554 0
M  V30 14214 C 1347.16 0.782659 5.81456 0
M  V30 14215 C 1349.52 1.15618 6.21945 0
M  V30 14216 C 1348.18 1.42278 6.5216 0
M  V30 14217 H 1347.45 -0.240958 0.700729 0
M  V30 14218 H 1350.1 0.0819351 1.91325 0
M  V30 14219 H 1348.4 -2.13469 3.28539 0
M  V30 14220 H 1350.1 -1.85245 3.55648 0
M  V30 14221 H 1346.69 -0.59469 4.24454 0
M  V30 14222 H 1350.87 0.073445 4.96246 0
M  V30 14223 H 1346.13 0.996995 6.03216 0
M  V30 14224 H 1350.3 1.66077 6.76307 0
M  V30 14225 H 1347.93 2.1286 7.29791 0
M  V30 14226 N 1349.51 -1.55583 -0.251311 0
M  V30 14227 C 1350.44 -1.9296 -1.31486 0
M  V30 14228 C 1351.42 -0.794001 -1.50431 0
M  V30 14229 O 1352.6 -1.05393 -1.63113 0
M  V30 14230 C 1349.73 -2.22046 -2.67045 0
M  V30 14231 C 1348.69 -3.37816 -2.62801 0
M  V30 14232 C 1348.01 -3.52433 -4.02113 0
M  V30 14233 C 1349.31 -4.73626 -2.20171 0
M  V30 14234 H 1351.01 -2.82046 -1.00451 0
M  V30 14235 H 1348.55 -1.35702 -0.481775 0
M  V30 14236 H 1350.5 -2.46783 -3.41579 0
M  V30 14237 H 1349.23 -1.29782 -2.99707 0
M  V30 14238 H 1347.89 -3.13081 -1.90724 0
M  V30 14239 H 1347.54 -2.57597 -4.32034 0
M  V30 14240 H 1347.24 -4.30283 -4.00163 0
M  V30 14241 H 1348.76 -3.79486 -4.78354 0
M  V30 14242 H 1350.17 -4.97764 -2.84436 0
M  V30 14243 H 1348.57 -5.54547 -2.29341 0
M  V30 14244 H 1349.64 -4.70985 -1.1533 0
M  V30 14245 N 1350.98 0.516783 -1.48886 0
M  V30 14246 C 1352.4 0.84654 -1.35299 0
M  V30 14247 C 1352.6 1.97998 -0.374035 0
M  V30 14248 O 1351.66 2.51707 0.200003 0
M  V30 14249 C 1352.97 1.20162 -2.75648 0
M  V30 14250 C 1354.52 1.31074 -2.84233 0
M  V30 14251 C 1354.99 1.69919 -4.25313 0
M  V30 14252 N 1356.48 1.76998 -4.28049 0
M  V30 14253 C 1357.22 2.08466 -5.34162 0
M  V30 14254 N 1356.71 2.38268 -6.50538 0
M  V30 14255 N 1358.51 2.09584 -5.21566 0
M  V30 14256 H 1350.66 -0.230871 -2.11142 0
M  V30 14257 H 1352.92 -0.0406678 -0.947127 0
M  V30 14258 H 1352.63 0.442278 -3.48908 0
M  V30 14259 H 1352.5 2.14875 -3.10014 0
M  V30 14260 H 1354.89 2.06083 -2.1122 0
M  V30 14261 H 1354.97 0.344506 -2.5347 0
M  V30 14262 H 1354.61 0.954667 -4.98847 0
M  V30 14263 H 1354.54 2.67616 -4.5353 0
M  V30 14264 H 1357.03 1.56191 -3.44112 0
M  V30 14265 H 1357.35 2.61423 -7.2724 0
M  V30 14266 H 1355.69 2.35758 -6.53791 0
M  V30 14267 H 1358.88 1.85768 -4.2966 0
M  V30 14268 H 1359.06 2.33776 -6.04362 0
M  V30 14269 N 1352.46 1.37696 0.766659 0
M  V30 14270 C 1353.41 1.33871 1.88009 0
M  V30 14271 C 1354.38 0.2034 1.6485 0
M  V30 14272 O 1355.56 0.393569 1.86697 0
M  V30 14273 C 1352.7 1.1566 3.25141 0
M  V30 14274 C 1351.82 2.38465 3.6022 0
M  V30 14275 C 1350.95 2.13087 4.86587 0
M  V30 14276 C 1349.99 3.31732 5.14413 0
M  V30 14277 N 1349.13 3.05872 6.3197 0
M  V30 14278 H 1353.97 2.29065 1.90613 0
M  V30 14279 H 1351.5 1.13821 0.931837 0
M  V30 14280 H 1353.46 1.03122 4.04255 0
M  V30 14281 H 1352.09 0.241115 3.21898 0
M  V30 14282 H 1351.14 2.61725 2.76051 0
M  V30 14283 H 1352.46 3.26933 3.76718 0
M  V30 14284 H 1351.61 1.97609 5.73616 0
M  V30 14285 H 1350.35 1.21965 4.72203 0
M  V30 14286 H 1349.35 3.47743 4.25858 0
M  V30 14287 H 1350.58 4.23712 5.30702 0
M  V30 14288 H 1348.53 2.17384 6.18935 0
M  V30 14289 H 1348.44 3.87885 6.48908 0
M  V30 14290 H 1349.71 2.94023 7.21922 0
M  V30 14291 N 1353.94 -0.993397 1.22349 0
M  V30 14292 C 1355.16 -1.77373 1.07488 0
M  V30 14293 C 1355.59 -1.84418 -0.37034 0
M  V30 14294 O 1354.95 -1.29629 -1.26752 0
M  V30 14295 C 1355 -3.18538 1.69014 0
M  V30 14296 O 1354.1 -4.01463 0.943474 0
M  V30 14297 H 1353.44 -0.546209 0.37756 0
M  V30 14298 H 1355.97 -1.24792 1.62136 0
M  V30 14299 H 1355.98 -3.6917 1.73717 0
M  V30 14300 H 1354.66 -3.12725 2.74182 0
M  V30 14301 H 1353.23 -3.59998 0.972415 0
M  V30 14302 N 1355.42 -1.03311 -1.19015 0
M  V30 14303 C 1356.83 -0.750946 -1.4083 0
M  V30 14304 C 1357.03 0.662704 -1.90291 0
M  V30 14305 O 1356.09 1.42806 -2.08237 0
M  V30 14306 C 1357.4 -1.79064 -2.41571 0
M  V30 14307 C 1358.95 -1.81068 -2.55311 0
M  V30 14308 C 1359.43 -2.84008 -3.59309 0
M  V30 14309 N 1360.92 -2.82852 -3.6681 0
M  V30 14310 C 1361.65 -3.59156 -4.46984 0
M  V30 14311 N 1361.15 -4.45188 -5.30829 0
M  V30 14312 N 1362.94 -3.47679 -4.41674 0
M  V30 14313 H 1355.09 -1.94548 -0.852329 0
M  V30 14314 H 1357.35 -0.841344 -0.436858 0
M  V30 14315 H 1357.06 -2.80425 -2.12261 0
M  V30 14316 H 1356.93 -1.61646 -3.40809 0
M  V30 14317 H 1359.32 -0.803825 -2.83941 0
M  V30 14318 H 1359.4 -2.02562 -1.56212 0
M  V30 14319 H 1359.05 -3.84867 -3.3142 0
M  V30 14320 H 1358.98 -2.59771 -4.58069 0
M  V30 14321 H 1361.47 -2.20457 -3.06932 0
M  V30 14322 H 1361.78 -5.00139 -5.89135 0
M  V30 14323 H 1360.13 -4.49259 -5.30275 0
M  V30 14324 H 1363.32 -2.79876 -3.75216 0
M  V30 14325 H 1363.49 -4.07396 -5.03917 0
M  V30 14326 N 1356.9 1.35099 -0.81154 0
M  V30 14327 C 1358.14 1.9892 -0.394815 0
M  V30 14328 C 1358.47 1.6422 1.0366 0
M  V30 14329 O 1357.75 0.908031 1.72003 0
M  V30 14330 C 1358.03 3.55331 -0.58413 0
M  V30 14331 C 1357.89 3.99812 -2.06084 0
M  V30 14332 C 1359.2 4.40098 -0.0129096 0
M  V30 14333 H 1356.32 0.72261 -0.144926 0
M  V30 14334 H 1358.97 1.60173 -1.02199 0
M  V30 14335 H 1357.12 3.88468 -0.0502446 0
M  V30 14336 H 1358.79 3.77061 -2.65749 0
M  V30 14337 H 1357.03 3.50539 -2.55548 0
M  V30 14338 H 1357.7 5.08655 -2.14416 0
M  V30 14339 H 1360.18 4.13449 -0.468917 0
M  V30 14340 H 1359.05 5.4862 -0.175252 0
M  V30 14341 H 1359.31 4.28675 1.0812 0
M  V30 14342 N 1358.37 0.56548 1.47106 0
M  V30 14343 C 1359.3 -0.16567 2.32912 0
M  V30 14344 C 1360.28 -0.900678 1.44298 0
M  V30 14345 O 1361.47 -0.879523 1.73142 0
M  V30 14346 C 1358.6 -1.19092 3.26243 0
M  V30 14347 C 1357.55 -0.571849 4.24163 0
M  V30 14348 C 1356.88 -1.70233 5.06878 0
M  V30 14349 C 1358.18 0.479785 5.20092 0
M  V30 14350 H 1359.87 0.550705 2.94292 0
M  V30 14351 H 1357.42 0.266284 1.41517 0
M  V30 14352 H 1359.37 -1.71064 3.85117 0
M  V30 14353 H 1358.1 -1.93734 2.62934 0
M  V30 14354 H 1356.76 -0.073353 3.66527 0
M  V30 14355 H 1356.4 -2.438 4.39967 0
M  V30 14356 H 1356.1 -1.29384 5.73178 0
M  V30 14357 H 1357.63 -2.22515 5.68612 0
M  V30 14358 H 1359.04 0.0458042 5.73282 0
M  V30 14359 H 1357.44 0.807615 5.94641 0
M  V30 14360 H 1358.51 1.37259 4.65068 0
M  V30 14361 N 1359.85 -1.54672 0.302354 0
M  V30 14362 C 1360.76 -2.27251 -0.582578 0
M  V30 14363 C 1361.78 -1.30819 -1.14727 0
M  V30 14364 O 1362.95 -1.63803 -1.17177 0
M  V30 14365 C 1360.02 -3.00016 -1.73757 0
M  V30 14366 C 1359.08 -4.11988 -1.20682 0
M  V30 14367 C 1358.31 -4.81273 -2.30676 0
M  V30 14368 O 1358.54 -4.49927 -3.50602 0
M  V30 14369 O 1357.47 -5.68647 -1.97291 0
M  V30 14370 H 1361.3 -3.03699 0.00621365 0
M  V30 14371 H 1358.88 -1.49242 0.0687684 0
M  V30 14372 H 1360.76 -3.45652 -2.41045 0
M  V30 14373 H 1359.44 -2.26462 -2.31294 0
M  V30 14374 H 1358.35 -3.70749 -0.499625 0
M  V30 14375 H 1359.68 -4.87524 -0.676858 0
M  V30 14376 N 1361.33 -0.0301034 -1.57571 0
M  V30 14377 C 1362.56 0.658488 -1.96142 0
M  V30 14378 C 1362.97 1.65606 -0.906644 0
M  V30 14379 O 1362.33 1.82159 0.111441 0
M  V30 14380 C 1362.38 1.364 -3.34779 0
M  V30 14381 O 1362.1 0.4064 -4.36211 0
M  V30 14382 C 1363.6 2.14432 -3.87987 0
M  V30 14383 H 1360.82 0.181496 -0.645988 0
M  V30 14384 H 1363.37 -0.09016 -2.04301 0
M  V30 14385 H 1361.52 2.06404 -3.27836 0
M  V30 14386 H 1361.94 0.907503 -5.16589 0
M  V30 14387 H 1363.41 2.59248 -4.87334 0
M  V30 14388 H 1363.89 2.98377 -3.22285 0
M  V30 14389 H 1364.49 1.49383 -3.98202 0
M  V30 14390 N 1362.81 1.55714 0.243056 0
M  V30 14391 C 1364.09 1.68483 0.993614 0
M  V30 14392 C 1364.47 0.571112 2.03228 0
M  V30 14393 O 1363.81 -0.42491 2.24515 0
M  V30 14394 C 1364.02 3.0894 1.62349 0
M  V30 14395 C 1365.37 3.67663 2.12389 0
M  V30 14396 O 1366.4 3.11764 1.72283 0
M  V30 14397 O 1365.25 4.65664 2.8604 0
M  V30 14398 H 1362.35 0.685415 0.462747 0
M  V30 14399 H 1364.89 1.68043 0.236538 0
M  V30 14400 H 1363.67 3.81451 0.87241 0
M  V30 14401 H 1363.29 3.13407 2.44667 0
M  V30 14402 N 1364.29 -0.50888 1.49158 0
M  V30 14403 C 1365.7 -1.09054 1.51539 0
M  V30 14404 C 1366.05 -1.93938 0.297099 0
M  V30 14405 O 1365.17 -2.08092 -0.593849 0
M  V30 14406 C 1365.77 -1.98447 2.74599 0
M  V30 14407 C 1364.33 -2.5179 2.79783 0
M  V30 14408 C 1363.47 -1.29227 2.45348 0
M  V30 14409 H 1366.43 -0.293148 1.55969 0
M  V30 14410 H 1366.45 -2.83028 2.54314 0
M  V30 14411 H 1365.96 -1.3664 3.63251 0
M  V30 14412 H 1364.06 -3.17258 1.95392 0
M  V30 14413 H 1364.17 -2.89481 3.81756 0
M  V30 14414 H 1362.54 -1.61494 1.96957 0
M  V30 14415 H 1363.32 -0.6914 3.36266 0
M  V30 14416 N 1365.76 -1.381 -0.759346 0
M  V30 14417 C 1366.73 -1.34674 -1.8546 0
M  V30 14418 C 1367.73 -0.248351 -1.58871 0
M  V30 14419 O 1368.92 -0.504915 -1.66722 0
M  V30 14420 C 1366.05 -1.0952 -3.22828 0
M  V30 14421 H 1367.24 -2.3211 -1.89908 0
M  V30 14422 H 1364.8 -1.2331 -0.960435 0
M  V30 14423 H 1365.53 -0.126664 -3.24053 0
M  V30 14424 H 1365.32 -1.89037 -3.43522 0
M  V30 14425 H 1366.81 -1.09804 -4.02906 0
M  V30 14426 N 1367.24 0.986894 -1.22875 0
M  V30 14427 C 1368.49 1.72729 -1.05693 0
M  V30 14428 C 1368.82 1.90191 0.407121 0
M  V30 14429 O 1368.07 1.44667 1.31796 0
M  V30 14430 C 1368.37 3.13283 -1.72012 0
M  V30 14431 C 1368.04 3.15719 -3.2192 0
M  V30 14432 C 1366.7 3.1609 -3.62823 0
M  V30 14433 C 1369.05 3.11539 -4.17843 0
M  V30 14434 C 1366.38 3.09991 -4.98119 0
M  V30 14435 C 1368.73 3.06982 -5.53123 0
M  V30 14436 C 1367.4 3.05672 -5.93397 0
M  V30 14437 H 1366.67 0.63206 -0.386758 0
M  V30 14438 H 1369.31 1.15538 -1.52719 0
M  V30 14439 H 1367.62 3.7382 -1.17327 0
M  V30 14440 H 1369.31 3.69326 -1.56203 0
M  V30 14441 H 1365.9 3.16183 -2.89355 0
M  V30 14442 H 1370.09 3.10397 -3.87256 0
M  V30 14443 H 1365.34 3.07326 -5.28546 0
M  V30 14444 H 1369.52 3.02705 -6.27171 0
M  V30 14445 H 1367.15 3.00701 -6.982 0
M  V30 14446 N 1368.72 1.0394 1.18466 0
M  V30 14447 C 1369.68 0.633804 2.20262 0
M  V30 14448 C 1370.68 -0.308136 1.5782 0
M  V30 14449 O 1371.87 -0.0937087 1.73948 0
M  V30 14450 C 1369.01 -0.0709693 3.40826 0
M  V30 14451 H 1370.2 1.53463 2.57661 0
M  V30 14452 H 1367.75 0.831806 1.32328 0
M  V30 14453 H 1368.49 -0.985659 3.08958 0
M  V30 14454 H 1368.27 0.606023 3.87388 0
M  V30 14455 H 1369.76 -0.341298 4.16203 0
M  V30 14456 N 1370.2 -1.34667 0.818693 0
M  V30 14457 C 1371.45 -1.9767 0.401184 0
M  V30 14458 C 1371.76 -1.65644 -1.04027 0
M  V30 14459 O 1372.97 -2.22104 -1.56148 0
M  V30 14460 C 1371.42 -3.53677 0.666398 0
M  V30 14461 C 1371.03 -3.94601 2.12119 0
M  V30 14462 C 1372.77 -4.23331 0.314845 0
M  V30 14463 C 1370.68 -5.43502 2.33151 0
M  V30 14464 H 1369.61 -0.739675 0.146275 0
M  V30 14465 H 1372.26 -1.53568 1.00445 0
M  V30 14466 H 1370.64 -3.95999 -0.00698307 0
M  V30 14467 H 1371.82 -3.63396 2.83338 0
M  V30 14468 H 1370.13 -3.37871 2.43377 0
M  V30 14469 H 1372.73 -5.32804 0.449881 0
M  V30 14470 H 1373.07 -4.09666 -0.740235 0
M  V30 14471 H 1373.61 -3.8647 0.942631 0
M  V30 14472 H 1370.35 -5.62148 3.37149 0
M  V30 14473 H 1369.87 -5.76236 1.66471 0
M  V30 14474 H 1371.54 -6.10127 2.153 0
M  V30 14475 N 1371.68 -0.573274 -1.46804 0
M  V30 14476 C 1372.64 0.155066 -2.28675 0
M  V30 14477 C 1373.64 0.827706 -1.37861 0
M  V30 14478 O 1374.83 0.681105 -1.60333 0
M  V30 14479 C 1371.96 1.22864 -3.1799 0
M  V30 14480 H 1373.15 -0.564305 -2.94543 0
M  V30 14481 H 1370.71 -0.330855 -1.52758 0
M  V30 14482 H 1371.44 1.97989 -2.56848 0
M  V30 14483 H 1371.23 0.750936 -3.84842 0
M  V30 14484 H 1372.72 1.73974 -3.79635 0
M  V30 14485 N 1373.15 1.5451 -0.310553 0
M  V30 14486 C 1374.1 2.25332 0.576928 0
M  V30 14487 C 1375.1 1.26272 1.12924 0
M  V30 14488 O 1376.3 1.44092 1.07878 0
M  V30 14489 H 1372.68 0.723611 0.204674 0
M  V30 14490 H 1374.65 2.98369 -0.0428167 0
M  V30 14491 C 1373.4 3.01455 1.73263 0
M  V30 14492 H 1372.72 3.7749 1.31688 0
M  V30 14493 H 1374.16 3.54276 2.32947 0
M  V30 14494 C 1372.62 2.08984 2.64248 0
M  V30 14495 O 1373.15 1.66414 3.65608 0
M  V30 14496 N 1371.36 1.74742 2.32193 0
M  V30 14497 H 1370.9 2.09558 1.49811 0
M  V30 14498 H 1370.86 1.13148 2.93334 0
M  V30 14499 N 1374.63 0.0384594 1.57553 0
M  V30 14500 C 1375.86 -0.651613 1.96898 0
M  V30 14501 C 1376.28 -1.64328 0.915308 0
M  V30 14502 O 1375.64 -1.80883 -0.122824 0
M  V30 14503 C 1375.69 -1.32613 3.3533 0
M  V30 14504 O 1374.79 -2.44159 3.32355 0
M  V30 14505 H 1374.13 -0.170441 0.641752 0
M  V30 14506 H 1376.66 0.103086 2.0434 0
M  V30 14507 H 1376.67 -1.68076 3.71772 0
M  V30 14508 H 1375.35 -0.599275 4.1156 0
M  V30 14509 H 1373.93 -2.10738 3.07642 0
M  V30 14510 N 1376.11 -1.55841 -0.234795 0
M  V30 14511 C 1377.34 -1.82307 -0.978355 0
M  V30 14512 C 1377.75 -0.615825 -1.78474 0
M  V30 14513 O 1377.11 0.4156 -1.77705 0
M  V30 14514 C 1377.16 -3.07136 -1.90655 0
M  V30 14515 O 1376.88 -4.23202 -1.13278 0
M  V30 14516 C 1378.38 -3.46492 -2.76511 0
M  V30 14517 H 1375.6 -0.606361 -0.287345 0
M  V30 14518 H 1378.15 -2.02916 -0.254023 0
M  V30 14519 H 1376.3 -2.88542 -2.58501 0
M  V30 14520 H 1376.72 -4.94029 -1.76168 0
M  V30 14521 H 1378.19 -4.36908 -3.37366 0
M  V30 14522 H 1378.67 -2.67633 -3.48238 0
M  V30 14523 H 1379.27 -3.6748 -2.14099 0
M  V30 14524 N 1377.59 0.500963 -1.49426 0
M  V30 14525 C 1378.55 1.58478 -1.65582 0
M  V30 14526 C 1379.55 1.51897 -0.52762 0
M  V30 14527 O 1380.74 1.55049 -0.794071 0
M  V30 14528 C 1377.87 2.9813 -1.65322 0
M  V30 14529 H 1379.07 1.45483 -2.6225 0
M  V30 14530 H 1376.62 0.725199 -1.38458 0
M  V30 14531 H 1377.36 3.16602 -0.702384 0
M  V30 14532 H 1377.14 3.04315 -2.47255 0
M  V30 14533 H 1378.63 3.76874 -1.79878 0
M  V30 14534 N 1379.07 1.38501 0.752011 0
M  V30 14535 C 1380.29 1.38212 1.54636 0
M  V30 14536 C 1380.72 -0.0256356 1.88083 0
M  V30 14537 O 1380.08 -1.00812 1.50687 0
M  V30 14538 C 1380.12 2.24597 2.82114 0
M  V30 14539 O 1379.23 1.66415 3.77332 0
M  V30 14540 H 1378.57 0.47138 0.46765 0
M  V30 14541 H 1381.1 1.82283 0.929205 0
M  V30 14542 H 1381.11 2.38511 3.31023 0
M  V30 14543 H 1379.78 3.26913 2.57101 0
M  V30 14544 H 1378.36 1.61651 3.36041 0
M  V30 14545 N 1380.55 -0.980364 1.23396 0
M  V30 14546 C 1381.77 -1.75689 1.09275 0
M  V30 14547 C 1382.19 -1.85418 -0.355773 0
M  V30 14548 O 1381.55 -1.33337 -1.24609 0
M  V30 14549 C 1381.6 -3.18378 1.71223 0
M  V30 14550 O 1381.32 -3.09154 3.10411 0
M  V30 14551 C 1382.82 -4.12425 1.62545 0
M  V30 14552 H 1380.04 -0.551354 0.382427 0
M  V30 14553 H 1382.58 -1.23169 1.63247 0
M  V30 14554 H 1380.74 -3.67925 1.21285 0
M  V30 14555 H 1381.15 -3.9898 3.40464 0
M  V30 14556 H 1382.63 -5.1025 2.10592 0
M  V30 14557 H 1383.1 -4.35296 0.584275 0
M  V30 14558 H 1383.71 -3.68782 2.1185 0
M  V30 14559 N 1382.02 -1.04567 -1.17913 0
M  V30 14560 C 1382.95 -0.662066 -2.23917 0
M  V30 14561 C 1383.93 0.33713 -1.66726 0
M  V30 14562 O 1385.12 0.216116 -1.92994 0
M  V30 14563 C 1382.25 -0.029463 -3.47288 0
M  V30 14564 C 1381.2 -0.95274 -4.17261 0
M  V30 14565 C 1380.53 -0.184347 -5.34382 0
M  V30 14566 C 1381.83 -2.2741 -4.70194 0
M  V30 14567 H 1383.52 -1.54826 -2.5626 0
M  V30 14568 H 1381.07 -0.745886 -1.23177 0
M  V30 14569 H 1383.02 0.250654 -4.20654 0
M  V30 14570 H 1381.75 0.891638 -3.14193 0
M  V30 14571 H 1380.41 -1.21732 -3.45799 0
M  V30 14572 H 1380.05 0.73932 -4.97537 0
M  V30 14573 H 1379.75 -0.79949 -5.82136 0
M  V30 14574 H 1381.28 0.0886344 -6.10536 0
M  V30 14575 H 1382.69 -2.05433 -5.35229 0
M  V30 14576 H 1381.09 -2.84265 -5.28501 0
M  V30 14577 H 1382.16 -2.91708 -3.87342 0
M  V30 14578 N 1383.5 1.34231 -0.825823 0
M  V30 14579 C 1384.73 2.02949 -0.427354 0
M  V30 14580 C 1385.15 1.61772 0.959755 0
M  V30 14581 O 1384.51 0.803799 1.62508 0
M  V30 14582 C 1384.56 3.56522 -0.540799 0
M  V30 14583 O 1383.66 4.10065 0.438213 0
M  V30 14584 H 1383 0.640378 -0.175535 0
M  V30 14585 H 1385.53 1.71416 -1.11704 0
M  V30 14586 H 1385.54 4.05857 -0.41763 0
M  V30 14587 H 1384.22 3.85839 -1.55246 0
M  V30 14588 H 1382.79 3.71894 0.273687 0
M  V30 14589 N 1384.98 0.581051 1.46498 0
M  V30 14590 C 1386.2 0.0696654 2.07283 0
M  V30 14591 C 1386.63 -1.22525 1.42721 0
M  V30 14592 O 1385.99 -1.73967 0.510421 0
M  V30 14593 C 1386.04 -0.0843864 3.60501 0
M  V30 14594 O 1385.14 -1.14129 3.96293 0
M  V30 14595 H 1384.48 0.0620572 0.661094 0
M  V30 14596 H 1387.01 0.803522 1.88161 0
M  V30 14597 H 1387.02 -0.29108 4.0696 0
M  V30 14598 H 1385.7 0.861274 4.06884 0
M  V30 14599 H 1384.27 -0.913186 3.61546 0
M  V30 14600 N 1386.46 -1.54343 0.318742 0
M  V30 14601 C 1387.39 -2.21652 -0.583351 0
M  V30 14602 C 1388.4 -1.21494 -1.08366 0
M  V30 14603 O 1389.59 -1.4799 -0.998064 0
M  V30 14604 C 1386.69 -2.86349 -1.81266 0
M  V30 14605 C 1385.86 -4.12601 -1.45186 0
M  V30 14606 C 1384.92 -4.60937 -2.53818 0
M  V30 14607 O 1383.95 -5.25731 -2.18164 0
M  V30 14608 N 1385.15 -4.34755 -3.84667 0
M  V30 14609 H 1387.92 -2.99699 -0.00703539 0
M  V30 14610 H 1385.48 -1.61278 0.141728 0
M  V30 14611 H 1387.47 -3.15611 -2.53321 0
M  V30 14612 H 1386.04 -2.12037 -2.29693 0
M  V30 14613 H 1385.26 -3.90157 -0.563143 0
M  V30 14614 H 1386.55 -4.94774 -1.18642 0
M  V30 14615 H 1385.95 -3.82883 -4.16434 0
M  V30 14616 H 1384.5 -4.68683 -4.52967 0
M  V30 14617 N 1387.94 -0.0468143 -1.5753 0
M  V30 14618 C 1388.87 0.958157 -2.08211 0
M  V30 14619 C 1389.88 1.27757 -1.00906 0
M  V30 14620 O 1391.07 1.23913 -1.28483 0
M  V30 14621 C 1388.17 2.28088 -2.50657 0
M  V30 14622 C 1387.34 2.14403 -3.81248 0
M  V30 14623 C 1386.4 3.29761 -4.10054 0
M  V30 14624 O 1385.43 3.05859 -4.8004 0
M  V30 14625 N 1386.63 4.54104 -3.61621 0
M  V30 14626 H 1389.39 0.525612 -2.95055 0
M  V30 14627 H 1386.96 0.139532 -1.61298 0
M  V30 14628 H 1388.95 3.04121 -2.67007 0
M  V30 14629 H 1387.52 2.62924 -1.69085 0
M  V30 14630 H 1386.74 1.22988 -3.74523 0
M  V30 14631 H 1388.03 2.02482 -4.66775 0
M  V30 14632 H 1387.42 4.76414 -3.05034 0
M  V30 14633 H 1385.98 5.27246 -3.83217 0
M  V30 14634 N 1389.41 1.55964 0.226527 0
M  V30 14635 C 1390.34 1.95028 1.284 0
M  V30 14636 C 1391.33 0.817833 1.49149 0
M  V30 14637 O 1392.51 1.07975 1.61416 0
M  V30 14638 C 1389.64 2.26266 2.63478 0
M  V30 14639 C 1388.59 3.41954 2.57393 0
M  V30 14640 C 1387.92 3.58786 3.96456 0
M  V30 14641 C 1389.22 4.77069 2.12608 0
M  V30 14642 H 1390.91 2.83608 0.959513 0
M  V30 14643 H 1388.46 1.36451 0.460125 0
M  V30 14644 H 1390.41 2.52186 3.3761 0
M  V30 14645 H 1389.14 1.34533 2.97604 0
M  V30 14646 H 1387.8 3.16076 1.85719 0
M  V30 14647 H 1387.44 2.64437 4.27881 0
M  V30 14648 H 1387.14 4.36595 3.93267 0
M  V30 14649 H 1388.67 3.87048 4.72256 0
M  V30 14650 H 1390.08 5.02226 2.76481 0
M  V30 14651 H 1388.48 5.58126 2.2049 0
M  V30 14652 H 1389.55 4.7276 1.07823 0
M  V30 14653 N 1390.89 -0.493031 1.4969 0
M  V30 14654 C 1391.82 -1.60215 1.69863 0
M  V30 14655 C 1392.8 -1.61053 0.547362 0
M  V30 14656 O 1393.99 -1.77667 0.784093 0
M  V30 14657 C 1391.12 -2.98662 1.77252 0
M  V30 14658 C 1390.07 -3.1269 2.92248 0
M  V30 14659 C 1389.4 -4.52567 2.84758 0
M  V30 14660 C 1390.7 -2.91965 4.33074 0
M  V30 14661 H 1392.39 -1.43587 2.62723 0
M  V30 14662 H 1389.94 -0.689334 1.26429 0
M  V30 14663 H 1391.89 -3.7616 1.89951 0
M  V30 14664 H 1390.62 -3.16397 0.809976 0
M  V30 14665 H 1389.27 -2.37619 2.79164 0
M  V30 14666 H 1388.92 -4.6719 1.86394 0
M  V30 14667 H 1388.62 -4.62893 3.61944 0
M  V30 14668 H 1390.15 -5.32116 2.99475 0
M  V30 14669 H 1391.56 -3.59228 4.46798 0
M  V30 14670 H 1389.96 -3.13756 5.11544 0
M  V30 14671 H 1391.03 -1.88015 4.46966 0
M  V30 14672 N 1392.37 -1.38898 -0.744656 0
M  V30 14673 C 1393.32 -1.33342 -1.84943 0
M  V30 14674 C 1394.3 -0.216036 -1.59443 0
M  V30 14675 O 1395.5 -0.452764 -1.71111 0
M  V30 14676 C 1392.63 -1.16966 -3.2276 0
M  V30 14677 C 1391.71 -2.33365 -3.54121 0
M  V30 14678 N 1392.1 -3.58824 -3.56481 0
M  V30 14679 C 1390.4 -2.26112 -3.84434 0
M  V30 14680 C 1391.1 -4.35741 -3.85364 0
M  V30 14681 N 1390.08 -3.65206 -4.02648 0
M  V30 14682 H 1393.88 -2.28321 -1.85059 0
M  V30 14683 H 1391.39 -1.32257 -0.94244 0
M  V30 14684 H 1393.39 -1.11069 -4.01832 0
M  V30 14685 H 1392.05 -0.229288 -3.23889 0
M  V30 14686 H 1393.06 -3.92377 -3.38025 0
M  V30 14687 H 1389.74 -1.40283 -3.93226 0
M  V30 14688 H 1391.13 -5.44445 -3.93738 0
M  V30 14689 N 1393.85 0.973806 -1.23914 0
M  V30 14690 C 1395.1 1.71598 -1.07519 0
M  V30 14691 C 1395.42 1.90613 0.386926 0
M  V30 14692 O 1394.68 1.46056 1.30254 0
M  V30 14693 C 1394.98 3.11441 -1.75326 0
M  V30 14694 C 1394.64 3.12286 -3.25251 0
M  V30 14695 C 1393.31 3.12224 -3.66155 0
M  V30 14696 C 1395.66 3.0709 -4.21124 0
M  V30 14697 C 1392.99 3.0469 -5.01379 0
M  V30 14698 C 1395.34 3.01098 -5.56348 0
M  V30 14699 C 1394 2.99362 -5.96606 0
M  V30 14700 H 1393.27 0.627922 -0.39344 0
M  V30 14701 H 1395.92 1.13912 -1.53936 0
M  V30 14702 H 1394.22 3.72555 -1.21286 0
M  V30 14703 H 1395.92 3.67649 -1.60111 0
M  V30 14704 H 1392.51 3.13096 -2.92693 0
M  V30 14705 H 1396.69 3.06272 -3.90527 0
M  V30 14706 H 1391.95 3.01703 -5.31776 0
M  V30 14707 H 1396.12 2.96036 -6.30346 0
M  V30 14708 H 1393.75 2.93279 -7.0135 0
M  V30 14709 N 1395.33 1.05191 1.17357 0
M  V30 14710 C 1396.29 0.65713 2.19578 0
M  V30 14711 C 1397.29 -0.29138 1.58138 0
M  V30 14712 O 1398.48 -0.075254 1.74037 0
M  V30 14713 C 1395.61 -0.0348162 3.40882 0
M  V30 14714 H 1396.8 1.56188 2.56018 0
M  V30 14715 H 1394.36 0.845795 1.31438 0
M  V30 14716 H 1395.09 -0.952835 3.09986 0
M  V30 14717 H 1394.88 0.647076 3.86724 0
M  V30 14718 H 1396.37 -0.297135 4.16542 0
M  V30 14719 N 1396.8 -1.33791 0.83293 0
M  V30 14720 C 1397.77 -2.27637 0.267196 0
M  V30 14721 C 1398.77 -1.50709 -0.560669 0
M  V30 14722 O 1399.96 -1.70109 -0.375321 0
M  V30 14723 C 1397.09 -3.35136 -0.624248 0
M  V30 14724 H 1398.28 -2.79186 1.09522 0
M  V30 14725 H 1395.84 -1.44093 0.605554 0
M  V30 14726 H 1396.57 -2.88818 -1.47494 0
M  V30 14727 H 1396.36 -3.92087 -0.0319827 0
M  V30 14728 H 1397.85 -4.05113 -1.01355 0
M  V30 14729 N 1398.28 -0.588812 -1.46187 0
M  V30 14730 C 1399.56 -0.00958331 -1.95598 0
M  V30 14731 C 1399.94 1.45294 -1.53144 0
M  V30 14732 O 1399.29 2.14592 -0.785015 0
M  V30 14733 C 1399.5 -0.188018 -3.48493 0
M  V30 14734 C 1400.85 -0.0590152 -4.24559 0
M  V30 14735 O 1401.87 -0.117167 -3.56007 0
M  V30 14736 O 1400.73 0.0715924 -5.46453 0
M  V30 14737 H 1397.82 0.0463708 -0.825699 0
M  V30 14738 H 1400.37 -0.657558 -1.56443 0
M  V30 14739 H 1399.14 -1.20449 -3.723 0
M  V30 14740 H 1398.76 0.496103 -3.94493 0
M  V30 14741 N 1399.76 1.54172 -0.326923 0
M  V30 14742 C 1401.01 2.00926 0.275047 0
M  V30 14743 C 1401.34 1.21469 1.51522 0
M  V30 14744 O 1400.61 0.297871 1.92206 0
M  V30 14745 C 1400.9 3.54967 0.605833 0
M  V30 14746 C 1400.75 4.45147 -0.645279 0
M  V30 14747 C 1402.07 4.16489 1.42213 0
M  V30 14748 H 1399.19 0.730389 0.098495 0
M  V30 14749 H 1401.83 1.84735 -0.444168 0
M  V30 14750 H 1399.98 3.68895 1.21857 0
M  V30 14751 H 1401.65 4.43085 -1.2835 0
M  V30 14752 H 1399.9 4.14686 -1.27349 0
M  V30 14753 H 1400.57 5.50763 -0.36932 0
M  V30 14754 H 1403.04 4.06158 0.904172 0
M  V30 14755 H 1401.92 5.24377 1.62234 0
M  V30 14756 H 1402.18 3.70032 2.41928 0
M  V30 14757 N 1401.24 0.0551678 1.57503 0
M  V30 14758 C 1402.2 -0.903065 2.10659 0
M  V30 14759 C 1403.2 -1.23728 1.02703 0
M  V30 14760 O 1404.39 -1.17331 1.2876 0
M  V30 14761 C 1401.52 -2.21171 2.59415 0
M  V30 14762 H 1402.72 -0.442197 2.96622 0
M  V30 14763 H 1400.27 -0.193297 1.551 0
M  V30 14764 H 1401 -2.71831 1.76858 0
M  V30 14765 H 1400.79 -1.98216 3.38309 0
M  V30 14766 H 1402.28 -2.89802 3.00674 0
M  V30 14767 N 1402.72 -1.56081 -0.218252 0
M  V30 14768 C 1404.13 -1.49147 -0.568098 0
M  V30 14769 C 1404.33 -0.750893 -1.86986 0
M  V30 14770 O 1403.39 -0.291904 -2.50807 0
M  V30 14771 C 1404.7 -2.93717 -0.644272 0
M  V30 14772 C 1406.25 -3.04256 -0.734677 0
M  V30 14773 C 1406.72 -4.50191 -0.842167 0
M  V30 14774 N 1408.22 -4.54247 -0.906302 0
M  V30 14775 C 1408.95 -5.64448 -1.00924 0
M  V30 14776 N 1408.45 -6.84394 -1.07592 0
M  V30 14777 N 1410.24 -5.52308 -1.04463 0
M  V30 14778 H 1402.39 -2.02656 0.635935 0
M  V30 14779 H 1404.65 -0.921262 0.223563 0
M  V30 14780 H 1404.36 -3.50861 0.242721 0
M  V30 14781 H 1404.23 -3.45798 -1.50678 0
M  V30 14782 H 1406.62 -2.47174 -1.61211 0
M  V30 14783 H 1406.7 -2.55339 0.153563 0
M  V30 14784 H 1406.35 -5.07891 0.0308214 0
M  V30 14785 H 1406.28 -4.96817 -1.74587 0
M  V30 14786 H 1408.77 -3.67868 -0.864954 0
M  V30 14787 H 1409.08 -7.6413 -1.15433 0
M  V30 14788 H 1407.42 -6.87099 -1.045 0
M  V30 14789 H 1410.62 -4.57528 -0.989218 0
M  V30 14790 H 1410.79 -6.38223 -1.1214 0
M  V30 14791 N 1404.2 0.485086 -1.49949 0
M  V30 14792 C 1405.44 1.23571 -1.5992 0
M  V30 14793 C 1405.76 1.92754 -0.295108 0
M  V30 14794 O 1405.03 1.83474 0.686582 0
M  V30 14795 H 1403.61 0.459104 -0.589264 0
M  V30 14796 H 1406.28 0.560822 -1.86657 0
M  V30 14797 H 1405.37 1.99114 -2.40333 0
M  V30 14798 N 1405.67 1.39291 0.737279 0
M  V30 14799 C 1406.61 1.32216 1.85995 0
M  V30 14800 C 1407.58 0.19623 1.61412 0
M  V30 14801 O 1408.77 0.376297 1.84706 0
M  V30 14802 C 1405.9 1.0525 3.21932 0
M  V30 14803 C 1404.94 2.20002 3.65378 0
M  V30 14804 S 1405.77 3.82265 3.75011 0
M  V30 14805 C 1406.93 3.57519 5.13742 0
M  V30 14806 H 1407.16 2.27231 1.91712 0
M  V30 14807 H 1404.7 1.25319 0.901911 0
M  V30 14808 H 1406.65 0.903753 4.00428 0
M  V30 14809 H 1405.32 0.119258 3.13874 0
M  V30 14810 H 1404.51 1.9672 4.64023 0
M  V30 14811 H 1404.11 2.31068 2.94081 0
M  V30 14812 H 1406.4 3.14643 6.00005 0
M  V30 14813 H 1407.35 4.55616 5.42051 0
M  V30 14814 H 1407.75 2.9167 4.8331 0
M  V30 14815 N 1407.15 -0.967221 1.24429 0
M  V30 14816 C 1408.43 -1.68564 0.992253 0
M  V30 14817 C 1408.81 -2.05446 -0.485301 0
M  V30 14818 O 1408.16 -1.75798 -1.45971 0
M  V30 14819 C 1408.37 -2.91728 1.91562 0
M  V30 14820 C 1409.71 -3.63957 2.18678 0
M  V30 14821 O 1410.74 -3.01786 1.89219 0
M  V30 14822 O 1409.6 -4.75875 2.68711 0
M  V30 14823 H 1406.69 -0.736939 0.375299 0
M  V30 14824 H 1409.24 -1.02127 1.35529 0
M  V30 14825 H 1408.01 -2.61168 2.91388 0
M  V30 14826 H 1407.63 -3.65898 1.55577 0
M  V30 14827 N 1408.63 -1.05812 -1.16797 0
M  V30 14828 C 1409.86 -0.79137 -1.90843 0
M  V30 14829 C 1410.27 0.657481 -1.77409 0
M  V30 14830 O 1409.61 1.46142 -1.11302 0
M  V30 14831 C 1409.67 -1.10042 -3.42244 0
M  V30 14832 C 1409.34 -2.54671 -3.79463 0
M  V30 14833 C 1410.33 -3.52894 -3.81788 0
M  V30 14834 C 1408.02 -2.89843 -4.10239 0
M  V30 14835 C 1410.01 -4.84332 -4.14369 0
M  V30 14836 C 1407.7 -4.21482 -4.42488 0
M  V30 14837 C 1408.7 -5.18537 -4.44532 0
M  V30 14838 O 1408.39 -6.47814 -4.76018 0
M  V30 14839 H 1408.12 -0.286766 -0.612161 0
M  V30 14840 H 1410.67 -1.41369 -1.4901 0
M  V30 14841 H 1408.9 -0.421015 -3.84401 0
M  V30 14842 H 1410.59 -0.818688 -3.97558 0
M  V30 14843 H 1411.36 -3.27062 -3.58128 0
M  V30 14844 H 1407.24 -2.14959 -4.07816 0
M  V30 14845 H 1410.78 -5.60081 -4.15879 0
M  V30 14846 H 1406.68 -4.47075 -4.65612 0
M  V30 14847 H 1407.44 -6.52729 -4.93849 0
M  V30 14848 N 1410.11 1.33347 -0.840014 0
M  V30 14849 C 1411.04 2.31703 -0.289138 0
M  V30 14850 C 1412.02 1.59024 0.603759 0
M  V30 14851 O 1413.2 1.86911 0.527071 0
M  V30 14852 C 1410.33 3.43144 0.53566 0
M  V30 14853 C 1409.29 4.272 -0.261544 0
M  V30 14854 C 1408.61 5.30267 0.687075 0
M  V30 14855 C 1409.91 5.00915 -1.47924 0
M  V30 14856 H 1411.61 2.78026 -1.11094 0
M  V30 14857 H 1409.15 1.33666 -0.535658 0
M  V30 14858 H 1411.11 4.10979 0.931351 0
M  V30 14859 H 1409.83 2.95512 1.39069 0
M  V30 14860 H 1408.49 3.60991 -0.638809 0
M  V30 14861 H 1408.14 4.78893 1.53853 0
M  V30 14862 H 1407.84 5.87388 0.157773 0
M  V30 14863 H 1409.36 6.00968 1.08026 0
M  V30 14864 H 1410.78 5.61511 -1.15664 0
M  V30 14865 H 1409.17 5.67692 -1.94541 0
M  V30 14866 H 1410.24 4.29622 -2.24839 0
M  V30 14867 N 1411.59 0.596556 1.45873 0
M  V30 14868 C 1412.81 0.0916466 2.07197 0
M  V30 14869 C 1413.24 -1.21004 1.44012 0
M  V30 14870 O 1412.59 -1.73415 0.528844 0
M  V30 14871 C 1412.64 -0.0461457 3.6057 0
M  V30 14872 O 1411.75 -1.09919 3.97481 0
M  V30 14873 H 1411.09 0.0690655 0.660398 0
M  V30 14874 H 1413.62 0.823434 1.87299 0
M  V30 14875 H 1413.63 -0.2479 4.07246 0
M  V30 14876 H 1412.3 0.904381 4.05948 0
M  V30 14877 H 1410.88 -0.874788 3.62494 0
M  V30 14878 N 1413.06 -1.53996 0.335095 0
M  V30 14879 C 1414 -2.22258 -0.559809 0
M  V30 14880 C 1415.01 -1.22636 -1.07071 0
M  V30 14881 O 1416.2 -1.4904 -0.982312 0
M  V30 14882 C 1413.3 -2.88256 -1.78218 0
M  V30 14883 C 1412.47 -4.14118 -1.40801 0
M  V30 14884 C 1411.53 -4.63603 -2.48915 0
M  V30 14885 O 1410.56 -5.28015 -2.12576 0
M  V30 14886 N 1411.76 -4.3881 -3.80034 0
M  V30 14887 H 1414.52 -2.9969 0.0247521 0
M  V30 14888 H 1412.08 -1.61119 0.158826 0
M  V30 14889 H 1414.08 -3.1828 -2.4996 0
M  V30 14890 H 1412.65 -2.14461 -2.27431 0
M  V30 14891 H 1411.87 -3.90732 -0.521729 0
M  V30 14892 H 1413.15 -4.96005 -1.13388 0
M  V30 14893 H 1412.55 -3.87278 -4.12349 0
M  V30 14894 H 1411.11 -4.73461 -4.47971 0
M  V30 14895 N 1414.54 -0.0635198 -1.57472 0
M  V30 14896 C 1415.49 0.906604 -2.12248 0
M  V30 14897 C 1416.46 1.30078 -1.0329 0
M  V30 14898 O 1417.64 1.38809 -1.30907 0
M  V30 14899 C 1414.78 2.1718 -2.68192 0
M  V30 14900 C 1413.9 1.831 -3.91278 0
M  V30 14901 C 1413.03 3.0417 -4.35493 0
M  V30 14902 C 1412.07 2.66069 -5.51248 0
M  V30 14903 N 1411.21 3.79871 -5.9046 0
M  V30 14904 H 1416.05 0.432606 -2.94843 0
M  V30 14905 H 1413.58 0.201895 -1.45708 0
M  V30 14906 H 1415.54 2.91231 -2.98732 0
M  V30 14907 H 1414.17 2.62135 -1.88375 0
M  V30 14908 H 1413.22 0.991473 -3.67252 0
M  V30 14909 H 1414.54 1.51063 -4.75375 0
M  V30 14910 H 1413.69 3.86507 -4.6765 0
M  V30 14911 H 1412.43 3.39395 -3.50232 0
M  V30 14912 H 1411.43 1.82151 -5.1875 0
M  V30 14913 H 1412.66 2.32023 -6.38234 0
M  V30 14914 H 1410.61 4.14873 -5.0815 0
M  V30 14915 H 1410.52 3.51573 -6.69277 0
M  V30 14916 H 1411.79 4.62811 -6.27237 0
M  V30 14917 N 1416.02 1.56195 0.209972 0
M  V30 14918 C 1416.95 1.89859 1.28398 0
M  V30 14919 C 1417.96 0.787878 1.42465 0
M  V30 14920 O 1419.15 1.06623 1.43156 0
M  V30 14921 C 1416.25 2.10231 2.65812 0
M  V30 14922 C 1415.43 3.41309 2.73545 0
M  V30 14923 C 1414.49 3.50973 3.92052 0
M  V30 14924 O 1413.51 4.23915 3.79849 0
M  V30 14925 N 1414.71 2.82965 5.06864 0
M  V30 14926 H 1417.48 2.82581 0.998411 0
M  V30 14927 H 1415.04 1.56882 0.399964 0
M  V30 14928 H 1417.03 2.13999 3.43492 0
M  V30 14929 H 1415.6 1.2408 2.8692 0
M  V30 14930 H 1414.82 3.49539 1.82253 0
M  V30 14931 H 1416.11 4.27636 2.7569 0
M  V30 14932 H 1415.51 2.23504 5.19676 0
M  V30 14933 H 1414.06 2.9238 5.82544 0
M  V30 14934 N 1417.5 -0.477127 1.50204 0
M  V30 14935 C 1418.74 -1.22964 1.60891 0
M  V30 14936 C 1419.07 -1.9207 0.306464 0
M  V30 14937 O 1418.33 -1.82472 -0.707272 0
M  V30 14938 C 1418.63 -2.30126 2.73453 0
M  V30 14939 C 1418.29 -1.78314 4.14143 0
M  V30 14940 C 1416.95 -1.63904 4.52425 0
M  V30 14941 C 1419.31 -1.3981 5.02098 0
M  V30 14942 C 1416.63 -1.09404 5.76409 0
M  V30 14943 C 1418.99 -0.867538 6.26623 0
M  V30 14944 C 1417.65 -0.710022 6.63713 0
M  V30 14945 H 1416.92 -0.449959 0.588743 0
M  V30 14946 H 1419.57 -0.526592 1.84118 0
M  V30 14947 H 1417.87 -3.06315 2.44291 0
M  V30 14948 H 1419.57 -2.88099 2.78927 0
M  V30 14949 H 1416.16 -1.90496 3.83939 0
M  V30 14950 H 1420.34 -1.49779 4.73159 0
M  V30 14951 H 1415.6 -0.959413 6.03825 0
M  V30 14952 H 1419.77 -0.560496 6.94141 0
M  V30 14953 H 1417.4 -0.285555 7.59663 0
M  V30 14954 N 1418.98 -1.3968 -0.729882 0
M  V30 14955 C 1420.23 -1.36492 -1.48502 0
M  V30 14956 C 1420.54 0.0346572 -1.95569 0
M  V30 14957 O 1421.74 0.189135 -2.7084 0
M  V30 14958 C 1420.2 -2.39813 -2.68361 0
M  V30 14959 C 1419.81 -3.85511 -2.28222 0
M  V30 14960 C 1421.55 -2.45709 -3.46161 0
M  V30 14961 C 1419.46 -4.80462 -3.44834 0
M  V30 14962 H 1418.39 -0.507455 -0.557679 0
M  V30 14963 H 1421.04 -1.6535 -0.795708 0
M  V30 14964 H 1419.42 -2.04033 -3.39392 0
M  V30 14965 H 1420.6 -4.30359 -1.64704 0
M  V30 14966 H 1418.91 -3.82957 -1.63501 0
M  V30 14967 H 1421.51 -3.1384 -4.32907 0
M  V30 14968 H 1421.85 -1.48318 -3.88983 0
M  V30 14969 H 1422.38 -2.80409 -2.82163 0
M  V30 14970 H 1419.12 -5.79134 -3.07057 0
M  V30 14971 H 1418.64 -4.40289 -4.07315 0
M  V30 14972 H 1420.32 -4.99607 -4.11098 0
M  V30 14973 N 1420.45 0.960609 -1.2494 0
M  V30 14974 C 1421.4 2.04164 -1.01493 0
M  V30 14975 C 1422.39 1.60834 0.0461124 0
M  V30 14976 O 1423.58 1.76196 -0.168491 0
M  V30 14977 C 1420.71 3.37484 -0.629251 0
M  V30 14978 C 1419.8 3.87356 -1.72674 0
M  V30 14979 N 1420.19 4.10085 -2.9608 0
M  V30 14980 C 1418.48 4.16086 -1.60589 0
M  V30 14981 C 1419.19 4.51091 -3.67276 0
M  V30 14982 N 1418.16 4.56676 -2.9487 0
M  V30 14983 H 1421.96 2.19723 -1.95189 0
M  V30 14984 H 1419.48 1.14496 -1.15171 0
M  V30 14985 H 1421.47 4.14545 -0.442484 0
M  V30 14986 H 1420.13 3.23307 0.300446 0
M  V30 14987 H 1421.15 3.97331 -3.32187 0
M  V30 14988 H 1417.82 4.10804 -0.744725 0
M  V30 14989 H 1419.21 4.77031 -4.73172 0
M  V30 14990 N 1421.93 1.0643 1.16234 0
M  V30 14991 C 1423.35 0.78802 1.38789 0
M  V30 14992 C 1423.55 -0.612019 1.91981 0
M  V30 14993 O 1422.6 -1.37235 2.1195 0
M  V30 14994 C 1423.92 1.85406 2.36738 0
M  V30 14995 C 1425.47 1.87773 2.5042 0
M  V30 14996 C 1425.94 2.93435 3.51653 0
M  V30 14997 N 1427.43 2.92477 3.59181 0
M  V30 14998 C 1428.17 3.7088 4.37305 0
M  V30 14999 N 1427.66 4.59106 5.18839 0
M  V30 15000 N 1429.46 3.59267 4.32301 0
M  V30 15001 H 1421.61 1.9674 0.800449 0
M  V30 15002 H 1423.87 0.852631 0.414397 0
M  V30 15003 H 1423.58 2.85954 2.04751 0
M  V30 15004 H 1423.45 1.70625 3.36403 0
M  V30 15005 H 1425.84 0.878825 2.8171 0
M  V30 15006 H 1425.92 2.06633 1.50787 0
M  V30 15007 H 1425.56 3.93519 3.211 0
M  V30 15008 H 1425.49 2.71824 4.5102 0
M  V30 15009 H 1427.98 2.28517 3.00979 0
M  V30 15010 H 1428.3 5.15583 5.75668 0
M  V30 15011 H 1426.64 4.6316 5.18177 0
M  V30 15012 H 1429.83 2.89726 3.67663 0
M  V30 15013 H 1430 4.20613 4.92939 0
M  V30 15014 N 1423.41 -1.329 0.847073 0
M  V30 15015 C 1424.69 -1.921 0.368351 0
M  V30 15016 C 1425.07 -1.77205 -1.14724 0
M  V30 15017 O 1424.42 -1.16547 -1.96543 0
M  V30 15018 C 1424.63 -3.39125 0.824326 0
M  V30 15019 C 1425.97 -4.16267 0.837097 0
M  V30 15020 O 1427 -3.47812 0.768466 0
M  V30 15021 O 1425.86 -5.38487 0.932389 0
M  V30 15022 H 1422.95 -0.820187 0.105936 0
M  V30 15023 H 1425.5 -1.41719 0.933471 0
M  V30 15024 H 1424.27 -3.43875 1.86723 0
M  V30 15025 H 1423.89 -3.96898 0.236233 0
M  V30 15026 N 1424.89 -0.604284 -1.45555 0
M  V30 15027 C 1425.82 0.103859 -2.33269 0
M  V30 15028 C 1426.8 0.862104 -1.46635 0
M  V30 15029 O 1427.98 0.833308 -1.75413 0
M  V30 15030 C 1425.11 1.104 -3.29286 0
M  V30 15031 C 1424.07 0.459189 -4.2553 0
M  V30 15032 C 1423.39 1.56734 -5.11213 0
M  V30 15033 C 1424.69 -0.617509 -5.18637 0
M  V30 15034 H 1426.39 -0.628538 -2.92728 0
M  V30 15035 H 1423.93 -0.303711 -1.40761 0
M  V30 15036 H 1425.89 1.60794 -3.89517 0
M  V30 15037 H 1424.61 1.86695 -2.67979 0
M  V30 15038 H 1423.27 -0.0238508 -3.66592 0
M  V30 15039 H 1422.92 2.32049 -4.46276 0
M  V30 15040 H 1422.62 1.14142 -5.76407 0
M  V30 15041 H 1424.14 2.07361 -5.74312 0
M  V30 15042 H 1425.56 -0.197784 -5.72959 0
M  V30 15043 H 1423.95 -0.96499 -5.9229 0
M  V30 15044 H 1425.02 -1.49541 -4.61265 0
M  V30 15045 N 1426.37 1.53816 -0.343257 0
M  V30 15046 C 1427.33 2.23654 0.501161 0
M  V30 15047 C 1428.33 1.23664 1.02781 0
M  V30 15048 O 1429.52 1.48104 0.917103 0
M  V30 15049 C 1426.65 2.95596 1.69812 0
M  V30 15050 H 1427.84 2.997 -0.109626 0
M  V30 15051 H 1425.4 1.56013 -0.0946011 0
M  V30 15052 H 1426.13 2.23736 2.34761 0
M  V30 15053 H 1425.92 3.68938 1.32768 0
M  V30 15054 H 1427.41 3.48748 2.29706 0
M  V30 15055 N 1427.84 0.0718701 1.57436 0
M  V30 15056 C 1428.81 -0.880671 2.11605 0
M  V30 15057 C 1429.81 -1.22632 1.0401 0
M  V30 15058 O 1431 -1.15958 1.29997 0
M  V30 15059 C 1428.13 -2.18407 2.61746 0
M  V30 15060 H 1429.32 -0.410712 2.97074 0
M  V30 15061 H 1426.88 -0.176836 1.55296 0
M  V30 15062 H 1427.61 -2.6994 1.79731 0
M  V30 15063 H 1427.4 -1.94616 3.40392 0
M  V30 15064 H 1428.89 -2.86596 3.03731 0
M  V30 15065 N 1429.32 -1.56304 -0.201686 0
M  V30 15066 C 1430.74 -1.49741 -0.552247 0
M  V30 15067 C 1430.94 -0.770683 -1.86179 0
M  V30 15068 O 1429.99 -0.318489 -2.50483 0
M  V30 15069 C 1431.31 -2.94384 -0.613083 0
M  V30 15070 C 1432.86 -3.05018 -0.702365 0
M  V30 15071 C 1433.33 -4.51058 -0.794371 0
M  V30 15072 N 1434.82 -4.55183 -0.858072 0
M  V30 15073 C 1435.56 -5.65487 -0.949317 0
M  V30 15074 N 1435.05 -6.85497 -1.00327 0
M  V30 15075 N 1436.85 -5.53385 -0.985995 0
M  V30 15076 H 1429 -2.01971 0.657394 0
M  V30 15077 H 1431.26 -0.918839 0.233322 0
M  V30 15078 H 1430.97 -3.50584 0.279921 0
M  V30 15079 H 1430.84 -3.47376 -1.47002 0
M  V30 15080 H 1433.23 -2.4887 -1.5858 0
M  V30 15081 H 1433.31 -2.55161 0.180636 0
M  V30 15082 H 1432.95 -5.07829 0.0846883 0
M  V30 15083 H 1432.88 -4.98641 -1.69308 0
M  V30 15084 H 1435.37 -3.68765 -0.825888 0
M  V30 15085 H 1435.69 -7.65312 -1.07322 0
M  V30 15086 H 1434.03 -6.88169 -0.972061 0
M  V30 15087 H 1437.22 -4.58552 -0.940635 0
M  V30 15088 H 1437.39 -6.39376 -1.05365 0
M  V30 15089 N 1430.8 0.469154 -1.50455 0
M  V30 15090 C 1431.75 1.58765 -1.6999 0
M  V30 15091 C 1432.74 1.59673 -0.56577 0
M  V30 15092 O 1433.95 1.63799 -0.74632 0
M  V30 15093 H 1430.32 0.526868 -0.536577 0
M  V30 15094 H 1432.29 1.39451 -2.6381 0
M  V30 15095 C 1431.04 2.9669 -1.81302 0
M  V30 15096 H 1430.37 2.96711 -2.67961 0
M  V30 15097 H 1431.81 3.74403 -1.98994 0
M  V30 15098 C 1430.27 3.32127 -0.565086 0
M  V30 15099 O 1430.8 4.00616 0.294873 0
M  V30 15100 N 1429 2.8757 -0.418537 0
M  V30 15101 H 1428.55 2.32008 -1.11938 0
M  V30 15102 H 1428.51 3.11645 0.415276 0
M  V30 15103 N 1432.28 1.40065 0.722464 0
M  V30 15104 C 1433.53 1.37277 1.47776 0
M  V30 15105 C 1433.84 -0.0242852 1.95585 0
M  V30 15106 O 1435.05 -0.174769 2.70937 0
M  V30 15107 C 1433.5 2.41233 2.67085 0
M  V30 15108 C 1433.11 3.86716 2.26174 0
M  V30 15109 C 1434.85 2.47541 3.44853 0
M  V30 15110 C 1432.76 4.82284 3.42281 0
M  V30 15111 H 1431.69 0.510405 0.55498 0
M  V30 15112 H 1434.34 1.6577 0.786928 0
M  V30 15113 H 1432.72 2.0583 3.38305 0
M  V30 15114 H 1433.9 4.31227 1.6242 0
M  V30 15115 H 1432.21 3.83819 1.61468 0
M  V30 15116 H 1434.81 3.16131 4.31237 0
M  V30 15117 H 1435.15 1.50379 3.8819 0
M  V30 15118 H 1435.69 2.81901 2.80672 0
M  V30 15119 H 1432.43 5.80754 3.03982 0
M  V30 15120 H 1431.95 4.42443 4.04975 0
M  V30 15121 H 1433.62 5.0178 4.08443 0
M  V30 15122 N 1433.76 -0.95397 1.25448 0
M  V30 15123 C 1434.69 -2.06828 1.08372 0
M  V30 15124 C 1435.67 -1.70098 -0.00741585 0
M  V30 15125 O 1436.85 -1.93521 0.16224 0
M  V30 15126 C 1433.98 -3.40124 0.702365 0
M  V30 15127 C 1432.94 -3.90865 1.74381 0
M  V30 15128 C 1432.26 -5.20663 1.21712 0
M  V30 15129 C 1433.56 -4.17169 3.14273 0
M  V30 15130 H 1435.26 -2.21372 2.01581 0
M  V30 15131 H 1432.8 -1.06374 0.970592 0
M  V30 15132 H 1434.76 -4.17529 0.569837 0
M  V30 15133 H 1433.48 -3.2552 -0.265428 0
M  V30 15134 H 1432.14 -3.15628 1.86479 0
M  V30 15135 H 1431.79 -5.02429 0.23954 0
M  V30 15136 H 1431.49 -5.55581 1.91319 0
M  V30 15137 H 1433.01 -6.00665 1.097 0
M  V30 15138 H 1434.43 -4.85231 3.05325 0
M  V30 15139 H 1432.82 -4.63344 3.81356 0
M  V30 15140 H 1433.89 -3.23421 3.61285 0
M  V30 15141 N 1435.24 -1.07045 -1.15668 0
M  V30 15142 C 1436.48 -0.792908 -1.86657 0
M  V30 15143 C 1436.81 0.679213 -1.81935 0
M  V30 15144 O 1436.09 1.49822 -1.2403 0
M  V30 15145 C 1436.37 -1.2978 -3.35901 0
M  V30 15146 C 1436.23 -2.83424 -3.49272 0
M  V30 15147 C 1437.54 -0.911821 -4.30551 0
M  V30 15148 H 1434.66 -0.289509 -0.677756 0
M  V30 15149 H 1437.31 -1.32769 -1.35913 0
M  V30 15150 H 1435.46 -0.84288 -3.79246 0
M  V30 15151 H 1437.13 -3.37182 -3.14811 0
M  V30 15152 H 1435.37 -3.21777 -2.90933 0
M  V30 15153 H 1436.04 -3.13819 -4.54116 0
M  V30 15154 H 1438.52 -1.30376 -3.95147 0
M  V30 15155 H 1437.39 -1.29247 -5.33467 0
M  V30 15156 H 1437.65 0.18255 -4.41723 0
M  V30 15157 N 1436.71 1.32449 -0.85411 0
M  V30 15158 C 1437.96 1.96881 -0.45632 0
M  V30 15159 C 1438.28 1.67926 0.991248 0
M  V30 15160 O 1437.55 0.986195 1.69266 0
M  V30 15161 H 1436.13 0.728378 -0.165752 0
M  V30 15162 H 1438.79 1.61542 -1.09042 0
M  V30 15163 H 1437.89 3.0626 -0.600927 0
M  V30 15164 N 1438.19 0.611994 1.45232 0
M  V30 15165 C 1439.1 -0.105981 2.3436 0
M  V30 15166 C 1440.12 -0.855785 1.515 0
M  V30 15167 O 1441.29 -0.812376 1.84289 0
M  V30 15168 C 1438.36 -1.08794 3.29188 0
M  V30 15169 C 1437.42 -0.339611 4.27955 0
M  V30 15170 C 1436.65 -1.27479 5.18252 0
M  V30 15171 O 1436.88 -2.51279 5.12069 0
M  V30 15172 O 1435.81 -0.769469 5.96961 0
M  V30 15173 H 1439.64 0.626584 2.97166 0
M  V30 15174 H 1437.22 0.37224 1.44688 0
M  V30 15175 H 1439.1 -1.65338 3.8761 0
M  V30 15176 H 1437.78 -1.80145 2.68941 0
M  V30 15177 H 1436.68 0.268408 3.73136 0
M  V30 15178 H 1438.02 0.333501 4.91069 0
M  V30 15179 N 1439.67 -1.53632 0.351409 0
M  V30 15180 C 1440.62 -2.26782 -0.516983 0
M  V30 15181 C 1441.61 -1.29222 -1.09536 0
M  V30 15182 O 1442.82 -1.46901 -1.04019 0
M  V30 15183 H 1439.19 -0.728783 -0.185417 0
M  V30 15184 H 1441.16 -2.98151 0.121909 0
M  V30 15185 C 1439.91 -3.05943 -1.6521 0
M  V30 15186 H 1439.24 -3.80848 -1.21633 0
M  V30 15187 H 1440.68 -3.60328 -2.23472 0
M  V30 15188 C 1439.13 -2.15917 -2.58614 0
M  V30 15189 O 1439.66 -1.76049 -3.61067 0
M  V30 15190 N 1437.87 -1.80837 -2.27478 0
M  V30 15191 H 1437.42 -2.13456 -1.44202 0
M  V30 15192 H 1437.38 -1.20886 -2.90231 0
M  V30 15193 N 1441.15 -0.0802183 -1.57396 0
M  V30 15194 C 1442.38 0.59489 -1.9785 0
M  V30 15195 C 1442.79 1.63174 -0.957641 0
M  V30 15196 O 1442.13 1.83592 0.0629632 0
M  V30 15197 C 1442.19 1.31367 -3.34639 0
M  V30 15198 C 1441.85 0.429303 -4.54979 0
M  V30 15199 C 1442.85 -0.316537 -5.18935 0
M  V30 15200 C 1440.54 0.351714 -5.01067 0
M  V30 15201 C 1442.53 -1.1281 -6.27338 0
M  V30 15202 C 1440.22 -0.463513 -6.0934 0
M  V30 15203 C 1441.22 -1.20208 -6.72338 0
M  V30 15204 O 1440.9 -2.00385 -7.78525 0
M  V30 15205 H 1440.64 0.165331 -0.655471 0
M  V30 15206 H 1443.19 -0.151697 -2.04839 0
M  V30 15207 H 1441.42 2.10651 -3.24289 0
M  V30 15208 H 1443.11 1.88184 -3.59641 0
M  V30 15209 H 1443.87 -0.266237 -4.84269 0
M  V30 15210 H 1439.75 0.916218 -4.51804 0
M  V30 15211 H 1443.3 -1.70508 -6.76441 0
M  V30 15212 H 1439.19 -0.515347 -6.4344 0
M  V30 15213 H 1439.96 -1.92907 -7.95443 0
M  V30 15214 N 1442.63 1.56409 0.193394 0
M  V30 15215 C 1443.87 1.80991 0.914875 0
M  V30 15216 C 1444.2 0.654538 1.82837 0
M  V30 15217 O 1443.48 -0.344816 1.91419 0
M  V30 15218 C 1443.76 3.15841 1.72964 0
M  V30 15219 C 1443.62 4.41873 0.840748 0
M  V30 15220 C 1444.93 3.474 2.70188 0
M  V30 15221 H 1442.05 0.658408 0.331161 0
M  V30 15222 H 1444.7 1.89125 0.182161 0
M  V30 15223 H 1442.85 3.09038 2.35431 0
M  V30 15224 H 1444.52 4.60723 0.230654 0
M  V30 15225 H 1442.76 4.33549 0.147558 0
M  V30 15226 H 1443.43 5.32728 1.44586 0
M  V30 15227 H 1445.91 3.54513 2.17852 0
M  V30 15228 H 1444.78 4.42872 3.24278 0
M  V30 15229 H 1445.04 2.7098 3.49317 0
M  V30 15230 N 1444.1 -0.461169 1.50702 0
M  V30 15231 C 1445.07 -1.54032 1.69725 0
M  V30 15232 C 1446.07 -1.50445 0.567707 0
M  V30 15233 O 1447.26 -1.52889 0.834901 0
M  V30 15234 C 1444.39 -2.93642 1.73168 0
M  V30 15235 H 1445.58 -1.38478 2.66015 0
M  V30 15236 H 1443.13 -0.688235 1.40332 0
M  V30 15237 H 1443.87 -3.14629 0.786078 0
M  V30 15238 H 1443.65 -2.97652 2.55236 0
M  V30 15239 H 1445.14 -3.71972 1.89807 0
M  V30 15240 N 1445.58 -1.40446 -0.715026 0
M  V30 15241 C 1446.53 -1.40756 -1.82911 0
M  V30 15242 C 1447.5 -0.264443 -1.63981 0
M  V30 15243 O 1448.68 -0.462589 -1.85107 0
M  V30 15244 C 1445.82 -1.27648 -3.20624 0
M  V30 15245 C 1444.94 -2.5167 -3.51121 0
M  V30 15246 C 1444.07 -2.31 -4.78344 0
M  V30 15247 C 1443.11 -3.50596 -5.01746 0
M  V30 15248 N 1442.25 -3.29117 -6.20183 0
M  V30 15249 H 1447.09 -2.35981 -1.8198 0
M  V30 15250 H 1444.62 -1.17201 -0.888951 0
M  V30 15251 H 1446.58 -1.18054 -4.00149 0
M  V30 15252 H 1445.21 -0.360419 -3.20782 0
M  V30 15253 H 1444.26 -2.7179 -2.66147 0
M  V30 15254 H 1445.58 -3.4069 -3.64324 0
M  V30 15255 H 1444.73 -2.18763 -5.65887 0
M  V30 15256 H 1443.47 -1.39406 -4.67351 0
M  V30 15257 H 1442.47 -3.63309 -4.12658 0
M  V30 15258 H 1443.7 -4.43117 -5.14611 0
M  V30 15259 H 1441.65 -2.40206 -6.1044 0
M  V30 15260 H 1441.56 -4.11702 -6.34064 0
M  V30 15261 H 1442.83 -3.20614 -7.10512 0
M  V30 15262 N 1447.06 0.947303 -1.25952 0
M  V30 15263 C 1448.31 1.68721 -1.10527 0
M  V30 15264 C 1448.62 1.92403 0.352215 0
M  V30 15265 O 1449.83 2.6416 0.627036 0
M  V30 15266 C 1448.28 3.03785 -1.92983 0
M  V30 15267 C 1447.89 2.87873 -3.43268 0
M  V30 15268 C 1449.64 3.81509 -1.86149 0
M  V30 15269 C 1447.54 4.18373 -4.17993 0
M  V30 15270 H 1446.47 0.632774 -0.410016 0
M  V30 15271 H 1449.12 1.054 -1.5021 0
M  V30 15272 H 1447.51 3.68052 -1.46128 0
M  V30 15273 H 1448.68 2.32493 -3.97848 0
M  V30 15274 H 1446.99 2.23598 -3.51273 0
M  V30 15275 H 1449.59 4.78179 -2.39267 0
M  V30 15276 H 1449.93 4.07923 -0.83091 0
M  V30 15277 H 1450.47 3.24005 -2.30794 0
M  V30 15278 H 1447.21 3.97145 -5.21494 0
M  V30 15279 H 1446.73 4.7349 -3.68194 0
M  V30 15280 H 1448.41 4.86869 -4.26108 0
M  V30 15281 N 1448.54 1.07657 1.15099 0
M  V30 15282 C 1449.5 0.703558 2.18135 0
M  V30 15283 C 1450.5 -0.257771 1.5872 0
M  V30 15284 O 1451.69 -0.0383211 1.74158 0
M  V30 15285 C 1448.82 0.0374978 3.40879 0
M  V30 15286 H 1450.02 1.61583 2.52648 0
M  V30 15287 H 1447.57 0.873484 1.29615 0
M  V30 15288 H 1448.3 -0.886868 3.11938 0
M  V30 15289 H 1448.09 0.728961 3.85264 0
M  V30 15290 H 1449.58 -0.208714 4.17078 0
M  V30 15291 N 1450.02 -1.31994 0.861122 0
M  V30 15292 C 1451.29 -1.91699 0.388705 0
M  V30 15293 C 1451.67 -1.78412 -1.12838 0
M  V30 15294 O 1451.02 -1.18625 -1.95296 0
M  V30 15295 C 1451.23 -3.38232 0.860248 0
M  V30 15296 C 1452.58 -4.15355 0.881201 0
M  V30 15297 O 1453.6 -3.46977 0.805313 0
M  V30 15298 O 1452.46 -5.37468 0.98945 0
M  V30 15299 H 1449.56 -0.819017 0.114629 0
M  V30 15300 H 1452.1 -1.40721 0.94845 0
M  V30 15301 H 1450.87 -3.41876 1.9036 0
M  V30 15302 H 1450.5 -3.96625 0.278316 0
M  V30 15303 N 1451.49 -0.619688 -1.44906 0
M  V30 15304 C 1452.74 -0.119633 -2.02146 0
M  V30 15305 C 1453.07 1.25432 -1.48651 0
M  V30 15306 O 1452.32 1.84372 -0.656155 0
M  V30 15307 C 1452.62 -0.0432891 -3.57374 0
M  V30 15308 C 1452.29 -1.35451 -4.30074 0
M  V30 15309 C 1450.95 -1.71365 -4.49653 0
M  V30 15310 C 1453.3 -2.22053 -4.71532 0
M  V30 15311 C 1450.63 -2.93611 -5.07946 0
M  V30 15312 C 1452.98 -3.43559 -5.31178 0
M  V30 15313 C 1451.65 -3.7971 -5.48977 0
M  V30 15314 H 1450.92 -0.0437769 -0.739706 0
M  V30 15315 H 1453.56 -0.803722 -1.73818 0
M  V30 15316 H 1451.87 0.72412 -3.8505 0
M  V30 15317 H 1453.57 0.359964 -3.99381 0
M  V30 15318 H 1450.16 -1.06499 -4.15158 0
M  V30 15319 H 1454.34 -1.95603 -4.56129 0
M  V30 15320 H 1449.6 -3.21712 -5.19915 0
M  V30 15321 H 1453.77 -4.10906 -5.62254 0
M  V30 15322 H 1451.4 -4.7452 -5.93915 0
M  V30 15323 N 1452.97 1.53444 -0.359552 0
M  V30 15324 C 1454.22 2.00769 0.231564 0
M  V30 15325 C 1454.54 1.2487 1.49775 0
M  V30 15326 O 1453.81 0.360284 1.92558 0
M  V30 15327 H 1452.39 0.741732 0.0885581 0
M  V30 15328 H 1455.05 1.88785 -0.484397 0
M  V30 15329 H 1454.15 3.0865 0.462789 0
M  V30 15330 N 1454.45 0.0885642 1.57351 0
M  V30 15331 C 1455.38 -0.869946 2.16689 0
M  V30 15332 C 1456.36 -1.29878 1.09844 0
M  V30 15333 O 1457.55 -1.36684 1.37954 0
M  V30 15334 C 1454.68 -2.13148 2.74199 0
M  V30 15335 C 1453.63 -1.84149 3.86359 0
M  V30 15336 C 1452.96 -3.17075 4.30543 0
M  V30 15337 C 1454.26 -1.13357 5.09851 0
M  V30 15338 H 1455.95 -0.375578 2.97035 0
M  V30 15339 H 1453.5 -0.17921 1.42881 0
M  V30 15340 H 1455.45 -2.80634 3.14361 0
M  V30 15341 H 1454.17 -2.64856 1.91098 0
M  V30 15342 H 1452.83 -1.19063 3.46727 0
M  V30 15343 H 1452.48 -3.66658 3.44342 0
M  V30 15344 H 1452.18 -2.98457 5.06159 0
M  V30 15345 H 1453.7 -3.85731 4.73333 0
M  V30 15346 H 1455.12 -1.70941 5.47222 0
M  V30 15347 H 1453.52 -1.0494 5.90853 0
M  V30 15348 H 1454.59 -0.115273 4.84763 0
M  V30 15349 N 1455.93 -1.56509 -0.185096 0
M  V30 15350 C 1457.15 -1.85683 -0.923941 0
M  V30 15351 C 1457.58 -0.673315 -1.75636 0
M  V30 15352 O 1456.94 0.3778 -1.7732 0
M  V30 15353 C 1456.98 -3.13165 -1.78774 0
M  V30 15354 O 1456.09 -2.9442 -2.88775 0
M  V30 15355 H 1455.43 -0.611139 -0.259624 0
M  V30 15356 H 1457.96 -2.0374 -0.187393 0
M  V30 15357 H 1457.97 -3.44216 -2.19042 0
M  V30 15358 H 1456.64 -3.98922 -1.17619 0
M  V30 15359 H 1455.22 -2.7469 -2.5219 0
M  V30 15360 N 1457.41 0.45317 -1.50944 0
M  V30 15361 C 1458.82 0.788393 -1.38768 0
M  V30 15362 C 1459.02 1.96233 -0.457676 0
M  V30 15363 O 1458.08 2.52328 0.0930651 0
M  V30 15364 C 1459.39 1.08363 -2.80496 0
M  V30 15365 C 1460.94 1.18901 -2.89537 0
M  V30 15366 C 1461.41 1.51727 -4.32138 0
M  V30 15367 N 1462.91 1.58683 -4.35171 0
M  V30 15368 C 1463.64 1.85623 -5.42523 0
M  V30 15369 N 1463.14 2.10462 -6.60059 0
M  V30 15370 N 1464.93 1.87274 -5.29986 0
M  V30 15371 H 1457.08 -0.320216 -2.09972 0
M  V30 15372 H 1459.34 -0.0808021 -0.94455 0
M  V30 15373 H 1459.05 0.293897 -3.5047 0
M  V30 15374 H 1458.92 2.01532 -3.18849 0
M  V30 15375 H 1461.31 1.96939 -2.19771 0
M  V30 15376 H 1461.39 0.236691 -2.54703 0
M  V30 15377 H 1461.04 0.74223 -5.02447 0
M  V30 15378 H 1460.97 2.48139 -4.64472 0
M  V30 15379 H 1463.46 1.41455 -3.50427 0
M  V30 15380 H 1463.77 2.30343 -7.37673 0
M  V30 15381 H 1462.11 2.07817 -6.63202 0
M  V30 15382 H 1465.31 1.67377 -4.37153 0
M  V30 15383 H 1465.48 2.07933 -6.13733 0
M  V30 15384 N 1458.88 1.40823 0.707568 0
M  V30 15385 C 1460.13 1.39259 1.46463 0
M  V30 15386 C 1460.45 -0.00157854 1.95 0
M  V30 15387 O 1459.72 -0.957723 1.70893 0
M  V30 15388 H 1458.3 0.512558 0.543409 0
M  V30 15389 H 1460.97 1.75952 0.838269 0
M  V30 15390 H 1460.06 2.07243 2.3336 0
M  V30 15391 N 1460.36 -0.94061 1.26453 0
M  V30 15392 C 1461.29 -2.04322 1.03852 0
M  V30 15393 C 1462.31 -1.628 -0.00122618 0
M  V30 15394 O 1463.5 -1.76894 0.238911 0
M  V30 15395 C 1460.6 -3.34394 0.550789 0
M  V30 15396 C 1459.77 -4.0468 1.6599 0
M  V30 15397 C 1458.83 -5.13025 1.17012 0
M  V30 15398 O 1457.85 -5.37699 1.8673 0
M  V30 15399 N 1459.06 -5.80497 0.0188478 0
M  V30 15400 H 1461.82 -2.24276 1.98797 0
M  V30 15401 H 1459.38 -1.11013 1.17846 0
M  V30 15402 H 1461.37 -4.04169 0.207305 0
M  V30 15403 H 1459.94 -3.11108 -0.30509 0
M  V30 15404 H 1459.16 -3.28813 2.17429 0
M  V30 15405 H 1460.45 -4.48392 2.40463 0
M  V30 15406 H 1459.85 -5.62888 -0.563368 0
M  V30 15407 H 1458.41 -6.51259 -0.265556 0
M  V30 15408 N 1461.84 -1.08266 -1.14527 0
M  V30 15409 C 1462.75 -0.723043 -2.2318 0
M  V30 15410 C 1463.77 0.269819 -1.71895 0
M  V30 15411 O 1464.94 0.114126 -2.01076 0
M  V30 15412 C 1462.01 -0.136229 -3.46432 0
M  V30 15413 C 1461.07 -1.18352 -4.12664 0
M  V30 15414 C 1460.3 -0.624612 -5.30032 0
M  V30 15415 O 1460.52 0.556377 -5.6768 0
M  V30 15416 O 1459.46 -1.37397 -5.86008 0
M  V30 15417 H 1463.28 -1.6294 -2.56289 0
M  V30 15418 H 1460.87 -0.856235 -1.22429 0
M  V30 15419 H 1462.75 0.18829 -4.20979 0
M  V30 15420 H 1461.43 0.74331 -3.1505 0
M  V30 15421 H 1460.33 -1.56054 -3.39997 0
M  V30 15422 H 1461.67 -2.03528 -4.48148 0
M  V30 15423 N 1463.32 1.31536 -0.86811 0
M  V30 15424 C 1464.57 1.97066 -0.478829 0
M  V30 15425 C 1464.9 1.68469 0.966021 0
M  V30 15426 O 1464.17 0.980166 1.67997 0
M  V30 15427 C 1464.46 3.52533 -0.734313 0
M  V30 15428 C 1464.31 3.90711 -2.22856 0
M  V30 15429 C 1465.63 4.39647 -0.199559 0
M  V30 15430 H 1462.75 0.715813 -0.175444 0
M  V30 15431 H 1465.39 1.55694 -1.08901 0
M  V30 15432 H 1463.54 3.87905 -0.214962 0
M  V30 15433 H 1465.21 3.65451 -2.81502 0
M  V30 15434 H 1463.45 3.39385 -2.70185 0
M  V30 15435 H 1464.13 4.99103 -2.35797 0
M  V30 15436 H 1466.6 4.11088 -0.643853 0
M  V30 15437 H 1465.48 5.47383 -0.407783 0
M  V30 15438 H 1465.74 4.32875 0.898414 0
M  V30 15439 N 1464.8 0.627364 1.44575 0
M  V30 15440 C 1466.03 0.137114 2.06145 0
M  V30 15441 C 1466.44 -1.19201 1.46928 0
M  V30 15442 O 1465.78 -1.7413 0.585199 0
M  V30 15443 C 1465.84 -0.0560229 3.59456 0
M  V30 15444 C 1465.5 1.19435 4.41117 0
M  V30 15445 C 1466.5 2.11717 4.74839 0
M  V30 15446 C 1464.19 1.42871 4.81553 0
M  V30 15447 C 1466.18 3.25749 5.47875 0
M  V30 15448 C 1463.87 2.572 5.54339 0
M  V30 15449 C 1464.87 3.48466 5.87419 0
M  V30 15450 O 1464.55 4.60802 6.58723 0
M  V30 15451 H 1464.29 0.0751614 0.671809 0
M  V30 15452 H 1466.84 0.86076 1.86494 0
M  V30 15453 H 1465.07 -0.834775 3.77582 0
M  V30 15454 H 1466.76 -0.500352 4.02804 0
M  V30 15455 H 1467.52 1.94844 4.44141 0
M  V30 15456 H 1463.4 0.727246 4.55228 0
M  V30 15457 H 1466.95 3.97007 5.73612 0
M  V30 15458 H 1462.84 2.74018 5.84452 0
M  V30 15459 H 1463.61 4.59736 6.77189 0
M  V30 15460 N 1466.28 -1.53251 0.367684 0
M  V30 15461 C 1467.52 -2.01585 -0.221679 0
M  V30 15462 C 1467.85 -1.25444 -1.48248 0
M  V30 15463 O 1467.13 -0.348726 -1.91348 0
M  V30 15464 C 1467.41 -3.56449 -0.511507 0
M  V30 15465 C 1467.27 -4.4328 0.763075 0
M  V30 15466 C 1468.58 -4.20113 -1.31121 0
M  V30 15467 H 1465.7 -0.732743 -0.0790954 0
M  V30 15468 H 1468.35 -1.83493 0.492991 0
M  V30 15469 H 1466.5 -3.71996 -1.12033 0
M  V30 15470 H 1468.17 -4.39526 1.40052 0
M  V30 15471 H 1466.41 -4.11164 1.38299 0
M  V30 15472 H 1467.08 -5.4959 0.515215 0
M  V30 15473 H 1469.56 -4.08412 -0.796169 0
M  V30 15474 H 1468.43 -5.28494 -1.48274 0
M  V30 15475 H 1468.69 -3.76316 -2.32032 0
M  V30 15476 N 1467.75 -0.0969077 -1.57302 0
M  V30 15477 C 1468.7 0.861379 -2.14124 0
M  V30 15478 C 1469.67 1.27858 -1.06026 0
M  V30 15479 O 1470.86 1.36001 -1.33822 0
M  V30 15480 C 1468 2.11443 -2.72738 0
M  V30 15481 C 1467.11 1.7476 -3.95074 0
M  V30 15482 C 1466.24 2.94864 -4.41847 0
M  V30 15483 C 1465.28 2.54316 -5.56767 0
M  V30 15484 N 1464.42 3.67261 -5.98384 0
M  V30 15485 H 1469.26 0.369968 -2.95694 0
M  V30 15486 H 1466.8 0.170943 -1.46103 0
M  V30 15487 H 1468.75 2.84829 -3.04842 0
M  V30 15488 H 1467.38 2.5808 -1.93893 0
M  V30 15489 H 1466.44 0.91335 -3.69272 0
M  V30 15490 H 1467.75 1.40946 -4.78472 0
M  V30 15491 H 1466.9 3.76501 -4.75744 0
M  V30 15492 H 1465.64 3.31889 -3.57352 0
M  V30 15493 H 1464.65 1.71106 -5.22497 0
M  V30 15494 H 1465.87 2.18432 -6.43012 0
M  V30 15495 H 1463.82 4.04001 -5.16836 0
M  V30 15496 H 1463.73 3.37298 -6.76584 0
M  V30 15497 H 1465 4.49403 -6.36912 0
M  V30 15498 N 1469.23 1.56605 0.176793 0
M  V30 15499 C 1470.18 1.95985 1.21896 0
M  V30 15500 C 1471.15 0.822983 1.44278 0
M  V30 15501 O 1472.33 1.08266 1.57109 0
M  V30 15502 C 1469.47 2.32029 2.55454 0
M  V30 15503 C 1468.59 3.58867 2.40497 0
M  V30 15504 C 1467.72 3.84148 3.66884 0
M  V30 15505 C 1466.76 5.04352 3.46837 0
M  V30 15506 N 1465.9 5.25794 4.6528 0
M  V30 15507 H 1470.74 2.84829 0.876137 0
M  V30 15508 H 1468.27 1.4094 0.421221 0
M  V30 15509 H 1470.23 2.50947 3.33289 0
M  V30 15510 H 1468.86 1.46301 2.87743 0
M  V30 15511 H 1467.91 3.47893 1.53866 0
M  V30 15512 H 1469.23 4.46859 2.21627 0
M  V30 15513 H 1468.38 4.03404 4.53155 0
M  V30 15514 H 1467.12 2.9452 3.88727 0
M  V30 15515 H 1466.12 4.84999 2.58952 0
M  V30 15516 H 1467.35 5.95505 3.26421 0
M  V30 15517 H 1465.3 4.39117 4.87352 0
M  V30 15518 H 1465.21 6.07999 4.49303 0
M  V30 15519 H 1466.48 5.49524 5.5285 0
M  V30 15520 N 1470.71 -0.445159 1.51182 0
M  V30 15521 C 1471.94 -1.21787 1.67259 0
M  V30 15522 C 1472.35 -1.85206 0.366641 0
M  V30 15523 O 1471.71 -1.70376 -0.654095 0
M  V30 15524 C 1471.76 -2.30765 2.78262 0
M  V30 15525 O 1471.48 -1.69942 4.03796 0
M  V30 15526 C 1472.98 -3.21186 3.05539 0
M  V30 15527 H 1470.2 -0.367364 0.561502 0
M  V30 15528 H 1472.75 -0.528415 1.97555 0
M  V30 15529 H 1470.9 -2.9544 2.50587 0
M  V30 15530 H 1471.32 -2.41905 4.65384 0
M  V30 15531 H 1472.79 -3.93805 3.8681 0
M  V30 15532 H 1473.27 -3.81487 2.17634 0
M  V30 15533 H 1473.87 -2.62221 3.34844 0
M  V30 15534 N 1472.19 -1.41197 -0.700089 0
M  V30 15535 C 1473.12 -1.37101 -1.82424 0
M  V30 15536 C 1474.1 -0.238956 -1.60835 0
M  V30 15537 O 1475.28 -0.425136 -1.83643 0
M  V30 15538 C 1472.41 -1.13748 -3.19028 0
M  V30 15539 C 1471.46 -2.29612 -3.59417 0
M  V30 15540 S 1472.29 -3.92074 -3.64744 0
M  V30 15541 C 1473.44 -3.71015 -5.04082 0
M  V30 15542 H 1473.68 -2.32234 -1.8562 0
M  V30 15543 H 1471.21 -1.27667 -0.868367 0
M  V30 15544 H 1473.17 -1.0096 -3.97891 0
M  V30 15545 H 1471.83 -0.202435 -3.13447 0
M  V30 15546 H 1471.02 -2.08954 -4.58644 0
M  V30 15547 H 1470.62 -2.38783 -2.87851 0
M  V30 15548 H 1472.92 -3.30441 -5.91452 0
M  V30 15549 H 1473.86 -4.69828 -5.29781 0
M  V30 15550 H 1474.27 -3.04382 -4.75407 0
M  V30 15551 N 1473.67 0.933891 -1.2695 0
M  V30 15552 C 1474.91 1.67759 -1.12701 0
M  V30 15553 C 1475.23 1.92207 0.328848 0
M  V30 15554 O 1474.5 1.52394 1.23097 0
M  V30 15555 H 1473.08 0.621729 -0.41408 0
M  V30 15556 H 1475.75 1.1217 -1.59386 0
M  V30 15557 H 1474.84 2.64834 -1.65135 0
M  V30 15558 N 1475.14 1.08871 1.13951 0
M  V30 15559 C 1476.56 0.817282 1.37086 0
M  V30 15560 C 1476.76 -0.571159 1.93236 0
M  V30 15561 O 1475.82 -1.32708 2.14813 0
M  V30 15562 C 1477.13 1.90386 2.32752 0
M  V30 15563 C 1478.68 1.93043 2.46381 0
M  V30 15564 C 1479.15 3.00828 3.4535 0
M  V30 15565 N 1480.64 3.0003 3.52897 0
M  V30 15566 C 1481.38 3.80073 4.29339 0
M  V30 15567 N 1480.87 4.70008 5.08984 0
M  V30 15568 N 1482.67 3.68355 4.24583 0
M  V30 15569 H 1474.82 1.98393 0.758537 0
M  V30 15570 H 1477.08 0.861229 0.396219 0
M  V30 15571 H 1476.79 2.90233 1.9864 0
M  V30 15572 H 1476.66 1.77722 3.32708 0
M  V30 15573 H 1479.05 0.938382 2.79783 0
M  V30 15574 H 1479.13 2.09785 1.4637 0
M  V30 15575 H 1478.77 4.00242 3.1268 0
M  V30 15576 H 1478.7 2.8133 4.45153 0
M  V30 15577 H 1481.19 2.3485 2.96064 0
M  V30 15578 H 1481.51 5.27678 5.64602 0
M  V30 15579 H 1479.85 4.74047 5.08236 0
M  V30 15580 H 1483.04 2.9746 3.61435 0
M  V30 15581 H 1483.22 4.30974 4.83906 0
M  V30 15582 N 1476.62 -1.31073 0.875073 0
M  V30 15583 C 1477.55 -2.30855 0.350468 0
M  V30 15584 C 1478.53 -1.60569 -0.561384 0
M  V30 15585 O 1479.72 -1.88242 -0.477329 0
M  V30 15586 C 1476.85 -3.44444 -0.444493 0
M  V30 15587 C 1475.8 -4.26357 0.374716 0
M  V30 15588 C 1475.13 -5.31903 -0.546243 0
M  V30 15589 C 1476.43 -4.96817 1.61153 0
M  V30 15590 H 1478.12 -2.74983 1.18427 0
M  V30 15591 H 1475.67 -1.32199 0.570909 0
M  V30 15592 H 1477.62 -4.13304 -0.82206 0
M  V30 15593 H 1476.34 -2.99096 -1.31185 0
M  V30 15594 H 1475 -3.59171 0.734295 0
M  V30 15595 H 1474.65 -4.82803 -1.41102 0
M  V30 15596 H 1474.35 -5.876 -0.00198173 0
M  V30 15597 H 1475.88 -6.03621 -0.920542 0
M  V30 15598 H 1477.29 -5.58247 1.30511 0
M  V30 15599 H 1475.69 -5.62334 2.09524 0
M  V30 15600 H 1476.76 -4.2351 2.36151 0
M  V30 15601 N 1478.1 -0.635022 -1.4424 0
M  V30 15602 C 1479.51 -0.222982 -1.85364 0
M  V30 15603 C 1479.86 1.22648 -1.5314 0
M  V30 15604 O 1478.99 1.93373 -0.971384 0
M  V30 15605 C 1479.58 -0.397912 -3.36455 0
M  V30 15606 C 1478.14 -0.0403458 -3.76378 0
M  V30 15607 C 1477.29 -0.709451 -2.68071 0
M  V30 15608 H 1480.24 -0.839923 -1.34651 0
M  V30 15609 H 1480.26 0.361996 -3.78774 0
M  V30 15610 H 1479.77 -1.45294 -3.59877 0
M  V30 15611 H 1477.87 1.01279 -3.58571 0
M  V30 15612 H 1477.99 -0.453121 -4.76952 0
M  V30 15613 H 1476.35 -0.144386 -2.5429 0
M  V30 15614 H 1477.13 -1.76715 -2.94324 0
M  V30 15615 N 1479.58 1.53054 -0.375806 0
M  V30 15616 C 1480.82 2.017 0.210985 0
M  V30 15617 C 1481.16 1.26228 1.47581 0
M  V30 15618 O 1480.43 0.358869 1.91161 0
M  V30 15619 C 1480.72 3.56715 0.492596 0
M  V30 15620 C 1480.57 4.42869 -0.786573 0
M  V30 15621 C 1481.89 4.20803 1.28891 0
M  V30 15622 H 1479.01 0.733153 0.0752084 0
M  V30 15623 H 1481.65 1.83229 -0.502715 0
M  V30 15624 H 1479.8 3.72585 1.10059 0
M  V30 15625 H 1481.47 4.38777 -1.42381 0
M  V30 15626 H 1479.71 4.10425 -1.40478 0
M  V30 15627 H 1480.38 5.49309 -0.544354 0
M  V30 15628 H 1482.86 4.08828 0.774498 0
M  V30 15629 H 1481.74 5.29273 1.45469 0
M  V30 15630 H 1482 3.77541 2.30033 0
M  V30 15631 N 1481.06 0.105248 1.57248 0
M  V30 15632 C 1482.47 -0.251385 1.57608 0
M  V30 15633 C 1482.67 -1.677 1.11709 0
M  V30 15634 O 1481.73 -2.39552 0.798182 0
M  V30 15635 C 1483.04 -0.0305755 3.00684 0
M  V30 15636 C 1484.59 -0.0975409 3.12848 0
M  V30 15637 C 1485.06 0.0954024 4.57901 0
M  V30 15638 N 1486.56 0.040908 4.63182 0
M  V30 15639 C 1487.29 0.165298 5.73162 0
M  V30 15640 N 1486.79 0.345091 6.9194 0
M  V30 15641 N 1488.58 0.105847 5.62 0
M  V30 15642 H 1480.73 1.03658 1.85388 0
M  V30 15643 H 1482.99 0.407074 0.856151 0
M  V30 15644 H 1482.7 0.954461 3.38501 0
M  V30 15645 H 1482.57 -0.768477 3.69289 0
M  V30 15646 H 1484.96 -1.07309 2.74898 0
M  V30 15647 H 1485.04 0.672017 2.46815 0
M  V30 15648 H 1484.69 1.06786 4.96547 0
M  V30 15649 H 1484.62 -0.693974 5.22007 0
M  V30 15650 H 1487.11 -0.0951009 3.7778 0
M  V30 15651 H 1487.42 0.431243 7.71596 0
M  V30 15652 H 1485.76 0.38089 6.93955 0
M  V30 15653 H 1488.96 -0.0335544 4.68088 0
M  V30 15654 H 1489.13 0.206235 6.47672 0
M  V30 15655 N 1482.53 -1.56697 -0.168486 0
M  V30 15656 C 1483.78 -1.83318 -0.88126 0
M  V30 15657 C 1484.14 -0.686203 -1.79747 0
M  V30 15658 O 1483.43 0.317194 -1.88956 0
M  V30 15659 C 1483.62 -3.138 -1.71068 0
M  V30 15660 C 1483.45 -4.4108 -0.876273 0
M  V30 15661 C 1482.22 -5.02295 -0.550249 0
M  V30 15662 C 1484.42 -5.13844 -0.216518 0
M  V30 15663 N 1482.4 -6.13167 0.300004 0
M  V30 15664 C 1483.77 -6.18023 0.494779 0
M  V30 15665 C 1485.83 -4.97717 -0.134974 0
M  V30 15666 C 1484.53 -7.07822 1.27989 0
M  V30 15667 C 1486.56 -5.87961 0.636813 0
M  V30 15668 C 1485.92 -6.91605 1.33646 0
M  V30 15669 H 1482.02 -0.72175 -0.301001 0
M  V30 15670 H 1484.6 -1.94136 -0.148047 0
M  V30 15671 H 1482.77 -3.04168 -2.41529 0
M  V30 15672 H 1484.5 -3.28407 -2.36497 0
M  V30 15673 H 1481.26 -4.65334 -0.881 0
M  V30 15674 H 1481.68 -6.73208 0.715523 0
M  V30 15675 H 1486.33 -4.17592 -0.66154 0
M  V30 15676 H 1484.04 -7.87389 1.81779 0
M  V30 15677 H 1487.63 -5.77554 0.701615 0
M  V30 15678 H 1486.51 -7.60229 1.92409 0
M  V30 15679 N 1484.01 0.437135 -1.51416 0
M  V30 15680 C 1484.95 1.55058 -1.67429 0
M  V30 15681 C 1485.92 1.53997 -0.521878 0
M  V30 15682 O 1487.11 1.73121 -0.74574 0
M  V30 15683 C 1484.23 2.93637 -1.68805 0
M  V30 15684 C 1483.28 3.12721 -2.90013 0
M  V30 15685 S 1484.11 2.88998 -4.50822 0
M  V30 15686 C 1485.27 4.29858 -4.54942 0
M  V30 15687 H 1485.5 1.41241 -2.61607 0
M  V30 15688 H 1483.04 0.62684 -1.41103 0
M  V30 15689 H 1484.99 3.73516 -1.70282 0
M  V30 15690 H 1483.65 3.04816 -0.758031 0
M  V30 15691 H 1482.85 4.14041 -2.87377 0
M  V30 15692 H 1482.45 2.40667 -2.86278 0
M  V30 15693 H 1484.74 5.23062 -4.30596 0
M  V30 15694 H 1485.68 4.37528 -5.56754 0
M  V30 15695 H 1486.09 4.13523 -3.84265 0
M  V30 15696 N 1485.49 1.41566 0.692592 0
M  V30 15697 C 1486.45 1.43369 1.78824 0
M  V30 15698 C 1487.45 0.323867 1.57505 0
M  V30 15699 O 1488.64 0.583885 1.64123 0
M  V30 15700 C 1485.78 1.24798 3.17235 0
M  V30 15701 H 1486.97 2.40906 1.78617 0
M  V30 15702 H 1484.52 1.27752 0.900508 0
M  V30 15703 H 1485.26 0.281129 3.23079 0
M  V30 15704 H 1485.04 2.05212 3.34111 0
M  V30 15705 H 1486.53 1.28902 3.97208 0
M  V30 15706 N 1486.97 -0.927146 1.27443 0
M  V30 15707 C 1488.22 -1.66941 1.13197 0
M  V30 15708 C 1488.53 -1.92939 -0.32156 0
M  V30 15709 O 1489.74 -2.65124 -0.584931 0
M  V30 15710 C 1488.19 -3.00677 1.97791 0
M  V30 15711 C 1487.8 -2.82376 3.47805 0
M  V30 15712 C 1489.54 -3.78499 1.92195 0
M  V30 15713 C 1487.45 -4.1167 4.24596 0
M  V30 15714 H 1486.38 -0.626171 0.420031 0
M  V30 15715 H 1489.03 -1.02997 1.51868 0
M  V30 15716 H 1487.41 -3.65681 1.51965 0
M  V30 15717 H 1488.59 -2.26135 4.01497 0
M  V30 15718 H 1486.9 -2.17982 3.54786 0
M  V30 15719 H 1489.5 -4.74312 2.46844 0
M  V30 15720 H 1489.84 -4.0655 0.895702 0
M  V30 15721 H 1490.38 -3.20292 2.35919 0
M  V30 15722 H 1487.12 -3.88798 5.27747 0
M  V30 15723 H 1486.64 -4.67573 3.75681 0
M  V30 15724 H 1488.31 -4.80028 4.338 0
M  V30 15725 N 1488.45 -1.09474 -1.13372 0
M  V30 15726 C 1489.36 -0.746674 -2.224 0
M  V30 15727 C 1490.37 0.251572 -1.72172 0
M  V30 15728 O 1491.55 0.092793 -2.01186 0
M  V30 15729 C 1488.61 -0.172965 -3.46268 0
M  V30 15730 C 1487.67 -1.22722 -4.11385 0
M  V30 15731 C 1486.91 -0.680794 -5.2934 0
M  V30 15732 O 1487.13 0.496135 -5.68238 0
M  V30 15733 O 1486.06 -1.43605 -5.84518 0
M  V30 15734 H 1489.89 -1.65649 -2.54547 0
M  V30 15735 H 1487.48 -0.869172 -1.21514 0
M  V30 15736 H 1489.36 0.143629 -4.21155 0
M  V30 15737 H 1488.03 0.709853 -3.15821 0
M  V30 15738 H 1486.94 -1.59652 -3.38323 0
M  V30 15739 H 1488.27 -2.0827 -4.45965 0
M  V30 15740 N 1489.92 1.30607 -0.882012 0
M  V30 15741 C 1491.15 2.00954 -0.513048 0
M  V30 15742 C 1491.57 1.65697 0.890279 0
M  V30 15743 O 1490.93 0.872001 1.58952 0
M  V30 15744 C 1490.98 3.53907 -0.691525 0
M  V30 15745 O 1490.08 4.11555 0.263896 0
M  V30 15746 H 1489.43 0.632356 -0.202537 0
M  V30 15747 H 1491.96 1.66524 -1.18874 0
M  V30 15748 H 1491.97 4.0372 -0.589392 0
M  V30 15749 H 1490.64 3.78907 -1.71471 0
M  V30 15750 H 1489.22 3.7272 0.115707 0
M  V30 15751 N 1491.4 0.642663 1.43901 0
M  V30 15752 C 1492.33 -0.0419756 2.33462 0
M  V30 15753 C 1493.31 -0.822923 1.48869 0
M  V30 15754 O 1494.5 -0.786508 1.7756 0
M  V30 15755 C 1491.63 -1.01631 3.32097 0
M  V30 15756 C 1490.58 -0.346206 4.26597 0
M  V30 15757 C 1489.91 -1.43125 5.15189 0
M  V30 15758 C 1491.21 0.754799 5.16817 0
M  V30 15759 H 1492.9 0.705929 2.90959 0
M  V30 15760 H 1490.45 0.340924 1.39906 0
M  V30 15761 H 1492.4 -1.5041 3.93643 0
M  V30 15762 H 1491.13 -1.79525 2.72834 0
M  V30 15763 H 1489.78 0.121038 3.664 0
M  V30 15764 H 1489.43 -2.20135 4.52271 0
M  V30 15765 H 1489.13 -0.988194 5.79231 0
M  V30 15766 H 1490.66 -1.92061 5.79607 0
M  V30 15767 H 1492.07 0.349624 5.72233 0
M  V30 15768 H 1490.47 1.12169 5.89524 0
M  V30 15769 H 1491.54 1.61718 4.57138 0
M  V30 15770 N 1492.88 -1.52852 0.383918 0
M  V30 15771 C 1493.83 -2.27828 -0.468762 0
M  V30 15772 C 1494.82 -1.31516 -1.0677 0
M  V30 15773 O 1496.03 -1.49075 -1.0088 0
M  V30 15774 H 1492.4 -0.732552 -0.169917 0
M  V30 15775 H 1494.38 -2.97825 0.185124 0
M  V30 15776 C 1493.12 -3.09378 -1.58683 0
M  V30 15777 H 1492.45 -3.83343 -1.13527 0
M  V30 15778 H 1493.89 -3.64987 -2.15779 0
M  V30 15779 C 1492.35 -2.21354 -2.53976 0
M  V30 15780 O 1492.88 -1.83668 -3.57252 0
M  V30 15781 N 1491.08 -1.85621 -2.23591 0
M  V30 15782 H 1490.63 -2.16467 -1.39642 0
M  V30 15783 H 1490.59 -1.27015 -2.87602 0
M  V30 15784 N 1494.36 -0.113586 -1.5719 0
M  V30 15785 C 1495.59 0.552789 -1.99067 0
M  V30 15786 C 1496 1.61106 -0.992038 0
M  V30 15787 O 1495.34 1.83684 0.0240065 0
M  V30 15788 C 1495.4 1.24239 -3.3735 0
M  V30 15789 C 1495.07 0.332699 -4.55787 0
M  V30 15790 C 1496.06 -0.42654 -5.18147 0
M  V30 15791 C 1493.75 0.245351 -5.017 0
M  V30 15792 C 1495.74 -1.26091 -6.24804 0
M  V30 15793 C 1493.43 -0.592659 -6.08219 0
M  V30 15794 C 1494.43 -1.34443 -6.69637 0
M  V30 15795 O 1494.12 -2.16853 -7.74099 0
M  V30 15796 H 1493.85 0.15139 -0.65883 0
M  V30 15797 H 1496.4 -0.195113 -2.04471 0
M  V30 15798 H 1494.63 2.03725 -3.28684 0
M  V30 15799 H 1496.32 1.80513 -3.63552 0
M  V30 15800 H 1497.09 -0.368898 -4.83595 0
M  V30 15801 H 1492.97 0.820178 -4.53645 0
M  V30 15802 H 1496.51 -1.84818 -6.72672 0
M  V30 15803 H 1492.41 -0.651714 -6.42202 0
M  V30 15804 H 1493.17 -2.09736 -7.91172 0
M  V30 15805 N 1495.84 1.56784 0.160173 0
M  V30 15806 C 1497.06 1.87129 0.894283 0
M  V30 15807 C 1497.49 0.701172 1.74543 0
M  V30 15808 O 1496.85 -0.349542 1.77899 0
M  V30 15809 C 1496.89 3.15969 1.73769 0
M  V30 15810 O 1496 2.98977 2.84054 0
M  V30 15811 H 1495.34 0.615192 0.249869 0
M  V30 15812 H 1497.87 2.04012 0.154956 0
M  V30 15813 H 1497.88 3.47657 2.13538 0
M  V30 15814 H 1496.55 4.00742 1.11258 0
M  V30 15815 H 1495.13 2.78668 2.47788 0
M  V30 15816 N 1497.32 -0.429099 1.51646 0
M  V30 15817 C 1498.56 -1.17958 1.64966 0
M  V30 15818 C 1498.89 -1.90667 0.368755 0
M  V30 15819 O 1498.17 -1.83945 -0.632023 0
M  V30 15820 C 1498.45 -2.19002 2.8585 0
M  V30 15821 C 1498.31 -1.50321 4.23938 0
M  V30 15822 C 1499.62 -3.19895 3.0225 0
M  V30 15823 H 1496.74 -0.427474 0.600362 0
M  V30 15824 H 1499.39 -0.46777 1.84152 0
M  V30 15825 H 1497.54 -2.79707 2.69623 0
M  V30 15826 H 1499.21 -0.928902 4.51851 0
M  V30 15827 H 1497.45 -0.805431 4.26257 0
M  V30 15828 H 1498.12 -2.2395 5.0453 0
M  V30 15829 H 1500.6 -2.69251 3.17243 0
M  V30 15830 H 1499.47 -3.8788 3.88381 0
M  V30 15831 H 1499.73 -3.86477 2.14682 0
M  V30 15832 N 1498.79 -1.41931 -0.685074 0
M  V30 15833 C 1500.02 -1.45018 -1.4715 0
M  V30 15834 C 1500.43 -0.0569412 -1.89114 0
M  V30 15835 O 1499.77 0.936419 -1.58041 0
M  V30 15836 C 1499.84 -2.30522 -2.75862 0
M  V30 15837 C 1499.5 -3.78542 -2.56037 0
M  V30 15838 C 1500.5 -4.70448 -2.21303 0
M  V30 15839 C 1498.18 -4.22698 -2.71351 0
M  V30 15840 C 1500.18 -6.045 -2.02135 0
M  V30 15841 C 1497.86 -5.56812 -2.518 0
M  V30 15842 C 1498.86 -6.47529 -2.17244 0
M  V30 15843 O 1498.55 -7.79167 -1.97872 0
M  V30 15844 H 1498.28 -0.495682 -0.459647 0
M  V30 15845 H 1500.84 -1.86983 -0.850079 0
M  V30 15846 H 1499.07 -1.83389 -3.40449 0
M  V30 15847 H 1500.75 -2.25186 -3.37707 0
M  V30 15848 H 1501.52 -4.37621 -2.09077 0
M  V30 15849 H 1497.4 -3.52385 -2.9723 0
M  V30 15850 H 1500.94 -6.75271 -1.75086 0
M  V30 15851 H 1496.84 -5.89216 -2.6362 0
M  V30 15852 H 1497.61 -7.9042 -2.12552 0
M  V30 15853 N 1500.27 0.920374 -1.27933 0
M  V30 15854 C 1501.5 1.70275 -1.17533 0
M  V30 15855 C 1501.91 1.86904 0.266903 0
M  V30 15856 O 1501.27 1.39131 1.18105 0
M  V30 15857 C 1501.32 3.09847 -1.86219 0
M  V30 15858 O 1501.04 2.93992 -3.24808 0
M  V30 15859 C 1502.54 4.042 -1.82037 0
M  V30 15860 H 1499.76 0.53248 -0.408297 0
M  V30 15861 H 1502.31 1.1524 -1.68938 0
M  V30 15862 H 1500.46 3.61719 -1.38701 0
M  V30 15863 H 1500.88 3.82281 -3.59112 0
M  V30 15864 H 1502.35 4.99621 -2.34697 0
M  V30 15865 H 1502.83 4.32013 -0.791295 0
M  V30 15866 H 1503.43 3.58254 -2.29203 0
M  V30 15867 N 1501.75 1.10074 1.1279 0
M  V30 15868 C 1502.98 0.862906 1.88047 0
M  V30 15869 C 1503.39 -0.586346 1.79464 0
M  V30 15870 O 1502.75 -1.40402 1.16591 0
M  V30 15871 C 1502.8 1.29784 3.37399 0
M  V30 15872 O 1502.52 2.69026 3.4577 0
M  V30 15873 C 1504.02 1.09336 4.29605 0
M  V30 15874 H 1501.24 0.309981 0.595108 0
M  V30 15875 H 1503.79 1.46444 1.42738 0
M  V30 15876 H 1501.94 0.740056 3.80266 0
M  V30 15877 H 1502.36 2.87532 4.38663 0
M  V30 15878 H 1503.83 1.44687 5.327 0
M  V30 15879 H 1504.31 0.031679 4.39189 0
M  V30 15880 H 1504.91 1.63743 3.92516 0
M  V30 15881 N 1503.23 -1.30138 0.888926 0
M  V30 15882 C 1504.18 -2.29979 0.348212 0
M  V30 15883 C 1505.17 -1.60329 -0.546894 0
M  V30 15884 O 1506.38 -1.74767 -0.43089 0
M  V30 15885 H 1502.75 -0.746107 0.0939563 0
M  V30 15886 H 1504.72 -2.73038 1.20385 0
M  V30 15887 C 1503.47 -3.45169 -0.418762 0
M  V30 15888 H 1502.79 -3.98949 0.260761 0
M  V30 15889 H 1504.23 -4.17094 -0.762133 0
M  V30 15890 C 1502.69 -2.95539 -1.61734 0
M  V30 15891 O 1503.22 -2.95902 -2.7167 0
M  V30 15892 N 1501.43 -2.51502 -1.45585 0
M  V30 15893 H 1500.98 -2.51406 -0.561483 0
M  V30 15894 H 1500.93 -2.18654 -2.25916 0
M  V30 15895 N 1504.71 -0.650285 -1.43559 0
M  V30 15896 C 1505.93 -0.168483 -2.06715 0
M  V30 15897 C 1506.36 1.15576 -1.48404 0
M  V30 15898 O 1505.71 1.71333 -0.592842 0
M  V30 15899 C 1505.76 -0.0877095 -3.60493 0
M  V30 15900 O 1504.87 0.950915 -4.01287 0
M  V30 15901 H 1504.21 -0.0935281 -0.65738 0
M  V30 15902 H 1506.74 -0.892381 -1.84113 0
M  V30 15903 H 1506.75 0.0965825 -4.07886 0
M  V30 15904 H 1505.42 -1.05442 -4.02312 0
M  V30 15905 H 1504 0.739648 -3.65491 0
M  V30 15906 N 1506.18 1.52647 -0.392018 0
M  V30 15907 C 1507.46 1.94034 0.247004 0
M  V30 15908 C 1507.84 1.32767 1.64122 0
M  V30 15909 O 1507.19 0.496822 2.23033 0
M  V30 15910 C 1507.4 3.47949 0.270615 0
M  V30 15911 C 1508.75 4.21666 0.498256 0
M  V30 15912 O 1509.77 3.54469 0.350708 0
M  V30 15913 O 1508.63 5.40795 0.787586 0
M  V30 15914 H 1505.72 0.812487 0.154251 0
M  V30 15915 H 1508.27 1.63715 -0.446723 0
M  V30 15916 H 1507.04 3.84881 -0.705862 0
M  V30 15917 H 1506.66 3.8458 1.00915 0
M  V30 15918 N 1507.66 0.121921 1.57128 0
M  V30 15919 C 1508.91 -0.536164 1.95584 0
M  V30 15920 C 1509.24 -1.66143 1.0055 0
M  V30 15921 O 1508.52 -1.94452 0.0432427 0
M  V30 15922 C 1508.8 -1.0661 3.43957 0
M  V30 15923 C 1508.65 0.0559458 4.49765 0
M  V30 15924 C 1509.97 -1.95603 3.94243 0
M  V30 15925 H 1507.09 -0.193427 0.711165 0
M  V30 15926 H 1509.73 0.198072 1.88965 0
M  V30 15927 H 1507.88 -1.69181 3.49729 0
M  V30 15928 H 1509.55 0.691357 4.5609 0
M  V30 15929 H 1507.8 0.71868 4.27805 0
M  V30 15930 H 1508.47 -0.356133 5.5085 0
M  V30 15931 H 1510.94 -1.42899 3.90793 0
M  V30 15932 H 1509.82 -2.29599 4.98573 0
M  V30 15933 H 1510.08 -2.88364 3.3511 0
M  V30 15934 N 1509.14 -1.56867 -0.151857 0
M  V30 15935 C 1510.39 -1.84242 -0.861767 0
M  V30 15936 C 1510.74 -0.705229 -1.79009 0
M  V30 15937 O 1510.03 0.297135 -1.89282 0
M  V30 15938 C 1510.23 -3.15597 -1.6773 0
M  V30 15939 C 1510.06 -4.41985 -0.829442 0
M  V30 15940 C 1508.83 -5.0285 -0.496943 0
M  V30 15941 C 1511.03 -5.14045 -0.162006 0
M  V30 15942 N 1509.01 -6.12814 0.365022 0
M  V30 15943 C 1510.38 -6.17463 0.560301 0
M  V30 15944 C 1512.43 -4.97832 -0.0821767 0
M  V30 15945 C 1511.14 -7.06424 1.35489 0
M  V30 15946 C 1513.16 -5.87253 0.699138 0
M  V30 15947 C 1512.52 -6.90149 1.40974 0
M  V30 15948 H 1508.62 -0.724902 -0.293329 0
M  V30 15949 H 1511.21 -1.94282 -0.127448 0
M  V30 15950 H 1509.38 -3.06713 -2.3829 0
M  V30 15951 H 1511.11 -3.30897 -2.33001 0
M  V30 15952 H 1507.87 -4.66242 -0.831596 0
M  V30 15953 H 1508.29 -6.72411 0.786886 0
M  V30 15954 H 1512.93 -4.18271 -0.617211 0
M  V30 15955 H 1510.65 -7.85417 1.9012 0
M  V30 15956 H 1514.24 -5.76777 0.762833 0
M  V30 15957 H 1513.12 -7.58146 2.00461 0
M  V30 15958 N 1510.62 0.421051 -1.51871 0
M  V30 15959 C 1511.84 1.19568 -1.69465 0
M  V30 15960 C 1512.27 1.83835 -0.398269 0
M  V30 15961 O 1511.63 1.69508 0.643172 0
M  V30 15962 C 1511.67 2.24337 -2.82321 0
M  V30 15963 O 1510.78 3.30205 -2.47059 0
M  V30 15964 H 1510.12 0.349579 -0.564527 0
M  V30 15965 H 1512.65 0.495177 -1.98517 0
M  V30 15966 H 1512.66 2.6886 -3.06885 0
M  V30 15967 H 1511.33 1.76941 -3.76384 0
M  V30 15968 H 1509.91 2.91045 -2.33125 0
M  V30 15969 N 1512.1 1.42293 0.677538 0
M  V30 15970 C 1513.33 1.45797 1.46379 0
M  V30 15971 C 1513.73 0.0669696 1.89081 0
M  V30 15972 O 1513.08 -0.928025 1.58535 0
M  V30 15973 C 1513.14 2.31982 2.74635 0
M  V30 15974 C 1512.8 3.79894 2.54026 0
M  V30 15975 C 1513.8 4.71615 2.18805 0
M  V30 15976 C 1511.49 4.24131 2.69106 0
M  V30 15977 C 1513.48 6.05563 1.98927 0
M  V30 15978 C 1511.17 5.5814 2.48844 0
M  V30 15979 C 1512.16 6.48672 2.13807 0
M  V30 15980 O 1511.85 7.80206 1.93737 0
M  V30 15981 H 1511.58 0.498113 0.457012 0
M  V30 15982 H 1514.14 1.87432 0.840151 0
M  V30 15983 H 1512.37 1.85191 3.39472 0
M  V30 15984 H 1514.06 2.26974 3.36508 0
M  V30 15985 H 1514.82 4.38723 2.06753 0
M  V30 15986 H 1510.7 3.53957 2.95357 0
M  V30 15987 H 1514.25 6.7619 1.71502 0
M  V30 15988 H 1510.14 5.90605 2.60491 0
M  V30 15989 H 1510.91 7.91536 2.08357 0
M  V30 15990 N 1513.57 -0.913576 1.28419 0
M  V30 15991 C 1514.82 -1.65944 1.15355 0
M  V30 15992 C 1515.14 -1.92706 -0.298228 0
M  V30 15993 O 1514.41 -1.54333 -1.20657 0
M  V30 15994 H 1512.99 -0.615063 0.423919 0
M  V30 15995 H 1515.66 -1.0962 1.6115 0
M  V30 15996 H 1514.75 -2.62173 1.69327 0
M  V30 15997 N 1515.05 -1.1067 -1.12204 0
M  V30 15998 C 1516.3 -0.85189 -1.8404 0
M  V30 15999 C 1516.63 0.620988 -1.84004 0
M  V30 16000 O 1515.91 1.45801 -1.28734 0
M  V30 16001 C 1516.19 -1.40401 -3.31602 0
M  V30 16002 C 1516.04 -2.94392 -3.40078 0
M  V30 16003 C 1517.36 -1.04834 -4.27432 0
M  V30 16004 H 1514.48 -0.310924 -0.668203 0
M  V30 16005 H 1517.12 -1.37026 -1.3162 0
M  V30 16006 H 1515.27 -0.963107 -3.76373 0
M  V30 16007 H 1516.94 -3.47027 -3.03924 0
M  V30 16008 H 1515.19 -3.3087 -2.80548 0
M  V30 16009 H 1515.86 -3.28107 -4.43903 0
M  V30 16010 H 1518.33 -1.42882 -3.90799 0
M  V30 16011 H 1517.21 -1.46153 -5.29085 0
M  V30 16012 H 1517.47 0.0419272 -4.4208 0
M  V30 16013 N 1516.53 1.29665 -0.895815 0
M  V30 16014 C 1517.46 2.30268 -0.387151 0
M  V30 16015 C 1518.44 1.61442 0.535768 0
M  V30 16016 O 1519.63 1.88978 0.447321 0
M  V30 16017 C 1516.76 3.45107 0.389639 0
M  V30 16018 C 1515.71 4.25706 -0.442498 0
M  V30 16019 C 1515.04 5.32704 0.461552 0
M  V30 16020 C 1516.34 4.9419 -1.69036 0
M  V30 16021 H 1518.03 2.73064 -1.22786 0
M  V30 16022 H 1515.58 1.31274 -0.591869 0
M  V30 16023 H 1517.53 4.14559 0.756203 0
M  V30 16024 H 1516.25 3.01145 1.2641 0
M  V30 16025 H 1514.91 3.57957 -0.791343 0
M  V30 16026 H 1514.56 4.84987 1.33403 0
M  V30 16027 H 1514.26 5.87529 -0.0915006 0
M  V30 16028 H 1515.78 6.05009 0.824395 0
M  V30 16029 H 1517.2 5.561 -1.39376 0
M  V30 16030 H 1515.6 5.5893 -2.18444 0
M  V30 16031 H 1516.67 4.19699 -2.42859 0
M  V30 16032 N 1518.01 0.657889 1.43212 0
M  V30 16033 C 1518.94 -0.0172114 2.33494 0
M  V30 16034 C 1519.92 -0.807087 1.49733 0
M  V30 16035 O 1521.1 -0.767631 1.78385 0
M  V30 16036 C 1518.23 -0.981029 3.33156 0
M  V30 16037 C 1517.19 -0.30094 4.26941 0
M  V30 16038 C 1516.51 -1.37653 5.16678 0
M  V30 16039 C 1517.81 0.809572 5.15988 0
M  V30 16040 H 1519.51 0.736749 2.90194 0
M  V30 16041 H 1517.05 0.355744 1.39537 0
M  V30 16042 H 1519.01 -1.46226 3.95216 0
M  V30 16043 H 1517.73 -1.76621 2.74723 0
M  V30 16044 H 1516.39 0.159893 3.66251 0
M  V30 16045 H 1516.04 -2.15326 4.54581 0
M  V30 16046 H 1515.74 -0.926704 5.80246 0
M  V30 16047 H 1517.26 -1.85903 5.81612 0
M  V30 16048 H 1518.68 0.410297 5.7183 0
M  V30 16049 H 1517.07 1.18415 5.88301 0
M  V30 16050 H 1518.14 1.66558 4.55397 0
M  V30 16051 N 1519.49 -1.52437 0.400108 0
M  V30 16052 C 1520.73 -2.02677 -0.171293 0
M  V30 16053 C 1521.09 -1.28088 -1.43566 0
M  V30 16054 O 1520.38 -0.37592 -1.87876 0
M  V30 16055 C 1520.57 -3.54133 -0.482141 0
M  V30 16056 C 1520.4 -4.43392 0.750551 0
M  V30 16057 C 1519.17 -4.89 1.27306 0
M  V30 16058 C 1521.37 -4.87918 1.62604 0
M  V30 16059 N 1519.35 -5.62361 2.46217 0
M  V30 16060 C 1520.72 -5.59969 2.66148 0
M  V30 16061 C 1522.78 -4.69945 1.64486 0
M  V30 16062 C 1521.48 -6.15955 3.71473 0
M  V30 16063 C 1523.51 -5.26821 2.68725 0
M  V30 16064 C 1522.87 -5.98787 3.7099 0
M  V30 16065 H 1518.97 -0.781617 -0.0244842 0
M  V30 16066 H 1521.55 -1.86698 0.552429 0
M  V30 16067 H 1519.72 -3.70203 -1.17491 0
M  V30 16068 H 1521.46 -3.91065 -1.04164 0
M  V30 16069 H 1518.21 -4.66227 0.832434 0
M  V30 16070 H 1518.64 -6.03688 3.06414 0
M  V30 16071 H 1523.28 -4.13801 0.867657 0
M  V30 16072 H 1521 -6.71175 4.50055 0
M  V30 16073 H 1524.58 -5.14789 2.71078 0
M  V30 16074 H 1523.46 -6.4201 4.50325 0
M  V30 16075 N 1520.96 -0.130252 -1.57061 0
M  V30 16076 C 1521.87 0.829198 -2.19457 0
M  V30 16077 C 1522.89 1.2843 -1.17395 0
M  V30 16078 O 1524.07 1.34496 -1.49909 0
M  V30 16079 C 1521.13 2.05727 -2.79065 0
M  V30 16080 C 1520.19 1.65301 -3.962 0
M  V30 16081 C 1519.43 2.82253 -4.52956 0
M  V30 16082 O 1519.65 3.97999 -4.08598 0
M  V30 16083 O 1518.58 2.5869 -5.43473 0
M  V30 16084 H 1522.41 0.328139 -3.01922 0
M  V30 16085 H 1519.99 0.0959361 -1.49092 0
M  V30 16086 H 1521.88 2.7763 -3.17017 0
M  V30 16087 H 1520.55 2.54817 -1.99624 0
M  V30 16088 H 1519.46 0.904712 -3.62996 0
M  V30 16089 H 1520.79 1.20942 -4.7711 0
M  V30 16090 N 1522.44 1.56945 0.143535 0
M  V30 16091 C 1523.69 1.82728 0.854011 0
M  V30 16092 C 1524.01 0.712048 1.82179 0
M  V30 16093 O 1525.21 0.855579 2.57667 0
M  V30 16094 C 1523.67 3.23882 1.56934 0
M  V30 16095 C 1523.28 4.4335 0.643789 0
M  V30 16096 C 1525.02 3.58936 2.26639 0
M  V30 16097 C 1522.93 5.75528 1.36094 0
M  V30 16098 H 1521.86 0.681474 0.32266 0
M  V30 16099 H 1524.51 1.83189 0.106741 0
M  V30 16100 H 1522.89 3.17819 2.36236 0
M  V30 16101 H 1524.06 4.60658 -0.114257 0
M  V30 16102 H 1522.38 4.16364 0.0549721 0
M  V30 16103 H 1524.98 4.54948 2.80939 0
M  V30 16104 H 1525.32 2.85163 3.03295 0
M  V30 16105 H 1525.85 3.66676 1.54252 0
M  V30 16106 H 1522.59 6.52406 0.636157 0
M  V30 16107 H 1522.11 5.62149 2.09161 0
M  V30 16108 H 1523.79 6.18445 1.9009 0
M  V30 16109 N 1523.92 -0.412991 1.52093 0
M  V30 16110 C 1525.17 -1.16202 1.66208 0
M  V30 16111 C 1525.5 -1.90265 0.388957 0
M  V30 16112 O 1524.78 -1.84605 -0.612477 0
M  V30 16113 C 1525.06 -2.15958 2.88157 0
M  V30 16114 C 1524.91 -1.45817 4.25509 0
M  V30 16115 C 1526.23 -3.16671 3.05626 0
M  V30 16116 H 1523.35 -0.421083 0.604862 0
M  V30 16117 H 1525.99 -0.448212 1.84638 0
M  V30 16118 H 1524.14 -2.76831 2.72574 0
M  V30 16119 H 1525.81 -0.880925 4.52811 0
M  V30 16120 H 1524.06 -0.760175 4.27088 0
M  V30 16121 H 1524.73 -2.18587 5.06877 0
M  V30 16122 H 1527.2 -2.65871 3.20081 0
M  V30 16123 H 1526.08 -3.83739 3.92474 0
M  V30 16124 H 1526.34 -3.84178 2.18769 0
M  V30 16125 N 1525.4 -1.4265 -0.669982 0
M  V30 16126 C 1526.62 -1.46992 -1.46315 0
M  V30 16127 C 1527.05 -0.0840655 -1.87912 0
M  V30 16128 O 1526.41 0.918554 -1.56308 0
M  V30 16129 C 1526.46 -2.40663 -2.6854 0
M  V30 16130 O 1525.56 -1.88132 -3.66988 0
M  V30 16131 H 1524.9 -0.497844 -0.439372 0
M  V30 16132 H 1527.43 -1.8739 -0.821348 0
M  V30 16133 H 1527.44 -2.57405 -3.16554 0
M  V30 16134 H 1526.12 -3.41346 -2.37604 0
M  V30 16135 H 1524.69 -1.80969 -3.26044 0
M  V30 16136 N 1526.88 0.906753 -1.28902 0
M  V30 16137 C 1527.81 2.02663 -1.15974 0
M  V30 16138 C 1528.79 1.70009 -0.0557202 0
M  V30 16139 O 1529.97 1.92786 -0.233952 0
M  V30 16140 C 1527.1 3.37283 -0.828115 0
M  V30 16141 C 1526.06 3.84123 -1.88767 0
M  V30 16142 C 1525.38 5.15787 -1.40953 0
M  V30 16143 C 1526.68 4.05217 -3.2954 0
M  V30 16144 H 1528.38 2.13738 -2.09658 0
M  V30 16145 H 1525.92 1.02699 -1.0094 0
M  V30 16146 H 1527.88 4.15127 -0.724408 0
M  V30 16147 H 1526.6 3.2628 0.14443 0
M  V30 16148 H 1525.26 3.0849 -1.98065 0
M  V30 16149 H 1524.91 5.01194 -0.425848 0
M  V30 16150 H 1524.61 5.48098 -2.11807 0
M  V30 16151 H 1526.13 5.9618 -1.31918 0
M  V30 16152 H 1527.55 4.73565 -3.23124 0
M  V30 16153 H 1525.94 4.48871 -3.9829 0
M  V30 16154 H 1527.01 3.0979 -3.73039 0
M  V30 16155 N 1528.36 1.11264 1.11616 0
M  V30 16156 C 1529.6 0.858664 1.82952 0
M  V30 16157 C 1529.92 -0.617439 1.84967 0
M  V30 16158 O 1529.19 -1.44849 1.31893 0
M  V30 16159 H 1527.77 0.314671 0.677489 0
M  V30 16160 H 1530.44 1.40466 1.35113 0
M  V30 16161 H 1529.53 1.22921 2.86874 0
M  V30 16162 N 1529.83 -1.29188 0.902679 0
M  V30 16163 C 1531.08 -1.95052 0.529076 0
M  V30 16164 C 1531.4 -1.7149 -0.92824 0
M  V30 16165 O 1530.67 -1.04834 -1.65489 0
M  V30 16166 H 1529.25 -0.721725 0.192671 0
M  V30 16167 H 1531.91 -1.57384 1.14962 0
M  V30 16168 H 1531.01 -3.03819 0.714179 0
M  V30 16169 N 1531.31 -0.665475 -1.42861 0
M  V30 16170 C 1532.54 -0.192 -2.06007 0
M  V30 16171 C 1532.95 1.1472 -1.49949 0
M  V30 16172 O 1532.31 1.71074 -0.635599 0
M  V30 16173 C 1532.36 -0.108189 -3.61338 0
M  V30 16174 O 1532.08 -1.39446 -4.15315 0
M  V30 16175 C 1533.58 0.3899 -4.41582 0
M  V30 16176 H 1530.8 -0.0955812 -0.664158 0
M  V30 16177 H 1533.35 -0.909582 -1.83158 0
M  V30 16178 H 1531.5 0.560024 -3.83331 0
M  V30 16179 H 1531.92 -1.26168 -5.09099 0
M  V30 16180 H 1533.39 0.39747 -5.50567 0
M  V30 16181 H 1533.87 1.42348 -4.15492 0
M  V30 16182 H 1534.47 -0.246248 -4.24587 0
M  V30 16183 N 1532.79 1.52222 -0.408187 0
M  V30 16184 C 1534.2 1.86598 0.0616213 0
M  V30 16185 C 1534.55 1.32698 1.44519 0
M  V30 16186 O 1533.68 0.665883 2.059 0
M  V30 16187 C 1534.27 3.38592 0.118595 0
M  V30 16188 C 1532.83 3.72611 0.532737 0
M  V30 16189 C 1531.98 2.75744 -0.293356 0
M  V30 16190 H 1534.93 1.45862 -0.625291 0
M  V30 16191 H 1534.95 3.68858 0.934039 0
M  V30 16192 H 1534.46 3.77792 -0.888516 0
M  V30 16193 H 1532.56 3.38989 1.54652 0
M  V30 16194 H 1532.68 4.78294 0.277777 0
M  V30 16195 H 1531.04 2.53527 0.244166 0
M  V30 16196 H 1531.82 3.17783 -1.2988 0
M  V30 16197 N 1534.27 0.138579 1.5699 0
M  V30 16198 C 1535.5 -0.521049 1.99922 0
M  V30 16199 C 1535.91 -1.59508 1.01754 0
M  V30 16200 O 1535.25 -1.83699 0.00521913 0
M  V30 16201 C 1535.31 -1.18856 3.39284 0
M  V30 16202 C 1534.97 -0.260145 4.56259 0
M  V30 16203 C 1535.97 0.508919 5.17403 0
M  V30 16204 C 1533.66 -0.165504 5.02027 0
M  V30 16205 C 1535.65 1.36016 6.22719 0
M  V30 16206 C 1533.34 0.689346 6.07199 0
M  V30 16207 C 1534.34 1.45079 6.67414 0
M  V30 16208 O 1534.02 2.29141 7.70551 0
M  V30 16209 H 1533.76 -0.140889 0.661155 0
M  V30 16210 H 1536.31 0.227618 2.04135 0
M  V30 16211 H 1534.54 -1.9847 3.31883 0
M  V30 16212 H 1536.23 -1.74706 3.66377 0
M  V30 16213 H 1536.99 0.445787 4.82947 0
M  V30 16214 H 1532.87 -0.747903 4.54893 0
M  V30 16215 H 1536.42 1.95496 6.69647 0
M  V30 16216 H 1532.31 0.7538 6.41084 0
M  V30 16217 H 1533.08 2.22296 7.87735 0
M  V30 16218 N 1535.75 -1.57019 -0.13521 0
M  V30 16219 C 1536.99 -1.85801 -0.851896 0
M  V30 16220 C 1537.35 -0.724449 -1.77808 0
M  V30 16221 O 1538.55 -0.893619 -2.53511 0
M  V30 16222 C 1536.82 -3.19788 -1.59595 0
M  V30 16223 S 1538.38 -3.70159 -2.35644 0
M  V30 16224 H 1535.2 -0.651534 -0.284649 0
M  V30 16225 H 1537.8 -1.95184 -0.111177 0
M  V30 16226 H 1536.5 -4.00247 -0.907221 0
M  V30 16227 H 1536.04 -3.13441 -2.37735 0
M  V30 16228 H 1538.05 -3.40364 -3.61063 0
M  V30 16229 N 1537.22 0.404919 -1.52309 0
M  V30 16230 C 1538.47 1.14921 -1.66246 0
M  V30 16231 C 1538.79 1.90919 -0.396868 0
M  V30 16232 O 1538.06 1.86856 0.588361 0
M  V30 16233 H 1536.64 0.427223 -0.612772 0
M  V30 16234 H 1539.31 0.461091 -1.89367 0
M  V30 16235 H 1538.4 1.86095 -2.5055 0
M  V30 16236 N 1538.7 1.43003 0.662408 0
M  V30 16237 C 1539.64 1.4189 1.78725 0
M  V30 16238 C 1540.61 0.281515 1.60144 0
M  V30 16239 O 1541.8 0.473677 1.82452 0
M  V30 16240 C 1538.92 1.22166 3.159 0
M  V30 16241 C 1537.97 2.39061 3.53203 0
M  V30 16242 S 1538.8 4.01607 3.54221 0
M  V30 16243 C 1539.96 3.84249 4.94068 0
M  V30 16244 H 1540.19 2.37073 1.79398 0
M  V30 16245 H 1537.73 1.29924 0.834214 0
M  V30 16246 H 1539.68 1.11474 3.95074 0
M  V30 16247 H 1538.34 0.285468 3.128 0
M  V30 16248 H 1537.54 2.21041 4.52943 0
M  V30 16249 H 1537.14 2.46331 2.81419 0
M  V30 16250 H 1539.43 3.46006 5.82483 0
M  V30 16251 H 1540.37 4.83709 5.17138 0
M  V30 16252 H 1540.78 3.16879 4.6717 0
M  V30 16253 N 1540.18 -0.899904 1.29381 0
M  V30 16254 C 1541.41 -1.68383 1.20227 0
M  V30 16255 C 1541.82 -1.87305 -0.237135 0
M  V30 16256 O 1541.18 -1.40992 -1.15877 0
M  V30 16257 C 1541.23 -3.06845 1.91124 0
M  V30 16258 O 1540.95 -2.88787 3.29444 0
M  V30 16259 C 1542.45 -4.01253 1.88444 0
M  V30 16260 H 1539.67 -0.525917 0.416717 0
M  V30 16261 H 1542.22 -1.12537 1.7075 0
M  V30 16262 H 1540.37 -3.59467 1.44438 0
M  V30 16263 H 1540.79 -3.7652 3.65148 0
M  V30 16264 H 1542.26 -4.95824 2.42616 0
M  V30 16265 H 1542.74 -4.30699 0.859925 0
M  V30 16266 H 1543.34 -3.54562 2.34874 0
M  V30 16267 N 1541.66 -1.11854 -1.11024 0
M  V30 16268 C 1542.9 -0.880082 -1.84483 0
M  V30 16269 C 1543.26 0.583659 -1.82914 0
M  V30 16270 O 1544.46 0.939053 -2.51864 0
M  V30 16271 C 1542.73 -1.43158 -3.27476 0
M  V30 16272 S 1544.29 -1.33075 -4.18135 0
M  V30 16273 H 1541.11 -0.317635 -0.636105 0
M  V30 16274 H 1543.71 -1.42688 -1.33642 0
M  V30 16275 H 1542.42 -2.49061 -3.26185 0
M  V30 16276 H 1541.95 -0.882005 -3.83385 0
M  V30 16277 H 1543.96 -0.298149 -4.95303 0
M  V30 16278 N 1543.14 1.28707 -0.909517 0
M  V30 16279 C 1544.1 2.25692 -0.39946 0
M  V30 16280 C 1545.1 1.53721 0.471848 0
M  V30 16281 O 1546.29 1.72008 0.275504 0
M  V30 16282 C 1543.42 3.38205 0.427793 0
M  V30 16283 H 1544.61 2.72326 -1.25613 0
M  V30 16284 H 1542.17 1.40317 -0.688535 0
M  V30 16285 H 1542.9 2.96926 1.30404 0
M  V30 16286 H 1542.69 3.91606 -0.19667 0
M  V30 16287 H 1544.18 4.10334 0.775634 0
M  V30 16288 N 1544.61 0.673042 1.42506 0
M  V30 16289 C 1545.52 -0.00648572 2.34599 0
M  V30 16290 C 1546.54 -0.790758 1.54994 0
M  V30 16291 O 1547.72 -0.733482 1.87569 0
M  V30 16292 C 1544.78 -0.94734 3.33506 0
M  V30 16293 C 1543.84 -0.157795 4.2901 0
M  V30 16294 C 1543.08 -1.05384 5.23192 0
M  V30 16295 O 1543.3 -2.29334 5.22266 0
M  V30 16296 O 1542.23 -0.515584 5.99688 0
M  V30 16297 H 1546.06 0.752059 2.94241 0
M  V30 16298 H 1543.64 0.433272 1.42979 0
M  V30 16299 H 1545.53 -1.4875 3.94273 0
M  V30 16300 H 1544.2 -1.68577 2.7634 0
M  V30 16301 H 1543.11 0.426426 3.71662 0
M  V30 16302 H 1544.44 0.54148 4.89212 0
M  V30 16303 N 1546.09 -1.52004 0.416254 0
M  V30 16304 C 1547.02 -2.30106 -0.396671 0
M  V30 16305 C 1548 -1.34616 -1.03983 0
M  V30 16306 O 1549.19 -1.63528 -1.04749 0
M  V30 16307 C 1546.32 -3.12769 -1.50972 0
M  V30 16308 C 1545.27 -4.16365 -0.99119 0
M  V30 16309 C 1544.6 -4.87417 -2.19838 0
M  V30 16310 C 1545.9 -5.22284 -0.0402599 0
M  V30 16311 H 1547.59 -2.98312 0.255054 0
M  V30 16312 H 1545.14 -1.43464 0.124106 0
M  V30 16313 H 1547.09 -3.66178 -2.08547 0
M  V30 16314 H 1545.82 -2.42346 -2.18943 0
M  V30 16315 H 1544.47 -3.63976 -0.437803 0
M  V30 16316 H 1544.12 -4.13516 -2.8638 0
M  V30 16317 H 1543.82 -5.57454 -1.85792 0
M  V30 16318 H 1545.35 -5.43641 -2.78006 0
M  V30 16319 H 1546.76 -5.70891 -0.525027 0
M  V30 16320 H 1545.16 -5.99726 0.211742 0
M  V30 16321 H 1546.23 -4.7642 0.902877 0
M  V30 16322 N 1547.57 -0.146903 -1.56914 0
M  V30 16323 C 1548.8 0.51044 -2.00195 0
M  V30 16324 C 1549.21 1.58966 -1.02599 0
M  V30 16325 O 1548.55 1.83694 -0.0149611 0
M  V30 16326 C 1548.61 1.17055 -3.39909 0
M  V30 16327 C 1548.28 0.235944 -4.56391 0
M  V30 16328 C 1549.27 -0.536351 -5.17126 0
M  V30 16329 C 1546.96 0.138878 -5.02108 0
M  V30 16330 C 1548.95 -1.39316 -6.21989 0
M  V30 16331 C 1546.64 -0.721538 -6.06825 0
M  V30 16332 C 1547.64 -1.48616 -6.66635 0
M  V30 16333 O 1547.33 -2.33224 -7.69325 0
M  V30 16334 H 1547.06 0.137381 -0.661893 0
M  V30 16335 H 1549.61 -0.23844 -2.04011 0
M  V30 16336 H 1547.84 1.96707 -3.32931 0
M  V30 16337 H 1549.53 1.72761 -3.67299 0
M  V30 16338 H 1550.3 -0.471393 -4.82704 0
M  V30 16339 H 1546.18 0.723769 -4.55283 0
M  V30 16340 H 1549.72 -1.99044 -6.68601 0
M  V30 16341 H 1545.62 -0.787788 -6.40675 0
M  V30 16342 H 1546.39 -2.26471 -7.86545 0
M  V30 16343 N 1549.05 1.57088 0.126881 0
M  V30 16344 C 1549.96 2.03053 1.17502 0
M  V30 16345 C 1550.97 0.949484 1.45811 0
M  V30 16346 O 1552.15 1.26043 1.57083 0
M  V30 16347 C 1549.22 2.41897 2.48368 0
M  V30 16348 C 1548.28 3.64047 2.27527 0
M  V30 16349 C 1547.51 4.01029 3.52153 0
M  V30 16350 O 1547.73 3.38441 4.59145 0
M  V30 16351 O 1546.67 4.94174 3.43622 0
M  V30 16352 H 1550.49 2.92568 0.814733 0
M  V30 16353 H 1548.08 1.45547 0.3371 0
M  V30 16354 H 1549.96 2.67652 3.25485 0
M  V30 16355 H 1548.63 1.55531 2.83887 0
M  V30 16356 H 1547.54 3.43452 1.48294 0
M  V30 16357 H 1548.87 4.51093 1.96916 0
M  V30 16358 N 1550.53 -0.396836 1.52522 0
M  V30 16359 C 1551.47 -1.48427 1.76743 0
M  V30 16360 C 1552.44 -1.54481 0.610321 0
M  V30 16361 O 1553.63 -1.7086 0.849201 0
M  V30 16362 C 1550.77 -2.85744 1.93505 0
M  V30 16363 C 1549.88 -2.88904 3.21183 0
M  V30 16364 C 1549.02 -4.17598 3.28307 0
M  V30 16365 C 1548.06 -4.14779 4.50138 0
M  V30 16366 N 1547.19 -5.35065 4.54587 0
M  V30 16367 H 1552.03 -1.27075 2.69548 0
M  V30 16368 H 1549.57 -0.61661 1.33553 0
M  V30 16369 H 1551.53 -3.65474 2.01208 0
M  V30 16370 H 1550.16 -3.05564 1.04069 0
M  V30 16371 H 1549.21 -2.01592 3.22591 0
M  V30 16372 H 1550.52 -2.82688 4.10961 0
M  V30 16373 H 1549.68 -5.05727 3.35149 0
M  V30 16374 H 1548.41 -4.26526 2.36489 0
M  V30 16375 H 1547.42 -3.25039 4.4343 0
M  V30 16376 H 1548.64 -4.07481 5.43264 0
M  V30 16377 H 1546.59 -5.44638 3.65658 0
M  V30 16378 H 1546.51 -5.30894 5.38227 0
M  V30 16379 H 1547.78 -6.25114 4.65675 0
M  V30 16380 N 1552.01 -1.43353 -0.654814 0
M  V30 16381 C 1552.94 -1.51194 -1.7794 0
M  V30 16382 C 1553.92 -0.366747 -1.66099 0
M  V30 16383 O 1555.1 -0.58375 -1.85219 0
M  V30 16384 C 1552.23 -1.43298 -3.16359 0
M  V30 16385 C 1551.19 -2.5605 -3.42961 0
M  V30 16386 C 1550.51 -2.33208 -4.81163 0
M  V30 16387 C 1551.81 -3.98303 -3.37864 0
M  V30 16388 H 1553.51 -2.4532 -1.71635 0
M  V30 16389 H 1551.05 -1.18072 -0.824319 0
M  V30 16390 H 1553 -1.47388 -3.94784 0
M  V30 16391 H 1551.73 -0.456761 -3.2339 0
M  V30 16392 H 1550.39 -2.5131 -2.66906 0
M  V30 16393 H 1550.04 -1.33833 -4.84869 0
M  V30 16394 H 1549.74 -3.08789 -4.99923 0
M  V30 16395 H 1551.26 -2.39079 -5.61848 0
M  V30 16396 H 1552.67 -4.04538 -4.06229 0
M  V30 16397 H 1551.07 -4.73897 -3.6816 0
M  V30 16398 H 1552.14 -4.23552 -2.36075 0
M  V30 16399 N 1553.48 0.89303 -1.29857 0
M  V30 16400 C 1554.89 1.45948 -1.16431 0
M  V30 16401 C 1555.25 1.94751 0.238051 0
M  V30 16402 O 1554.37 1.84302 1.1341 0
M  V30 16403 C 1554.97 2.6527 -2.10754 0
M  V30 16404 C 1553.52 3.1803 -2.0133 0
M  V30 16405 C 1552.67 1.90721 -2.01297 0
M  V30 16406 H 1555.62 0.70373 -1.42244 0
M  V30 16407 H 1555.64 3.41223 -1.68366 0
M  V30 16408 H 1555.16 2.2972 -3.1281 0
M  V30 16409 H 1553.26 3.58257 -1.02386 0
M  V30 16410 H 1553.37 3.81876 -2.89323 0
M  V30 16411 H 1551.73 2.0871 -1.45987 0
M  V30 16412 H 1552.52 1.5744 -3.0507 0
M  V30 16413 N 1554.96 1.12442 1.10429 0
M  V30 16414 C 1555.89 0.750131 2.16577 0
M  V30 16415 C 1556.91 -0.223265 1.61262 0
M  V30 16416 O 1558.1 -0.00459454 1.78499 0
M  V30 16417 C 1555.2 0.0895474 3.38782 0
M  V30 16418 C 1554.37 1.09242 4.23539 0
M  V30 16419 C 1553.43 0.45945 5.2419 0
M  V30 16420 O 1552.45 1.11646 5.58143 0
M  V30 16421 N 1553.66 -0.773093 5.75329 0
M  V30 16422 H 1556.42 1.66349 2.49295 0
M  V30 16423 H 1553.98 1.01603 1.26049 0
M  V30 16424 H 1555.97 -0.345895 4.03219 0
M  V30 16425 H 1554.54 -0.726572 3.04039 0
M  V30 16426 H 1553.76 1.70549 3.55396 0
M  V30 16427 H 1555.05 1.77057 4.76999 0
M  V30 16428 H 1554.45 -1.32585 5.49943 0
M  V30 16429 H 1553.01 -1.15135 6.41551 0
M  V30 16430 N 1556.44 -1.28223 0.91633 0
M  V30 16431 C 1557.69 -1.9448 0.549734 0
M  V30 16432 C 1558.01 -1.72465 -0.909999 0
M  V30 16433 O 1557.28 -1.06583 -1.64368 0
M  V30 16434 H 1555.86 -0.719641 0.200315 0
M  V30 16435 H 1558.52 -1.56156 1.16625 0
M  V30 16436 H 1557.62 -3.03044 0.746363 0
M  V30 16437 N 1557.92 -0.68059 -1.42147 0
M  V30 16438 C 1559.15 -0.213529 -2.05494 0
M  V30 16439 C 1559.56 1.13665 -1.51251 0
M  V30 16440 O 1558.9 1.71838 -0.649422 0
M  V30 16441 C 1558.96 -0.0774256 -3.59417 0
M  V30 16442 C 1558.62 -1.35724 -4.3638 0
M  V30 16443 C 1559.62 -2.29195 -4.66654 0
M  V30 16444 C 1557.31 -1.60645 -4.75918 0
M  V30 16445 C 1559.3 -3.45858 -5.35407 0
M  V30 16446 C 1556.99 -2.77597 -5.44411 0
M  V30 16447 C 1557.99 -3.70027 -5.74081 0
M  V30 16448 O 1557.67 -4.84933 -6.41167 0
M  V30 16449 H 1557.41 -0.100043 -0.668556 0
M  V30 16450 H 1559.96 -0.929384 -1.83171 0
M  V30 16451 H 1558.19 0.694062 -3.8042 0
M  V30 16452 H 1559.88 0.350509 -4.04384 0
M  V30 16453 H 1560.64 -2.11194 -4.36603 0
M  V30 16454 H 1556.52 -0.8957 -4.52215 0
M  V30 16455 H 1560.07 -4.18023 -5.58483 0
M  V30 16456 H 1555.96 -2.95521 -5.73879 0
M  V30 16457 H 1556.73 -4.84552 -6.5966 0
M  V30 16458 N 1559.4 1.51781 -0.424309 0
M  V30 16459 C 1560.81 1.59419 -0.0759329 0
M  V30 16460 C 1561.01 1.43616 1.41339 0
M  V30 16461 O 1560.07 1.27078 2.18191 0
M  V30 16462 C 1561.38 2.94966 -0.584411 0
M  V30 16463 C 1562.93 3.08241 -0.54371 0
M  V30 16464 C 1563.4 4.46292 -1.02895 0
M  V30 16465 N 1564.89 4.52575 -0.986392 0
M  V30 16466 C 1565.63 5.57694 -1.33286 0
M  V30 16467 N 1565.13 6.70293 -1.75154 0
M  V30 16468 N 1566.92 5.47983 -1.25186 0
M  V30 16469 H 1559.07 1.60299 -1.39349 0
M  V30 16470 H 1561.33 0.75492 -0.573411 0
M  V30 16471 H 1561.04 3.11859 -1.62593 0
M  V30 16472 H 1560.91 3.772 -0.00224435 0
M  V30 16473 H 1563.3 2.91024 0.488798 0
M  V30 16474 H 1563.38 2.27878 -1.16212 0
M  V30 16475 H 1563.02 4.64255 -2.05986 0
M  V30 16476 H 1562.95 5.25175 -0.387202 0
M  V30 16477 H 1565.45 3.71754 -0.678765 0
M  V30 16478 H 1565.76 7.46508 -1.99863 0
M  V30 16479 H 1564.1 6.71535 -1.79071 0
M  V30 16480 H 1567.29 4.58899 -0.923525 0
M  V30 16481 H 1567.47 6.29796 -1.52517 0
M  V30 16482 N 1560.87 0.155222 1.56834 0
M  V30 16483 C 1561.8 -0.777258 2.20184 0
M  V30 16484 C 1562.78 -1.25102 1.15254 0
M  V30 16485 O 1563.97 -1.3071 1.43627 0
M  V30 16486 C 1561.1 -2.01326 2.82993 0
M  V30 16487 C 1560.05 -1.67596 3.93822 0
M  V30 16488 C 1559.38 -2.98529 4.43604 0
M  V30 16489 C 1560.68 -0.916302 5.142 0
M  V30 16490 H 1562.37 -0.249257 2.98361 0
M  V30 16491 H 1559.92 -0.118448 1.43512 0
M  V30 16492 H 1561.87 -2.67048 3.2598 0
M  V30 16493 H 1560.6 -2.56513 2.0216 0
M  V30 16494 H 1559.26 -1.0425 3.51465 0
M  V30 16495 H 1558.9 -3.51723 3.59583 0
M  V30 16496 H 1558.6 -2.76721 5.18362 0
M  V30 16497 H 1560.13 -3.65308 4.89267 0
M  V30 16498 H 1561.54 -1.47577 5.5398 0
M  V30 16499 H 1559.94 -0.797856 5.94772 0
M  V30 16500 H 1561.01 0.0904351 4.84816 0
M  V30 16501 N 1562.35 -1.57153 -0.118549 0
M  V30 16502 C 1563.26 -2.03673 -1.16424 0
M  V30 16503 C 1564.28 -0.957203 -1.45305 0
M  V30 16504 O 1565.45 -1.26874 -1.56413 0
M  V30 16505 C 1562.52 -2.43211 -2.47082 0
M  V30 16506 C 1561.58 -3.65248 -2.25593 0
M  V30 16507 C 1560.81 -4.02891 -3.50021 0
M  V30 16508 O 1561.04 -3.40871 -4.57344 0
M  V30 16509 O 1559.97 -4.95989 -3.40996 0
M  V30 16510 H 1563.8 -2.92996 -0.799206 0
M  V30 16511 H 1561.38 -1.45724 -0.329376 0
M  V30 16512 H 1563.26 -2.69374 -3.24061 0
M  V30 16513 H 1561.94 -1.57034 -2.83058 0
M  V30 16514 H 1560.84 -3.44234 -1.46471 0
M  V30 16515 H 1562.18 -4.52131 -1.94521 0
M  V30 16516 N 1563.83 0.388742 -1.5273 0
M  V30 16517 C 1564.78 1.47488 -1.77527 0
M  V30 16518 C 1565.75 1.54155 -0.618505 0
M  V30 16519 O 1566.93 1.70407 -0.858251 0
M  V30 16520 C 1564.07 2.84714 -1.95018 0
M  V30 16521 C 1563.18 2.87197 -3.2271 0
M  V30 16522 C 1562.32 4.15851 -3.30517 0
M  V30 16523 C 1561.36 4.12386 -4.52332 0
M  V30 16524 N 1560.5 5.32647 -4.57418 0
M  V30 16525 H 1565.34 1.25644 -2.70218 0
M  V30 16526 H 1562.87 0.609519 -1.33878 0
M  V30 16527 H 1564.83 3.64402 -2.03143 0
M  V30 16528 H 1563.46 3.05008 -1.05688 0
M  V30 16529 H 1562.51 1.99879 -3.23655 0
M  V30 16530 H 1563.82 2.80505 -4.12454 0
M  V30 16531 H 1562.98 5.03943 -3.37827 0
M  V30 16532 H 1561.72 4.25265 -2.38748 0
M  V30 16533 H 1560.72 3.22683 -4.45147 0
M  V30 16534 H 1561.95 4.04594 -5.45418 0
M  V30 16535 H 1559.89 5.42691 -3.68541 0
M  V30 16536 H 1559.81 5.28032 -5.41035 0
M  V30 16537 H 1561.08 6.22636 -4.68983 0
M  V30 16538 N 1565.31 1.43698 0.647203 0
M  V30 16539 C 1566.72 1.40586 1.22851 0
M  V30 16540 C 1567.07 0.112981 1.95874 0
M  V30 16541 O 1566.19 -0.787342 2.01569 0
M  V30 16542 C 1566.79 2.54672 2.23445 0
M  V30 16543 C 1565.35 2.54806 2.7704 0
M  V30 16544 C 1564.5 2.32076 1.51777 0
M  V30 16545 H 1567.45 1.52512 0.43885 0
M  V30 16546 H 1567.47 2.26505 3.05738 0
M  V30 16547 H 1566.98 3.48755 1.70269 0
M  V30 16548 H 1565.08 1.64619 3.34262 0
M  V30 16549 H 1565.19 3.52771 3.24175 0
M  V30 16550 H 1563.56 1.80858 1.79339 0
M  V30 16551 H 1564.34 3.28252 1.00527 0
M  V30 16552 N 1566.79 -0.886131 1.30328 0
M  V30 16553 C 1567.72 -2.00793 1.19183 0
M  V30 16554 C 1568.7 -1.69899 0.08276 0
M  V30 16555 O 1569.88 -1.92389 0.264593 0
M  V30 16556 C 1567.01 -3.35922 0.881669 0
M  V30 16557 C 1565.97 -3.81072 1.94855 0
M  V30 16558 C 1565.29 -5.1348 1.4914 0
M  V30 16559 C 1566.59 -3.99923 3.35944 0
M  V30 16560 H 1568.29 -2.10375 2.13032 0
M  V30 16561 H 1565.83 -1.0108 1.02561 0
M  V30 16562 H 1567.79 -4.13922 0.790359 0
M  V30 16563 H 1566.51 -3.26469 -0.0925037 0
M  V30 16564 H 1565.17 -3.053 2.02947 0
M  V30 16565 H 1564.82 -5.00453 0.50553 0
M  V30 16566 H 1564.52 -5.44659 2.205 0
M  V30 16567 H 1566.04 -5.94005 1.41386 0
M  V30 16568 H 1567.45 -4.68364 3.30617 0
M  V30 16569 H 1565.85 -4.42477 4.05381 0
M  V30 16570 H 1566.92 -3.03816 3.77921 0
M  V30 16571 N 1568.26 -1.13026 -1.09832 0
M  V30 16572 C 1569.21 -0.799174 -2.1844 0
M  V30 16573 C 1570.21 0.216695 -1.68008 0
M  V30 16574 O 1571.41 0.0742662 -1.79847 0
M  V30 16575 H 1567.79 -0.24064 -0.712458 0
M  V30 16576 H 1569.76 -1.72342 -2.436 0
M  V30 16577 C 1568.51 -0.276925 -3.46595 0
M  V30 16578 H 1567.83 -1.04993 -3.85768 0
M  V30 16579 H 1569.27 -0.0836468 -4.23917 0
M  V30 16580 C 1567.73 0.996479 -3.21826 0
M  V30 16581 O 1568.26 2.0731 -3.44072 0
M  V30 16582 N 1566.47 0.925903 -2.75455 0
M  V30 16583 H 1566.01 0.0496383 -2.57552 0
M  V30 16584 H 1565.97 1.77853 -2.5926 0
M  V30 16585 N 1569.74 1.27735 -0.923117 0
M  V30 16586 C 1570.98 1.96339 -0.568378 0
M  V30 16587 C 1571.35 1.70988 0.87333 0
M  V30 16588 O 1572.55 2.33241 1.33611 0
M  V30 16589 C 1570.82 3.46396 -0.880016 0
M  V30 16590 S 1572.38 4.34209 -0.633102 0
M  V30 16591 H 1569.2 0.679289 -0.209969 0
M  V30 16592 H 1571.8 1.55066 -1.19057 0
M  V30 16593 H 1570.5 3.62344 -1.92705 0
M  V30 16594 H 1570.03 3.92625 -0.246836 0
M  V30 16595 H 1572.05 4.93559 0.511241 0
M  V30 16596 N 1571.22 0.688118 1.41784 0
M  V30 16597 C 1572.5 0.144304 1.95067 0
M  V30 16598 C 1572.88 -1.34399 1.62789 0
M  V30 16599 O 1572.23 -2.08675 0.930978 0
M  V30 16600 C 1572.44 0.427641 3.4637 0
M  V30 16601 C 1573.78 0.351345 4.23144 0
M  V30 16602 O 1574.81 0.362134 3.54354 0
M  V30 16603 O 1573.67 0.305018 5.45648 0
M  V30 16604 H 1570.76 0.01062 0.826932 0
M  V30 16605 H 1573.31 0.763766 1.51541 0
M  V30 16606 H 1572.08 1.4581 3.63119 0
M  V30 16607 H 1571.7 -0.223167 3.96973 0
M  V30 16608 N 1572.7 -1.51554 0.432352 0
M  V30 16609 C 1573.98 -1.94621 -0.195472 0
M  V30 16610 C 1574.36 -1.37072 -1.60544 0
M  V30 16611 O 1573.7 -0.555781 -2.21638 0
M  V30 16612 C 1573.91 -3.48544 -0.178267 0
M  V30 16613 C 1575.26 -4.22839 -0.386283 0
M  V30 16614 O 1576.29 -3.55275 -0.256604 0
M  V30 16615 O 1575.14 -5.42693 -0.643927 0
M  V30 16616 H 1572.24 -0.816291 -0.132656 0
M  V30 16617 H 1574.78 -1.62473 0.489972 0
M  V30 16618 H 1573.56 -3.82874 0.807658 0
M  V30 16619 H 1573.18 -3.87121 -0.906832 0
M  V30 16620 N 1574.18 -0.163538 -1.56749 0
M  V30 16621 C 1575.09 0.782461 -2.21167 0
M  V30 16622 C 1576.1 1.25911 -1.20093 0
M  V30 16623 O 1577.28 1.31286 -1.52728 0
M  V30 16624 C 1574.34 1.99761 -2.83366 0
M  V30 16625 C 1573.4 1.56859 -3.99617 0
M  V30 16626 C 1572.64 2.72582 -4.58841 0
M  V30 16627 O 1572.86 3.89243 -4.16949 0
M  V30 16628 O 1571.79 2.47104 -5.48838 0
M  V30 16629 H 1575.62 0.264023 -3.0255 0
M  V30 16630 H 1573.21 0.06429 -1.49262 0
M  V30 16631 H 1575.09 2.70843 -3.22835 0
M  V30 16632 H 1573.76 2.50526 -2.04984 0
M  V30 16633 H 1572.67 0.827511 -3.64833 0
M  V30 16634 H 1574 1.10794 -4.79568 0
M  V30 16635 N 1575.65 1.57214 0.110213 0
M  V30 16636 C 1576.9 1.85586 0.817649 0
M  V30 16637 C 1577.23 0.750536 1.79111 0
M  V30 16638 O 1576.51 -0.242864 1.92978 0
M  V30 16639 C 1576.79 3.24565 1.55979 0
M  V30 16640 C 1576.64 4.45708 0.605339 0
M  V30 16641 C 1577.96 3.61233 2.51393 0
M  V30 16642 H 1575.08 0.675037 0.295794 0
M  V30 16643 H 1577.72 1.89824 0.0816541 0
M  V30 16644 H 1575.87 3.21083 2.18718 0
M  V30 16645 H 1577.55 4.61298 -0.0138894 0
M  V30 16646 H 1575.79 4.33722 -0.0824644 0
M  V30 16647 H 1576.46 5.39643 1.16143 0
M  V30 16648 H 1578.94 3.65563 1.98754 0
M  V30 16649 H 1577.81 4.59438 3.00346 0
M  V30 16650 H 1578.07 2.89116 3.34461 0
M  V30 16651 N 1577.13 -0.380637 1.52934 0
M  V30 16652 C 1578.36 -1.14417 1.72024 0
M  V30 16653 C 1578.77 -1.83962 0.442128 0
M  V30 16654 O 1578.11 -1.73839 -0.593766 0
M  V30 16655 C 1578.18 -2.22944 2.82022 0
M  V30 16656 C 1577.84 -1.73295 4.22869 0
M  V30 16657 C 1578.84 -1.20515 5.05739 0
M  V30 16658 C 1576.52 -1.79264 4.69222 0
M  V30 16659 C 1578.52 -0.743632 6.33047 0
M  V30 16660 C 1576.2 -1.32724 5.96513 0
M  V30 16661 C 1577.2 -0.803615 6.78256 0
M  V30 16662 O 1576.89 -0.34503 8.03159 0
M  V30 16663 H 1576.62 -0.348676 0.579138 0
M  V30 16664 H 1579.17 -0.450113 2.00407 0
M  V30 16665 H 1577.4 -2.95798 2.49079 0
M  V30 16666 H 1579.09 -2.84575 2.89434 0
M  V30 16667 H 1579.86 -1.15254 4.71107 0
M  V30 16668 H 1575.74 -2.18962 4.0568 0
M  V30 16669 H 1579.28 -0.334251 6.96799 0
M  V30 16670 H 1575.18 -1.37673 6.30648 0
M  V30 16671 H 1575.95 -0.465743 8.17174 0
M  V30 16672 N 1578.61 -1.44039 -0.639573 0
M  V30 16673 C 1579.89 -1.36853 -1.39752 0
M  V30 16674 C 1580.27 -0.0230515 -2.11087 0
M  V30 16675 O 1579.62 0.994061 -2.05744 0
M  V30 16676 C 1579.83 -2.56101 -2.37093 0
M  V30 16677 C 1581.17 -2.99793 -3.00681 0
M  V30 16678 O 1582.2 -2.56246 -2.4742 0
M  V30 16679 O 1581.06 -3.75274 -3.97281 0
M  V30 16680 H 1578.15 -0.541521 -0.625047 0
M  V30 16681 H 1580.7 -1.56113 -0.665336 0
M  V30 16682 H 1579.47 -3.45647 -1.83422 0
M  V30 16683 H 1579.09 -2.39011 -3.17741 0
M  V30 16684 N 1580.09 0.879207 -1.30796 0
M  V30 16685 C 1581.02 2.00158 -1.20246 0
M  V30 16686 C 1582 1.69852 -0.091769 0
M  V30 16687 O 1583.18 1.92246 -0.274792 0
M  V30 16688 C 1580.31 3.3545 -0.899472 0
M  V30 16689 C 1579.27 3.80033 -1.96873 0
M  V30 16690 C 1578.59 5.12681 -1.51861 0
M  V30 16691 C 1579.89 3.98136 -3.38061 0
M  V30 16692 H 1581.59 2.09242 -2.14145 0
M  V30 16693 H 1579.13 1.00535 -1.03096 0
M  V30 16694 H 1581.09 4.13497 -0.812299 0
M  V30 16695 H 1579.81 3.26513 0.075189 0
M  V30 16696 H 1578.47 3.04219 -2.04564 0
M  V30 16697 H 1578.12 5.00178 -0.532063 0
M  V30 16698 H 1577.82 5.43482 -2.23386 0
M  V30 16699 H 1579.34 5.93247 -1.44534 0
M  V30 16700 H 1580.76 4.66604 -3.33096 0
M  V30 16701 H 1579.15 4.40321 -4.07722 0
M  V30 16702 H 1580.22 3.01807 -3.79526 0
M  V30 16703 N 1581.57 1.13606 1.09231 0
M  V30 16704 C 1582.5 0.758936 2.1521 0
M  V30 16705 C 1583.48 -0.255788 1.60575 0
M  V30 16706 O 1584.66 -0.14682 1.87927 0
M  V30 16707 C 1581.79 0.125401 3.38468 0
M  V30 16708 C 1580.84 1.10894 4.11831 0
M  V30 16709 S 1581.67 2.64233 4.65769 0
M  V30 16710 C 1582.82 2.02246 5.92324 0
M  V30 16711 H 1583.06 1.65661 2.46868 0
M  V30 16712 H 1580.59 0.956419 1.2121 0
M  V30 16713 H 1582.55 -0.233725 4.09834 0
M  V30 16714 H 1581.21 -0.749575 3.05025 0
M  V30 16715 H 1580.4 0.613519 5.00252 0
M  V30 16716 H 1580 1.41163 3.46336 0
M  V30 16717 H 1582.3 1.37275 6.63447 0
M  V30 16718 H 1583.24 2.88756 6.46549 0
M  V30 16719 H 1583.65 1.47321 5.44937 0
M  V30 16720 N 1583.05 -1.27244 0.929878 0
M  V30 16721 C 1584.46 -1.4662 0.630451 0
M  V30 16722 C 1584.66 -1.84077 -0.819633 0
M  V30 16723 O 1583.72 -1.95555 -1.59733 0
M  V30 16724 C 1585.03 -2.55709 1.58219 0
M  V30 16725 C 1586.58 -2.69569 1.59065 0
M  V30 16726 C 1587.05 -3.81818 2.52941 0
M  V30 16727 N 1588.54 -3.89195 2.51161 0
M  V30 16728 C 1589.28 -4.75474 3.20488 0
M  V30 16729 N 1588.78 -5.66225 3.99201 0
M  V30 16730 N 1590.57 -4.69222 3.09495 0
M  V30 16731 H 1582.72 -1.01216 1.86733 0
M  V30 16732 H 1584.98 -0.505737 0.801832 0
M  V30 16733 H 1584.69 -2.34985 2.61677 0
M  V30 16734 H 1584.56 -3.53141 1.32556 0
M  V30 16735 H 1586.95 -2.89672 0.563375 0
M  V30 16736 H 1587.03 -1.72616 1.88778 0
M  V30 16737 H 1586.67 -3.62467 3.55781 0
M  V30 16738 H 1586.6 -4.78202 2.20524 0
M  V30 16739 H 1589.1 -3.24305 1.93997 0
M  V30 16740 H 1589.41 -6.28925 4.4908 0
M  V30 16741 H 1587.75 -5.66013 4.03304 0
M  V30 16742 H 1590.94 -3.97322 2.47493 0
M  V30 16743 H 1591.12 -5.36244 3.63794 0
M  V30 16744 N 1584.52 -0.695628 -1.41417 0
M  V30 16745 C 1585.46 0.00883515 -2.29198 0
M  V30 16746 C 1586.47 0.744337 -1.44788 0
M  V30 16747 O 1587.66 0.59503 -1.6829 0
M  V30 16748 C 1584.76 1.0366 -3.22657 0
M  V30 16749 C 1583.93 0.37071 -4.35826 0
M  V30 16750 C 1582.99 1.3011 -5.09861 0
M  V30 16751 O 1582.02 0.793461 -5.63642 0
M  V30 16752 N 1583.22 2.63343 -5.1733 0
M  V30 16753 H 1585.98 -0.744795 -2.90298 0
M  V30 16754 H 1583.54 -0.541663 -1.5257 0
M  V30 16755 H 1585.54 1.66075 -3.69054 0
M  V30 16756 H 1584.11 1.69177 -2.62865 0
M  V30 16757 H 1583.33 -0.433315 -3.91811 0
M  V30 16758 H 1584.61 -0.0923178 -5.08716 0
M  V30 16759 H 1584.01 3.07103 -4.75083 0
M  V30 16760 H 1582.57 3.20952 -5.67303 0
M  V30 16761 N 1586 1.51322 -0.440383 0
M  V30 16762 C 1587.24 2.04022 0.124196 0
M  V30 16763 C 1587.61 1.31715 1.39697 0
M  V30 16764 O 1588.81 1.74804 2.04198 0
M  V30 16765 C 1587.08 3.55829 0.334744 0
M  V30 16766 S 1588.64 4.30244 0.862291 0
M  V30 16767 H 1585.45 0.710349 0.0304204 0
M  V30 16768 H 1588.06 1.86049 -0.600487 0
M  V30 16769 H 1586.76 4.06022 -0.597876 0
M  V30 16770 H 1586.29 3.78101 1.08642 0
M  V30 16771 H 1588.31 4.47705 2.13951 0
M  V30 16772 N 1587.48 0.171848 1.5666 0
M  V30 16773 C 1588.73 -0.467156 1.97963 0
M  V30 16774 C 1589.08 -1.60824 1.05609 0
M  V30 16775 O 1588.37 -1.9136 0.0958638 0
M  V30 16776 C 1588.57 -0.99711 3.43209 0
M  V30 16777 C 1588.4 0.0910934 4.49608 0
M  V30 16778 C 1587.17 0.540935 5.02396 0
M  V30 16779 C 1589.36 0.891679 5.06511 0
M  V30 16780 N 1587.35 1.60939 5.92429 0
M  V30 16781 C 1588.72 1.81005 5.9299 0
M  V30 16782 C 1590.77 0.9367 4.8901 0
M  V30 16783 C 1589.48 2.76964 6.6384 0
M  V30 16784 C 1591.5 1.88423 5.60581 0
M  V30 16785 C 1590.86 2.79008 6.46787 0
M  V30 16786 H 1586.96 -0.139033 0.769541 0
M  V30 16787 H 1589.55 0.272188 1.92788 0
M  V30 16788 H 1587.72 -1.70597 3.48929 0
M  V30 16789 H 1589.45 -1.60479 3.71522 0
M  V30 16790 H 1586.2 0.138545 4.73397 0
M  V30 16791 H 1586.63 2.14412 6.4215 0
M  V30 16792 H 1591.27 0.250396 4.22058 0
M  V30 16793 H 1588.99 3.46582 7.30005 0
M  V30 16794 H 1592.57 1.92518 5.49025 0
M  V30 16795 H 1591.45 3.51133 7.01196 0
M  V30 16796 N 1588.96 -1.5727 -0.101874 0
M  V30 16797 C 1590.37 -1.5295 -0.455899 0
M  V30 16798 C 1590.57 -0.887526 -1.80901 0
M  V30 16799 O 1589.63 -0.477143 -2.47951 0
M  V30 16800 C 1590.94 -2.97687 -0.424625 0
M  V30 16801 C 1592.49 -3.08867 -0.506963 0
M  V30 16802 C 1592.97 -4.55197 -0.505907 0
M  V30 16803 N 1594.46 -4.59718 -0.566856 0
M  V30 16804 C 1595.19 -5.7038 -0.587766 0
M  V30 16805 N 1594.69 -6.9049 -0.56529 0
M  V30 16806 N 1596.48 -5.58535 -0.632067 0
M  V30 16807 H 1588.63 -1.97381 0.784509 0
M  V30 16808 H 1590.89 -0.902141 0.291284 0
M  V30 16809 H 1590.6 -3.48094 0.502312 0
M  V30 16810 H 1590.47 -3.56022 -1.24612 0
M  V30 16811 H 1592.86 -2.58451 -1.42432 0
M  V30 16812 H 1592.94 -2.53496 0.342544 0
M  V30 16813 H 1592.59 -5.06263 0.407477 0
M  V30 16814 H 1592.52 -5.08399 -1.37253 0
M  V30 16815 H 1595.01 -3.73271 -0.589696 0
M  V30 16816 H 1595.32 -7.70588 -0.584342 0
M  V30 16817 H 1593.67 -6.92957 -0.532444 0
M  V30 16818 H 1596.86 -4.63606 -0.647109 0
M  V30 16819 H 1597.03 -6.44783 -0.644895 0
M  V30 16820 N 1590.44 0.372521 -1.53134 0
M  V30 16821 C 1591.35 1.47994 -1.8203 0
M  V30 16822 C 1592.36 1.58937 -0.708179 0
M  V30 16823 O 1593.54 1.74962 -0.997511 0
M  V30 16824 C 1590.6 2.83342 -1.99796 0
M  V30 16825 C 1589.66 2.81984 -3.23702 0
M  V30 16826 C 1588.9 4.10877 -3.40611 0
M  V30 16827 O 1589.12 5.06686 -2.61964 0
M  V30 16828 O 1588.05 4.17111 -4.33938 0
M  V30 16829 H 1591.88 1.26501 -2.761 0
M  V30 16830 H 1589.46 0.561957 -1.38428 0
M  V30 16831 H 1591.35 3.63551 -2.13092 0
M  V30 16832 H 1590.02 3.04826 -1.08916 0
M  V30 16833 H 1588.93 2.00498 -3.15834 0
M  V30 16834 H 1590.26 2.65453 -4.14482 0
M  V30 16835 N 1591.91 1.44376 0.631925 0
M  V30 16836 C 1592.86 1.51181 1.74393 0
M  V30 16837 C 1593.83 0.359599 1.62161 0
M  V30 16838 O 1595.02 0.569725 1.82096 0
M  V30 16839 C 1592.16 1.46124 3.12637 0
M  V30 16840 C 1591.27 2.71714 3.35851 0
M  V30 16841 C 1590.4 2.58496 4.64062 0
M  V30 16842 C 1589.44 3.79252 4.80452 0
M  V30 16843 N 1588.58 3.64715 5.99939 0
M  V30 16844 H 1593.42 2.4619 1.67912 0
M  V30 16845 H 1590.96 1.22184 0.819108 0
M  V30 16846 H 1592.91 1.41183 3.92585 0
M  V30 16847 H 1591.54 0.546831 3.18135 0
M  V30 16848 H 1590.6 2.86845 2.49848 0
M  V30 16849 H 1591.91 3.61351 3.43841 0
M  V30 16850 H 1591.06 2.51383 5.5217 0
M  V30 16851 H 1589.8 1.66417 4.58428 0
M  V30 16852 H 1588.81 3.8675 3.90774 0
M  V30 16853 H 1590.03 4.72367 4.879 0
M  V30 16854 H 1587.98 2.75388 5.95397 0
M  V30 16855 H 1587.89 4.47969 6.08982 0
M  V30 16856 H 1589.16 3.61493 6.90611 0
M  V30 16857 N 1593.39 -0.872258 1.31261 0
M  V30 16858 C 1594.8 -1.44077 1.18738 0
M  V30 16859 C 1595.15 -1.95105 -0.207037 0
M  V30 16860 O 1594.28 -1.86083 -1.10464 0
M  V30 16861 C 1594.87 -2.61884 2.14947 0
M  V30 16862 C 1593.43 -3.14787 2.06364 0
M  V30 16863 C 1592.58 -1.87495 2.04306 0
M  V30 16864 H 1595.53 -0.681011 1.43345 0
M  V30 16865 H 1595.55 -3.38501 1.73773 0
M  V30 16866 H 1595.06 -2.24715 3.16425 0
M  V30 16867 H 1593.16 -3.56582 1.08073 0
M  V30 16868 H 1593.28 -3.77225 2.95361 0
M  V30 16869 H 1591.64 -2.06361 1.49288 0
M  V30 16870 H 1592.42 -1.52566 3.07536 0
M  V30 16871 N 1594.87 -1.14184 -1.08627 0
M  V30 16872 C 1596.1 -0.930752 -1.84447 0
M  V30 16873 C 1596.51 0.524072 -1.81797 0
M  V30 16874 O 1595.85 1.37483 -1.21836 0
M  V30 16875 C 1595.91 -1.35125 -3.33139 0
M  V30 16876 C 1595.58 -2.82117 -3.59526 0
M  V30 16877 C 1596.57 -3.80242 -3.54559 0
M  V30 16878 C 1594.26 -3.19475 -3.87609 0
M  V30 16879 C 1596.25 -5.13734 -3.77301 0
M  V30 16880 C 1593.94 -4.53144 -4.10005 0
M  V30 16881 C 1594.94 -5.50082 -4.04844 0
M  V30 16882 O 1594.63 -6.81339 -4.26653 0
M  V30 16883 H 1594.36 -0.331385 -0.589203 0
M  V30 16884 H 1596.91 -1.52033 -1.38113 0
M  V30 16885 H 1595.14 -0.704995 -3.80219 0
M  V30 16886 H 1596.83 -1.11133 -3.9039 0
M  V30 16887 H 1597.6 -3.52726 -3.32881 0
M  V30 16888 H 1593.48 -2.44617 -3.90747 0
M  V30 16889 H 1597.02 -5.89386 -3.73188 0
M  V30 16890 H 1592.92 -4.80381 -4.31166 0
M  V30 16891 H 1593.68 -6.87563 -4.44071 0
M  V30 16892 N 1596.35 1.26749 -0.936613 0
M  V30 16893 C 1597.26 2.30272 -0.448573 0
M  V30 16894 C 1598.27 1.67386 0.475184 0
M  V30 16895 O 1599.45 1.98232 0.355825 0
M  V30 16896 C 1596.52 3.45546 0.28262 0
M  V30 16897 C 1595.58 4.23926 -0.677138 0
M  V30 16898 C 1594.81 5.33697 0.019255 0
M  V30 16899 O 1595.03 5.56825 1.23703 0
M  V30 16900 O 1593.97 5.98302 -0.657119 0
M  V30 16901 H 1597.79 2.74072 -1.30838 0
M  V30 16902 H 1595.38 1.31863 -0.702314 0
M  V30 16903 H 1597.26 4.15635 0.694686 0
M  V30 16904 H 1595.93 3.03784 1.11789 0
M  V30 16905 H 1594.84 3.56337 -1.13906 0
M  V30 16906 H 1596.17 4.69425 -1.47988 0
M  V30 16907 N 1597.83 0.703118 1.41046 0
M  V30 16908 C 1599.24 0.375417 1.55122 0
M  V30 16909 C 1599.44 -1.11696 1.67709 0
M  V30 16910 O 1598.5 -1.90289 1.65971 0
M  V30 16911 C 1599.81 1.13056 2.78638 0
M  V30 16912 C 1601.36 1.11564 2.92442 0
M  V30 16913 C 1601.83 1.85268 4.18855 0
M  V30 16914 N 1603.33 1.82275 4.25829 0
M  V30 16915 C 1604.06 2.36137 5.2252 0
M  V30 16916 N 1603.56 2.98502 6.25195 0
M  V30 16917 N 1605.35 2.26349 5.14512 0
M  V30 16918 H 1597.5 1.67096 1.31121 0
M  V30 16919 H 1599.76 0.705573 0.633144 0
M  V30 16920 H 1599.47 2.18524 2.75572 0
M  V30 16921 H 1599.34 0.714037 3.7038 0
M  V30 16922 H 1601.73 0.0691901 2.95019 0
M  V30 16923 H 1601.81 1.57128 2.01853 0
M  V30 16924 H 1601.46 2.89896 4.1704 0
M  V30 16925 H 1601.39 1.37133 5.08431 0
M  V30 16926 H 1603.88 1.36812 3.52265 0
M  V30 16927 H 1604.19 3.37149 6.95378 0
M  V30 16928 H 1602.53 3.02582 6.25675 0
M  V30 16929 H 1605.73 1.77294 4.33226 0
M  V30 16930 H 1605.9 2.68629 5.89697 0
M  V30 16931 N 1599.3 -1.51086 0.448402 0
M  V30 16932 C 1600.72 -1.86696 -0.0121264 0
M  V30 16933 C 1601.07 -1.36483 -1.40949 0
M  V30 16934 O 1600.19 -0.72024 -2.04062 0
M  V30 16935 C 1600.79 -3.38788 -0.0287814 0
M  V30 16936 C 1599.35 -3.73892 -0.433758 0
M  V30 16937 C 1598.49 -2.74869 0.366362 0
M  V30 16938 H 1601.44 -1.44153 0.663744 0
M  V30 16939 H 1601.46 -3.71204 -0.835915 0
M  V30 16940 H 1600.98 -3.75304 0.988368 0
M  V30 16941 H 1599.08 -3.4297 -1.4561 0
M  V30 16942 H 1599.19 -4.78862 -0.150869 0
M  V30 16943 H 1597.55 -2.54085 -0.176862 0
M  V30 16944 H 1598.34 -3.14228 1.3826 0
M  V30 16945 N 1600.78 -0.180154 -1.56567 0
M  V30 16946 C 1602.01 0.471692 -2.01965 0
M  V30 16947 C 1602.43 1.5542 -1.05954 0
M  V30 16948 O 1601.79 1.81255 -0.0405307 0
M  V30 16949 C 1601.84 1.01883 -3.45908 0
M  V30 16950 O 1600.94 2.13245 -3.52988 0
M  V30 16951 H 1600.28 0.11197 -0.654491 0
M  V30 16952 H 1602.81 -0.286642 -2.02582 0
M  V30 16953 H 1602.82 1.33922 -3.85395 0
M  V30 16954 H 1601.5 0.226299 -4.15284 0
M  V30 16955 H 1600.08 1.82184 -3.25367 0
M  V30 16956 N 1602.26 1.57322 0.0935319 0
M  V30 16957 C 1603.51 1.86167 0.796739 0
M  V30 16958 C 1603.84 0.768893 1.78657 0
M  V30 16959 O 1603.09 -0.237358 1.94255 0
M  V30 16960 C 1603.39 3.21605 1.55901 0
M  V30 16961 C 1603.06 4.45256 0.711165 0
M  V30 16962 C 1601.72 4.78826 0.477442 0
M  V30 16963 C 1604.07 5.21058 0.121859 0
M  V30 16964 C 1601.4 5.85622 -0.355425 0
M  V30 16965 C 1603.75 6.28734 -0.69834 0
M  V30 16966 C 1602.41 6.60818 -0.94214 0
M  V30 16967 H 1601.68 0.681235 0.291547 0
M  V30 16968 H 1604.33 1.91412 0.0581736 0
M  V30 16969 H 1602.64 3.12052 2.36919 0
M  V30 16970 H 1604.33 3.41151 2.10753 0
M  V30 16971 H 1600.92 4.1897 0.903444 0
M  V30 16972 H 1605.11 4.95454 0.289588 0
M  V30 16973 H 1600.36 6.08891 -0.553277 0
M  V30 16974 H 1604.54 6.8664 -1.16183 0
M  V30 16975 H 1602.16 7.43401 -1.5893 0
M  V30 16976 N 1603.74 -0.364395 1.53329 0
M  V30 16977 C 1604.7 -1.42927 1.79178 0
M  V30 16978 C 1605.7 -1.4653 0.662235 0
M  V30 16979 O 1606.89 -1.4727 0.930442 0
M  V30 16980 C 1604.02 -2.82035 1.91492 0
M  V30 16981 H 1605.22 -1.21281 2.74283 0
M  V30 16982 H 1602.77 -0.597596 1.44425 0
M  V30 16983 H 1603.5 -3.08993 0.984579 0
M  V30 16984 H 1603.29 -2.80818 2.73649 0
M  V30 16985 H 1604.78 -3.59148 2.13078 0
M  V30 16986 N 1605.22 -1.44709 -0.62426 0
M  V30 16987 C 1606.15 -1.48097 -1.74928 0
M  V30 16988 C 1607.16 -0.373567 -1.58456 0
M  V30 16989 O 1608.35 -0.639699 -1.66644 0
M  V30 16990 C 1605.45 -1.30576 -3.12735 0
M  V30 16991 C 1604.62 -2.54688 -3.55602 0
M  V30 16992 C 1603.68 -2.31966 -4.72311 0
M  V30 16993 O 1602.71 -3.05492 -4.80274 0
M  V30 16994 N 1603.91 -1.35463 -5.64473 0
M  V30 16995 H 1606.68 -2.45086 -1.72491 0
M  V30 16996 H 1604.24 -1.40236 -0.809039 0
M  V30 16997 H 1606.23 -1.13212 -3.88542 0
M  V30 16998 H 1604.8 -0.419262 -3.09776 0
M  V30 16999 H 1604.02 -2.87282 -2.69931 0
M  V30 17000 H 1605.31 -3.37223 -3.80996 0
M  V30 17001 H 1604.7 -0.747509 -5.60739 0
M  V30 17002 H 1603.26 -1.24075 -6.39882 0
M  V30 17003 N 1606.69 0.865285 -1.31722 0
M  V30 17004 C 1607.94 1.6135 -1.21033 0
M  V30 17005 C 1608.26 1.94253 0.229141 0
M  V30 17006 O 1609.46 2.67613 0.457771 0
M  V30 17007 C 1607.92 2.90898 -2.11912 0
M  V30 17008 C 1607.53 2.6546 -3.60881 0
M  V30 17009 C 1609.27 3.68898 -2.10035 0
M  V30 17010 C 1607.18 3.90943 -4.43754 0
M  V30 17011 H 1606.11 0.605418 -0.449428 0
M  V30 17012 H 1608.76 0.956335 -1.56609 0
M  V30 17013 H 1607.14 3.58014 -1.69239 0
M  V30 17014 H 1608.31 2.06721 -4.11829 0
M  V30 17015 H 1606.63 2.00806 -3.64782 0
M  V30 17016 H 1609.23 4.61995 -2.69193 0
M  V30 17017 H 1609.57 4.01813 -1.08865 0
M  V30 17018 H 1610.1 3.08671 -2.50932 0
M  V30 17019 H 1606.84 3.63176 -5.45696 0
M  V30 17020 H 1606.36 4.49116 -3.97561 0
M  V30 17021 H 1608.04 4.58784 -4.56208 0
M  V30 17022 N 1608.17 1.14759 1.0802 0
M  V30 17023 C 1609.1 0.860977 2.17047 0
M  V30 17024 C 1610.08 -0.185652 1.69084 0
M  V30 17025 O 1611.27 -0.0414797 1.94156 0
M  V30 17026 C 1608.4 0.342018 3.45612 0
M  V30 17027 C 1607.35 1.32455 4.06989 0
M  V30 17028 C 1606.68 0.664721 5.30552 0
M  V30 17029 C 1607.98 2.68819 4.4781 0
M  V30 17030 H 1609.67 1.77269 2.4128 0
M  V30 17031 H 1607.22 0.853757 1.15961 0
M  V30 17032 H 1609.17 0.129093 4.21202 0
M  V30 17033 H 1607.9 -0.605138 3.20945 0
M  V30 17034 H 1606.55 1.52371 3.33435 0
M  V30 17035 H 1606.2 -0.288367 5.02173 0
M  V30 17036 H 1605.9 1.32036 5.72573 0
M  V30 17037 H 1607.43 0.461412 6.08854 0
M  V30 17038 H 1608.84 2.52787 5.14559 0
M  V30 17039 H 1607.24 3.30694 5.00761 0
M  V30 17040 H 1608.31 3.25398 3.59506 0
M  V30 17041 N 1609.65 -1.26251 0.943322 0
M  V30 17042 C 1610.9 -1.93939 0.592909 0
M  V30 17043 C 1611.23 -1.73814 -0.866155 0
M  V30 17044 O 1610.5 -1.07645 -1.61997 0
M  V30 17045 C 1610.79 -3.47653 0.938601 0
M  V30 17046 C 1610.64 -3.77053 2.45257 0
M  V30 17047 C 1611.96 -4.37736 0.455546 0
M  V30 17048 H 1609.08 -0.704367 0.21688 0
M  V30 17049 H 1611.72 -1.4908 1.17793 0
M  V30 17050 H 1609.87 -3.85992 0.440756 0
M  V30 17051 H 1611.54 -3.48417 3.0233 0
M  V30 17052 H 1609.79 -3.23055 2.89513 0
M  V30 17053 H 1610.46 -4.84506 2.64495 0
M  V30 17054 H 1612.93 -4.06635 0.882435 0
M  V30 17055 H 1611.81 -5.44075 0.72623 0
M  V30 17056 H 1612.07 -4.37377 -0.644508 0
M  V30 17057 N 1611.13 -0.710588 -1.40671 0
M  V30 17058 C 1612.35 -0.256007 -2.05814 0
M  V30 17059 C 1612.78 1.09178 -1.53173 0
M  V30 17060 O 1612.14 1.68665 -0.664977 0
M  V30 17061 C 1612.19 -0.240528 -3.59797 0
M  V30 17062 O 1611.29 0.779859 -4.04959 0
M  V30 17063 H 1610.63 -0.121326 -0.652822 0
M  V30 17064 H 1613.16 -0.969667 -1.80163 0
M  V30 17065 H 1613.17 -0.0765027 -4.07928 0
M  V30 17066 H 1611.85 -1.22411 -3.97478 0
M  V30 17067 H 1610.42 0.583965 -3.68299 0
M  V30 17068 N 1612.61 1.50847 -0.456408 0
M  V30 17069 C 1613.54 2.31077 0.335523 0
M  V30 17070 C 1614.52 1.37326 1.00377 0
M  V30 17071 O 1615.7 1.66247 1.00376 0
M  V30 17072 C 1612.83 3.16662 1.42627 0
M  V30 17073 C 1611.79 4.18846 0.88045 0
M  V30 17074 C 1611.11 4.93074 2.06838 0
M  V30 17075 C 1612.41 5.22208 -0.0982288 0
M  V30 17076 H 1614.11 2.97531 -0.334056 0
M  V30 17077 H 1611.65 1.43085 -0.162099 0
M  V30 17078 H 1613.61 3.71578 1.98765 0
M  V30 17079 H 1612.33 2.48066 2.12441 0
M  V30 17080 H 1610.99 3.65009 0.341147 0
M  V30 17081 H 1610.64 4.20963 2.75316 0
M  V30 17082 H 1610.34 5.62184 1.70947 0
M  V30 17083 H 1611.86 5.5082 2.63494 0
M  V30 17084 H 1613.28 5.72082 0.373481 0
M  V30 17085 H 1611.67 5.98954 -0.370674 0
M  V30 17086 H 1612.74 4.73859 -1.02887 0
M  V30 17087 N 1614.09 0.188454 1.56469 0
M  V30 17088 C 1615.03 -0.751822 2.20115 0
M  V30 17089 C 1616.03 -1.22476 1.1703 0
M  V30 17090 O 1617.23 -1.18843 1.3519 0
M  V30 17091 H 1613.61 -0.260778 0.705336 0
M  V30 17092 H 1615.58 -0.191249 2.97786 0
M  V30 17093 C 1614.33 -1.96365 2.86943 0
M  V30 17094 H 1613.65 -1.60879 3.66003 0
M  V30 17095 H 1615.09 -2.60007 3.34921 0
M  V30 17096 C 1613.55 -2.7982 1.87623 0
M  V30 17097 O 1614.08 -3.7753 1.37237 0
M  V30 17098 N 1612.29 -2.45179 1.55999 0
M  V30 17099 H 1611.83 -1.6578 1.97167 0
M  V30 17100 H 1611.79 -3.01302 0.898012 0
M  V30 17101 N 1615.56 -1.5737 -0.0851874 0
M  V30 17102 C 1616.98 -1.53425 -0.439651 0
M  V30 17103 C 1617.18 -0.906663 -1.7995 0
M  V30 17104 O 1616.24 -0.503414 -2.47431 0
M  V30 17105 C 1617.55 -2.9812 -0.393028 0
M  V30 17106 C 1619.1 -3.09387 -0.474175 0
M  V30 17107 C 1619.57 -4.55708 -0.457598 0
M  V30 17108 N 1621.06 -4.60294 -0.518065 0
M  V30 17109 C 1621.8 -5.70971 -0.527237 0
M  V30 17110 N 1621.29 -6.91051 -0.492023 0
M  V30 17111 N 1623.09 -5.59174 -0.572792 0
M  V30 17112 H 1615.24 -1.96538 0.805399 0
M  V30 17113 H 1617.5 -0.899 0.300836 0
M  V30 17114 H 1617.21 -3.47542 0.539204 0
M  V30 17115 H 1617.08 -3.57324 -1.20829 0
M  V30 17116 H 1619.47 -2.59948 -1.39683 0
M  V30 17117 H 1619.55 -2.53119 0.369411 0
M  V30 17118 H 1619.19 -5.05802 0.46115 0
M  V30 17119 H 1619.12 -5.09826 -1.31853 0
M  V30 17120 H 1621.61 -3.73875 -0.550072 0
M  V30 17121 H 1621.93 -7.71164 -0.502578 0
M  V30 17122 H 1620.27 -6.93483 -0.458917 0
M  V30 17123 H 1623.46 -4.64266 -0.597901 0
M  V30 17124 H 1623.64 -6.45431 -0.576471 0
M  V30 17125 N 1617.04 0.356258 -1.53521 0
M  V30 17126 C 1617.97 1.45965 -1.75413 0
M  V30 17127 C 1618.95 1.51015 -0.602774 0
M  V30 17128 O 1620.14 1.68925 -0.836459 0
M  V30 17129 C 1617.26 2.84276 -1.84132 0
M  V30 17130 C 1616.31 2.96909 -3.06182 0
M  V30 17131 S 1617.14 2.64695 -4.65507 0
M  V30 17132 C 1618.3 4.05138 -4.77089 0
M  V30 17133 H 1618.53 1.27176 -2.68726 0
M  V30 17134 H 1616.06 0.551163 -1.44227 0
M  V30 17135 H 1618.02 3.63965 -1.89842 0
M  V30 17136 H 1616.68 3.00369 -0.918542 0
M  V30 17137 H 1615.88 3.98226 -3.08921 0
M  V30 17138 H 1615.48 2.25154 -2.98633 0
M  V30 17139 H 1617.77 4.99502 -4.57717 0
M  V30 17140 H 1618.71 4.074 -5.79164 0
M  V30 17141 H 1619.12 3.92572 -4.05644 0
M  V30 17142 N 1618.52 1.45038 0.616577 0
M  V30 17143 C 1619.45 1.55858 1.73869 0
M  V30 17144 C 1620.43 0.410657 1.65069 0
M  V30 17145 O 1621.62 0.632652 1.83606 0
M  V30 17146 C 1618.75 1.51635 3.12448 0
M  V30 17147 C 1617.7 2.65053 3.36052 0
M  V30 17148 C 1617.03 2.45883 4.74811 0
M  V30 17149 C 1618.33 4.07121 3.27185 0
M  V30 17150 H 1620.02 2.49784 1.6507 0
M  V30 17151 H 1617.57 1.20216 0.792724 0
M  V30 17152 H 1619.52 1.57803 3.90738 0
M  V30 17153 H 1618.24 0.542342 3.22066 0
M  V30 17154 H 1616.9 2.58299 2.60149 0
M  V30 17155 H 1616.55 1.46641 4.8115 0
M  V30 17156 H 1616.25 3.21935 4.9156 0
M  V30 17157 H 1617.77 2.53892 5.55312 0
M  V30 17158 H 1619.19 4.15167 3.9536 0
M  V30 17159 H 1617.58 4.83491 3.55466 0
M  V30 17160 H 1618.65 4.29663 2.24762 0
M  V30 17161 N 1620 -0.858287 1.32179 0
M  V30 17162 C 1620.91 -1.99894 1.228 0
M  V30 17163 C 1621.92 -1.73417 0.142323 0
M  V30 17164 O 1623.1 -1.98114 0.362321 0
M  V30 17165 C 1620.16 -3.33495 0.947745 0
M  V30 17166 C 1619.23 -3.73217 2.12149 0
M  V30 17167 C 1618.46 -5.00443 1.85452 0
M  V30 17168 O 1618.68 -5.64828 0.79531 0
M  V30 17169 O 1617.62 -5.3721 2.71457 0
M  V30 17170 H 1621.44 -2.10742 2.18682 0
M  V30 17171 H 1619.03 -0.988385 1.12033 0
M  V30 17172 H 1620.91 -4.13585 0.807791 0
M  V30 17173 H 1619.58 -3.23694 0.019053 0
M  V30 17174 H 1618.49 -2.93718 2.3169 0
M  V30 17175 H 1619.82 -3.87659 3.03285 0
M  V30 17176 N 1621.48 -1.1533 -1.07409 0
M  V30 17177 C 1622.39 -0.863514 -2.1813 0
M  V30 17178 C 1623.4 0.159954 -1.73263 0
M  V30 17179 O 1624.58 -0.0139818 -2.01395 0
M  V30 17180 C 1621.64 -0.356271 -3.44865 0
M  V30 17181 C 1620.7 -1.44356 -4.04302 0
M  V30 17182 C 1619.94 -0.960429 -5.24987 0
M  V30 17183 O 1620.16 0.194227 -5.70069 0
M  V30 17184 O 1619.09 -1.74387 -5.76084 0
M  V30 17185 H 1622.92 -1.78909 -2.45408 0
M  V30 17186 H 1620.5 -0.932362 -1.16736 0
M  V30 17187 H 1622.39 -0.0798183 -4.21324 0
M  V30 17188 H 1621.06 0.541445 -3.1914 0
M  V30 17189 H 1619.97 -1.77361 -3.29384 0
M  V30 17190 H 1621.3 -2.31617 -4.34298 0
M  V30 17191 N 1622.95 1.25748 -0.950004 0
M  V30 17192 C 1624.37 1.45599 -0.653697 0
M  V30 17193 C 1624.57 1.85357 0.790245 0
M  V30 17194 O 1623.63 1.98071 1.56601 0
M  V30 17195 C 1624.94 2.5316 -1.62267 0
M  V30 17196 C 1626.49 2.67004 -1.63334 0
M  V30 17197 C 1626.96 3.77745 -2.58984 0
M  V30 17198 N 1628.45 3.8515 -2.57321 0
M  V30 17199 C 1629.19 4.70315 -3.28011 0
M  V30 17200 N 1628.68 5.59802 -4.08159 0
M  V30 17201 N 1630.48 4.64239 -3.16921 0
M  V30 17202 H 1622.63 0.982321 -1.88319 0
M  V30 17203 H 1624.89 0.492917 -0.809776 0
M  V30 17204 H 1624.6 2.30792 -2.65382 0
M  V30 17205 H 1624.47 3.50988 -1.38158 0
M  V30 17206 H 1626.86 2.88739 -0.609388 0
M  V30 17207 H 1626.94 1.69591 -1.915 0
M  V30 17208 H 1626.58 3.56761 -3.61502 0
M  V30 17209 H 1626.51 4.74633 -2.28103 0
M  V30 17210 H 1629 3.21178 -1.99131 0
M  V30 17211 H 1629.32 6.21701 -4.59029 0
M  V30 17212 H 1627.66 5.59525 -4.12258 0
M  V30 17213 H 1630.85 3.93335 -2.53782 0
M  V30 17214 H 1631.03 5.30389 -3.72279 0
M  V30 17215 N 1624.43 0.718038 1.40292 0
M  V30 17216 C 1625.38 0.0670495 2.30703 0
M  V30 17217 C 1626.35 -0.747716 1.48319 0
M  V30 17218 O 1627.53 -0.711161 1.77051 0
M  V30 17219 C 1624.67 -0.846918 3.34546 0
M  V30 17220 C 1623.79 -0.0213622 4.31995 0
M  V30 17221 C 1622.92 -0.935035 5.22906 0
M  V30 17222 C 1621.96 -0.103715 6.12012 0
M  V30 17223 N 1621.1 -0.972397 6.95334 0
M  V30 17224 H 1625.94 0.843724 2.85806 0
M  V30 17225 H 1623.47 0.427756 1.40743 0
M  V30 17226 H 1625.43 -1.39109 3.93325 0
M  V30 17227 H 1624.06 -1.58975 2.80939 0
M  V30 17228 H 1623.11 0.640026 3.74977 0
M  V30 17229 H 1624.43 0.62215 4.94905 0
M  V30 17230 H 1623.58 -1.54766 5.86628 0
M  V30 17231 H 1622.32 -1.61236 4.60276 0
M  V30 17232 H 1621.32 0.521826 5.47318 0
M  V30 17233 H 1622.55 0.570146 6.76702 0
M  V30 17234 H 1620.5 -1.63533 6.3529 0
M  V30 17235 H 1620.41 -0.384977 7.55019 0
M  V30 17236 H 1621.68 -1.57112 7.63503 0
M  V30 17237 N 1625.91 -1.50602 0.464402 0
M  V30 17238 C 1627.14 -2.06701 -0.0907765 0
M  V30 17239 C 1627.55 -1.32901 -1.341 0
M  V30 17240 O 1626.91 -0.396323 -1.78145 0
M  V30 17241 C 1626.96 -3.59437 -0.385667 0
M  V30 17242 O 1626.68 -4.30453 0.81496 0
M  V30 17243 C 1628.18 -4.32137 -0.988549 0
M  V30 17244 H 1625.4 -0.670987 0.00410069 0
M  V30 17245 H 1627.95 -1.93853 0.651264 0
M  V30 17246 H 1626.1 -3.7211 -1.07763 0
M  V30 17247 H 1626.52 -5.2155 0.55551 0
M  V30 17248 H 1627.99 -5.40001 -1.1447 0
M  V30 17249 H 1628.47 -3.92194 -1.97688 0
M  V30 17250 H 1629.07 -4.23977 -0.335166 0
M  V30 17251 N 1627.39 -0.19675 -1.56367 0
M  V30 17252 C 1628.62 0.446491 -2.01718 0
M  V30 17253 C 1629.03 1.55621 -1.07604 0
M  V30 17254 O 1628.37 1.83553 -0.0733943 0
M  V30 17255 C 1628.43 1.06182 -3.43461 0
M  V30 17256 C 1628.1 0.0906278 -4.5691 0
M  V30 17257 C 1629.09 -0.700599 -5.15158 0
M  V30 17258 C 1626.78 -0.0209341 -5.02296 0
M  V30 17259 C 1628.77 -1.59034 -6.17241 0
M  V30 17260 C 1626.46 -0.91423 -6.04223 0
M  V30 17261 C 1627.46 -1.6975 -6.61569 0
M  V30 17262 O 1627.14 -2.57582 -7.61516 0
M  V30 17263 H 1626.88 0.116254 -0.665929 0
M  V30 17264 H 1629.43 -0.303224 -2.03149 0
M  V30 17265 H 1627.66 1.86015 -3.39021 0
M  V30 17266 H 1629.35 1.60988 -3.72609 0
M  V30 17267 H 1630.12 -0.624723 -4.8096 0
M  V30 17268 H 1625.99 0.578557 -4.57355 0
M  V30 17269 H 1629.54 -2.20215 -6.6193 0
M  V30 17270 H 1625.44 -0.991215 -6.37844 0
M  V30 17271 H 1626.2 -2.5138 -7.78942 0
M  V30 17272 N 1628.87 1.57413 0.0768405 0
M  V30 17273 C 1630.11 1.87279 0.778099 0
M  V30 17274 C 1630.45 0.788359 1.77478 0
M  V30 17275 O 1629.72 -0.201876 1.9345 0
M  V30 17276 C 1630 3.27801 1.49059 0
M  V30 17277 C 1629.86 4.46892 0.510661 0
M  V30 17278 C 1631.18 3.66485 2.43674 0
M  V30 17279 H 1628.29 0.681159 0.281409 0
M  V30 17280 H 1630.94 1.89955 0.0413711 0
M  V30 17281 H 1629.09 3.2565 2.11859 0
M  V30 17282 H 1630.76 4.61165 -0.111734 0
M  V30 17283 H 1629 4.33449 -0.174445 0
M  V30 17284 H 1629.67 5.41985 1.04671 0
M  V30 17285 H 1632.15 3.69696 1.90955 0
M  V30 17286 H 1631.02 4.65706 2.90533 0
M  V30 17287 H 1631.29 2.96145 3.28254 0
M  V30 17288 N 1630.34 -0.348112 1.53707 0
M  V30 17289 C 1631.29 -1.44755 1.82068 0
M  V30 17290 C 1632.29 -1.54672 0.690865 0
M  V30 17291 O 1633.49 -1.5735 0.874123 0
M  V30 17292 H 1629.87 -0.482562 0.576747 0
M  V30 17293 H 1631.84 -1.18047 2.74058 0
M  V30 17294 C 1630.59 -2.81345 2.04305 0
M  V30 17295 H 1629.91 -2.74479 2.90691 0
M  V30 17296 H 1631.35 -3.57405 2.28117 0
M  V30 17297 C 1629.81 -3.26586 0.827224 0
M  V30 17298 O 1630.34 -4.01693 0.0244098 0
M  V30 17299 N 1628.55 -2.83335 0.645731 0
M  V30 17300 H 1628.09 -2.22379 1.3002 0
M  V30 17301 H 1628.05 -3.1396 -0.166313 0
M  V30 17302 N 1631.82 -1.45363 -0.608876 0
M  V30 17303 C 1633.05 -1.52836 -1.39459 0
M  V30 17304 C 1633.47 -0.160537 -1.88116 0
M  V30 17305 O 1632.82 0.837671 -1.6214 0
M  V30 17306 C 1632.87 -2.51168 -2.59994 0
M  V30 17307 O 1632.59 -3.82635 -2.13359 0
M  V30 17308 C 1634.1 -2.68326 -3.52868 0
M  V30 17309 H 1631.32 -0.51765 -0.426942 0
M  V30 17310 H 1633.86 -1.90538 -0.742674 0
M  V30 17311 H 1632.01 -2.16542 -3.2123 0
M  V30 17312 H 1632.43 -4.35927 -2.91665 0
M  V30 17313 H 1633.9 -3.41109 -4.33992 0
M  V30 17314 H 1634.38 -1.74317 -4.03126 0
M  V30 17315 H 1634.99 -3.03943 -2.97487 0
M  V30 17316 N 1633.3 0.851265 -1.32632 0
M  V30 17317 C 1634.53 1.63805 -1.26394 0
M  V30 17318 C 1634.94 1.88056 0.167454 0
M  V30 17319 O 1634.3 1.45196 1.10564 0
M  V30 17320 C 1634.35 2.9954 -2.02381 0
M  V30 17321 O 1634.07 2.76361 -3.39935 0
M  V30 17322 C 1635.57 3.93982 -2.03207 0
M  V30 17323 H 1632.79 0.510088 -0.435948 0
M  V30 17324 H 1635.34 1.06123 -1.74809 0
M  V30 17325 H 1633.49 3.53859 -1.5768 0
M  V30 17326 H 1633.91 3.62708 -3.78871 0
M  V30 17327 H 1635.38 4.86478 -2.60851 0
M  V30 17328 H 1635.86 4.27211 -1.01918 0
M  V30 17329 H 1636.46 3.45601 -2.47871 0
M  V30 17330 N 1634.78 1.15898 1.06796 0
M  V30 17331 C 1635.71 0.88395 2.16122 0
M  V30 17332 C 1636.69 -0.167708 1.69271 0
M  V30 17333 O 1637.87 -0.0208846 1.94189 0
M  V30 17334 C 1635 0.378656 3.4523 0
M  V30 17335 C 1633.96 1.36764 4.05561 0
M  V30 17336 C 1633.28 0.720956 5.29817 0
M  V30 17337 C 1634.58 2.73554 4.44933 0
M  V30 17338 H 1636.28 1.79818 2.39386 0
M  V30 17339 H 1633.82 0.866008 1.15049 0
M  V30 17340 H 1635.78 0.17376 4.21042 0
M  V30 17341 H 1634.5 -0.571063 3.21569 0
M  V30 17342 H 1633.16 1.55899 3.318 0
M  V30 17343 H 1632.81 -0.235089 5.0245 0
M  V30 17344 H 1632.51 1.38101 5.71141 0
M  V30 17345 H 1634.03 0.525963 6.0833 0
M  V30 17346 H 1635.45 2.58231 5.11849 0
M  V30 17347 H 1633.84 3.35986 4.97226 0
M  V30 17348 H 1634.91 3.29192 3.56034 0
M  V30 17349 N 1636.26 -1.25243 0.956659 0
M  V30 17350 C 1637.49 -1.96796 0.628878 0
M  V30 17351 C 1637.89 -1.71284 -0.803648 0
M  V30 17352 O 1637.24 -0.986812 -1.54944 0
M  V30 17353 C 1637.3 -3.50253 0.810132 0
M  V30 17354 C 1636.96 -3.99445 2.2202 0
M  V30 17355 C 1637.96 -4.09982 3.19704 0
M  V30 17356 C 1635.65 -4.33057 2.54493 0
M  V30 17357 C 1637.64 -4.53449 4.47954 0
M  V30 17358 C 1635.33 -4.7621 3.82972 0
M  V30 17359 C 1636.32 -4.86369 4.79515 0
M  V30 17360 O 1636.01 -5.28563 6.05703 0
M  V30 17361 H 1635.74 -0.634013 0.234529 0
M  V30 17362 H 1638.3 -1.60318 1.28402 0
M  V30 17363 H 1636.53 -3.86576 0.0978322 0
M  V30 17364 H 1638.22 -4.03015 0.483099 0
M  V30 17365 H 1638.98 -3.84243 2.95943 0
M  V30 17366 H 1634.86 -4.24375 1.80075 0
M  V30 17367 H 1638.41 -4.61294 5.23311 0
M  V30 17368 H 1634.3 -5.01394 4.06539 0
M  V30 17369 H 1635.07 -5.46744 6.09109 0
M  V30 17370 N 1637.73 -0.725468 -1.3991 0
M  V30 17371 C 1638.64 -0.0805887 -2.34462 0
M  V30 17372 C 1639.66 0.732689 -1.57822 0
M  V30 17373 O 1640.84 0.663362 -1.90162 0
M  V30 17374 C 1637.9 0.822908 -3.36792 0
M  V30 17375 C 1636.96 -0.00153812 -4.293 0
M  V30 17376 C 1636.2 0.85893 -5.26743 0
M  V30 17377 O 1636.42 2.09793 -5.30418 0
M  V30 17378 O 1635.35 0.292659 -6.01188 0
M  V30 17379 H 1639.18 -0.860746 -2.91247 0
M  V30 17380 H 1636.76 -0.48604 -1.41273 0
M  V30 17381 H 1638.65 1.34014 -3.99522 0
M  V30 17382 H 1637.32 1.58204 -2.82406 0
M  V30 17383 H 1636.23 -0.564072 -3.69823 0
M  V30 17384 H 1637.56 -0.722675 -4.86866 0
M  V30 17385 N 1639.21 1.50354 -0.472382 0
M  V30 17386 C 1640.16 2.28555 0.321118 0
M  V30 17387 C 1641.13 1.33665 0.98605 0
M  V30 17388 O 1642.31 1.62603 0.998239 0
M  V30 17389 C 1639.45 3.15586 1.39641 0
M  V30 17390 C 1638.57 4.25508 0.746129 0
M  V30 17391 C 1637.7 4.99794 1.79943 0
M  V30 17392 C 1636.74 6.01589 1.12946 0
M  V30 17393 N 1635.88 6.69149 2.12567 0
M  V30 17394 H 1640.72 2.95913 -0.352051 0
M  V30 17395 H 1638.26 1.45926 -0.185461 0
M  V30 17396 H 1640.21 3.64397 2.03152 0
M  V30 17397 H 1638.84 2.50271 2.03873 0
M  V30 17398 H 1637.9 3.804 -0.00157718 0
M  V30 17399 H 1639.21 4.98326 0.217335 0
M  V30 17400 H 1638.36 5.5233 2.51031 0
M  V30 17401 H 1637.1 4.26684 2.36203 0
M  V30 17402 H 1636.11 5.48312 0.404207 0
M  V30 17403 H 1637.33 6.76672 0.573735 0
M  V30 17404 H 1635.28 5.9883 2.67841 0
M  V30 17405 H 1635.19 7.37847 1.64676 0
M  V30 17406 H 1636.46 7.26301 2.83031 0
M  V30 17407 N 1640.69 0.205039 1.56261 0
M  V30 17408 C 1641.94 -0.431097 1.97858 0
M  V30 17409 C 1642.27 -1.60937 1.09223 0
M  V30 17410 O 1641.52 -1.95244 0.133495 0
M  V30 17411 C 1641.82 -0.924086 3.45247 0
M  V30 17412 C 1641.49 0.141879 4.50677 0
M  V30 17413 C 1640.15 0.434753 4.79232 0
M  V30 17414 C 1642.5 0.863645 5.13995 0
M  V30 17415 C 1639.83 1.4542 5.68392 0
M  V30 17416 C 1642.18 1.87231 6.04258 0
M  V30 17417 C 1640.84 2.17227 6.31164 0
M  V30 17418 H 1640.11 -0.157749 0.724014 0
M  V30 17419 H 1642.76 0.304094 1.8907 0
M  V30 17420 H 1641.07 -1.73774 3.51155 0
M  V30 17421 H 1642.76 -1.42586 3.74794 0
M  V30 17422 H 1639.35 -0.0965514 4.28491 0
M  V30 17423 H 1643.54 0.650612 4.92017 0
M  V30 17424 H 1638.79 1.69241 5.8751 0
M  V30 17425 H 1642.97 2.43675 6.52377 0
M  V30 17426 H 1640.59 2.96366 7.00051 0
M  V30 17427 N 1642.17 -1.57451 -0.0684915 0
M  V30 17428 C 1643.4 -1.9164 -0.779855 0
M  V30 17429 C 1643.81 -0.801309 -1.70952 0
M  V30 17430 O 1643.17 0.225134 -1.81106 0
M  V30 17431 C 1643.22 -3.25594 -1.57068 0
M  V30 17432 O 1642.94 -4.32816 -0.678385 0
M  V30 17433 C 1644.44 -3.73818 -2.38275 0
M  V30 17434 H 1641.66 -0.633374 -0.221537 0
M  V30 17435 H 1644.21 -2.04465 -0.0377746 0
M  V30 17436 H 1642.36 -3.14287 -2.26501 0
M  V30 17437 H 1642.78 -5.09903 -1.22877 0
M  V30 17438 H 1644.25 -4.70168 -2.89216 0
M  V30 17439 H 1644.73 -3.02995 -3.17947 0
M  V30 17440 H 1645.33 -3.88081 -1.73992 0
M  V30 17441 N 1643.65 0.339955 -1.5389 0
M  V30 17442 C 1644.88 1.09816 -1.74997 0
M  V30 17443 C 1645.29 1.82725 -0.490746 0
M  V30 17444 O 1644.63 1.75352 0.547467 0
M  V30 17445 C 1644.69 2.15388 -2.87834 0
M  V30 17446 C 1644.35 1.62022 -4.27315 0
M  V30 17447 C 1645.35 1.07064 -5.08757 0
M  V30 17448 C 1643.04 1.6676 -4.7381 0
M  V30 17449 C 1645.03 0.575529 -6.34796 0
M  V30 17450 C 1642.72 1.16861 -5.99822 0
M  V30 17451 C 1643.72 0.623505 -6.80148 0
M  V30 17452 O 1643.4 0.131966 -8.03792 0
M  V30 17453 H 1643.14 0.333199 -0.588179 0
M  V30 17454 H 1645.69 0.39682 -2.0153 0
M  V30 17455 H 1643.92 2.89091 -2.56834 0
M  V30 17456 H 1645.61 2.76801 -2.96877 0
M  V30 17457 H 1646.37 1.02723 -4.73997 0
M  V30 17458 H 1642.25 2.08129 -4.11343 0
M  V30 17459 H 1645.8 0.149389 -6.9744 0
M  V30 17460 H 1641.69 1.20904 -6.34076 0
M  V30 17461 H 1642.46 0.24892 -8.18121 0
M  V30 17462 N 1645.13 1.45684 0.601159 0
M  V30 17463 C 1646.09 1.54451 1.69344 0
M  V30 17464 C 1647.09 0.423379 1.55126 0
M  V30 17465 O 1648.28 0.687079 1.60078 0
M  V30 17466 C 1645.41 1.4472 3.08657 0
M  V30 17467 H 1646.6 2.51778 1.62935 0
M  V30 17468 H 1644.16 1.3322 0.81744 0
M  V30 17469 H 1644.89 0.486027 3.20637 0
M  V30 17470 H 1644.68 2.26045 3.20384 0
M  V30 17471 H 1646.17 1.53902 3.88206 0
M  V30 17472 N 1646.6 -0.84422 1.33082 0
M  V30 17473 C 1647.85 -1.59596 1.2399 0
M  V30 17474 C 1648.17 -1.94016 -0.19566 0
M  V30 17475 O 1647.44 -1.60512 -1.12306 0
M  V30 17476 H 1646.02 -0.591727 0.455926 0
M  V30 17477 H 1648.68 -1.00924 1.66735 0
M  V30 17478 H 1647.78 -2.52829 1.82986 0
M  V30 17479 N 1648.08 -1.16463 -1.0618 0
M  V30 17480 C 1649.33 -0.941322 -1.78387 0
M  V30 17481 C 1649.64 0.531995 -1.88226 0
M  V30 17482 O 1650.85 0.873227 -2.57074 0
M  V30 17483 C 1649.31 -1.63491 -3.20623 0
M  V30 17484 C 1648.91 -3.14607 -3.18946 0
M  V30 17485 C 1650.66 -1.49361 -3.97356 0
M  V30 17486 C 1648.56 -3.76698 -4.55908 0
M  V30 17487 H 1647.49 -0.348549 -0.668603 0
M  V30 17488 H 1650.15 -1.39607 -1.19088 0
M  V30 17489 H 1648.53 -1.10787 -3.80187 0
M  V30 17490 H 1649.7 -3.74164 -2.68957 0
M  V30 17491 H 1648.02 -3.28634 -2.55712 0
M  V30 17492 H 1650.61 -1.93131 -4.98603 0
M  V30 17493 H 1650.96 -0.442724 -4.13939 0
M  V30 17494 H 1651.49 -1.99227 -3.44316 0
M  V30 17495 H 1648.23 -4.8174 -4.4453 0
M  V30 17496 H 1647.75 -3.21927 -5.06086 0
M  V30 17497 H 1649.43 -3.78321 -5.24864 0
M  V30 17498 N 1649.56 1.24734 -0.963288 0
M  V30 17499 C 1650.84 1.88004 -0.539809 0
M  V30 17500 C 1651.22 1.86814 0.983035 0
M  V30 17501 O 1650.56 1.33769 1.85251 0
M  V30 17502 C 1650.77 3.30326 -1.1263 0
M  V30 17503 C 1652.12 4.07039 -1.20848 0
M  V30 17504 O 1653.15 3.3948 -1.07849 0
M  V30 17505 O 1652.01 5.27906 -1.41342 0
M  V30 17506 H 1649.1 0.807318 -0.17935 0
M  V30 17507 H 1651.65 1.3274 -1.05727 0
M  V30 17508 H 1650.42 3.25668 -2.16925 0
M  V30 17509 H 1650.04 3.93159 -0.592614 0
M  V30 17510 N 1651.04 0.732878 1.39523 0
M  V30 17511 C 1652.28 0.284541 2.0241 0
M  V30 17512 C 1652.64 -1.10672 1.56894 0
M  V30 17513 O 1653.84 -1.65302 2.11964 0
M  V30 17514 C 1652.11 0.380486 3.55369 0
M  V30 17515 S 1653.67 0.0116789 4.38798 0
M  V30 17516 H 1650.49 0.111634 0.702182 0
M  V30 17517 H 1653.09 0.958924 1.70367 0
M  V30 17518 H 1651.8 1.39437 3.85986 0
M  V30 17519 H 1651.33 -0.31179 3.92163 0
M  V30 17520 H 1653.34 -1.20519 4.81341 0
M  V30 17521 N 1652.52 -1.50101 0.480349 0
M  V30 17522 C 1653.74 -2.07278 -0.0710872 0
M  V30 17523 C 1654.17 -1.34082 -1.31923 0
M  V30 17524 O 1653.52 -0.391251 -1.77028 0
M  V30 17525 C 1653.57 -3.59099 -0.328706 0
M  V30 17526 O 1652.68 -3.8764 -1.40745 0
M  V30 17527 H 1652.02 -0.66378 0.0170748 0
M  V30 17528 H 1654.55 -1.93178 0.674049 0
M  V30 17529 H 1654.56 -4.04049 -0.566435 0
M  V30 17530 H 1653.23 -4.11789 0.583316 0
M  V30 17531 H 1651.81 -3.54519 -1.15631 0
M  V30 17532 N 1653.99 -0.213323 -1.5615 0
M  V30 17533 C 1654.96 0.686579 -2.18675 0
M  V30 17534 C 1655.96 1.1277 -1.14628 0
M  V30 17535 O 1657.15 1.03783 -1.39909 0
M  V30 17536 C 1654.28 1.93954 -2.80347 0
M  V30 17537 H 1655.47 0.141578 -2.99566 0
M  V30 17538 H 1653.02 0.0362987 -1.56258 0
M  V30 17539 H 1653.76 2.52661 -2.03304 0
M  V30 17540 H 1653.54 1.63179 -3.56532 0
M  V30 17541 H 1655.03 2.58087 -3.283 0
M  V30 17542 N 1655.47 1.57485 0.0601405 0
M  V30 17543 C 1656.38 2.07853 1.08785 0
M  V30 17544 C 1657.4 1.01047 1.41653 0
M  V30 17545 O 1658.57 1.32592 1.51596 0
M  V30 17546 C 1655.64 2.52214 2.37885 0
M  V30 17547 C 1654.7 3.73369 2.11882 0
M  V30 17548 C 1653.93 4.15604 3.34827 0
M  V30 17549 O 1654.16 3.5761 4.44377 0
M  V30 17550 O 1653.09 5.08303 3.22353 0
M  V30 17551 H 1656.92 2.9576 0.689912 0
M  V30 17552 H 1654.5 1.46846 0.275065 0
M  V30 17553 H 1656.38 2.81216 3.1384 0
M  V30 17554 H 1655.06 1.67432 2.77035 0
M  V30 17555 H 1653.97 3.49433 1.33594 0
M  V30 17556 H 1655.3 4.59039 1.77606 0
M  V30 17557 N 1656.95 -0.331789 1.54068 0
M  V30 17558 C 1657.86 -1.43116 1.8589 0
M  V30 17559 C 1658.88 -1.57003 0.75007 0
M  V30 17560 O 1660.05 -1.72256 1.04355 0
M  V30 17561 C 1657.12 -2.77945 2.07238 0
M  V30 17562 C 1656.18 -2.73303 3.31065 0
M  V30 17563 C 1655.41 -4.01702 3.51385 0
M  V30 17564 O 1655.63 -4.99562 2.75306 0
M  V30 17565 O 1654.57 -4.0546 4.44844 0
M  V30 17566 H 1658.39 -1.19137 2.79357 0
M  V30 17567 H 1655.98 -0.525057 1.3987 0
M  V30 17568 H 1657.86 -3.57774 2.22656 0
M  V30 17569 H 1656.54 -3.01831 1.16959 0
M  V30 17570 H 1655.44 -1.92054 3.21039 0
M  V30 17571 H 1656.78 -2.54371 4.21374 0
M  V30 17572 N 1658.43 -1.46001 -0.593424 0
M  V30 17573 C 1659.39 -1.55347 -1.68523 0
M  V30 17574 C 1660.39 -0.431599 -1.549 0
M  V30 17575 O 1661.58 -0.695559 -1.59711 0
M  V30 17576 C 1658.71 -1.46355 -3.07885 0
M  V30 17577 H 1659.91 -2.52639 -1.61597 0
M  V30 17578 H 1657.46 -1.33652 -0.810363 0
M  V30 17579 H 1658.19 -0.503024 -3.20375 0
M  V30 17580 H 1657.98 -2.27741 -3.19181 0
M  V30 17581 H 1659.47 -1.55958 -3.87385 0
M  V30 17582 N 1659.91 0.83715 -1.33527 0
M  V30 17583 C 1660.87 1.92865 -1.23837 0
M  V30 17584 C 1661.87 1.60032 -0.157005 0
M  V30 17585 O 1663.06 1.69339 -0.408654 0
M  V30 17586 C 1660.19 3.28568 -0.908617 0
M  V30 17587 H 1661.38 2.02883 -2.20859 0
M  V30 17588 H 1658.94 1.02944 -1.1761 0
M  V30 17589 H 1659.67 3.24246 0.0590328 0
M  V30 17590 H 1659.46 3.53779 -1.69064 0
M  V30 17591 H 1660.95 4.0853 -0.86561 0
M  V30 17592 O 1661.42 1.28743 0.975066 0
M  V30 17593 H 1662.11 1.09146 1.60021 0
M  V30 END ATOM
M  V30 BEGIN BOND
M  V30 END BOND
M  V30 END CTAB
M  END
$$$$
