drugbank_target|P35089 Light-harvesting protein B-800/820 alpha chain (DB04464)
 OpenBabel12092120433D

808819  0  0  0  0  0  0  0  0999 V2000
   -0.9080    1.9825   -0.1171 H   0  0  0  0  0 15  0  0  0  0  0  0
    0.0000    1.5760    0.0000 N   0  0  0  0  0 15  0  0  0  0  0  0
    0.9330    2.0387    1.0253 C   0  0  0  0  0 15  0  0  0  0  0  0
    1.9110    0.9285    1.3348 C   0  0  0  0  0 15  0  0  0  0  0  0
    3.0950    1.1967    1.4564 O   0  0  0  0  0 15  0  0  0  0  0  0
    0.2220    2.4363    2.3529 C   0  0  0  0  0 15  0  0  0  0  0  0
   -0.7320    3.6537    2.2001 C   0  0  0  0  0 15  0  0  0  0  0  0
    0.1010    5.1329    1.5261 S   0  0  0  0  0 15  0  0  0  0  0  0
    1.2570    5.5632    2.8680 C   0  0  0  0  0 15  0  0  0  0  0  0
    1.4900    2.9052    0.6314 H   0  0  0  0  0 15  0  0  0  0  0  0
   -0.9770    1.5295    0.2109 H   0  0  0  0  0 15  0  0  0  0  0  0
    0.9810    2.6720    3.1163 H   0  0  0  0  0 15  0  0  0  0  0  0
   -0.3580    1.5738    2.7183 H   0  0  0  0  0 15  0  0  0  0  0  0
   -1.1650    3.9094    3.1809 H   0  0  0  0  0 15  0  0  0  0  0  0
   -1.5630    3.4180    1.5182 H   0  0  0  0  0 15  0  0  0  0  0  0
    0.7290    5.5878    3.8310 H   0  0  0  0  0 15  0  0  0  0  0  0
    1.6720    6.5627    2.6593 H   0  0  0  0  0 15  0  0  0  0  0  0
    2.0800    4.8389    2.9071 H   0  0  0  0  0 15  0  0  0  0  0  0
    1.4781   -0.2728    1.5522 N   0  0  0  0  0 15  0  0  0  0  0  0
    2.4261   -1.3571    1.8891 C   0  0  0  0  0 15  0  0  0  0  0  0
    3.4201   -1.5112    0.7655 C   0  0  0  0  0 15  0  0  0  0  0  0
    4.6261   -1.5290    0.9498 O   0  0  0  0  0 15  0  0  0  0  0  0
    1.0011   -0.4539    0.5996 H   0  0  0  0  0 15  0  0  0  0  0  0
    2.9721   -1.0454    2.7949 H   0  0  0  0  0 15  0  0  0  0  0  0
    1.7211   -2.7105    2.1778 C   0  0  0  0  0 15  0  0  0  0  0  0
    1.0441   -2.5998    3.0373 H   0  0  0  0  0 15  0  0  0  0  0  0
    2.4841   -3.4586    2.4527 H   0  0  0  0  0 15  0  0  0  0  0  0
    0.9431   -3.2216    0.9855 C   0  0  0  0  0 15  0  0  0  0  0  0
    1.4731   -4.0110    0.2202 O   0  0  0  0  0 15  0  0  0  0  0  0
   -0.3209   -2.7985    0.7831 N   0  0  0  0  0 15  0  0  0  0  0  0
   -0.7739   -2.1578    1.4071 H   0  0  0  0  0 15  0  0  0  0  0  0
   -0.8159   -3.1440   -0.0130 H   0  0  0  0  0 15  0  0  0  0  0  0
    2.9562   -1.4816   -0.5373 N   0  0  0  0  0 15  0  0  0  0  0  0
    3.8882   -1.5822   -1.6583 C   0  0  0  0  0 15  0  0  0  0  0  0
    4.9012   -0.4669   -1.5596 C   0  0  0  0  0 15  0  0  0  0  0  0
    6.0902   -0.7375   -1.6255 O   0  0  0  0  0 15  0  0  0  0  0  0
    3.1902   -1.4891   -3.0443 C   0  0  0  0  0 15  0  0  0  0  0  0
    2.3632   -2.7534   -3.3986 C   0  0  0  0  0 15  0  0  0  0  0  0
    1.4222   -2.5959   -4.5771 C   0  0  0  0  0 15  0  0  0  0  0  0
    0.4482   -3.3346   -4.6130 O   0  0  0  0  0 15  0  0  0  0  0  0
    1.6502   -1.6872   -5.5544 N   0  0  0  0  0 15  0  0  0  0  0  0
    4.4152   -2.5489   -1.5764 H   0  0  0  0  0 15  0  0  0  0  0  0
    1.9762   -1.4479   -0.7244 H   0  0  0  0  0 15  0  0  0  0  0  0
    3.9682   -1.3607   -3.8114 H   0  0  0  0  0 15  0  0  0  0  0  0
    2.5382   -0.6024   -3.0674 H   0  0  0  0  0 15  0  0  0  0  0  0
    1.7582   -3.0280   -2.5241 H   0  0  0  0  0 15  0  0  0  0  0  0
    3.0462   -3.5924   -3.6031 H   0  0  0  0  0 15  0  0  0  0  0  0
    2.4442   -1.0790   -5.5531 H   0  0  0  0  0 15  0  0  0  0  0  0
    1.0012   -1.6183   -6.3139 H   0  0  0  0  0 15  0  0  0  0  0  0
    4.4343    0.7856   -1.3662 N   0  0  0  0  0 15  0  0  0  0  0  0
    5.6823    1.5406   -1.3081 C   0  0  0  0  0 15  0  0  0  0  0  0
    6.0033    1.9468    0.1112 C   0  0  0  0  0 15  0  0  0  0  0  0
    5.2733    1.6524    1.0522 O   0  0  0  0  0 15  0  0  0  0  0  0
    3.8533    0.5714   -0.4812 H   0  0  0  0  0 15  0  0  0  0  0  0
    6.5153    0.9358   -1.7096 H   0  0  0  0  0 15  0  0  0  0  0  0
    5.6113    2.4464   -1.9380 H   0  0  0  0  0 15  0  0  0  0  0  0
    5.9124    1.2097    1.0102 N   0  0  0  0  0 15  0  0  0  0  0  0
    6.8594    0.9643    2.0969 C   0  0  0  0  0 15  0  0  0  0  0  0
    7.8294   -0.1079    1.6575 C   0  0  0  0  0 15  0  0  0  0  0  0
    9.0144    0.0382    1.9076 O   0  0  0  0  0 15  0  0  0  0  0  0
    6.1544    0.5294    3.4101 C   0  0  0  0  0 15  0  0  0  0  0  0
    5.2674    1.6704    3.9840 C   0  0  0  0  0 15  0  0  0  0  0  0
    4.4024    1.1853    5.1781 C   0  0  0  0  0 15  0  0  0  0  0  0
    3.4414    2.2989    5.6729 C   0  0  0  0  0 15  0  0  0  0  0  0
    2.5784    1.8255    6.7795 N   0  0  0  0  0 15  0  0  0  0  0  0
    7.4184    1.8946    2.3002 H   0  0  0  0  0 15  0  0  0  0  0  0
    4.9554    0.9443    1.1279 H   0  0  0  0  0 15  0  0  0  0  0  0
    6.9134    0.2586    4.1640 H   0  0  0  0  0 15  0  0  0  0  0  0
    5.5434   -0.3639    3.2074 H   0  0  0  0  0 15  0  0  0  0  0  0
    4.5954    2.0560    3.2005 H   0  0  0  0  0 15  0  0  0  0  0  0
    5.9074    2.5088    4.3112 H   0  0  0  0  0 15  0  0  0  0  0  0
    5.0614    0.8708    6.0042 H   0  0  0  0  0 15  0  0  0  0  0  0
    3.8004    0.3169    4.8667 H   0  0  0  0  0 15  0  0  0  0  0  0
    2.8054    2.6215    4.8328 H   0  0  0  0  0 15  0  0  0  0  0  0
    4.0304    3.1722    6.0046 H   0  0  0  0  0 15  0  0  0  0  0  0
    1.9764    0.9805    6.4863 H   0  0  0  0  0 15  0  0  0  0  0  0
    1.8934    2.5996    7.0990 H   0  0  0  0  0 15  0  0  0  0  0  0
    3.1614    1.5412    7.6411 H   0  0  0  0  0 15  0  0  0  0  0  0
    7.3905   -1.2043    1.0166 N   0  0  0  0  0 15  0  0  0  0  0  0
    8.6395   -1.8912    0.7012 C   0  0  0  0  0 15  0  0  0  0  0  0
    8.9525   -1.7971   -0.7724 C   0  0  0  0  0 15  0  0  0  0  0  0
   10.1585   -2.4353   -1.2003 O   0  0  0  0  0 15  0  0  0  0  0  0
    8.6145   -3.3917    1.2039 C   0  0  0  0  0 15  0  0  0  0  0  0
    8.2225   -3.5717    2.7044 C   0  0  0  0  0 15  0  0  0  0  0  0
    9.9665   -4.1341    0.9640 C   0  0  0  0  0 15  0  0  0  0  0  0
    7.8735   -5.0104    3.1418 C   0  0  0  0  0 15  0  0  0  0  0  0
    6.8035   -0.7083    0.2586 H   0  0  0  0  0 15  0  0  0  0  0  0
    9.4545   -1.3624    1.2293 H   0  0  0  0  0 15  0  0  0  0  0  0
    7.8365   -3.9137    0.6038 H   0  0  0  0  0 15  0  0  0  0  0  0
    9.0105   -3.1535    3.3599 H   0  0  0  0  0 15  0  0  0  0  0  0
    7.3255   -2.9629    2.9257 H   0  0  0  0  0 15  0  0  0  0  0  0
    9.9225   -5.1949    1.2662 H   0  0  0  0  0 15  0  0  0  0  0  0
   10.2655   -4.1618   -0.0996 H   0  0  0  0  0 15  0  0  0  0  0  0
   10.7985   -3.6731    1.5274 H   0  0  0  0  0 15  0  0  0  0  0  0
    7.5375   -5.0343    4.1981 H   0  0  0  0  0 15  0  0  0  0  0  0
    7.0575   -5.4367    2.5335 H   0  0  0  0  0 15  0  0  0  0  0  0
    8.7365   -5.6962    3.0682 H   0  0  0  0  0 15  0  0  0  0  0  0
    8.8686   -0.7928   -1.3621 N   0  0  0  0  0 15  0  0  0  0  0  0
   10.1146   -0.3764   -1.9989 C   0  0  0  0  0 15  0  0  0  0  0  0
   10.4696    1.0413   -1.6179 C   0  0  0  0  0 15  0  0  0  0  0  0
    9.7626    1.7100   -0.8642 O   0  0  0  0  0 15  0  0  0  0  0  0
    9.9566   -0.4815   -3.5414 C   0  0  0  0  0 15  0  0  0  0  0  0
    9.7856   -1.9079   -4.0722 C   0  0  0  0  0 15  0  0  0  0  0  0
    8.5556   -2.5332   -4.3721 C   0  0  0  0  0 15  0  0  0  0  0  0
   10.7536   -2.8705   -4.2674 C   0  0  0  0  0 15  0  0  0  0  0  0
    8.7356   -3.8751   -4.7614 N   0  0  0  0  0 15  0  0  0  0  0  0
   10.1066   -4.0608   -4.6851 C   0  0  0  0  0 15  0  0  0  0  0  0
   12.1616   -2.8406   -4.0892 C   0  0  0  0  0 15  0  0  0  0  0  0
   10.8646   -5.2253   -4.9432 C   0  0  0  0  0 15  0  0  0  0  0  0
   12.8906   -3.9971   -4.3588 C   0  0  0  0  0 15  0  0  0  0  0  0
   12.2526   -5.1748   -4.7791 C   0  0  0  0  0 15  0  0  0  0  0  0
    8.3516   -0.1852   -0.7597 H   0  0  0  0  0 15  0  0  0  0  0  0
   10.9356   -1.0311   -1.6515 H   0  0  0  0  0 15  0  0  0  0  0  0
    9.1066    0.1432   -3.8814 H   0  0  0  0  0 15  0  0  0  0  0  0
   10.8386   -0.0410   -4.0468 H   0  0  0  0  0 15  0  0  0  0  0  0
    7.5936   -2.0478   -4.2704 H   0  0  0  0  0 15  0  0  0  0  0  0
    8.0176   -4.5656   -4.9988 H   0  0  0  0  0 15  0  0  0  0  0  0
   12.6596   -1.9416   -3.7558 H   0  0  0  0  0 15  0  0  0  0  0  0
   10.3776   -6.1301   -5.2654 H   0  0  0  0  0 15  0  0  0  0  0  0
   13.9636   -3.9876   -4.2365 H   0  0  0  0  0 15  0  0  0  0  0  0
   12.8436   -6.0548   -4.9836 H   0  0  0  0  0 15  0  0  0  0  0  0
   10.3467    1.4787   -0.5451 N   0  0  0  0  0 15  0  0  0  0  0  0
   11.5747    2.0689   -0.0211 C   0  0  0  0  0 15  0  0  0  0  0  0
   11.9897    1.3996    1.2672 C   0  0  0  0  0 15  0  0  0  0  0  0
   11.3467    0.4920    1.7574 O   0  0  0  0  0 15  0  0  0  0  0  0
   11.3977    3.6100    0.1908 C   0  0  0  0  0 15  0  0  0  0  0  0
   11.1187    4.2542   -1.0464 O   0  0  0  0  0 15  0  0  0  0  0  0
   12.6197    4.3685    0.7535 C   0  0  0  0  0 15  0  0  0  0  0  0
    9.8397    0.6698   -0.0404 H   0  0  0  0  0 15  0  0  0  0  0  0
   12.3837    1.9005   -0.7551 H   0  0  0  0  0 15  0  0  0  0  0  0
   10.5387    3.7739    0.8749 H   0  0  0  0  0 15  0  0  0  0  0  0
   10.9527    5.1778   -0.8366 H   0  0  0  0  0 15  0  0  0  0  0  0
   12.4267    5.4540    0.8511 H   0  0  0  0  0 15  0  0  0  0  0  0
   12.9037    4.0231    1.7620 H   0  0  0  0  0 15  0  0  0  0  0  0
   13.5097    4.2517    0.1055 H   0  0  0  0  0 15  0  0  0  0  0  0
   11.8248    0.2810    1.5507 N   0  0  0  0  0 15  0  0  0  0  0  0
   13.0708   -0.3346    2.0002 C   0  0  0  0  0 15  0  0  0  0  0  0
   13.4038   -1.5506    1.1691 C   0  0  0  0  0 15  0  0  0  0  0  0
   12.6788   -1.9301    0.2406 O   0  0  0  0  0 15  0  0  0  0  0  0
   12.9618   -0.7110    3.5301 C   0  0  0  0  0 15  0  0  0  0  0  0
   12.8148    0.5128    4.4687 C   0  0  0  0  0 15  0  0  0  0  0  0
   14.1338   -1.5452    4.1208 C   0  0  0  0  0 15  0  0  0  0  0  0
   11.2528   -0.1201    0.7271 H   0  0  0  0  0 15  0  0  0  0  0  0
   13.8948    0.3891    1.8597 H   0  0  0  0  0 15  0  0  0  0  0  0
   12.0448   -1.3276    3.6511 H   0  0  0  0  0 15  0  0  0  0  0  0
   13.7168    1.1513    4.4670 H   0  0  0  0  0 15  0  0  0  0  0  0
   11.9598    1.1497    4.1829 H   0  0  0  0  0 15  0  0  0  0  0  0
   12.6308    0.2056    5.5162 H   0  0  0  0  0 15  0  0  0  0  0  0
   15.1068   -1.0244    4.0329 H   0  0  0  0  0 15  0  0  0  0  0  0
   13.9828   -1.7774    5.1933 H   0  0  0  0  0 15  0  0  0  0  0  0
   14.2438   -2.5281    3.6268 H   0  0  0  0  0 15  0  0  0  0  0  0
   13.3029   -1.5760    0.0084 N   0  0  0  0  0 15  0  0  0  0  0  0
   14.5489   -1.9121   -0.6757 C   0  0  0  0  0 15  0  0  0  0  0  0
   14.8819   -0.8831   -1.7296 C   0  0  0  0  0 15  0  0  0  0  0  0
   14.1569    0.0970   -1.9426 O   0  0  0  0  0 15  0  0  0  0  0  0
   14.4399   -3.3538   -1.3112 C   0  0  0  0  0 15  0  0  0  0  0  0
   14.2929   -4.4900   -0.2684 C   0  0  0  0  0 15  0  0  0  0  0  0
   15.6119   -3.7912   -2.2351 C   0  0  0  0  0 15  0  0  0  0  0  0
   12.7309   -0.6954   -0.2442 H   0  0  0  0  0 15  0  0  0  0  0  0
   15.3729   -1.8990    0.0614 H   0  0  0  0  0 15  0  0  0  0  0  0
   13.5229   -3.3663   -1.9395 H   0  0  0  0  0 15  0  0  0  0  0  0
   15.1949   -4.5989    0.3608 H   0  0  0  0  0 15  0  0  0  0  0  0
   13.4379   -4.3187    0.4085 H   0  0  0  0  0 15  0  0  0  0  0  0
   14.1089   -5.4685   -0.7522 H   0  0  0  0  0 15  0  0  0  0  0  0
   16.5849   -3.7948   -1.7069 H   0  0  0  0  0 15  0  0  0  0  0  0
   15.4609   -4.8073   -2.6494 H   0  0  0  0  0 15  0  0  0  0  0  0
   15.7219   -3.1346   -3.1177 H   0  0  0  0  0 15  0  0  0  0  0  0
   14.7810    0.2645   -1.5536 N   0  0  0  0  0 15  0  0  0  0  0  0
   16.1920    0.8349   -1.6699 C   0  0  0  0  0 15  0  0  0  0  0  0
   16.5430    1.8672   -0.6026 C   0  0  0  0  0 15  0  0  0  0  0  0
   15.6680    2.1490    0.2544 O   0  0  0  0  0 15  0  0  0  0  0  0
   16.2630    1.5212   -3.0273 C   0  0  0  0  0 15  0  0  0  0  0  0
   14.8220    2.0395   -3.1635 C   0  0  0  0  0 15  0  0  0  0  0  0
   13.9690    0.8845   -2.6282 C   0  0  0  0  0 15  0  0  0  0  0  0
   16.9200    0.0407   -1.5865 H   0  0  0  0  0 15  0  0  0  0  0  0
   16.9410    2.3885   -2.9619 H   0  0  0  0  0 15  0  0  0  0  0  0
   16.4530    0.7697   -3.8039 H   0  0  0  0  0 15  0  0  0  0  0  0
   14.5540    2.8204   -2.4348 H   0  0  0  0  0 15  0  0  0  0  0  0
   14.6670    2.2490   -4.2303 H   0  0  0  0  0 15  0  0  0  0  0  0
   13.0310    1.2802   -2.2019 H   0  0  0  0  0 15  0  0  0  0  0  0
   13.8140    0.1463   -3.4299 H   0  0  0  0  0 15  0  0  0  0  0  0
   16.2591    1.4844    0.5294 N   0  0  0  0  0 15  0  0  0  0  0  0
   17.6701    1.5002    1.1113 C   0  0  0  0  0 15  0  0  0  0  0  0
   18.0211    0.2703    1.9433 C   0  0  0  0  0 15  0  0  0  0  0  0
   17.1461   -0.6225    2.0725 O   0  0  0  0  0 15  0  0  0  0  0  0
   17.7411    2.7183    2.0222 C   0  0  0  0  0 15  0  0  0  0  0  0
   16.3001    2.7628    2.5563 C   0  0  0  0  0 15  0  0  0  0  0  0
   15.4471    2.4354    1.3260 C   0  0  0  0  0 15  0  0  0  0  0  0
   18.3981    1.5555    0.3146 H   0  0  0  0  0 15  0  0  0  0  0  0
   18.4191    2.5038    2.8651 H   0  0  0  0  0 15  0  0  0  0  0  0
   17.9311    3.6133    1.4164 H   0  0  0  0  0 15  0  0  0  0  0  0
   16.0321    1.9100    3.1992 H   0  0  0  0  0 15  0  0  0  0  0  0
   16.1451    3.7772    2.9472 H   0  0  0  0  0 15  0  0  0  0  0  0
   14.5091    1.9471    1.6420 H   0  0  0  0  0 15  0  0  0  0  0  0
   15.2921    3.3528    0.7377 H   0  0  0  0  0 15  0  0  0  0  0  0
   17.7372   -0.7783    1.3704 N   0  0  0  0  0 15  0  0  0  0  0  0
   18.7002   -1.8730    1.3210 C   0  0  0  0  0 15  0  0  0  0  0  0
   19.7002   -1.5920    0.2264 C   0  0  0  0  0 15  0  0  0  0  0  0
   20.8902   -1.6740    0.4819 O   0  0  0  0  0 15  0  0  0  0  0  0
   18.0222   -3.2431    1.0506 C   0  0  0  0  0 15  0  0  0  0  0  0
   19.2152   -1.9309    2.2947 H   0  0  0  0  0 15  0  0  0  0  0  0
   16.7682   -0.9774    1.2197 H   0  0  0  0  0 15  0  0  0  0  0  0
   17.5032   -3.2420    0.0819 H   0  0  0  0  0 15  0  0  0  0  0  0
   17.2882   -3.4610    1.8428 H   0  0  0  0  0 15  0  0  0  0  0  0
   18.7782   -4.0438    1.0423 H   0  0  0  0  0 15  0  0  0  0  0  0
   19.2153   -1.2150   -1.0038 N   0  0  0  0  0 15  0  0  0  0  0  0
   20.4623   -1.0330   -1.7417 C   0  0  0  0  0 15  0  0  0  0  0  0
   20.7903    0.4333   -1.8961 C   0  0  0  0  0 15  0  0  0  0  0  0
   20.0453    1.3378   -1.4283 O   0  0  0  0  0 15  0  0  0  0  0  0
   20.3443   -1.6767   -3.1563 C   0  0  0  0  0 15  0  0  0  0  0  0
   20.0103   -3.1753   -3.2013 C   0  0  0  0  0 15  0  0  0  0  0  0
   18.6723   -3.5843   -3.2107 C   0  0  0  0  0 15  0  0  0  0  0  0
   21.0243   -4.1350   -3.1728 C   0  0  0  0  0 15  0  0  0  0  0  0
   18.3523   -4.9379   -3.1683 C   0  0  0  0  0 15  0  0  0  0  0  0
   20.7043   -5.4883   -3.1459 C   0  0  0  0  0 15  0  0  0  0  0  0
   19.3683   -5.8912   -3.1383 C   0  0  0  0  0 15  0  0  0  0  0  0
   18.6383   -0.3780   -0.6373 H   0  0  0  0  0 15  0  0  0  0  0  0
   21.2853   -1.5111   -1.1763 H   0  0  0  0  0 15  0  0  0  0  0  0
   19.5903   -1.1216   -3.7540 H   0  0  0  0  0 15  0  0  0  0  0  0
   21.2873   -1.5109   -3.7145 H   0  0  0  0  0 15  0  0  0  0  0  0
   17.8773   -2.8496   -3.2015 H   0  0  0  0  0 15  0  0  0  0  0  0
   22.0613   -3.8294   -3.1571 H   0  0  0  0  0 15  0  0  0  0  0  0
   17.3173   -5.2425   -3.1459 H   0  0  0  0  0 15  0  0  0  0  0  0
   21.4913   -6.2293   -3.1133 H   0  0  0  0  0 15  0  0  0  0  0  0
   19.1183   -6.9398   -3.1031 H   0  0  0  0  0 15  0  0  0  0  0  0
   20.6934    1.1989   -1.0230 N   0  0  0  0  0 15  0  0  0  0  0  0
   21.9414    1.8905   -0.7146 C   0  0  0  0  0 15  0  0  0  0  0  0
   22.2624    1.7964    0.7587 C   0  0  0  0  0 15  0  0  0  0  0  0
   21.5324    1.2029    1.5462 O   0  0  0  0  0 15  0  0  0  0  0  0
   20.1124    0.6998   -0.2613 H   0  0  0  0  0 15  0  0  0  0  0  0
   22.7744    1.4557   -1.2959 H   0  0  0  0  0 15  0  0  0  0  0  0
   21.8704    2.9552   -1.0036 H   0  0  0  0  0 15  0  0  0  0  0  0
   22.1715    0.8000    1.3578 N   0  0  0  0  0 15  0  0  0  0  0  0
   23.1015    0.2202    2.3246 C   0  0  0  0  0 15  0  0  0  0  0  0
   24.0825   -0.6507    1.5716 C   0  0  0  0  0 15  0  0  0  0  0  0
   25.2675   -0.5824    1.8526 O   0  0  0  0  0 15  0  0  0  0  0  0
   22.3975   -0.6374    3.4140 C   0  0  0  0  0 15  0  0  0  0  0  0
   21.3515    0.1345    4.2779 C   0  0  0  0  0 15  0  0  0  0  0  0
   20.6775   -0.8443    5.2799 C   0  0  0  0  0 15  0  0  0  0  0  0
   21.9775    1.3298    5.0509 C   0  0  0  0  0 15  0  0  0  0  0  0
   23.6715    1.0279    2.8120 H   0  0  0  0  0 15  0  0  0  0  0  0
   21.2175    0.4957    1.3520 H   0  0  0  0  0 15  0  0  0  0  0  0
   23.1705   -1.0530    4.0803 H   0  0  0  0  0 15  0  0  0  0  0  0
   21.8945   -1.4779    2.9125 H   0  0  0  0  0 15  0  0  0  0  0  0
   20.5535    0.5313    3.6273 H   0  0  0  0  0 15  0  0  0  0  0  0
   20.2015   -1.6801    4.7411 H   0  0  0  0  0 15  0  0  0  0  0  0
   19.9015   -0.3322    5.8666 H   0  0  0  0  0 15  0  0  0  0  0  0
   21.4255   -1.2583    5.9749 H   0  0  0  0  0 15  0  0  0  0  0  0
   22.8395    0.9893    5.6470 H   0  0  0  0  0 15  0  0  0  0  0  0
   21.2365    1.7759    5.7322 H   0  0  0  0  0 15  0  0  0  0  0  0
   22.3065    2.1198    4.3611 H   0  0  0  0  0 15  0  0  0  0  0  0
   23.6496   -1.4758    0.5530 N   0  0  0  0  0 15  0  0  0  0  0  0
   25.0606   -1.8632    0.1185 C   0  0  0  0  0 15  0  0  0  0  0  0
   25.4116   -1.4601   -1.3106 C   0  0  0  0  0 15  0  0  0  0  0  0
   24.5366   -0.8612   -1.9853 O   0  0  0  0  0 15  0  0  0  0  0  0
   25.1316   -3.3816    0.2082 C   0  0  0  0  0 15  0  0  0  0  0  0
   23.6906   -3.7601   -0.1712 C   0  0  0  0  0 15  0  0  0  0  0  0
   22.8376   -2.7163    0.5577 C   0  0  0  0  0 15  0  0  0  0  0  0
   25.7886   -1.3916    0.7629 H   0  0  0  0  0 15  0  0  0  0  0  0
   25.8096   -3.7614   -0.5743 H   0  0  0  0  0 15  0  0  0  0  0  0
   25.3216   -3.6747    1.2484 H   0  0  0  0  0 15  0  0  0  0  0  0
   23.4226   -3.5231   -1.2127 H   0  0  0  0  0 15  0  0  0  0  0  0
   23.5356   -4.7875    0.1844 H   0  0  0  0  0 15  0  0  0  0  0  0
   21.8996   -2.5470    0.0013 H   0  0  0  0  0 15  0  0  0  0  0  0
   22.6826   -3.0379    1.5990 H   0  0  0  0  0 15  0  0  0  0  0  0
   25.1277   -0.2892   -1.5492 N   0  0  0  0  0 15  0  0  0  0  0  0
   26.0577    0.5855   -2.2604 C   0  0  0  0  0 15  0  0  0  0  0  0
   27.0387    1.1475   -1.2556 C   0  0  0  0  0 15  0  0  0  0  0  0
   28.2237    1.1791   -1.5431 O   0  0  0  0  0 15  0  0  0  0  0  0
   25.3537    1.7631   -2.9922 C   0  0  0  0  0 15  0  0  0  0  0  0
   24.3077    1.3319   -4.0675 C   0  0  0  0  0 15  0  0  0  0  0  0
   23.6337    2.5937   -4.6758 C   0  0  0  0  0 15  0  0  0  0  0  0
   24.9337    0.4718   -5.2016 C   0  0  0  0  0 15  0  0  0  0  0  0
   26.6277   -0.0076   -2.9940 H   0  0  0  0  0 15  0  0  0  0  0  0
   24.1737   -0.0051   -1.4400 H   0  0  0  0  0 15  0  0  0  0  0  0
   26.1267    2.3810   -3.4769 H   0  0  0  0  0 15  0  0  0  0  0  0
   24.8507    2.3822   -2.2342 H   0  0  0  0  0 15  0  0  0  0  0  0
   23.5097    0.7371   -3.5911 H   0  0  0  0  0 15  0  0  0  0  0  0
   23.1577    3.1958   -3.8843 H   0  0  0  0  0 15  0  0  0  0  0  0
   22.8577    2.3123   -5.4019 H   0  0  0  0  0 15  0  0  0  0  0  0
   24.3817    3.2198   -5.1880 H   0  0  0  0  0 15  0  0  0  0  0  0
   25.7957    0.9951   -5.6460 H   0  0  0  0  0 15  0  0  0  0  0  0
   24.1927    0.2846   -5.9942 H   0  0  0  0  0 15  0  0  0  0  0  0
   25.2627   -0.5060   -4.8225 H   0  0  0  0  0 15  0  0  0  0  0  0
   26.6058    1.5759   -0.0167 N   0  0  0  0  0 15  0  0  0  0  0  0
   27.5388    2.0494    1.0037 C   0  0  0  0  0 15  0  0  0  0  0  0
   28.5168    0.9426    1.3249 C   0  0  0  0  0 15  0  0  0  0  0  0
   29.7008    1.2120    1.4437 O   0  0  0  0  0 15  0  0  0  0  0  0
   26.8278    2.4611    2.3270 C   0  0  0  0  0 15  0  0  0  0  0  0
   25.8738    3.6769    2.1612 C   0  0  0  0  0 15  0  0  0  0  0  0
   26.7068    5.1488    1.4716 S   0  0  0  0  0 15  0  0  0  0  0  0
   27.8628    5.5933    2.8089 C   0  0  0  0  0 15  0  0  0  0  0  0
   28.0958    2.9117    0.6005 H   0  0  0  0  0 15  0  0  0  0  0  0
   25.6288    1.5317    0.1946 H   0  0  0  0  0 15  0  0  0  0  0  0
   27.5868    2.7049    3.0878 H   0  0  0  0  0 15  0  0  0  0  0  0
   26.2478    1.6025    2.7015 H   0  0  0  0  0 15  0  0  0  0  0  0
   25.4408    3.9430    3.1392 H   0  0  0  0  0 15  0  0  0  0  0  0
   25.0428    3.4339    1.4819 H   0  0  0  0  0 15  0  0  0  0  0  0
   27.3348    5.6281    3.7716 H   0  0  0  0  0 15  0  0  0  0  0  0
   28.2778    6.5905    2.5896 H   0  0  0  0  0 15  0  0  0  0  0  0
   28.6858    4.8694    2.8557 H   0  0  0  0  0 15  0  0  0  0  0  0
   28.0839   -0.2563    1.5550 N   0  0  0  0  0 15  0  0  0  0  0  0
   29.0139   -1.3210    1.9254 C   0  0  0  0  0 15  0  0  0  0  0  0
   29.9949   -1.5068    0.7892 C   0  0  0  0  0 15  0  0  0  0  0  0
   31.1799   -1.6345    1.0487 O   0  0  0  0  0 15  0  0  0  0  0  0
   28.3099   -2.6775    2.2119 C   0  0  0  0  0 15  0  0  0  0  0  0
   27.2639   -2.6388    3.3698 C   0  0  0  0  0 15  0  0  0  0  0  0
   26.5899   -4.0324    3.5115 C   0  0  0  0  0 15  0  0  0  0  0  0
   27.8899   -2.2168    4.7292 C   0  0  0  0  0 15  0  0  0  0  0  0
   29.5839   -1.0135    2.8172 H   0  0  0  0  0 15  0  0  0  0  0  0
   27.1299   -0.4861    1.3555 H   0  0  0  0  0 15  0  0  0  0  0  0
   29.0829   -3.4237    2.4569 H   0  0  0  0  0 15  0  0  0  0  0  0
   27.8069   -3.0012    1.2882 H   0  0  0  0  0 15  0  0  0  0  0  0
   26.4659   -1.9172    3.1247 H   0  0  0  0  0 15  0  0  0  0  0  0
   26.1139   -4.3285    2.5622 H   0  0  0  0  0 15  0  0  0  0  0  0
   25.8139   -4.0153    4.2900 H   0  0  0  0  0 15  0  0  0  0  0  0
   27.3379   -4.7956    3.7796 H   0  0  0  0  0 15  0  0  0  0  0  0
   28.7519   -2.8602    4.9685 H   0  0  0  0  0 15  0  0  0  0  0  0
   27.1489   -2.3111    5.5381 H   0  0  0  0  0 15  0  0  0  0  0  0
   28.2189   -1.1683    4.7061 H   0  0  0  0  0 15  0  0  0  0  0  0
   29.5620   -1.4872   -0.5215 N   0  0  0  0  0 15  0  0  0  0  0  0
   30.8100   -1.5686   -1.2744 C   0  0  0  0  0 15  0  0  0  0  0  0
   31.1310   -0.2480   -1.9342 C   0  0  0  0  0 15  0  0  0  0  0  0
   30.4010    0.7312   -1.8174 O   0  0  0  0  0 15  0  0  0  0  0  0
   28.9810   -0.5779   -0.4733 H   0  0  0  0  0 15  0  0  0  0  0  0
   31.6430   -1.8523   -0.6062 H   0  0  0  0  0 15  0  0  0  0  0  0
   30.7390   -2.3540   -2.0492 H   0  0  0  0  0 15  0  0  0  0  0  0
   31.0401    0.7711   -1.3745 N   0  0  0  0  0 15  0  0  0  0  0  0
   32.0031    1.8660   -1.3309 C   0  0  0  0  0 15  0  0  0  0  0  0
   33.0031    1.5908   -0.2348 C   0  0  0  0  0 15  0  0  0  0  0  0
   34.1931    1.6715   -0.4907 O   0  0  0  0  0 15  0  0  0  0  0  0
   31.3251    3.2375   -1.0677 C   0  0  0  0  0 15  0  0  0  0  0  0
   32.5181    1.9187   -2.3049 H   0  0  0  0  0 15  0  0  0  0  0  0
   30.0711    0.9709   -1.2249 H   0  0  0  0  0 15  0  0  0  0  0  0
   30.8061    3.2415   -0.0991 H   0  0  0  0  0 15  0  0  0  0  0  0
   30.5911    3.4512   -1.8611 H   0  0  0  0  0 15  0  0  0  0  0  0
   32.0811    4.0382   -1.0638 H   0  0  0  0  0 15  0  0  0  0  0  0
   32.5182    1.2203    0.9973 N   0  0  0  0  0 15  0  0  0  0  0  0
   33.7642    1.0438    1.7388 C   0  0  0  0  0 15  0  0  0  0  0  0
   34.0972   -0.4207    1.8959 C   0  0  0  0  0 15  0  0  0  0  0  0
   33.3722   -1.3120    1.4358 O   0  0  0  0  0 15  0  0  0  0  0  0
   33.6552    1.7505    3.1469 C   0  0  0  0  0 15  0  0  0  0  0  0
   33.5082    3.2906    3.0666 C   0  0  0  0  0 15  0  0  0  0  0  0
   34.8272    1.4993    4.1377 C   0  0  0  0  0 15  0  0  0  0  0  0
   31.9462    0.3806    0.6311 H   0  0  0  0  0 15  0  0  0  0  0  0
   34.5882    1.5031    1.1622 H   0  0  0  0  0 15  0  0  0  0  0  0
   32.7382    1.3600    3.6392 H   0  0  0  0  0 15  0  0  0  0  0  0
   34.4102    3.7753    2.6508 H   0  0  0  0  0 15  0  0  0  0  0  0
   32.6532    3.5897    2.4357 H   0  0  0  0  0 15  0  0  0  0  0  0
   33.3242    3.7368    4.0628 H   0  0  0  0  0 15  0  0  0  0  0  0
   35.8002    1.8384    3.7328 H   0  0  0  0  0 15  0  0  0  0  0  0
   34.6762    2.0188    5.1043 H   0  0  0  0  0 15  0  0  0  0  0  0
   34.9372    0.4309    4.3999 H   0  0  0  0  0 15  0  0  0  0  0  0
   33.9963   -1.1934    1.0293 N   0  0  0  0  0 15  0  0  0  0  0  0
   34.9593   -2.2079    0.6151 C   0  0  0  0  0 15  0  0  0  0  0  0
   35.9593   -1.5755   -0.3215 C   0  0  0  0  0 15  0  0  0  0  0  0
   37.1493   -1.7386   -0.1085 O   0  0  0  0  0 15  0  0  0  0  0  0
   34.2813   -3.4075   -0.0999 C   0  0  0  0  0 15  0  0  0  0  0  0
   35.4743   -2.5896    1.5127 H   0  0  0  0  0 15  0  0  0  0  0  0
   33.0273   -1.3303    0.8205 H   0  0  0  0  0 15  0  0  0  0  0  0
   33.7623   -3.0811   -1.0119 H   0  0  0  0  0 15  0  0  0  0  0  0
   33.5473   -3.8789    0.5731 H   0  0  0  0  0 15  0  0  0  0  0  0
   35.0373   -4.1590   -0.3766 H   0  0  0  0  0 15  0  0  0  0  0  0
   35.4744   -0.8072   -1.3536 N   0  0  0  0  0 15  0  0  0  0  0  0
   36.7234   -0.3844   -1.9800 C   0  0  0  0  0 15  0  0  0  0  0  0
   37.0364    1.0543   -1.6475 C   0  0  0  0  0 15  0  0  0  0  0  0
   38.2424    1.5803   -2.2077 O   0  0  0  0  0 15  0  0  0  0  0  0
   36.6984   -0.6363   -3.5423 C   0  0  0  0  0 15  0  0  0  0  0  0
   36.3064   -2.0876   -3.9639 C   0  0  0  0  0 15  0  0  0  0  0  0
   38.0504   -0.2789   -4.2358 C   0  0  0  0  0 15  0  0  0  0  0  0
   35.9574   -2.2853   -5.4546 C   0  0  0  0  0 15  0  0  0  0  0  0
   34.8874   -0.1400   -0.7409 H   0  0  0  0  0 15  0  0  0  0  0  0
   37.5384   -0.9914   -1.5442 H   0  0  0  0  0 15  0  0  0  0  0  0
   35.9204    0.0406   -3.9598 H   0  0  0  0  0 15  0  0  0  0  0  0
   37.0944   -2.8024   -3.6579 H   0  0  0  0  0 15  0  0  0  0  0  0
   35.4094   -2.4050   -3.3993 H   0  0  0  0  0 15  0  0  0  0  0  0
   38.0064   -0.4046   -5.3317 H   0  0  0  0  0 15  0  0  0  0  0  0
   38.3494    0.7750   -4.0902 H   0  0  0  0  0 15  0  0  0  0  0  0
   38.8824   -0.9098   -3.8726 H   0  0  0  0  0 15  0  0  0  0  0  0
   35.6214   -3.3236   -5.6499 H   0  0  0  0  0 15  0  0  0  0  0  0
   35.1414   -1.6157   -5.7763 H   0  0  0  0  0 15  0  0  0  0  0  0
   36.8204   -2.1011   -6.1193 H   0  0  0  0  0 15  0  0  0  0  0  0
   36.9525    1.4729   -0.5608 N   0  0  0  0  0 15  0  0  0  0  0  0
   38.1805    2.0686   -0.0430 C   0  0  0  0  0 15  0  0  0  0  0  0
   38.5955    1.4129    1.2523 C   0  0  0  0  0 15  0  0  0  0  0  0
   37.9525    0.5106    1.7521 O   0  0  0  0  0 15  0  0  0  0  0  0
   38.0035    3.6118    0.1525 C   0  0  0  0  0 15  0  0  0  0  0  0
   37.7245    4.2429   -1.0915 O   0  0  0  0  0 15  0  0  0  0  0  0
   39.2255    4.3762    0.7071 C   0  0  0  0  0 15  0  0  0  0  0  0
   36.4455    0.6693   -0.0475 H   0  0  0  0  0 15  0  0  0  0  0  0
   38.9895    1.8924   -0.7752 H   0  0  0  0  0 15  0  0  0  0  0  0
   37.1445    3.7830    0.8348 H   0  0  0  0  0 15  0  0  0  0  0  0
   37.5585    5.1687   -0.8915 H   0  0  0  0  0 15  0  0  0  0  0  0
   39.0325    5.4627    0.7932 H   0  0  0  0  0 15  0  0  0  0  0  0
   39.5095    4.0415    1.7192 H   0  0  0  0  0 15  0  0  0  0  0  0
   40.1155    4.2526    0.0604 H   0  0  0  0  0 15  0  0  0  0  0  0
   38.4306    0.2974    1.5477 N   0  0  0  0  0 15  0  0  0  0  0  0
   39.3936   -0.5674    2.2207 C   0  0  0  0  0 15  0  0  0  0  0  0
   40.3936   -1.0641    1.2056 C   0  0  0  0  0 15  0  0  0  0  0  0
   41.5836   -0.9607    1.4531 O   0  0  0  0  0 15  0  0  0  0  0  0
   38.7156   -1.7852    2.9042 C   0  0  0  0  0 15  0  0  0  0  0  0
   39.9086    0.0206    2.9989 H   0  0  0  0  0 15  0  0  0  0  0  0
   37.4616    0.0482    1.5623 H   0  0  0  0  0 15  0  0  0  0  0  0
   38.1966   -2.4130    2.1666 H   0  0  0  0  0 15  0  0  0  0  0  0
   37.9816   -1.4367    3.6483 H   0  0  0  0  0 15  0  0  0  0  0  0
   39.4716   -2.3996    3.4177 H   0  0  0  0  0 15  0  0  0  0  0  0
   39.9087   -1.5758    0.0251 N   0  0  0  0  0 15  0  0  0  0  0  0
   40.8387   -2.1301   -0.9566 C   0  0  0  0  0 15  0  0  0  0  0  0
   41.8197   -1.0452   -1.3420 C   0  0  0  0  0 15  0  0  0  0  0  0
   43.0047   -1.3233   -1.4213 O   0  0  0  0  0 15  0  0  0  0  0  0
   40.1347   -2.6539   -2.2403 C   0  0  0  0  0 15  0  0  0  0  0  0
   39.0887   -3.7862   -1.9957 C   0  0  0  0  0 15  0  0  0  0  0  0
   38.4147   -4.1741   -3.3417 C   0  0  0  0  0 15  0  0  0  0  0  0
   39.7147   -5.0487   -1.3381 C   0  0  0  0  0 15  0  0  0  0  0  0
   41.4087   -2.9528   -0.4950 H   0  0  0  0  0 15  0  0  0  0  0  0
   38.9547   -1.4204   -0.2367 H   0  0  0  0  0 15  0  0  0  0  0  0
   40.9077   -3.0279   -2.9308 H   0  0  0  0  0 15  0  0  0  0  0  0
   39.6317   -1.8027   -2.7234 H   0  0  0  0  0 15  0  0  0  0  0  0
   38.2907   -3.4165   -1.3294 H   0  0  0  0  0 15  0  0  0  0  0  0
   37.9387   -3.2928   -3.8024 H   0  0  0  0  0 15  0  0  0  0  0  0
   37.6387   -4.9372   -3.1861 H   0  0  0  0  0 15  0  0  0  0  0  0
   39.1627   -4.5740   -4.0449 H   0  0  0  0  0 15  0  0  0  0  0  0
   40.5767   -5.3989   -1.9286 H   0  0  0  0  0 15  0  0  0  0  0  0
   38.9737   -5.8614   -1.2867 H   0  0  0  0  0 15  0  0  0  0  0  0
   40.0437   -4.8390   -0.3106 H   0  0  0  0  0 15  0  0  0  0  0  0
   41.3868    0.2480   -1.5564 N   0  0  0  0  0 15  0  0  0  0  0  0
   42.3168    1.3108   -1.9324 C   0  0  0  0  0 15  0  0  0  0  0  0
   43.2978    1.5026   -0.7972 C   0  0  0  0  0 15  0  0  0  0  0  0
   44.4828    1.6289   -1.0574 O   0  0  0  0  0 15  0  0  0  0  0  0
   41.6128    2.6658   -2.2261 C   0  0  0  0  0 15  0  0  0  0  0  0
   40.5668    2.6209   -3.3837 C   0  0  0  0  0 15  0  0  0  0  0  0
   39.8928    4.0137   -3.5328 C   0  0  0  0  0 15  0  0  0  0  0  0
   41.1928    2.1917   -4.7409 C   0  0  0  0  0 15  0  0  0  0  0  0
   42.8868    0.9986   -2.8226 H   0  0  0  0  0 15  0  0  0  0  0  0
   40.4328    0.4789   -1.3580 H   0  0  0  0  0 15  0  0  0  0  0  0
   42.3858    3.4106   -2.4750 H   0  0  0  0  0 15  0  0  0  0  0  0
   41.1098    2.9943   -1.3041 H   0  0  0  0  0 15  0  0  0  0  0  0
   39.7688    1.9006   -3.1348 H   0  0  0  0  0 15  0  0  0  0  0  0
   39.4168    4.3149   -2.5851 H   0  0  0  0  0 15  0  0  0  0  0  0
   39.1168    3.9925   -4.3113 H   0  0  0  0  0 15  0  0  0  0  0  0
   40.6408    4.7755   -3.8049 H   0  0  0  0  0 15  0  0  0  0  0  0
   42.0548    2.8338   -4.9836 H   0  0  0  0  0 15  0  0  0  0  0  0
   40.4518    2.2817   -5.5503 H   0  0  0  0  0 15  0  0  0  0  0  0
   41.5218    1.1434   -4.7123 H   0  0  0  0  0 15  0  0  0  0  0  0
   42.8649    1.4899    0.5136 N   0  0  0  0  0 15  0  0  0  0  0  0
   44.1109    1.5808    1.2704 C   0  0  0  0  0 15  0  0  0  0  0  0
   44.4439    0.2610    1.9244 C   0  0  0  0  0 15  0  0  0  0  0  0
   43.7189   -0.7344    1.8010 O   0  0  0  0  0 15  0  0  0  0  0  0
   44.0019    2.7309    2.3472 C   0  0  0  0  0 15  0  0  0  0  0  0
   43.8549    4.1482    1.7391 C   0  0  0  0  0 15  0  0  0  0  0  0
   45.1739    2.8380    3.3637 C   0  0  0  0  0 15  0  0  0  0  0  0
   42.2929    0.5754    0.4605 H   0  0  0  0  0 15  0  0  0  0  0  0
   44.9349    1.8123    0.5705 H   0  0  0  0  0 15  0  0  0  0  0  0
   43.0849    2.5348    2.9442 H   0  0  0  0  0 15  0  0  0  0  0  0
   44.7569    4.4592    1.1814 H   0  0  0  0  0 15  0  0  0  0  0  0
   42.9999    4.2106    1.0437 H   0  0  0  0  0 15  0  0  0  0  0  0
   43.6709    4.9115    2.5195 H   0  0  0  0  0 15  0  0  0  0  0  0
   46.1469    3.0161    2.8665 H   0  0  0  0  0 15  0  0  0  0  0  0
   45.0229    3.6597    4.0909 H   0  0  0  0  0 15  0  0  0  0  0  0
   45.2839    1.9262    3.9793 H   0  0  0  0  0 15  0  0  0  0  0  0
   44.3430   -0.7638    1.3786 N   0  0  0  0  0 15  0  0  0  0  0  0
   45.2930   -1.8677    1.3078 C   0  0  0  0  0 15  0  0  0  0  0  0
   46.2770   -1.5973    0.1940 C   0  0  0  0  0 15  0  0  0  0  0  0
   47.4690   -1.7172    0.4291 O   0  0  0  0  0 15  0  0  0  0  0  0
   44.5980   -3.2434    1.1250 C   0  0  0  0  0 15  0  0  0  0  0  0
   43.6840   -3.5731    2.2846 C   0  0  0  0  0 15  0  0  0  0  0  0
   44.0750   -3.6140    3.5387 N   0  0  0  0  0 15  0  0  0  0  0  0
   42.3730   -3.8752    2.2079 C   0  0  0  0  0 15  0  0  0  0  0  0
   43.0740   -3.9134    4.3038 C   0  0  0  0  0 15  0  0  0  0  0  0
   42.0500   -4.0765    3.5962 N   0  0  0  0  0 15  0  0  0  0  0  0
   45.8520   -1.8819    2.2575 H   0  0  0  0  0 15  0  0  0  0  0  0
   43.3660   -0.9606    1.3094 H   0  0  0  0  0 15  0  0  0  0  0  0
   45.3630   -4.0333    1.0551 H   0  0  0  0  0 15  0  0  0  0  0  0
   44.0230   -3.2417    0.1846 H   0  0  0  0  0 15  0  0  0  0  0  0
   45.0340   -3.4341    3.8767 H   0  0  0  0  0 15  0  0  0  0  0  0
   41.7110   -3.9512    1.3484 H   0  0  0  0  0 15  0  0  0  0  0  0
   43.1010   -4.0121    5.3896 H   0  0  0  0  0 15  0  0  0  0  0  0
   45.8211   -1.2256   -0.9908 N   0  0  0  0  0 15  0  0  0  0  0  0
   46.7841   -0.9989   -2.0629 C   0  0  0  0  0 15  0  0  0  0  0  0
   47.7841    0.0355   -1.6076 C   0  0  0  0  0 15  0  0  0  0  0  0
   48.9741   -0.2032   -1.7301 O   0  0  0  0  0 15  0  0  0  0  0  0
   46.1061   -0.5092   -3.3708 C   0  0  0  0  0 15  0  0  0  0  0  0
   47.2991   -1.9501   -2.2784 H   0  0  0  0  0 15  0  0  0  0  0  0
   44.8521   -1.0446   -1.1627 H   0  0  0  0  0 15  0  0  0  0  0  0
   45.5871    0.4463   -3.2121 H   0  0  0  0  0 15  0  0  0  0  0  0
   45.3721   -1.2555   -3.7146 H   0  0  0  0  0 15  0  0  0  0  0  0
   46.8621   -0.3709   -4.1595 H   0  0  0  0  0 15  0  0  0  0  0  0
   47.2992    1.1880   -1.0356 N   0  0  0  0  0 15  0  0  0  0  0  0
   48.2622    2.2046   -0.6268 C   0  0  0  0  0 15  0  0  0  0  0  0
   49.2622    1.5772    0.3132 C   0  0  0  0  0 15  0  0  0  0  0  0
   50.4522    1.7392    0.0993 O   0  0  0  0  0 15  0  0  0  0  0  0
   47.5842    3.4080    0.0818 C   0  0  0  0  0 15  0  0  0  0  0  0
   48.7772    2.5815   -1.5264 H   0  0  0  0  0 15  0  0  0  0  0  0
   46.3302    1.3259   -0.8276 H   0  0  0  0  0 15  0  0  0  0  0  0
   47.0652    3.0864    0.9955 H   0  0  0  0  0 15  0  0  0  0  0  0
   46.8502    3.8758   -0.5937 H   0  0  0  0  0 15  0  0  0  0  0  0
   48.3402    4.1609    0.3546 H   0  0  0  0  0 15  0  0  0  0  0  0
   48.7773    0.8144    1.3493 N   0  0  0  0  0 15  0  0  0  0  0  0
   50.0233    0.3990    1.9884 C   0  0  0  0  0 15  0  0  0  0  0  0
   50.3563   -1.0331    1.6444 C   0  0  0  0  0 15  0  0  0  0  0  0
   49.6313   -1.7181    0.9117 O   0  0  0  0  0 15  0  0  0  0  0  0
   49.9143    0.5916    3.5521 C   0  0  0  0  0 15  0  0  0  0  0  0
   49.7673    2.0693    3.9938 C   0  0  0  0  0 15  0  0  0  0  0  0
   51.0863    0.0222    4.4009 C   0  0  0  0  0 15  0  0  0  0  0  0
   48.2053    0.1465    0.7223 H   0  0  0  0  0 15  0  0  0  0  0  0
   50.8473    1.0254    1.5996 H   0  0  0  0  0 15  0  0  0  0  0  0
   48.9973    0.0584    3.8846 H   0  0  0  0  0 15  0  0  0  0  0  0
   50.6693    2.6654    3.7650 H   0  0  0  0  0 15  0  0  0  0  0  0
   48.9123    2.5629    3.5000 H   0  0  0  0  0 15  0  0  0  0  0  0
   49.5833    2.1549    5.0820 H   0  0  0  0  0 15  0  0  0  0  0  0
   52.0593    0.4776    4.1335 H   0  0  0  0  0 15  0  0  0  0  0  0
   50.9353    0.1868    5.4858 H   0  0  0  0  0 15  0  0  0  0  0  0
   51.1963   -1.0722    4.2890 H   0  0  0  0  0 15  0  0  0  0  0  0
   50.2554   -1.4699    0.5686 N   0  0  0  0  0 15  0  0  0  0  0  0
   51.1854   -2.3295   -0.1608 C   0  0  0  0  0 15  0  0  0  0  0  0
   52.1664   -1.4449   -0.8976 C   0  0  0  0  0 15  0  0  0  0  0  0
   53.3514   -1.7333   -0.8759 O   0  0  0  0  0 15  0  0  0  0  0  0
   50.4814   -3.2649   -1.1840 C   0  0  0  0  0 15  0  0  0  0  0  0
   49.4354   -4.2428   -0.5629 C   0  0  0  0  0 15  0  0  0  0  0  0
   48.7614   -5.0724   -1.6916 C   0  0  0  0  0 15  0  0  0  0  0  0
   50.0614   -5.1999    0.4908 C   0  0  0  0  0 15  0  0  0  0  0  0
   51.7554   -2.9417    0.5569 H   0  0  0  0  0 15  0  0  0  0  0  0
   49.3014   -1.4146    0.2693 H   0  0  0  0  0 15  0  0  0  0  0  0
   51.2544   -3.8548   -1.7025 H   0  0  0  0  0 15  0  0  0  0  0  0
   49.9784   -2.6334   -1.9318 H   0  0  0  0  0 15  0  0  0  0  0  0
   48.6374   -3.6654   -0.0656 H   0  0  0  0  0 15  0  0  0  0  0  0
   48.2854   -4.4048   -2.4287 H   0  0  0  0  0 15  0  0  0  0  0  0
   47.9854   -5.7345   -1.2817 H   0  0  0  0  0 15  0  0  0  0  0  0
   49.5094   -5.6908   -2.2131 H   0  0  0  0  0 15  0  0  0  0  0  0
   50.9234   -5.7327    0.0579 H   0  0  0  0  0 15  0  0  0  0  0  0
   49.3204   -5.9447    0.8202 H   0  0  0  0  0 15  0  0  0  0  0  0
   50.3904   -4.6478    1.3824 H   0  0  0  0  0 15  0  0  0  0  0  0
   51.7335   -0.3056   -1.5461 N   0  0  0  0  0 15  0  0  0  0  0  0
   52.9615    0.3048   -2.0464 C   0  0  0  0  0 15  0  0  0  0  0  0
   53.3765    1.4717   -1.1827 C   0  0  0  0  0 15  0  0  0  0  0  0
   52.7335    1.8130   -0.2093 O   0  0  0  0  0 15  0  0  0  0  0  0
   52.7845    0.7566   -3.5349 C   0  0  0  0  0 15  0  0  0  0  0  0
   52.5055   -0.3639   -4.3659 O   0  0  0  0  0 15  0  0  0  0  0  0
   54.0065    1.4316   -4.1955 C   0  0  0  0  0 15  0  0  0  0  0  0
   51.2265    0.0655   -0.6678 H   0  0  0  0  0 15  0  0  0  0  0  0
   53.7705   -0.4466   -1.9956 H   0  0  0  0  0 15  0  0  0  0  0  0
   51.9255    1.4579   -3.5892 H   0  0  0  0  0 15  0  0  0  0  0  0
   52.3395   -0.0113   -5.2450 H   0  0  0  0  0 15  0  0  0  0  0  0
   53.8135    1.6989   -5.2521 H   0  0  0  0  0 15  0  0  0  0  0  0
   54.2905    2.3732   -3.6956 H   0  0  0  0  0 15  0  0  0  0  0  0
   54.8965    0.7733   -4.1821 H   0  0  0  0  0 15  0  0  0  0  0  0
   53.2116    1.5756   -0.0334 N   0  0  0  0  0 15  0  0  0  0  0  0
   54.1616    2.0698    0.9562 C   0  0  0  0  0 15  0  0  0  0  0  0
   55.1456    0.9712    1.2828 C   0  0  0  0  0 15  0  0  0  0  0  0
   56.3376    1.2347    1.2682 O   0  0  0  0  0 15  0  0  0  0  0  0
   53.4666    2.6039    2.2372 C   0  0  0  0  0 15  0  0  0  0  0  0
   52.5526    3.7719    1.9388 C   0  0  0  0  0 15  0  0  0  0  0  0
   52.9436    4.8764    1.3432 N   0  0  0  0  0 15  0  0  0  0  0  0
   51.2416    3.8576    2.2384 C   0  0  0  0  0 15  0  0  0  0  0  0
   51.9426    5.6882    1.2171 C   0  0  0  0  0 15  0  0  0  0  0  0
   50.9186    5.1587    1.7140 N   0  0  0  0  0 15  0  0  0  0  0  0
   54.7206    2.8977    0.4908 H   0  0  0  0  0 15  0  0  0  0  0  0
   52.2346    1.6149    0.1715 H   0  0  0  0  0 15  0  0  0  0  0  0
   54.2316    2.9409    2.9550 H   0  0  0  0  0 15  0  0  0  0  0  0
   52.8916    1.7903    2.7088 H   0  0  0  0  0 15  0  0  0  0  0  0
   53.9026    5.0780    1.0177 H   0  0  0  0  0 15  0  0  0  0  0  0
   50.5796    3.1531    2.7365 H   0  0  0  0  0 15  0  0  0  0  0  0
   51.9696    6.6763    0.7562 H   0  0  0  0  0 15  0  0  0  0  0  0
   54.6897   -0.2398    1.5577 N   0  0  0  0  0 15  0  0  0  0  0  0
   55.9177   -0.9842    1.8199 C   0  0  0  0  0 15  0  0  0  0  0  0
   56.3327   -1.7867    0.6101 C   0  0  0  0  0 15  0  0  0  0  0  0
   55.6897   -1.7757   -0.4213 O   0  0  0  0  0 15  0  0  0  0  0  0
   55.7407   -1.9163    3.0653 C   0  0  0  0  0 15  0  0  0  0  0  0
   55.4617   -1.1463    4.2284 O   0  0  0  0  0 15  0  0  0  0  0  0
   56.9627   -2.7762    3.4561 C   0  0  0  0  0 15  0  0  0  0  0  0
   54.1827   -0.2893    0.6054 H   0  0  0  0  0 15  0  0  0  0  0  0
   56.7267   -0.2605    2.0283 H   0  0  0  0  0 15  0  0  0  0  0  0
   54.8817   -2.5942    2.8771 H   0  0  0  0  0 15  0  0  0  0  0  0
   55.2957   -1.7774    4.9346 H   0  0  0  0  0 15  0  0  0  0  0  0
   56.7697   -3.3876    4.3583 H   0  0  0  0  0 15  0  0  0  0  0  0
   57.2467   -3.4909    2.6652 H   0  0  0  0  0 15  0  0  0  0  0  0
   57.8527   -2.1527    3.6679 H   0  0  0  0  0 15  0  0  0  0  0  0
   56.1678   -1.4927   -0.5057 N   0  0  0  0  0 15  0  0  0  0  0  0
   57.3958   -1.6221   -1.2843 C   0  0  0  0  0 15  0  0  0  0  0  0
   57.8108   -0.2917   -1.8653 C   0  0  0  0  0 15  0  0  0  0  0  0
   57.1678    0.7222   -1.6760 O   0  0  0  0  0 15  0  0  0  0  0  0
   57.2188   -2.6873   -2.4179 C   0  0  0  0  0 15  0  0  0  0  0  0
   56.9398   -3.9662   -1.8608 O   0  0  0  0  0 15  0  0  0  0  0  0
   58.4408   -2.9235   -3.3324 C   0  0  0  0  0 15  0  0  0  0  0  0
   55.6608   -0.5462   -0.3897 H   0  0  0  0  0 15  0  0  0  0  0  0
   58.2048   -1.9526   -0.6076 H   0  0  0  0  0 15  0  0  0  0  0  0
   56.3598   -2.3848   -3.0530 H   0  0  0  0  0 15  0  0  0  0  0  0
   56.7738   -4.5526   -2.6047 H   0  0  0  0  0 15  0  0  0  0  0  0
   58.2478   -3.7062   -4.0907 H   0  0  0  0  0 15  0  0  0  0  0  0
   58.7248   -2.0208   -3.8995 H   0  0  0  0  0 15  0  0  0  0  0  0
   59.3308   -3.2400   -2.7550 H   0  0  0  0  0 15  0  0  0  0  0  0
   57.6459    0.7564   -1.3826 N   0  0  0  0  0 15  0  0  0  0  0  0
   58.8919    1.5168   -1.3552 C   0  0  0  0  0 15  0  0  0  0  0  0
   59.2469    1.9232    0.0554 C   0  0  0  0  0 15  0  0  0  0  0  0
   58.5399    1.6235    1.0175 O   0  0  0  0  0 15  0  0  0  0  0  0
   58.7339    2.7831   -2.2422 C   0  0  0  0  0 15  0  0  0  0  0  0
   58.5629    2.5005   -3.7377 C   0  0  0  0  0 15  0  0  0  0  0  0
   57.3329    2.4341   -4.4281 C   0  0  0  0  0 15  0  0  0  0  0  0
   59.5309    2.1702   -4.6627 C   0  0  0  0  0 15  0  0  0  0  0  0
   57.5129    2.0740   -5.7781 N   0  0  0  0  0 15  0  0  0  0  0  0
   58.8839    1.9127   -5.8976 C   0  0  0  0  0 15  0  0  0  0  0  0
   60.9389    2.0330   -4.5450 C   0  0  0  0  0 15  0  0  0  0  0  0
   59.6419    1.5319   -7.0280 C   0  0  0  0  0 15  0  0  0  0  0  0
   61.6679    1.6663   -5.6744 C   0  0  0  0  0 15  0  0  0  0  0  0
   61.0299    1.4175   -6.8999 C   0  0  0  0  0 15  0  0  0  0  0  0
   57.1289    0.5547   -0.5512 H   0  0  0  0  0 15  0  0  0  0  0  0
   59.7129    0.8811   -1.7362 H   0  0  0  0  0 15  0  0  0  0  0  0
   57.8839    3.3970   -1.8831 H   0  0  0  0  0 15  0  0  0  0  0  0
   59.6159    3.4434   -2.1263 H   0  0  0  0  0 15  0  0  0  0  0  0
   56.3709    2.5979   -3.9599 H   0  0  0  0  0 15  0  0  0  0  0  0
   56.7949    1.9204   -6.4919 H   0  0  0  0  0 15  0  0  0  0  0  0
   61.4369    2.2121   -3.6031 H   0  0  0  0  0 15  0  0  0  0  0  0
   59.1549    1.3402   -7.9691 H   0  0  0  0  0 15  0  0  0  0  0  0
   62.7409    1.5665   -5.6031 H   0  0  0  0  0 15  0  0  0  0  0  0
   61.6209    1.1379   -7.7590 H   0  0  0  0  0 15  0  0  0  0  0  0
   59.1240    1.2308    0.9843 N   0  0  0  0  0 15  0  0  0  0  0  0
   60.3540    1.0856    1.7578 C   0  0  0  0  0 15  0  0  0  0  0  0
   60.7620   -0.3662    1.8562 C   0  0  0  0  0 15  0  0  0  0  0  0
   60.1050   -1.2652    1.3318 O   0  0  0  0  0 15  0  0  0  0  0  0
   60.1670    1.6321    3.2032 C   0  0  0  0  0 15  0  0  0  0  0  0
   59.8310    3.1192    3.3400 C   0  0  0  0  0 15  0  0  0  0  0  0
   60.8280    4.0926    3.2063 C   0  0  0  0  0 15  0  0  0  0  0  0
   58.5130    3.5155    3.5877 C   0  0  0  0  0 15  0  0  0  0  0  0
   60.5070    5.4421    3.3183 C   0  0  0  0  0 15  0  0  0  0  0  0
   58.1940    4.8665    3.6962 C   0  0  0  0  0 15  0  0  0  0  0  0
   59.1920    5.8279    3.5616 C   0  0  0  0  0 15  0  0  0  0  0  0
   58.8800    7.1543    3.6663 O   0  0  0  0  0 15  0  0  0  0  0  0
   58.6120    0.3807    0.5586 H   0  0  0  0  0 15  0  0  0  0  0  0
   61.1660    1.6332    1.2456 H   0  0  0  0  0 15  0  0  0  0  0  0
   59.3960    1.0286    3.7277 H   0  0  0  0  0 15  0  0  0  0  0  0
   61.0850    1.4422    3.7942 H   0  0  0  0  0 15  0  0  0  0  0  0
   61.8510    3.7998    3.0139 H   0  0  0  0  0 15  0  0  0  0  0  0
   57.7300    2.7724    3.6832 H   0  0  0  0  0 15  0  0  0  0  0  0
   61.2740    6.1923    3.2125 H   0  0  0  0  0 15  0  0  0  0  0  0
   57.1710    5.1560    3.8836 H   0  0  0  0  0 15  0  0  0  0  0  0
   57.9390    7.2313    3.8345 H   0  0  0  0  0 15  0  0  0  0  0  0
   60.6021   -1.1825    1.0419 N   0  0  0  0  0 15  0  0  0  0  0  0
   61.5651   -2.2013    0.6385 C   0  0  0  0  0 15  0  0  0  0  0  0
   62.5651   -1.5788   -0.3048 C   0  0  0  0  0 15  0  0  0  0  0  0
   63.7551   -1.7397   -0.0900 O   0  0  0  0  0 15  0  0  0  0  0  0
   60.8871   -3.4084   -0.0638 C   0  0  0  0  0 15  0  0  0  0  0  0
   62.0801   -2.5734    1.5401 H   0  0  0  0  0 15  0  0  0  0  0  0
   59.6331   -1.3215    0.8346 H   0  0  0  0  0 15  0  0  0  0  0  0
   60.3681   -3.0917   -0.9791 H   0  0  0  0  0 15  0  0  0  0  0  0
   60.1531   -3.8726    0.6142 H   0  0  0  0  0 15  0  0  0  0  0  0
   61.6431   -4.1627   -0.3325 H   0  0  0  0  0 15  0  0  0  0  0  0
   62.0802   -0.8215   -1.3449 N   0  0  0  0  0 15  0  0  0  0  0  0
   63.0432   -0.2478   -2.2786 C   0  0  0  0  0 15  0  0  0  0  0  0
   64.0432    0.5735   -1.5023 C   0  0  0  0  0 15  0  0  0  0  0  0
   65.2332    0.3898   -1.6978 O   0  0  0  0  0 15  0  0  0  0  0  0
   62.3652    0.6527   -3.3459 C   0  0  0  0  0 15  0  0  0  0  0  0
   63.5582   -1.0715   -2.8011 H   0  0  0  0  0 15  0  0  0  0  0  0
   61.1112   -0.5933   -1.4460 H   0  0  0  0  0 15  0  0  0  0  0  0
   61.8462    1.4994   -2.8755 H   0  0  0  0  0 15  0  0  0  0  0  0
   61.6312    0.0653   -3.9205 H   0  0  0  0  0 15  0  0  0  0  0  0
   63.1212    1.0479   -4.0424 H   0  0  0  0  0 15  0  0  0  0  0  0
   63.5583    1.4668   -0.5764 N   0  0  0  0  0 15  0  0  0  0  0  0
   64.8053    2.0241   -0.0595 C   0  0  0  0  0 15  0  0  0  0  0  0
   65.1333    1.4486    1.2979 C   0  0  0  0  0 15  0  0  0  0  0  0
   64.3883    0.6011    1.8624 O   0  0  0  0  0 15  0  0  0  0  0  0
   64.6873    3.5734    0.0629 C   0  0  0  0  0 15  0  0  0  0  0  0
   64.3533    4.3391   -1.2262 C   0  0  0  0  0 15  0  0  0  0  0  0
   63.0153    4.5454   -1.5793 C   0  0  0  0  0 15  0  0  0  0  0  0
   65.3673    4.7792   -2.0795 C   0  0  0  0  0 15  0  0  0  0  0  0
   62.6953    5.1644   -2.7839 C   0  0  0  0  0 15  0  0  0  0  0  0
   65.0473    5.4115   -3.2763 C   0  0  0  0  0 15  0  0  0  0  0  0
   63.7113    5.6001   -3.6324 C   0  0  0  0  0 15  0  0  0  0  0  0
   62.9813    0.7407   -0.0218 H   0  0  0  0  0 15  0  0  0  0  0  0
   65.6283    1.7613   -0.7517 H   0  0  0  0  0 15  0  0  0  0  0  0
   63.9333    3.8273    0.8382 H   0  0  0  0  0 15  0  0  0  0  0  0
   65.6303    3.9814    0.4784 H   0  0  0  0  0 15  0  0  0  0  0  0
   62.2203    4.1814   -0.9412 H   0  0  0  0  0 15  0  0  0  0  0  0
   66.4043    4.6174   -1.8197 H   0  0  0  0  0 15  0  0  0  0  0  0
   61.6603    5.2924   -3.0613 H   0  0  0  0  0 15  0  0  0  0  0  0
   65.8343    5.7421   -3.9402 H   0  0  0  0  0 15  0  0  0  0  0  0
   63.4613    6.0775   -4.5667 H   0  0  0  0  0 15  0  0  0  0  0  0
   65.0364    0.3138    1.5444 N   0  0  0  0  0 15  0  0  0  0  0  0
   65.9664   -0.5495    2.2694 C   0  0  0  0  0 15  0  0  0  0  0  0
   66.9474   -1.1274    1.2737 C   0  0  0  0  0 15  0  0  0  0  0  0
   68.1324   -1.1544    1.5617 O   0  0  0  0  0 15  0  0  0  0  0  0
   65.2624   -1.7152    3.0199 C   0  0  0  0  0 15  0  0  0  0  0  0
   64.2164   -1.2670    4.0882 C   0  0  0  0  0 15  0  0  0  0  0  0
   63.5424   -2.5190    4.7165 C   0  0  0  0  0 15  0  0  0  0  0  0
   64.8424   -0.3890    5.2085 C   0  0  0  0  0 15  0  0  0  0  0  0
   66.5364    0.0553    2.9935 H   0  0  0  0  0 15  0  0  0  0  0  0
   64.0824    0.0280    1.4397 H   0  0  0  0  0 15  0  0  0  0  0  0
   66.0354   -2.3254    3.5143 H   0  0  0  0  0 15  0  0  0  0  0  0
   64.7594   -2.3464    2.2718 H   0  0  0  0  0 15  0  0  0  0  0  0
   63.4184   -0.6799    3.6024 H   0  0  0  0  0 15  0  0  0  0  0  0
   63.0664   -3.1336    3.9347 H   0  0  0  0  0 15  0  0  0  0  0  0
   62.7664   -2.2260    5.4380 H   0  0  0  0  0 15  0  0  0  0  0  0
   64.2904   -3.1369    5.2386 H   0  0  0  0  0 15  0  0  0  0  0  0
   65.7044   -0.9051    5.6611 H   0  0  0  0  0 15  0  0  0  0  0  0
   64.1014   -0.1892    5.9980 H   0  0  0  0  0 15  0  0  0  0  0  0
   65.1714    0.5827    4.8139 H   0  0  0  0  0 15  0  0  0  0  0  0
   66.5145   -1.5754    0.0418 N   0  0  0  0  0 15  0  0  0  0  0  0
   67.4465   -2.0790   -0.9648 C   0  0  0  0  0 15  0  0  0  0  0  0
   68.4595   -1.0050   -1.2808 C   0  0  0  0  0 15  0  0  0  0  0  0
   69.6485   -1.2809   -1.2432 O   0  0  0  0  0 15  0  0  0  0  0  0
   66.7485   -2.4993   -2.2889 C   0  0  0  0  0 15  0  0  0  0  0  0
   65.9215   -3.8056   -2.1562 C   0  0  0  0  0 15  0  0  0  0  0  0
   64.9805   -4.0900   -3.3107 C   0  0  0  0  0 15  0  0  0  0  0  0
   64.0065   -4.7906   -3.0739 O   0  0  0  0  0 15  0  0  0  0  0  0
   65.2085   -3.6017   -4.5526 N   0  0  0  0  0 15  0  0  0  0  0  0
   67.9735   -2.9489   -0.5350 H   0  0  0  0  0 15  0  0  0  0  0  0
   65.5345   -1.6125   -0.1447 H   0  0  0  0  0 15  0  0  0  0  0  0
   67.5265   -2.6603   -3.0497 H   0  0  0  0  0 15  0  0  0  0  0  0
   66.0965   -1.6824   -2.6346 H   0  0  0  0  0 15  0  0  0  0  0  0
   65.3165   -3.7413   -1.2418 H   0  0  0  0  0 15  0  0  0  0  0  0
   66.6045   -4.6613   -2.0397 H   0  0  0  0  0 15  0  0  0  0  0  0
   66.0025   -3.0351   -4.7739 H   0  0  0  0  0 15  0  0  0  0  0  0
   64.5595   -3.8153   -5.2847 H   0  0  0  0  0 15  0  0  0  0  0  0
   67.9926    0.2315   -1.5589 N   0  0  0  0  0 15  0  0  0  0  0  0
   69.2406    0.9555   -1.7809 C   0  0  0  0  0 15  0  0  0  0  0  0
   69.5616    1.8526   -0.6085 C   0  0  0  0  0 15  0  0  0  0  0  0
   68.8316    1.9228    0.3750 O   0  0  0  0  0 15  0  0  0  0  0  0
   67.4116    0.3558   -0.6568 H   0  0  0  0  0 15  0  0  0  0  0  0
   70.0736    0.2458   -1.9334 H   0  0  0  0  0 15  0  0  0  0  0  0
   69.1696    1.5681   -2.6984 H   0  0  0  0  0 15  0  0  0  0  0  0
   69.4707    1.4953    0.4978 N   0  0  0  0  0 15  0  0  0  0  0  0
   70.7187    1.5886    1.2493 C   0  0  0  0  0 15  0  0  0  0  0  0
   71.0397    0.2787    1.9300 C   0  0  0  0  0 15  0  0  0  0  0  0
   70.3097   -0.7021    1.8288 O   0  0  0  0  0 15  0  0  0  0  0  0
   68.8897    0.5853    0.4641 H   0  0  0  0  0 15  0  0  0  0  0  0
   71.5517    1.8617    0.5767 H   0  0  0  0  0 15  0  0  0  0  0  0
   70.6477    2.3863    2.0115 H   0  0  0  0  0 15  0  0  0  0  0  0
   70.9488   -0.7491    1.3866 N   0  0  0  0  0 15  0  0  0  0  0  0
   72.1948   -1.5106    1.3531 C   0  0  0  0  0 15  0  0  0  0  0  0
   72.5278   -1.9412   -0.0554 C   0  0  0  0  0 15  0  0  0  0  0  0
   71.8028   -1.6576   -1.0175 O   0  0  0  0  0 15  0  0  0  0  0  0
   72.0858   -2.7600    2.3129 C   0  0  0  0  0 15  0  0  0  0  0  0
   71.9388   -2.3905    3.8102 C   0  0  0  0  0 15  0  0  0  0  0  0
   73.2578   -3.7805    2.2532 C   0  0  0  0  0 15  0  0  0  0  0  0
   70.3768   -0.5480    0.4928 H   0  0  0  0  0 15  0  0  0  0  0  0
   73.0188   -0.8576    1.6954 H   0  0  0  0  0 15  0  0  0  0  0  0
   71.1688   -3.3172    2.0223 H   0  0  0  0  0 15  0  0  0  0  0  0
   72.8408   -1.8907    4.2077 H   0  0  0  0  0 15  0  0  0  0  0  0
   71.0838   -1.7145    3.9848 H   0  0  0  0  0 15  0  0  0  0  0  0
   71.7548   -3.2846    4.4364 H   0  0  0  0  0 15  0  0  0  0  0  0
   74.2308   -3.3188    2.5098 H   0  0  0  0  0 15  0  0  0  0  0  0
   73.1068   -4.6316    2.9458 H   0  0  0  0  0 15  0  0  0  0  0  0
   73.3678   -4.2396    1.2535 H   0  0  0  0  0 15  0  0  0  0  0  0
   72.4269   -1.2360   -0.9778 N   0  0  0  0  0 15  0  0  0  0  0  0
   73.3739   -1.0195   -2.0706 C   0  0  0  0  0 15  0  0  0  0  0  0
   74.3439    0.0639   -1.6598 C   0  0  0  0  0 15  0  0  0  0  0  0
   75.5289   -0.0888   -1.9059 O   0  0  0  0  0 15  0  0  0  0  0  0
   72.6689   -0.6197   -3.3949 C   0  0  0  0  0 15  0  0  0  0  0  0
   71.7819   -1.7755   -3.9383 C   0  0  0  0  0 15  0  0  0  0  0  0
   70.9169   -1.3221   -5.1448 C   0  0  0  0  0 15  0  0  0  0  0  0
   69.9559   -2.4485   -5.6099 C   0  0  0  0  0 15  0  0  0  0  0  0
   69.0929   -2.0046   -6.7288 N   0  0  0  0  0 15  0  0  0  0  0  0
   73.9329   -1.9550   -2.2491 H   0  0  0  0  0 15  0  0  0  0  0  0
   71.4699   -0.9739   -1.1025 H   0  0  0  0  0 15  0  0  0  0  0  0
   73.4279   -0.3689   -4.1557 H   0  0  0  0  0 15  0  0  0  0  0  0
   72.0579    0.2788   -3.2159 H   0  0  0  0  0 15  0  0  0  0  0  0
   71.1099   -2.1402   -3.1449 H   0  0  0  0  0 15  0  0  0  0  0  0
   72.4219   -2.6222   -4.2431 H   0  0  0  0  0 15  0  0  0  0  0  0
   71.5759   -1.0296   -5.9790 H   0  0  0  0  0 15  0  0  0  0  0  0
   70.3149   -0.4458   -4.8566 H   0  0  0  0  0 15  0  0  0  0  0  0
   69.3199   -2.7487   -4.7616 H   0  0  0  0  0 15  0  0  0  0  0  0
   70.5449   -3.3302   -5.9184 H   0  0  0  0  0 15  0  0  0  0  0  0
   68.4909   -1.1521   -6.4580 H   0  0  0  0  0 15  0  0  0  0  0  0
   68.4079   -2.7869   -7.0276 H   0  0  0  0  0 15  0  0  0  0  0  0
   69.6759   -1.7432   -7.5976 H   0  0  0  0  0 15  0  0  0  0  0  0
   73.9050    1.1769   -1.0482 N   0  0  0  0  0 15  0  0  0  0  0  0
   74.8520    2.2158   -0.6458 C   0  0  0  0  0 15  0  0  0  0  0  0
   75.8220    1.6237    0.3502 C   0  0  0  0  0 15  0  0  0  0  0  0
   77.0070    1.8925    0.2424 O   0  0  0  0  0 15  0  0  0  0  0  0
   74.1470    3.4509   -0.0228 C   0  0  0  0  0 15  0  0  0  0  0  0
   73.2600    4.1861   -1.0671 C   0  0  0  0  0 15  0  0  0  0  0  0
   72.3950    5.2960   -0.4118 C   0  0  0  0  0 15  0  0  0  0  0  0
   71.4340    5.9490   -1.4407 C   0  0  0  0  0 15  0  0  0  0  0  0
   70.5710    6.9741   -0.8098 N   0  0  0  0  0 15  0  0  0  0  0  0
   75.4110    2.5535   -1.5362 H   0  0  0  0  0 15  0  0  0  0  0  0
   72.9480    1.2544   -0.7684 H   0  0  0  0  0 15  0  0  0  0  0  0
   74.9060    4.1568    0.3559 H   0  0  0  0  0 15  0  0  0  0  0  0
   73.5360    3.1192    0.8311 H   0  0  0  0  0 15  0  0  0  0  0  0
   72.5880    3.4678   -1.5636 H   0  0  0  0  0 15  0  0  0  0  0  0
   73.9000    4.6329   -1.8483 H   0  0  0  0  0 15  0  0  0  0  0  0
   73.0540    6.0670    0.0207 H   0  0  0  0  0 15  0  0  0  0  0  0
   71.7930    4.8605    0.4014 H   0  0  0  0  0 15  0  0  0  0  0  0
   70.7980    5.1654   -1.8832 H   0  0  0  0  0 15  0  0  0  0  0  0
   72.0230    6.4054   -2.2557 H   0  0  0  0  0 15  0  0  0  0  0  0
   69.9690    6.5600   -0.0170 H   0  0  0  0  0 15  0  0  0  0  0  0
   69.8860    7.4039   -1.5286 H   0  0  0  0  0 15  0  0  0  0  0  0
   71.1540    7.7846   -0.4020 H   0  0  0  0  0 15  0  0  0  0  0  0
   75.3831    0.8287    1.3406 N   0  0  0  0  0 15  0  0  0  0  0  0
   76.3461    0.2599    2.2772 C   0  0  0  0  0 15  0  0  0  0  0  0
   77.3461   -0.5655    1.5053 C   0  0  0  0  0 15  0  0  0  0  0  0
   78.5361   -0.3807    1.6999 O   0  0  0  0  0 15  0  0  0  0  0  0
   75.6681   -0.6349    3.3493 C   0  0  0  0  0 15  0  0  0  0  0  0
   76.8611    1.0863    2.7953 H   0  0  0  0  0 15  0  0  0  0  0  0
   74.4141    0.6010    1.4429 H   0  0  0  0  0 15  0  0  0  0  0  0
   75.1491   -1.4842    2.8835 H   0  0  0  0  0 15  0  0  0  0  0  0
   74.9341   -0.0445    3.9207 H   0  0  0  0  0 15  0  0  0  0  0  0
   76.4241   -1.0265    4.0479 H   0  0  0  0  0 15  0  0  0  0  0  0
   76.8612   -1.4637    0.5841 N   0  0  0  0  0 15  0  0  0  0  0  0
   77.8242   -2.2878   -0.1381 C   0  0  0  0  0 15  0  0  0  0  0  0
   78.8242   -1.3847   -0.8175 C   0  0  0  0  0 15  0  0  0  0  0  0
   80.0142   -1.6083   -0.6692 O   0  0  0  0  0 15  0  0  0  0  0  0
   77.1462   -3.1889   -1.2050 C   0  0  0  0  0 15  0  0  0  0  0  0
   78.3392   -2.9412    0.5861 H   0  0  0  0  0 15  0  0  0  0  0  0
   75.8922   -1.5251    0.3422 H   0  0  0  0  0 15  0  0  0  0  0  0
   76.6272   -2.5831   -1.9608 H   0  0  0  0  0 15  0  0  0  0  0  0
   76.4122   -3.8539   -0.7224 H   0  0  0  0  0 15  0  0  0  0  0  0
   77.9022   -3.8091   -1.7115 H   0  0  0  0  0 15  0  0  0  0  0  0
   78.3782   -0.4641   -1.5469 O   0  0  0  0  0 15  0  0  0  0  0  0
   79.0692    0.0629   -1.9360 H   0  0  0  0  0 15  0  0  0  0  0  0
M  END
$$$$
