drugbank_target|P50406 5-hydroxytryptamine receptor 6 (DB00246; DB00321; DB00334; DB00363; DB00408; DB00458; DB00477; DB00502; DB00543; DB00924; DB01142; DB01224; DB01238; DB01488; DB04829; DB04946; DB05042; DB05993; DB06140; DB06144; DB06148; DB06216; DB09225; DB14185)
 OpenBabel12092119443D

  0  0  0     0  0            999 V3000
M  V30 BEGIN CTAB
M  V30 COUNTS 6708 6797 0 0 0
M  V30 BEGIN ATOM
M  V30 1 H -0.908 1.98254 -0.117106 0
M  V30 2 N 0 1.576 0 0
M  V30 3 C 0.933 2.03868 1.02534 0
M  V30 4 C 1.911 0.928543 1.3348 0
M  V30 5 O 3.095 1.19667 1.45644 0
M  V30 6 C 0.222 2.43627 2.35294 0
M  V30 7 C -0.732 3.65373 2.2001 0
M  V30 8 S 0.101 5.13292 1.52614 0
M  V30 9 C 1.257 5.56322 2.86805 0
M  V30 10 H 1.49 2.90518 0.631377 0
M  V30 11 H -0.977 1.52953 0.210867 0
M  V30 12 H 0.981 2.67203 3.11629 0
M  V30 13 H -0.358 1.57376 2.7183 0
M  V30 14 H -1.165 3.90944 3.18086 0
M  V30 15 H -1.563 3.418 1.51819 0
M  V30 16 H 0.729 5.58782 3.83104 0
M  V30 17 H 1.672 6.56266 2.65933 0
M  V30 18 H 2.08 4.83886 2.90714 0
M  V30 19 N 1.4781 -0.272755 1.55222 0
M  V30 20 C 2.7241 -1.00581 1.761 0
M  V30 21 C 3.0571 -1.85932 0.560625 0
M  V30 22 O 2.3321 -1.89416 -0.441801 0
M  V30 23 C 2.6151 -1.88816 3.06628 0
M  V30 24 C 2.4681 -1.06457 4.37021 0
M  V30 25 C 3.7871 -2.8752 3.33197 0
M  V30 26 H 0.9061 -0.364244 0.640699 0
M  V30 27 H 3.5481 -0.278189 1.87952 0
M  V30 28 H 1.6981 -2.50856 2.96654 0
M  V30 29 H 3.3701 -0.464863 4.58952 0
M  V30 30 H 1.6131 -0.368043 4.32236 0
M  V30 31 H 2.2841 -1.71514 5.24678 0
M  V30 32 H 4.7601 -2.35615 3.42965 0
M  V30 33 H 3.6361 -3.46399 4.25792 0
M  V30 34 H 3.8971 -3.62657 2.52849 0
M  V30 35 N 2.9562 -1.48159 -0.537278 0
M  V30 36 C 4.3672 -1.49429 -1.11928 0
M  V30 37 C 4.7182 -0.26 -1.9447 0
M  V30 38 O 3.8432 0.633489 -2.0692 0
M  V30 39 C 4.4382 -2.70758 -2.03656 0
M  V30 40 C 2.9972 -2.74923 -2.57088 0
M  V30 41 C 2.1442 -2.42835 -1.3389 0
M  V30 42 H 5.0952 -1.55381 -0.322886 0
M  V30 43 H 5.1162 -2.48861 -2.87834 0
M  V30 44 H 4.6282 -3.60575 -1.43553 0
M  V30 45 H 2.7292 -1.89296 -3.20933 0
M  V30 46 H 2.8422 -3.76157 -2.9672 0
M  V30 47 H 1.2062 -1.93836 -1.65226 0
M  V30 48 H 1.9892 -3.34884 -0.755504 0
M  V30 49 N 4.4343 0.785586 -1.36625 0
M  V30 50 C 5.3443 1.92964 -1.33425 0
M  V30 51 C 6.3603 1.72394 -0.235851 0
M  V30 52 O 7.5363 1.95866 -0.468878 0
M  V30 53 C 4.6013 3.27884 -1.12662 0
M  V30 54 C 3.6623 3.61204 -2.32013 0
M  V30 55 C 2.8953 4.89687 -2.12231 0
M  V30 56 O 3.1183 5.59704 -1.09945 0
M  V30 57 O 2.0523 5.21752 -3.00098 0
M  V30 58 H 5.8783 1.98613 -2.29753 0
M  V30 59 H 3.4633 0.926384 -1.17211 0
M  V30 60 H 5.3453 4.08614 -1.03016 0
M  V30 61 H 4.0203 3.23118 -0.193991 0
M  V30 62 H 2.9273 2.80765 -2.47228 0
M  V30 63 H 4.2603 3.70698 -3.23796 0
M  V30 64 N 5.9124 1.20967 1.01018 0
M  V30 65 C 7.3234 1.02319 1.56165 0
M  V30 66 C 7.6744 -0.418546 1.91684 0
M  V30 67 O 6.7994 -1.30096 1.72928 0
M  V30 68 C 7.3944 1.85109 2.8376 0
M  V30 69 C 5.9534 1.70809 3.35412 0
M  V30 70 C 5.1004 1.82643 2.08655 0
M  V30 71 H 8.0514 1.35065 0.833255 0
M  V30 72 H 8.0724 1.35827 3.55431 0
M  V30 73 H 7.5844 2.90035 2.57878 0
M  V30 74 H 5.6854 0.685464 3.66241 0
M  V30 75 H 5.7984 2.52467 4.07182 0
M  V30 76 H 4.1624 1.25896 2.21409 0
M  V30 77 H 4.9454 2.89066 1.85191 0
M  V30 78 N 7.3905 -1.2043 1.01659 0
M  V30 79 C 8.6385 -1.89423 0.704522 0
M  V30 80 C 8.9595 -1.79231 -0.768197 0
M  V30 81 O 8.2295 -1.1947 -1.55254 0
M  V30 82 H 6.8095 -0.701178 0.257602 0
M  V30 83 H 9.4715 -1.4626 1.28818 0
M  V30 84 H 8.5675 -2.96052 0.987916 0
M  V30 85 N 8.8686 -0.792821 -1.36206 0
M  V30 86 C 10.2796 -0.429513 -1.81692 0
M  V30 87 C 10.6306 1.04695 -1.65932 0
M  V30 88 O 9.7556 1.81256 -1.18218 0
M  V30 89 C 10.3506 -0.772831 -3.29868 0
M  V30 90 C 8.9096 -0.462307 -3.7355 0
M  V30 91 C 8.0566 -1.00569 -2.5842 0
M  V30 92 H 11.0076 -0.985672 -1.24379 0
M  V30 93 H 11.0286 -0.0651928 -3.80444 0
M  V30 94 H 10.5406 -1.84747 -3.41307 0
M  V30 95 H 8.6416 0.604158 -3.67669 0
M  V30 96 H 8.7546 -0.985299 -4.68859 0
M  V30 97 H 7.1186 -0.428734 -2.51066 0
M  V30 98 H 7.9016 -2.08616 -2.72643 0
M  V30 99 N 10.3467 1.47872 -0.545128 0
M  V30 100 C 11.5747 2.06889 -0.021084 0
M  V30 101 C 11.9897 1.39955 1.2672 0
M  V30 102 O 11.3467 0.492036 1.75742 0
M  V30 103 C 11.3977 3.60996 0.190817 0
M  V30 104 O 11.1187 4.25419 -1.04644 0
M  V30 105 C 12.6197 4.36849 0.753521 0
M  V30 106 H 9.8397 0.669785 -0.0403635 0
M  V30 107 H 12.3837 1.90049 -0.755095 0
M  V30 108 H 10.5387 3.77391 0.87492 0
M  V30 109 H 10.9527 5.17785 -0.836611 0
M  V30 110 H 12.4267 5.45399 0.851139 0
M  V30 111 H 12.9037 4.02306 1.762 0
M  V30 112 H 13.5097 4.25169 0.105503 0
M  V30 113 N 11.8248 0.280983 1.55075 0
M  V30 114 C 12.7878 -0.590896 2.21452 0
M  V30 115 C 13.7878 -1.07682 1.19421 0
M  V30 116 O 14.9778 -0.97605 1.44288 0
M  V30 117 C 12.1098 -1.81587 2.88511 0
M  V30 118 H 13.3028 -0.0112554 2.99898 0
M  V30 119 H 10.8558 0.0316438 1.56268 0
M  V30 120 H 11.5908 -2.43587 2.14093 0
M  V30 121 H 11.3758 -1.4753 3.63287 0
M  V30 122 H 12.8658 -2.43575 3.39206 0
M  V30 123 N 13.3029 -1.57598 0.00835791 0
M  V30 124 C 14.2509 -2.10078 -0.998508 0
M  V30 125 C 15.2449 -1.02262 -1.35051 0
M  V30 126 O 16.4509 -1.20719 -1.33518 0
M  V30 127 H 12.8259 -0.670903 -0.339696 0
M  V30 128 H 14.7969 -2.93648 -0.530398 0
M  V30 129 C 13.5459 -2.62615 -2.27879 0
M  V30 130 H 12.8689 -3.45213 -2.01662 0
M  V30 131 H 14.3089 -3.03004 -2.96588 0
M  V30 132 C 12.7679 -1.54407 -2.99433 0
M  V30 133 O 13.2979 -0.931812 -3.90743 0
M  V30 134 N 11.5039 -1.2695 -2.61404 0
M  V30 135 H 11.0509 -1.76924 -1.87232 0
M  V30 136 H 11.0089 -0.547704 -3.09593 0
M  V30 137 N 14.781 0.264519 -1.55364 0
M  V30 138 C 16.006 1.01726 -1.80739 0
M  V30 139 C 16.431 1.78836 -0.583044 0
M  V30 140 O 15.789 1.75167 0.467566 0
M  V30 141 C 15.837 1.94482 -3.03659 0
M  V30 142 O 14.941 3.03386 -2.7934 0
M  V30 143 H 14.282 0.290395 -0.597132 0
M  V30 144 H 16.812 0.290854 -2.02522 0
M  V30 145 H 16.822 2.36278 -3.32621 0
M  V30 146 H 15.497 1.37772 -3.92418 0
M  V30 147 H 14.074 2.65844 -2.61498 0
M  V30 148 N 16.2591 1.48442 0.529413 0
M  V30 149 C 17.4871 1.60151 1.30994 0
M  V30 150 C 17.9021 0.261985 1.86973 0
M  V30 151 O 17.2591 -0.748805 1.66431 0
M  V30 152 C 17.3101 2.64854 2.46038 0
M  V30 153 O 17.0311 3.93608 1.92365 0
M  V30 154 C 18.5321 2.87007 3.37849 0
M  V30 155 H 15.7521 0.539971 0.398338 0
M  V30 156 H 18.2961 1.94273 0.638597 0
M  V30 157 H 16.4511 2.33589 3.09055 0
M  V30 158 H 16.8651 4.51055 2.67675 0
M  V30 159 H 18.3391 3.64068 4.14919 0
M  V30 160 H 18.8161 1.95852 3.93114 0
M  V30 161 H 19.4221 3.19579 2.80623 0
M  V30 162 N 17.7372 -0.778329 1.37039 0
M  V30 163 C 19.1482 -1.35421 1.28523 0
M  V30 164 C 19.4992 -1.96075 -0.0700901 0
M  V30 165 O 18.6242 -1.93352 -0.971801 0
M  V30 166 C 19.2192 -2.46211 2.32735 0
M  V30 167 C 17.7782 -2.99585 2.27873 0
M  V30 168 C 16.9252 -1.72748 2.16918 0
M  V30 169 H 19.8762 -0.5791 1.47757 0
M  V30 170 H 19.8972 -3.2552 1.9702 0
M  V30 171 H 19.4092 -2.02036 3.31365 0
M  V30 172 H 17.5102 -3.48152 1.32745 0
M  V30 173 H 17.6232 -3.55646 3.21018 0
M  V30 174 H 15.9872 -1.95416 1.63354 0
M  V30 175 H 16.7702 -1.30686 3.17452 0
M  V30 176 N 19.2153 -1.21501 -1.00376 0
M  V30 177 C 20.1783 -0.976927 -2.07337 0
M  V30 178 C 21.1783 0.0525322 -1.60714 0
M  V30 179 O 22.3683 -0.184869 -1.73216 0
M  V30 180 C 19.5003 -0.473423 -3.37597 0
M  V30 181 H 20.6933 -1.92587 -2.29892 0
M  V30 182 H 18.2463 -1.03217 -1.17371 0
M  V30 183 H 18.9813 0.480379 -3.20722 0
M  V30 184 H 18.7663 -1.216 -3.72768 0
M  V30 185 H 20.2563 -0.32675 -4.1632 0
M  V30 186 N 20.6934 1.19889 -1.02296 0
M  V30 187 C 21.9394 1.89973 -0.726759 0
M  V30 188 C 22.2944 1.7776 0.73614 0
M  V30 189 O 21.5874 1.15523 1.52856 0
M  V30 190 C 21.7814 3.39883 -1.10518 0
M  V30 191 C 21.6104 3.66684 -2.60332 0
M  V30 192 C 20.3804 3.85045 -3.27213 0
M  V30 193 C 22.5784 3.68727 -3.58532 0
M  V30 194 N 20.5604 3.99422 -4.66192 0
M  V30 195 C 21.9314 3.88604 -4.83101 0
M  V30 196 C 23.9864 3.51722 -3.52414 0
M  V30 197 C 22.6894 3.9324 -6.02292 0
M  V30 198 C 24.7154 3.57632 -4.71013 0
M  V30 199 C 24.0774 3.77988 -5.94394 0
M  V30 200 H 20.1764 0.714551 -0.317712 0
M  V30 201 H 22.7604 1.44123 -1.30907 0
M  V30 202 H 20.9314 3.8447 -0.551142 0
M  V30 203 H 22.6634 3.97464 -0.761853 0
M  V30 204 H 19.4184 3.83689 -2.77632 0
M  V30 205 H 19.8424 4.10473 -5.38368 0
M  V30 206 H 24.4844 3.34945 -2.58015 0
M  V30 207 H 22.2024 4.08811 -6.97065 0
M  V30 208 H 25.7884 3.45773 -4.67902 0
M  V30 209 H 24.6684 3.82428 -6.8463 0
M  V30 210 N 22.1715 0.800033 1.35784 0
M  V30 211 C 23.4195 0.376597 1.9856 0
M  V30 212 C 23.7405 -1.05812 1.63795 0
M  V30 213 O 23.0105 -1.73103 0.917171 0
M  V30 214 H 21.5905 0.136261 0.734467 0
M  V30 215 H 24.2525 1.02442 1.65806 0
M  V30 216 H 23.3485 0.477002 3.08433 0
M  V30 217 N 23.6496 -1.47581 0.552962 0
M  V30 218 C 24.6126 -2.28439 -0.186605 0
M  V30 219 C 25.6126 -1.36706 -0.84665 0
M  V30 220 O 26.8026 -1.59378 -0.703164 0
M  V30 221 C 23.9346 -3.16264 -1.2724 0
M  V30 222 H 25.1276 -2.95294 0.523609 0
M  V30 223 H 22.6806 -1.532 0.309745 0
M  V30 224 H 23.4156 -2.54091 -2.01514 0
M  V30 225 H 23.2006 -3.83769 -0.803968 0
M  V30 226 H 24.6906 -3.77198 -1.79196 0
M  V30 227 N 25.1277 -0.289203 -1.54924 0
M  V30 228 C 26.3757 0.322879 -1.99504 0
M  V30 229 C 26.6967 1.55313 -1.1791 0
M  V30 230 O 25.9667 1.94001 -0.272097 0
M  V30 231 H 24.5467 0.122291 -0.736922 0
M  V30 232 H 27.2087 -0.397802 -1.90797 0
M  V30 233 H 26.3047 0.603061 -3.06218 0
M  V30 234 N 26.6058 1.57591 -0.0167156 0
M  V30 235 C 28.0168 1.79201 0.523834 0
M  V30 236 C 28.3678 0.925796 1.72984 0
M  V30 237 O 27.4928 0.132792 2.15992 0
M  V30 238 C 28.0878 3.25 0.957091 0
M  V30 239 C 26.6468 3.47648 1.44283 0
M  V30 240 C 25.7938 2.74374 0.401757 0
M  V30 241 H 28.7448 1.56831 -0.242816 0
M  V30 242 H 28.7658 3.34031 1.82219 0
M  V30 243 H 28.2778 3.88019 0.0791415 0
M  V30 244 H 26.3788 2.89866 2.34113 0
M  V30 245 H 26.4918 4.56352 1.45877 0
M  V30 246 H 24.8558 2.39485 0.867121 0
M  V30 247 H 25.6388 3.40102 -0.467513 0
M  V30 248 N 28.0839 -0.256276 1.55502 0
M  V30 249 C 29.4949 -0.826068 1.67431 0
M  V30 250 C 29.8459 -1.86396 0.612446 0
M  V30 251 O 28.9709 -2.15031 -0.243025 0
M  V30 252 C 29.5659 -1.50512 3.03532 0
M  V30 253 C 28.1249 -2.02273 3.17431 0
M  V30 254 C 27.2719 -0.870548 2.63281 0
M  V30 255 H 30.2229 -0.0322728 1.58667 0
M  V30 256 H 30.2439 -2.37279 2.97454 0
M  V30 257 H 29.7559 -0.749484 3.80794 0
M  V30 258 H 27.8569 -2.80746 2.44974 0
M  V30 259 H 27.9699 -2.22655 4.24219 0
M  V30 260 H 26.3339 -1.26851 2.20864 0
M  V30 261 H 27.1169 -0.128149 3.43061 0
M  V30 262 N 29.562 -1.4872 -0.521534 0
M  V30 263 C 30.787 -1.61101 -1.30618 0
M  V30 264 C 31.212 -0.274611 -1.86085 0
M  V30 265 O 30.57 0.754937 -1.64834 0
M  V30 266 C 30.618 -2.66709 -2.4269 0
M  V30 267 O 29.722 -2.24456 -3.45967 0
M  V30 268 H 29.063 -0.539921 -0.386499 0
M  V30 269 H 31.593 -1.94767 -0.626645 0
M  V30 270 H 31.603 -2.88245 -2.88754 0
M  V30 271 H 30.278 -3.63727 -2.01682 0
M  V30 272 H 28.855 -2.13168 -3.05964 0
M  V30 273 N 31.0401 0.771051 -1.3745 0
M  V30 274 C 32.0031 1.86598 -1.33093 0
M  V30 275 C 33.0031 1.59076 -0.234845 0
M  V30 276 O 34.1931 1.67145 -0.490732 0
M  V30 277 C 31.3251 3.23747 -1.06773 0
M  V30 278 H 32.5181 1.91873 -2.30488 0
M  V30 279 H 30.0711 0.970876 -1.2249 0
M  V30 280 H 30.8061 3.24148 -0.099129 0
M  V30 281 H 30.5911 3.45115 -1.86112 0
M  V30 282 H 32.0811 4.03824 -1.06377 0
M  V30 283 N 32.5182 1.22032 0.997298 0
M  V30 284 C 33.9292 1.0397 1.55071 0
M  V30 285 C 34.2802 -0.398192 1.92117 0
M  V30 286 O 33.4052 -1.28254 1.74298 0
M  V30 287 C 34.0002 1.88109 2.81781 0
M  V30 288 C 32.5592 1.74357 3.33581 0
M  V30 289 C 31.7062 1.84846 2.06706 0
M  V30 290 H 34.6572 1.35941 0.818883 0
M  V30 291 H 34.6782 1.39589 3.53971 0
M  V30 292 H 34.1902 2.92754 2.54787 0
M  V30 293 H 32.2912 0.72427 3.65493 0
M  V30 294 H 32.4042 2.56772 4.04481 0
M  V30 295 H 30.7682 1.28238 2.20062 0
M  V30 296 H 31.5512 2.91014 1.82114 0
M  V30 297 N 33.9963 -1.19345 1.0293 0
M  V30 298 C 35.2443 -1.88665 0.724574 0
M  V30 299 C 35.5653 -1.80036 -0.749144 0
M  V30 300 O 34.8353 -1.2111 -1.53978 0
M  V30 301 H 33.4153 -0.698406 0.265025 0
M  V30 302 H 36.0773 -1.44885 1.30362 0
M  V30 303 H 35.1733 -2.94987 1.01926 0
M  V30 304 N 35.4744 -0.807222 -1.35358 0
M  V30 305 C 36.7224 -0.387122 -1.98358 0
M  V30 306 C 37.0434 1.04942 -1.64354 0
M  V30 307 O 36.3134 1.72615 -0.926339 0
M  V30 308 H 34.8934 -0.140154 -0.733734 0
M  V30 309 H 37.5554 -1.0332 -1.6526 0
M  V30 310 H 36.6514 -0.493352 -3.08176 0
M  V30 311 N 36.9525 1.47285 -0.560781 0
M  V30 312 C 38.1775 2.07359 -0.0410566 0
M  V30 313 C 38.6025 1.41017 1.24483 0
M  V30 314 O 37.9605 0.486368 1.74654 0
M  V30 315 C 38.0085 3.6035 0.134123 0
M  V30 316 O 37.1125 3.94681 1.19587 0
M  V30 317 H 36.4535 0.661887 -0.0529291 0
M  V30 318 H 38.9835 1.89252 -0.777482 0
M  V30 319 H 38.9935 4.0652 0.347207 0
M  V30 320 H 37.6685 4.08034 -0.805047 0
M  V30 321 H 36.2455 3.60251 0.962987 0
M  V30 322 N 38.4306 0.297415 1.54768 0
M  V30 323 C 39.6786 -0.312295 1.99673 0
M  V30 324 C 39.9996 -1.54686 1.18732 0
M  V30 325 O 39.2696 -1.93854 0.282382 0
M  V30 326 H 37.8496 -0.118381 0.73756 0
M  V30 327 H 40.5116 0.407915 1.90583 0
M  V30 328 H 39.6076 -0.586813 3.06534 0
M  V30 329 N 39.9087 -1.5758 0.0250728 0
M  V30 330 C 41.1547 -1.92746 -0.649648 0
M  V30 331 C 41.5097 -0.901588 -1.69968 0
M  V30 332 O 40.8027 0.0829251 -1.9142 0
M  V30 333 C 40.9967 -3.32421 -1.31268 0
M  V30 334 C 40.8257 -4.48499 -0.328394 0
M  V30 335 C 39.5957 -5.05251 0.070284 0
M  V30 336 C 41.7937 -5.12618 0.415665 0
M  V30 337 N 39.7757 -6.04851 1.05016 0
M  V30 338 C 41.1467 -6.0728 1.24943 0
M  V30 339 C 43.2017 -4.95612 0.476803 0
M  V30 340 C 41.9047 -6.86766 2.1388 0
M  V30 341 C 43.9307 -5.75703 1.3535 0
M  V30 342 C 43.2927 -6.69978 2.17504 0
M  V30 343 H 39.3917 -0.753231 -0.210159 0
M  V30 344 H 41.9757 -1.94486 0.0912999 0
M  V30 345 H 40.1467 -3.31508 -2.02379 0
M  V30 346 H 41.8787 -3.54946 -1.94411 0
M  V30 347 H 38.6337 -4.72628 -0.303323 0
M  V30 348 H 39.0577 -6.5934 1.53622 0
M  V30 349 H 43.6997 -4.22554 -0.144105 0
M  V30 350 H 41.4177 -7.59132 2.77027 0
M  V30 351 H 45.0037 -5.64579 1.40504 0
M  V30 352 H 43.8837 -7.30873 2.84244 0
M  V30 353 N 41.3868 0.248026 -1.55636 0
M  V30 354 C 42.6328 0.97767 -1.77678 0
M  V30 355 C 42.9658 1.85016 -0.590135 0
M  V30 356 O 42.2408 1.90095 0.411611 0
M  V30 357 C 42.5238 1.83914 -3.09593 0
M  V30 358 C 42.3768 0.99491 -4.38659 0
M  V30 359 C 43.6958 2.82183 -3.37729 0
M  V30 360 H 40.8148 0.354005 -0.646413 0
M  V30 361 H 43.4568 0.248253 -1.88371 0
M  V30 362 H 41.6068 2.46104 -3.00608 0
M  V30 363 H 43.2788 0.391789 -4.59633 0
M  V30 364 H 41.5218 0.299231 -4.32767 0
M  V30 365 H 42.1928 1.63145 -5.2734 0
M  V30 366 H 44.6688 2.30129 -3.4667 0
M  V30 367 H 43.5448 3.39582 -4.31249 0
M  V30 368 H 43.8058 3.58588 -2.58586 0
M  V30 369 N 42.8649 1.48995 0.513639 0
M  V30 370 C 43.8279 1.64229 1.59879 0
M  V30 371 C 44.8279 0.514696 1.5234 0
M  V30 372 O 46.0179 0.78087 1.55718 0
M  V30 373 C 43.1499 1.62783 2.99524 0
M  V30 374 H 44.3429 2.61004 1.47705 0
M  V30 375 H 41.8959 1.37837 0.736936 0
M  V30 376 H 42.6309 0.675461 3.17188 0
M  V30 377 H 42.4159 2.4466 3.06404 0
M  V30 378 H 43.9059 1.76669 3.78388 0
M  V30 379 N 44.343 -0.763751 1.37857 0
M  V30 380 C 45.306 -1.85889 1.34081 0
M  V30 381 C 46.306 -1.58949 0.243277 0
M  V30 382 O 47.496 -1.66882 0.499589 0
M  V30 383 C 44.628 -3.23176 1.08489 0
M  V30 384 H 45.821 -1.90648 2.31502 0
M  V30 385 H 43.374 -0.964367 1.23003 0
M  V30 386 H 44.109 -3.24091 0.116318 0
M  V30 387 H 43.894 -3.44124 1.8794 0
M  V30 388 H 45.384 -4.03254 1.08517 0
M  V30 389 N 45.8211 -1.22559 -0.990812 0
M  V30 390 C 46.7841 -0.998863 -2.0629 0
M  V30 391 C 47.7841 0.0354834 -1.60761 0
M  V30 392 O 48.9741 -0.203231 -1.7301 0
M  V30 393 C 46.1061 -0.509203 -3.37076 0
M  V30 394 H 47.2991 -1.95014 -2.27837 0
M  V30 395 H 44.8521 -1.04456 -1.16269 0
M  V30 396 H 45.5871 0.446335 -3.21214 0
M  V30 397 H 45.3721 -1.25547 -3.71457 0
M  V30 398 H 46.8621 -0.370888 -4.1595 0
M  V30 399 N 47.2992 1.18797 -1.03562 0
M  V30 400 C 48.2292 2.24472 -0.643019 0
M  V30 401 C 49.2102 1.66433 0.351283 0
M  V30 402 O 50.3952 1.92803 0.232505 0
M  V30 403 C 47.5252 3.473 4.24935e-05 0
M  V30 404 C 46.4792 4.18055 -0.917257 0
M  V30 405 C 45.8052 5.34519 -0.138941 0
M  V30 406 C 47.1052 4.72109 -2.23407 0
M  V30 407 H 48.7992 2.57566 -1.52643 0
M  V30 408 H 46.3452 1.23806 -0.735394 0
M  V30 409 H 48.2982 4.20426 0.286383 0
M  V30 410 H 47.0222 3.13424 0.918299 0
M  V30 411 H 45.6812 3.46821 -1.1879 0
M  V30 412 H 45.3292 4.96891 0.781562 0
M  V30 413 H 45.0292 5.82794 -0.750005 0
M  V30 414 H 46.5532 6.10438 0.1405 0
M  V30 415 H 47.9672 5.36955 -2.00879 0
M  V30 416 H 46.3642 5.30897 -2.79765 0
M  V30 417 H 47.4342 3.89807 -2.88407 0
M  V30 418 N 48.7773 0.814389 1.34928 0
M  V30 419 C 50.0173 0.404165 2.00364 0
M  V30 420 C 50.3813 -1.01166 1.63185 0
M  V30 421 O 51.5823 -1.52431 2.21401 0
M  V30 422 C 49.8533 0.590718 3.52484 0
M  V30 423 S 51.4123 0.272075 4.37956 0
M  V30 424 H 48.2303 0.15311 0.694319 0
M  V30 425 H 50.8323 1.05834 1.64376 0
M  V30 426 H 49.5363 1.62099 3.77031 0
M  V30 427 H 49.0673 -0.0785013 3.93322 0
M  V30 428 H 51.0823 -0.917405 4.87645 0
M  V30 429 N 50.2554 -1.46986 0.568584 0
M  V30 430 C 51.5014 -2.02741 0.0488709 0
M  V30 431 C 51.8344 -1.44077 -1.30214 0
M  V30 432 O 51.1094 -0.600552 -1.84996 0
M  V30 433 C 51.3924 -3.60086 -0.032047 0
M  V30 434 C 51.2454 -4.29162 1.34686 0
M  V30 435 C 52.5644 -4.33838 -0.739798 0
M  V30 436 H 49.6834 -0.736749 0.0192338 0
M  V30 437 H 52.3254 -1.75289 0.733065 0
M  V30 438 H 50.4754 -3.83606 -0.61473 0
M  V30 439 H 52.1474 -4.16948 1.97362 0
M  V30 440 H 50.3904 -3.89073 1.91846 0
M  V30 441 H 51.0614 -5.37826 1.24285 0
M  V30 442 H 53.5374 -4.15378 -0.244939 0
M  V30 443 H 52.4134 -5.43537 -0.765406 0
M  V30 444 H 52.6744 -4.03875 -1.79827 0
M  V30 445 N 51.7335 -0.305618 -1.54608 0
M  V30 446 C 52.9795 0.302746 -2.00528 0
M  V30 447 C 53.3125 1.53184 -1.19367 0
M  V30 448 O 52.5875 1.92598 -0.271321 0
M  V30 449 C 52.8705 0.654756 -3.54097 0
M  V30 450 C 52.7235 -0.583793 -4.45995 0
M  V30 451 C 54.0425 1.47947 -4.14487 0
M  V30 452 H 51.1615 0.108564 -0.72896 0
M  V30 453 H 53.8035 -0.418634 -1.85331 0
M  V30 454 H 51.9535 1.26935 -3.67178 0
M  V30 455 H 53.6255 -1.22224 -4.44814 0
M  V30 456 H 51.8685 -1.21615 -4.16404 0
M  V30 457 H 52.5395 -0.293287 -5.5122 0
M  V30 458 H 55.0155 0.96013 -4.04871 0
M  V30 459 H 53.8915 1.69454 -5.22088 0
M  V30 460 H 54.1525 2.47011 -3.66658 0
M  V30 461 N 53.2116 1.57565 -0.0334293 0
M  V30 462 C 54.4606 1.91155 0.643639 0
M  V30 463 C 54.7736 0.91192 1.73042 0
M  V30 464 O 55.9796 1.13923 2.46442 0
M  V30 465 C 54.4356 3.39443 1.1961 0
M  V30 466 C 54.0436 4.47774 0.142381 0
M  V30 467 C 55.7876 3.82094 1.84944 0
M  V30 468 C 53.6946 5.87162 0.706727 0
M  V30 469 H 52.6246 0.713368 0.244176 0
M  V30 470 H 55.2756 1.8323 -0.0994323 0
M  V30 471 H 53.6576 3.42313 1.99092 0
M  V30 472 H 54.8316 4.56469 -0.630296 0
M  V30 473 H 53.1466 4.14352 -0.412446 0
M  V30 474 H 55.7436 4.83591 2.2813 0
M  V30 475 H 56.0866 3.17386 2.69392 0
M  V30 476 H 56.6196 3.81665 1.12145 0
M  V30 477 H 53.3586 6.55424 -0.0997178 0
M  V30 478 H 52.8786 5.82064 1.44779 0
M  V30 479 H 54.5576 6.35866 1.19514 0
M  V30 480 N 54.6897 -0.239769 1.55765 0
M  V30 481 C 55.6527 -1.28038 1.90103 0
M  V30 482 C 56.6527 -1.40723 0.778055 0
M  V30 483 O 57.8427 -1.39301 1.04599 0
M  V30 484 C 54.9747 -2.65702 2.13577 0
M  V30 485 H 56.1677 -0.988048 2.83157 0
M  V30 486 H 53.7207 -0.479382 1.48767 0
M  V30 487 H 54.4557 -3.00063 1.23015 0
M  V30 488 H 54.2407 -2.57875 2.95369 0
M  V30 489 H 55.7307 -3.40828 2.41301 0
M  V30 490 N 56.1678 -1.49265 -0.50573 0
M  V30 491 C 57.0978 -1.68495 -1.61653 0
M  V30 492 C 58.0788 -0.53366 -1.61512 0
M  V30 493 O 59.2638 -0.76897 -1.78327 0
M  V30 494 C 56.3938 -1.74709 -3.00157 0
M  V30 495 C 55.3478 -2.89581 -3.15162 0
M  V30 496 C 54.6738 -2.80903 -4.5497 0
M  V30 497 C 55.9738 -4.30578 -2.95634 0
M  V30 498 H 57.6678 -2.61493 -1.45814 0
M  V30 499 H 55.2138 -1.25838 -0.70005 0
M  V30 500 H 57.1668 -1.86748 -3.77761 0
M  V30 501 H 55.8908 -0.783067 -3.17074 0
M  V30 502 H 54.5498 -2.77136 -2.39982 0
M  V30 503 H 54.1978 -1.82419 -4.68756 0
M  V30 504 H 53.8978 -3.57999 -4.65951 0
M  V30 505 H 55.4218 -2.94944 -5.34641 0
M  V30 506 H 56.8358 -4.4373 -3.63011 0
M  V30 507 H 55.2328 -5.0886 -3.18091 0
M  V30 508 H 56.3028 -4.45352 -1.91806 0
M  V30 509 N 57.6459 0.756429 -1.3826 0
M  V30 510 C 58.8739 1.54565 -1.3754 0
M  V30 511 C 59.2889 1.88767 0.0355331 0
M  V30 512 O 58.6459 1.52572 1.0014 0
M  V30 513 C 58.6969 2.84654 -2.22833 0
M  V30 514 O 58.4179 2.51912 -3.5843 0
M  V30 515 C 59.9189 3.78807 -2.30261 0
M  V30 516 H 57.1389 0.478353 -0.470553 0
M  V30 517 H 59.6829 0.936381 -1.81803 0
M  V30 518 H 57.8379 3.41965 -1.8204 0
M  V30 519 H 58.2519 3.35325 -4.03308 0
M  V30 520 H 59.7259 4.67045 -2.94233 0
M  V30 521 H 60.2029 4.19038 -1.31545 0
M  V30 522 H 60.8089 3.2742 -2.71433 0
M  V30 523 N 59.124 1.23083 0.984299 0
M  V30 524 C 60.087 1.00979 2.05757 0
M  V30 525 C 61.087 -0.0269573 1.60777 0
M  V30 526 O 62.277 0.212403 1.729 0
M  V30 527 C 59.409 0.527072 3.36801 0
M  V30 528 H 60.602 1.9622 2.26799 0
M  V30 529 H 58.155 1.05072 1.15714 0
M  V30 530 H 58.89 -0.429294 3.21446 0
M  V30 531 H 58.675 1.27515 3.70786 0
M  V30 532 H 60.165 0.392942 4.15747 0
M  V30 533 N 60.6021 -1.18246 1.0419 0
M  V30 534 C 61.5651 -2.20128 0.638452 0
M  V30 535 C 62.5651 -1.57885 -0.304805 0
M  V30 536 O 63.7551 -1.73967 -0.0900369 0
M  V30 537 C 60.8871 -3.4084 -0.0637751 0
M  V30 538 H 62.0801 -2.57336 1.54007 0
M  V30 539 H 59.6331 -1.32152 0.834598 0
M  V30 540 H 60.3681 -3.09166 -0.979136 0
M  V30 541 H 60.1531 -3.8726 0.614198 0
M  V30 542 H 61.6431 -4.16274 -0.332512 0
M  V30 543 N 62.0802 -0.821533 -1.34494 0
M  V30 544 C 63.0432 -0.247847 -2.27856 0
M  V30 545 C 64.0432 0.573453 -1.50227 0
M  V30 546 O 65.2332 0.389759 -1.69784 0
M  V30 547 C 62.3652 0.652698 -3.34593 0
M  V30 548 H 63.5582 -1.07146 -2.80107 0
M  V30 549 H 61.1112 -0.593291 -1.44602 0
M  V30 550 H 61.8462 1.49943 -2.87555 0
M  V30 551 H 61.6312 0.065292 -3.92046 0
M  V30 552 H 63.1212 1.04793 -4.04238 0
M  V30 553 N 63.5583 1.46682 -0.576371 0
M  V30 554 C 64.5063 2.31953 0.17335 0
M  V30 555 C 65.5003 1.44098 0.89062 0
M  V30 556 O 66.7063 1.60759 0.809728 0
M  V30 557 H 63.0813 0.748273 0.0747727 0
M  V30 558 H 65.0523 2.93007 -0.564738 0
M  V30 559 C 63.8013 3.27142 1.17786 0
M  V30 560 H 63.1243 3.94719 0.635361 0
M  V30 561 H 64.5643 3.896 1.67296 0
M  V30 562 C 63.0233 2.52036 2.23561 0
M  V30 563 O 63.5533 2.27877 3.3081 0
M  V30 564 N 61.7593 2.12709 1.97998 0
M  V30 565 H 61.3063 2.32557 1.10792 0
M  V30 566 H 61.2643 1.62776 2.68982 0
M  V30 567 N 65.0364 0.313813 1.54444 0
M  V30 568 C 66.2614 -0.296681 2.05267 0
M  V30 569 C 66.6864 -1.45757 1.18897 0
M  V30 570 O 66.0444 -1.80239 0.195886 0
M  V30 571 C 66.0924 -0.71831 3.53373 0
M  V30 572 O 65.1964 -1.82175 3.69981 0
M  V30 573 H 64.5374 -0.0554061 0.661684 0
M  V30 574 H 67.0674 0.459387 1.99376 0
M  V30 575 H 67.0774 -1.00364 3.95463 0
M  V30 576 H 65.7524 0.130821 4.15694 0
M  V30 577 H 64.3294 -1.53598 3.39797 0
M  V30 578 N 66.5145 -1.57545 0.0417849 0
M  V30 579 C 67.4445 -2.14009 -0.933929 0
M  V30 580 C 68.4255 -1.05938 -1.33083 0
M  V30 581 O 69.6105 -1.33833 -1.40721 0
M  V30 582 C 66.7405 -2.67747 -2.21199 0
M  V30 583 C 65.6945 -3.80718 -1.95544 0
M  V30 584 C 65.0205 -4.20935 -3.29724 0
M  V30 585 C 66.3205 -5.06258 -1.28452 0
M  V30 586 H 68.0145 -2.95788 -0.463645 0
M  V30 587 H 65.5605 -1.42285 -0.221573 0
M  V30 588 H 67.5135 -3.05886 -2.89848 0
M  V30 589 H 66.2375 -1.83147 -2.70416 0
M  V30 590 H 64.8965 -3.43037 -1.2931 0
M  V30 591 H 64.5445 -3.33298 -3.76724 0
M  V30 592 H 64.2445 -4.9707 -3.13361 0
M  V30 593 H 65.7685 -4.61666 -3.9962 0
M  V30 594 H 67.1825 -5.41903 -1.8712 0
M  V30 595 H 65.5795 -5.87475 -1.22445 0
M  V30 596 H 66.6495 -4.84207 -0.259219 0
M  V30 597 N 67.9926 0.231505 -1.5589 0
M  V30 598 C 68.9226 1.29022 -1.94617 0
M  V30 599 C 69.9036 1.4941 -0.813067 0
M  V30 600 O 71.0886 1.6176 -1.07459 0
M  V30 601 C 68.2186 2.64199 -2.25424 0
M  V30 602 C 67.1726 2.58484 -3.41131 0
M  V30 603 C 66.4986 3.97599 -3.57518 0
M  V30 604 C 67.7986 2.1413 -4.76388 0
M  V30 605 H 69.4926 0.968563 -2.83301 0
M  V30 606 H 67.0386 0.464479 -1.36303 0
M  V30 607 H 68.9916 3.38413 -2.51107 0
M  V30 608 H 67.7156 2.98032 -1.33583 0
M  V30 609 H 66.3746 1.86727 -3.15481 0
M  V30 610 H 66.0226 4.28723 -2.6307 0
M  V30 611 H 65.7226 3.94659 -4.35337 0
M  V30 612 H 67.2466 4.7349 -3.85538 0
M  V30 613 H 68.6606 2.78083 -5.01341 0
M  V30 614 H 67.0576 2.2227 -5.57419 0
M  V30 615 H 68.1276 1.09331 -4.72414 0
M  V30 616 N 69.4707 1.49531 0.497807 0
M  V30 617 C 70.7197 1.58426 1.24837 0
M  V30 618 C 71.0327 0.277643 1.93619 0
M  V30 619 O 72.2387 0.24517 2.70391 0
M  V30 620 C 70.6947 2.79538 2.26686 0
M  V30 621 C 70.3027 4.16971 1.63828 0
M  V30 622 C 72.0467 2.97764 3.0255 0
M  V30 623 C 69.9537 5.29301 2.63807 0
M  V30 624 H 68.8837 0.58989 0.469623 0
M  V30 625 H 71.5347 1.75923 0.521857 0
M  V30 626 H 69.9167 2.55542 3.02514 0
M  V30 627 H 71.0907 4.51116 0.939711 0
M  V30 628 H 69.4057 4.04129 1.00342 0
M  V30 629 H 72.0027 3.78856 3.77323 0
M  V30 630 H 72.3457 2.08448 3.60354 0
M  V30 631 H 72.8787 3.21815 2.33838 0
M  V30 632 H 69.6177 6.20687 2.10779 0
M  V30 633 H 69.1377 4.99606 3.31894 0
M  V30 634 H 70.8167 5.58768 3.2617 0
M  V30 635 N 70.9488 -0.749086 1.3866 0
M  V30 636 C 71.9118 -1.84457 1.36045 0
M  V30 637 C 72.9118 -1.58682 0.260122 0
M  V30 638 O 74.1018 -1.66343 0.517261 0
M  V30 639 C 71.2338 -3.22008 1.11911 0
M  V30 640 H 72.4268 -1.88182 2.33512 0
M  V30 641 H 69.9798 -0.951266 1.24019 0
M  V30 642 H 70.7148 -3.2395 0.150686 0
M  V30 643 H 70.4998 -3.42111 1.91579 0
M  V30 644 H 71.9898 -4.0208 1.12788 0
M  V30 645 N 72.4269 -1.23603 -0.977757 0
M  V30 646 C 73.3569 -1.04401 -2.0886 0
M  V30 647 C 74.3379 0.0399052 -1.70053 0
M  V30 648 O 75.5229 -0.125246 -1.93796 0
M  V30 649 C 72.6529 -0.637269 -3.41403 0
M  V30 650 C 71.6069 -1.66883 -3.94124 0
M  V30 651 C 70.9329 -1.11745 -5.22893 0
M  V30 652 C 72.2329 -3.06247 -4.23096 0
M  V30 653 H 73.9269 -1.97316 -2.25182 0
M  V30 654 H 71.4729 -0.950096 -1.08209 0
M  V30 655 H 73.4259 -0.48998 -4.18542 0
M  V30 656 H 72.1499 0.327557 -3.24953 0
M  V30 657 H 70.8089 -1.80416 -3.19133 0
M  V30 658 H 70.4569 -0.143527 -5.02795 0
M  V30 659 H 70.1569 -1.80672 -5.59134 0
M  V30 660 H 71.6809 -0.982067 -6.02651 0
M  V30 661 H 73.0949 -2.96001 -4.90975 0
M  V30 662 H 71.4919 -3.72436 -4.70544 0
M  V30 663 H 72.5619 -3.55041 -3.30263 0
M  V30 664 N 73.905 1.17692 -1.04816 0
M  V30 665 C 75.154 1.87192 -0.751132 0
M  V30 666 C 75.467 1.8169 0.724441 0
M  V30 667 O 76.673 2.46625 1.13527 0
M  V30 668 C 75.129 3.35857 -1.29338 0
M  V30 669 C 74.737 3.4987 -2.79812 0
M  V30 670 C 76.481 4.10709 -1.07322 0
M  V30 671 C 74.388 4.92536 -3.27356 0
M  V30 672 H 73.318 0.701162 -0.277288 0
M  V30 673 H 75.969 1.32932 -1.26496 0
M  V30 674 H 74.351 3.89631 -0.707376 0
M  V30 675 H 75.525 3.06332 -3.44235 0
M  V30 676 H 73.84 2.88433 -3.00325 0
M  V30 677 H 76.437 5.15952 -1.4035 0
M  V30 678 H 76.78 4.16299 -0.0108001 0
M  V30 679 H 77.313 3.6313 -1.62423 0
M  V30 680 H 74.052 4.92119 -4.33012 0
M  V30 681 H 73.572 5.3676 -2.67673 0
M  V30 682 H 75.251 5.61288 -3.21815 0
M  V30 683 N 75.3831 0.828654 1.34056 0
M  V30 684 C 76.6231 0.425394 1.99924 0
M  V30 685 C 76.9871 -0.994294 1.64249 0
M  V30 686 O 78.1881 -1.50074 2.23005 0
M  V30 687 C 76.4591 0.628071 3.51838 0
M  V30 688 S 78.0181 0.318511 4.37642 0
M  V30 689 H 74.8361 0.160465 0.692656 0
M  V30 690 H 77.4381 1.07572 1.63244 0
M  V30 691 H 76.1421 1.66089 3.7529 0
M  V30 692 H 75.6731 -0.0367799 3.93383 0
M  V30 693 H 77.6881 -0.865632 4.88591 0
M  V30 694 N 76.8612 -1.46375 0.584142 0
M  V30 695 C 78.0892 -2.06761 0.0759296 0
M  V30 696 C 78.5042 -1.43266 -1.22965 0
M  V30 697 O 77.8612 -0.538458 -1.74376 0
M  V30 698 C 77.9122 -3.61375 -0.0950384 0
M  V30 699 O 77.6332 -4.22495 1.15887 0
M  V30 700 C 79.1342 -4.38693 -0.637434 0
M  V30 701 H 76.3542 -0.668479 0.0581075 0
M  V30 702 H 78.8982 -1.8798 0.805218 0
M  V30 703 H 77.0532 -3.79578 -0.774554 0
M  V30 704 H 77.4672 -5.15385 0.973598 0
M  V30 705 H 78.9412 -5.47464 -0.706237 0
M  V30 706 H 79.4182 -4.06836 -1.65472 0
M  V30 707 H 80.0242 -4.25299 0.00725967 0
M  V30 708 N 78.3393 -0.321999 -1.54275 0
M  V30 709 C 79.2713 0.578671 -2.21775 0
M  V30 710 C 80.2843 1.08109 -1.21722 0
M  V30 711 O 81.4733 0.994938 -1.482 0
M  V30 712 C 78.5733 1.80661 -2.86731 0
M  V30 713 C 77.7463 1.44314 -4.12907 0
M  V30 714 C 76.8053 2.52845 -4.61472 0
M  V30 715 O 75.8313 2.17054 -5.2619 0
M  V30 716 N 77.0333 3.83748 -4.35566 0
M  V30 717 H 79.7983 0.000709447 -2.997 0
M  V30 718 H 77.3593 -0.145132 -1.61248 0
M  V30 719 H 79.3513 2.52655 -3.16145 0
M  V30 720 H 77.9213 2.29245 -2.12521 0
M  V30 721 H 77.1413 0.554906 -3.90275 0
M  V30 722 H 78.4293 1.17598 -4.95023 0
M  V30 723 H 77.8273 4.15625 -3.83761 0
M  V30 724 H 76.3843 4.51977 -4.69638 0
M  V30 725 N 79.8174 1.5752 -0.0501392 0
M  V30 726 C 81.2284 1.80271 0.485705 0
M  V30 727 C 81.5794 0.96228 1.70981 0
M  V30 728 O 80.7044 0.178578 2.15662 0
M  V30 729 C 81.2994 3.26957 0.887938 0
M  V30 730 C 79.8584 3.5063 1.36877 0
M  V30 731 C 79.0054 2.75165 0.343468 0
M  V30 732 H 81.9564 1.56281 -0.276028 0
M  V30 733 H 81.9774 3.37821 1.75093 0
M  V30 734 H 81.4894 3.881 -0.0031809 0
M  V30 735 H 79.5904 2.94766 2.27911 0
M  V30 736 H 79.7034 4.59343 1.36164 0
M  V30 737 H 78.0674 2.4127 0.816128 0
M  V30 738 H 78.8504 3.39034 -0.539548 0
M  V30 739 N 81.2955 -0.223234 1.56011 0
M  V30 740 C 82.2585 -1.26014 1.9145 0
M  V30 741 C 83.2585 -1.3989 0.792937 0
M  V30 742 O 84.4485 -1.38184 1.0607 0
M  V30 743 C 81.5805 -2.63422 2.16383 0
M  V30 744 H 82.7735 -0.95796 2.84189 0
M  V30 745 H 80.3265 -0.463576 1.49267 0
M  V30 746 H 81.0615 -2.98741 1.2619 0
M  V30 747 H 80.8465 -2.54728 2.98088 0
M  V30 748 H 82.3365 -3.38249 2.44903 0
M  V30 749 N 82.7736 -1.49793 -0.48987 0
M  V30 750 C 83.7036 -1.70201 -1.59856 0
M  V30 751 C 84.6846 -0.55076 -1.60937 0
M  V30 752 O 85.8696 -0.787841 -1.77501 0
M  V30 753 C 82.9996 -1.77882 -2.98287 0
M  V30 754 C 81.9536 -2.92907 -3.12073 0
M  V30 755 C 81.2796 -2.85712 -4.51965 0
M  V30 756 C 82.5796 -4.3369 -2.91051 0
M  V30 757 H 84.2736 -2.63025 -1.43032 0
M  V30 758 H 81.8196 -1.26574 -0.686664 0
M  V30 759 H 83.7726 -1.90744 -3.75759 0
M  V30 760 H 82.4966 -0.816653 -3.16225 0
M  V30 761 H 81.1556 -2.79665 -2.37029 0
M  V30 762 H 80.8036 -1.8738 -4.66795 0
M  V30 763 H 80.5036 -3.62921 -4.62128 0
M  V30 764 H 82.0276 -3.00598 -5.31482 0
M  V30 765 H 83.4416 -4.47555 -3.58284 0
M  V30 766 H 81.8386 -5.12205 -3.12675 0
M  V30 767 H 82.9086 -4.47362 -1.87071 0
M  V30 768 N 84.2517 0.741722 -1.39055 0
M  V30 769 C 85.6677 1.04638 -1.20512 0
M  V30 770 C 85.8677 2.01405 -0.0620218 0
M  V30 771 O 84.9237 2.45547 0.588457 0
M  V30 772 C 86.2367 1.6151 -2.53643 0
M  V30 773 C 87.7847 1.73623 -2.6043 0
M  V30 774 C 88.2597 2.33906 -3.93767 0
M  V30 775 N 89.7507 2.41323 -3.9537 0
M  V30 776 C 90.4857 2.88888 -4.95309 0
M  V30 777 N 89.9817 3.36401 -6.05645 0
M  V30 778 N 91.7747 2.88037 -4.82692 0
M  V30 779 H 83.9257 0.0998155 -2.12165 0
M  V30 780 H 86.1887 0.106907 -0.941953 0
M  V30 781 H 85.8947 0.978739 -3.37807 0
M  V30 782 H 85.7687 2.60411 -2.72885 0
M  V30 783 H 88.1557 2.36384 -1.76655 0
M  V30 784 H 88.2367 0.733945 -2.45045 0
M  V30 785 H 87.8807 1.71776 -4.7797 0
M  V30 786 H 87.8107 3.34799 -4.06469 0
M  V30 787 H 90.3017 2.07734 -3.15682 0
M  V30 788 H 90.6147 3.71186 -6.77821 0
M  V30 789 H 88.9597 3.34427 -6.09248 0
M  V30 790 H 92.1507 2.50237 -3.95599 0
M  V30 791 H 92.3237 3.24792 -5.60726 0
M  V30 792 N 85.7298 1.2412 0.971189 0
M  V30 793 C 86.6778 1.02812 2.08644 0
M  V30 794 C 87.6718 -0.0358403 1.69362 0
M  V30 795 O 88.8778 0.118429 1.7961 0
M  V30 796 H 85.2528 0.315428 0.682649 0
M  V30 797 H 87.2238 1.97397 2.23779 0
M  V30 798 C 85.9728 0.645874 3.41649 0
M  V30 799 H 85.2958 1.45632 3.72332 0
M  V30 800 H 86.7358 0.536366 4.20594 0
M  V30 801 C 85.1948 -0.646713 3.30635 0
M  V30 802 O 85.7248 -1.69338 3.64263 0
M  V30 803 N 83.9308 -0.626115 2.83775 0
M  V30 804 H 83.4778 0.225988 2.56607 0
M  V30 805 H 83.4358 -1.49117 2.76788 0
M  V30 806 N 87.2079 -1.17134 1.05439 0
M  V30 807 C 88.4359 -1.91372 0.786414 0
M  V30 808 C 88.8509 -1.76955 -0.658202 0
M  V30 809 O 88.2079 -1.10838 -1.44987 0
M  V30 810 C 88.2589 -3.42356 1.1608 0
M  V30 811 O 87.9799 -3.56332 2.54871 0
M  V30 812 C 89.4809 -4.33663 0.919322 0
M  V30 813 H 86.7009 -0.607118 0.285743 0
M  V30 814 H 89.2449 -1.48525 1.40572 0
M  V30 815 H 87.3999 -3.82939 0.586191 0
M  V30 816 H 87.8139 -4.49896 2.69618 0
M  V30 817 H 89.2879 -5.38099 1.231 0
M  V30 818 H 89.7649 -4.38959 -0.145359 0
M  V30 819 H 90.3709 -3.98796 1.47789 0
M  V30 820 N 88.686 -0.835752 -1.33615 0
M  V30 821 C 89.911 -0.442389 -2.02627 0
M  V30 822 C 90.336 0.947735 -1.62479 0
M  V30 823 O 89.694 1.61907 -0.815826 0
M  V30 824 C 89.742 -0.567216 -3.56111 0
M  V30 825 O 88.846 0.407799 -4.10379 0
M  V30 826 H 88.187 -0.180278 -0.639059 0
M  V30 827 H 90.717 -1.12972 -1.70583 0
M  V30 828 H 90.727 -0.447708 -4.05536 0
M  V30 829 H 89.402 -1.58103 -3.84677 0
M  V30 830 H 87.979 0.246107 -3.72087 0
M  V30 831 N 90.1641 1.46063 -0.591896 0
M  V30 832 C 91.1121 2.32124 0.148739 0
M  V30 833 C 92.1061 1.45035 0.875286 0
M  V30 834 O 93.3121 1.61609 0.792632 0
M  V30 835 H 89.6871 0.749024 0.066832 0
M  V30 836 H 91.6581 2.92392 -0.595783 0
M  V30 837 C 90.4071 3.28373 1.1431 0
M  V30 838 H 89.7301 3.95371 0.59346 0
M  V30 839 H 91.1701 3.91352 1.63155 0
M  V30 840 C 89.6291 2.54393 2.20875 0
M  V30 841 O 90.1591 2.31373 3.28374 0
M  V30 842 N 88.3651 2.14797 1.95731 0
M  V30 843 H 87.9121 2.33719 1.08319 0
M  V30 844 H 87.8701 1.65619 2.67241 0
M  V30 845 N 91.6422 0.330177 1.54103 0
M  V30 846 C 92.8892 -0.270405 2.00686 0
M  V30 847 C 93.2172 -1.51621 1.21825 0
M  V30 848 O 92.4722 -1.93536 0.29025 0
M  V30 849 C 92.7712 -0.643134 3.51566 0
M  V30 850 C 92.4372 0.504251 4.48072 0
M  V30 851 C 91.0992 0.819163 4.74176 0
M  V30 852 C 93.4512 1.27465 5.05373 0
M  V30 853 C 90.7792 1.90708 5.5484 0
M  V30 854 C 93.1312 2.35271 5.87223 0
M  V30 855 C 91.7952 2.67336 6.11627 0
M  V30 856 H 91.0652 -0.0989482 0.734364 0
M  V30 857 H 93.7122 0.455324 1.86008 0
M  V30 858 H 92.0172 -1.44938 3.64006 0
M  V30 859 H 93.7142 -1.11949 3.85056 0
M  V30 860 H 90.3042 0.248733 4.27878 0
M  V30 861 H 94.4882 1.04462 4.85182 0
M  V30 862 H 89.7442 2.15991 5.71977 0
M  V30 863 H 93.9182 2.95405 6.30641 0
M  V30 864 H 91.5452 3.51763 6.73919 0
M  V30 865 N 93.1203 -1.57491 0.0584922 0
M  V30 866 C 94.3673 -1.92978 -0.613648 0
M  V30 867 C 94.6953 -0.937461 -1.70417 0
M  V30 868 O 93.9503 0.049078 -1.95638 0
M  V30 869 C 94.2493 -3.3513 -1.24188 0
M  V30 870 C 93.9153 -4.50037 -0.278826 0
M  V30 871 C 92.5773 -4.81198 -0.0138447 0
M  V30 872 C 94.9293 -5.19807 0.380777 0
M  V30 873 C 92.2573 -5.79473 0.918052 0
M  V30 874 C 94.6093 -6.19079 1.30091 0
M  V30 875 C 93.2733 -6.48665 1.57449 0
M  V30 876 H 92.5433 -0.706157 -0.22455 0
M  V30 877 H 95.1903 -1.91082 0.126533 0
M  V30 878 H 93.4953 -3.33429 -2.05749 0
M  V30 879 H 95.1923 -3.59871 -1.769 0
M  V30 880 H 91.7823 -4.25726 -0.495539 0
M  V30 881 H 95.9663 -4.95939 0.189158 0
M  V30 882 H 91.2223 -6.00727 1.1374 0
M  V30 883 H 95.3963 -6.7225 1.81804 0
M  V30 884 H 93.0233 -7.24628 2.29822 0
M  V30 885 N 94.5984 0.214957 -1.56127 0
M  V30 886 C 95.5284 1.2695 -1.95974 0
M  V30 887 C 96.5094 1.48539 -0.828868 0
M  V30 888 O 97.6944 1.60611 -1.09168 0
M  V30 889 C 94.8244 2.61794 -2.28214 0
M  V30 890 C 93.7784 2.54851 -3.43853 0
M  V30 891 C 93.1044 3.93785 -3.61715 0
M  V30 892 C 94.4044 2.09065 -4.78632 0
M  V30 893 H 96.0984 0.93846 -2.84312 0
M  V30 894 H 93.6444 0.449996 -1.36788 0
M  V30 895 H 95.5974 3.35731 -2.54682 0
M  V30 896 H 94.3214 2.96599 -1.36736 0
M  V30 897 H 92.9804 1.8337 -3.17444 0
M  V30 898 H 92.6284 4.25908 -2.67602 0
M  V30 899 H 92.3284 3.90019 -4.39498 0
M  V30 900 H 93.8524 4.69374 -3.90539 0
M  V30 901 H 95.2664 2.7275 -5.04262 0
M  V30 902 H 93.6634 2.16346 -5.59745 0
M  V30 903 H 94.7334 1.04315 -4.73547 0
M  V30 904 N 96.0765 1.50051 0.48192 0
M  V30 905 C 97.3225 1.60736 1.2366 0
M  V30 906 C 97.6555 0.301786 1.91841 0
M  V30 907 O 96.9305 -0.696025 1.8162 0
M  V30 908 C 97.2135 2.78009 2.28874 0
M  V30 909 C 97.0665 4.18416 1.65069 0
M  V30 910 C 98.3855 2.90867 3.30279 0
M  V30 911 H 95.5045 0.585031 0.448228 0
M  V30 912 H 98.1465 1.82402 0.531946 0
M  V30 913 H 96.2965 2.59667 2.88973 0
M  V30 914 H 97.9685 4.48322 1.0865 0
M  V30 915 H 96.2115 4.23177 0.954148 0
M  V30 916 H 96.8825 4.96381 2.41474 0
M  V30 917 H 99.3585 3.07623 2.80191 0
M  V30 918 H 98.2345 3.74566 4.01238 0
M  V30 919 H 98.4955 2.01021 3.93755 0
M  V30 920 N 97.5546 -0.734337 1.39446 0
M  V30 921 C 98.7796 -1.52866 1.40167 0
M  V30 922 C 99.2046 -1.881 -0.00171513 0
M  V30 923 O 98.5626 -1.51957 -0.988879 0
M  V30 924 C 98.6106 -2.79235 2.28167 0
M  V30 925 O 97.7146 -3.75185 1.71201 0
M  V30 926 H 97.0556 -0.461618 0.477289 0
M  V30 927 H 99.5856 -0.905949 1.8345 0
M  V30 928 H 99.5956 -3.27963 2.42702 0
M  V30 929 H 98.2706 -2.52923 3.30156 0
M  V30 930 H 96.8476 -3.33958 1.65912 0
M  V30 931 N 99.0327 -1.24633 -0.964593 0
M  V30 932 C 99.9627 -1.06611 -2.07741 0
M  V30 933 C 100.944 0.0218666 -1.70086 0
M  V30 934 O 102.129 -0.145793 -1.93652 0
M  V30 935 C 99.2587 -0.673444 -3.40708 0
M  V30 936 C 98.2127 -1.71054 -3.92332 0
M  V30 937 C 97.5387 -1.17285 -5.21678 0
M  V30 938 C 98.8387 -3.10718 -4.19824 0
M  V30 939 H 100.533 -1.99693 -2.23076 0
M  V30 940 H 98.0787 -0.96152 -1.07195 0
M  V30 941 H 100.032 -0.534345 -4.17998 0
M  V30 942 H 98.7557 0.293073 -3.25282 0
M  V30 943 H 97.4147 -1.83791 -3.17201 0
M  V30 944 H 97.0627 -0.196847 -5.02615 0
M  V30 945 H 96.7627 -1.86592 -5.57187 0
M  V30 946 H 98.2867 -1.04593 -6.01575 0
M  V30 947 H 99.7007 -3.01192 -4.87808 0
M  V30 948 H 98.0977 -3.77406 -4.66567 0
M  V30 949 H 99.1677 -3.58524 -3.26479 0
M  V30 950 N 100.511 1.16574 -1.06058 0
M  V30 951 C 101.758 1.87047 -0.775873 0
M  V30 952 C 102.086 1.81562 0.697534 0
M  V30 953 O 101.341 1.22445 1.52662 0
M  V30 954 C 101.64 3.36195 -1.21275 0
M  V30 955 C 101.306 3.6188 -2.68986 0
M  V30 956 C 99.9678 3.68599 -3.09335 0
M  V30 957 C 102.32 3.72648 -3.64394 0
M  V30 958 C 99.6478 3.83584 -4.43937 0
M  V30 959 C 102 3.89154 -4.98741 0
M  V30 960 C 100.664 3.94114 -5.3873 0
M  V30 961 H 99.9338 0.684452 -0.283912 0
M  V30 962 H 102.581 1.37853 -1.32925 0
M  V30 963 H 100.886 3.87505 -0.578528 0
M  V30 964 H 102.583 3.89103 -0.969542 0
M  V30 965 H 99.1728 3.57281 -2.36744 0
M  V30 966 H 103.357 3.66769 -3.34356 0
M  V30 967 H 98.6128 3.85677 -4.74409 0
M  V30 968 H 102.787 3.96427 -5.72554 0
M  V30 969 H 100.414 4.05478 -6.43033 0
M  V30 970 N 101.989 0.842826 1.3317 0
M  V30 971 C 103.217 0.454055 2.01856 0
M  V30 972 C 103.632 -0.94587 1.63397 0
M  V30 973 O 102.989 -1.61534 0.849302 0
M  V30 974 C 103.04 0.569715 3.56982 0
M  V30 975 O 102.761 1.91448 3.94055 0
M  V30 976 C 104.262 0.178412 4.42941 0
M  V30 977 H 101.482 0.17979 0.646465 0
M  V30 978 H 104.026 1.1365 1.70012 0
M  V30 979 H 102.181 -0.0648587 3.87346 0
M  V30 980 H 102.595 1.90282 4.88767 0
M  V30 981 H 104.069 0.310376 5.51127 0
M  V30 982 H 104.546 -0.880056 4.30293 0
M  V30 983 H 105.152 0.787579 4.17944 0
M  V30 984 N 103.467 -1.45747 0.599634 0
M  V30 985 C 104.692 -2.07178 0.0960198 0
M  V30 986 C 105.117 -1.44268 -1.207 0
M  V30 987 O 104.475 -0.532503 -1.73303 0
M  V30 988 C 104.523 -3.60579 -0.0385348 0
M  V30 989 O 103.627 -3.97713 -1.0908 0
M  V30 990 H 102.968 -0.660251 0.0704593 0
M  V30 991 H 105.498 -1.87124 0.827385 0
M  V30 992 H 105.508 -4.07298 -0.239304 0
M  V30 993 H 104.183 -4.05756 0.912947 0
M  V30 994 H 102.76 -3.62678 -0.867135 0
M  V30 995 N 104.945 -0.338344 -1.53925 0
M  V30 996 C 106.222 0.314774 -1.93051 0
M  V30 997 C 106.602 1.68669 -1.26941 0
M  V30 998 O 105.95 2.24636 -0.418445 0
M  V30 999 C 106.16 0.392249 -3.46789 0
M  V30 1000 C 107.508 0.645554 -4.19664 0
M  V30 1001 O 108.532 0.474575 -3.53024 0
M  V30 1002 O 107.391 0.976408 -5.37707 0
M  V30 1003 H 104.485 0.182598 -0.80659 0
M  V30 1004 H 107.031 -0.389141 -1.65178 0
M  V30 1005 H 105.803 -0.570702 -3.87116 0
M  V30 1006 H 105.426 1.14316 -3.80812 0
M  V30 1007 N 106.423 1.57458 -0.0668435 0
M  V30 1008 C 107.353 2.15468 0.899764 0
M  V30 1009 C 108.334 1.08042 1.31381 0
M  V30 1010 O 109.519 1.36054 1.38574 0
M  V30 1011 C 106.649 2.71232 2.16911 0
M  V30 1012 C 105.603 3.83781 1.89463 0
M  V30 1013 C 104.929 4.26127 3.22986 0
M  V30 1014 C 106.229 5.08238 1.20381 0
M  V30 1015 H 107.923 2.96488 0.416529 0
M  V30 1016 H 105.469 1.4262 0.198908 0
M  V30 1017 H 107.422 3.10458 2.84945 0
M  V30 1018 H 106.146 1.87426 2.67468 0
M  V30 1019 H 104.805 3.45051 1.23836 0
M  V30 1020 H 104.453 3.39249 3.71374 0
M  V30 1021 H 104.153 5.01993 3.05413 0
M  V30 1022 H 105.677 4.67966 3.92225 0
M  V30 1023 H 107.091 5.44811 1.78475 0
M  V30 1024 H 105.488 5.89349 1.13083 0
M  V30 1025 H 106.558 4.84558 0.182153 0
M  V30 1026 N 107.901 -0.206675 1.56239 0
M  V30 1027 C 108.834 -1.28383 1.88661 0
M  V30 1028 C 109.812 -1.44504 0.745481 0
M  V30 1029 O 110.996 -1.60079 0.995336 0
M  V30 1030 C 108.123 -2.65211 2.10667 0
M  V30 1031 C 107.169 -2.66025 3.33366 0
M  V30 1032 S 108.002 -2.18609 4.88846 0
M  V30 1033 C 109.158 -3.57283 5.13906 0
M  V30 1034 H 109.391 -1.00691 2.7973 0
M  V30 1035 H 106.924 -0.409627 1.48867 0
M  V30 1036 H 108.882 -3.43979 2.24029 0
M  V30 1037 H 107.543 -2.90121 1.20369 0
M  V30 1038 H 106.736 -3.66607 3.45855 0
M  V30 1039 H 106.338 -1.95331 3.18938 0
M  V30 1040 H 108.63 -4.53074 5.03717 0
M  V30 1041 H 109.573 -3.49699 6.15724 0
M  V30 1042 H 109.981 -3.51659 4.41583 0
M  V30 1043 N 109.379 -1.50304 -0.473955 0
M  V30 1044 C 110.625 -1.61389 -1.22806 0
M  V30 1045 C 110.958 -0.311955 -1.91678 0
M  V30 1046 O 110.233 0.686384 -1.81986 0
M  V30 1047 C 110.516 -2.79219 -2.27396 0
M  V30 1048 C 110.369 -4.19286 -1.62848 0
M  V30 1049 C 111.688 -2.92614 -3.28732 0
M  V30 1050 H 108.807 -0.587399 -0.445119 0
M  V30 1051 H 111.449 -1.82681 -0.522265 0
M  V30 1052 H 109.599 -2.61195 -2.87592 0
M  V30 1053 H 111.271 -4.48892 -1.06271 0
M  V30 1054 H 109.514 -4.23677 -0.931693 0
M  V30 1055 H 110.185 -4.97655 -2.38838 0
M  V30 1056 H 112.661 -3.09105 -2.78556 0
M  V30 1057 H 111.537 -3.76688 -3.99246 0
M  V30 1058 H 111.798 -2.03107 -3.92683 0
M  V30 1059 N 110.857 0.726932 -1.39834 0
M  V30 1060 C 112.105 1.4837 -1.37225 0
M  V30 1061 C 112.426 1.94979 0.0284857 0
M  V30 1062 O 111.696 1.69555 0.981213 0
M  V30 1063 H 110.276 0.55043 -0.505011 0
M  V30 1064 H 112.938 0.862468 -1.74778 0
M  V30 1065 H 112.034 2.36198 -2.04003 0
M  V30 1066 N 112.336 1.25143 0.95797 0
M  V30 1067 C 113.266 1.07711 2.07173 0
M  V30 1068 C 114.247 -0.0128462 1.70095 0
M  V30 1069 O 115.432 0.156061 1.93572 0
M  V30 1070 C 112.562 0.691503 3.40346 0
M  V30 1071 C 111.516 1.73132 3.9142 0
M  V30 1072 C 110.842 1.20049 5.21049 0
M  V30 1073 C 112.142 3.1294 4.1817 0
M  V30 1074 H 113.836 2.00873 2.22014 0
M  V30 1075 H 111.382 0.967191 1.06684 0
M  V30 1076 H 113.335 0.556505 4.17709 0
M  V30 1077 H 112.059 -0.275819 3.25433 0
M  V30 1078 H 110.718 1.8547 3.16222 0
M  V30 1079 H 110.366 0.223499 5.02503 0
M  V30 1080 H 110.066 1.89545 5.56189 0
M  V30 1081 H 111.59 1.07782 6.01012 0
M  V30 1082 H 113.004 3.03775 4.86203 0
M  V30 1083 H 111.401 3.79875 4.64559 0
M  V30 1084 H 112.471 3.6025 3.24573 0
M  V30 1085 N 113.814 -1.1601 1.06675 0
M  V30 1086 C 115.06 -1.86909 0.786945 0
M  V30 1087 C 115.393 -1.81717 -0.685018 0
M  V30 1088 O 114.668 -1.23551 -1.50218 0
M  V30 1089 C 114.951 -3.36313 1.28707 0
M  V30 1090 C 114.804 -3.50175 2.82308 0
M  V30 1091 C 116.123 -4.3084 0.898071 0
M  V30 1092 H 113.242 -0.678677 0.287343 0
M  V30 1093 H 115.884 -1.36336 1.32334 0
M  V30 1094 H 114.034 -3.79513 0.830768 0
M  V30 1095 H 115.706 -3.15886 3.36175 0
M  V30 1096 H 113.949 -2.91959 3.20847 0
M  V30 1097 H 114.62 -4.55116 3.12368 0
M  V30 1098 H 117.096 -3.95561 1.29114 0
M  V30 1099 H 115.972 -5.33876 1.27543 0
M  V30 1100 H 116.233 -4.41662 -0.196651 0
M  V30 1101 N 115.292 -0.849877 -1.32721 0
M  V30 1102 C 116.538 -0.451591 -1.97708 0
M  V30 1103 C 116.871 0.989175 -1.6712 0
M  V30 1104 O 116.146 1.69334 -0.956891 0
M  V30 1105 C 116.429 -0.685598 -3.53513 0
M  V30 1106 C 116.282 -2.17444 -3.93749 0
M  V30 1107 C 117.601 -0.138874 -4.39881 0
M  V30 1108 H 114.72 -0.16555 -0.718166 0
M  V30 1109 H 117.362 -1.06742 -1.57182 0
M  V30 1110 H 115.512 -0.161416 -3.88165 0
M  V30 1111 H 117.184 -2.76433 -3.693 0
M  V30 1112 H 115.427 -2.65476 -3.43081 0
M  V30 1113 H 116.098 -2.28888 -5.02309 0
M  V30 1114 H 118.574 -0.587068 -4.11938 0
M  V30 1115 H 117.45 -0.332213 -5.47894 0
M  V30 1116 H 117.711 0.95806 -4.31594 0
M  V30 1117 N 116.77 1.45427 -0.607355 0
M  V30 1118 C 117.703 2.27635 0.160482 0
M  V30 1119 C 118.681 1.37122 0.873857 0
M  V30 1120 O 119.865 1.66551 0.882775 0
M  V30 1121 C 116.992 3.15486 1.23231 0
M  V30 1122 C 116.038 4.21939 0.622097 0
M  V30 1123 S 116.871 5.32459 -0.569852 0
M  V30 1124 C 118.027 6.23879 0.502577 0
M  V30 1125 H 118.26 2.9241 -0.536983 0
M  V30 1126 H 115.793 1.49265 -0.394868 0
M  V30 1127 H 117.751 3.66659 1.84585 0
M  V30 1128 H 116.412 2.49977 1.90185 0
M  V30 1129 H 115.605 4.8333 1.42856 0
M  V30 1130 H 115.207 3.73906 0.0837063 0
M  V30 1131 H 117.499 6.63261 1.38171 0
M  V30 1132 H 118.442 7.0806 -0.0751759 0
M  V30 1133 H 118.85 5.58545 0.8178 0
M  V30 1134 N 118.248 0.346503 1.53744 0
M  V30 1135 C 119.659 -0.136779 1.86198 0
M  V30 1136 C 120.01 -1.49749 1.26766 0
M  V30 1137 O 119.135 -2.08417 0.582355 0
M  V30 1138 C 119.73 -0.254966 3.37839 0
M  V30 1139 C 118.289 -0.682482 3.70161 0
M  V30 1140 C 117.436 0.181981 2.76702 0
M  V30 1141 H 120.387 0.565994 1.48264 0
M  V30 1142 H 120.408 -1.08195 3.64793 0
M  V30 1143 H 119.92 0.735526 3.81066 0
M  V30 1144 H 118.021 -1.68189 3.3248 0
M  V30 1145 H 118.134 -0.470326 4.76786 0
M  V30 1146 H 116.498 -0.34615 2.52337 0
M  V30 1147 H 117.281 1.16966 3.2276 0
M  V30 1148 N 119.726 -1.57421 0.075193 0
M  V30 1149 C 121.137 -1.81021 -0.456964 0
M  V30 1150 C 121.488 -0.98936 -1.69429 0
M  V30 1151 O 120.613 -0.212865 -2.15351 0
M  V30 1152 C 121.208 -3.28329 -0.83581 0
M  V30 1153 C 119.767 -3.52764 -1.31281 0
M  V30 1154 C 118.914 -2.75676 -0.299648 0
M  V30 1155 H 121.865 -1.55822 0.300856 0
M  V30 1156 H 121.886 -3.40564 -1.69696 0
M  V30 1157 H 121.398 -3.88046 0.0649238 0
M  V30 1158 H 119.499 -2.98355 -2.23193 0
M  V30 1159 H 119.612 -4.61451 -1.28839 0
M  V30 1160 H 117.976 -2.42538 -0.777641 0
M  V30 1161 H 118.759 -3.38132 0.593417 0
M  V30 1162 N 121.204 0.198386 -1.56346 0
M  V30 1163 C 122.167 1.22952 -1.93431 0
M  V30 1164 C 123.167 1.38611 -0.815092 0
M  V30 1165 O 124.357 1.36479 -1.08255 0
M  V30 1166 C 121.489 2.59946 -2.20546 0
M  V30 1167 H 122.682 0.912626 -2.85677 0
M  V30 1168 H 120.235 0.43977 -1.49986 0
M  V30 1169 H 120.97 2.96696 -1.30927 0
M  V30 1170 H 120.755 2.49953 -3.02102 0
M  V30 1171 H 122.245 3.3431 -2.50253 0
M  V30 1172 N 122.682 1.50554 0.465978 0
M  V30 1173 C 123.615 1.64436 1.58227 0
M  V30 1174 C 124.593 0.492367 1.54966 0
M  V30 1175 O 125.777 0.712536 1.74514 0
M  V30 1176 C 122.904 1.63165 2.96808 0
M  V30 1177 C 121.95 2.83987 3.18204 0
M  V30 1178 S 122.783 4.45219 2.97557 0
M  V30 1179 C 123.939 4.46649 4.3847 0
M  V30 1180 H 124.172 2.58861 1.46213 0
M  V30 1181 H 121.705 1.3988 0.653678 0
M  V30 1182 H 123.663 1.63116 3.76701 0
M  V30 1183 H 122.324 0.69967 3.06208 0
M  V30 1184 H 121.517 2.79416 4.19455 0
M  V30 1185 H 121.119 2.81629 2.46092 0
M  V30 1186 H 123.411 4.20526 5.31191 0
M  V30 1187 H 124.354 5.48295 4.48082 0
M  V30 1188 H 124.762 3.76296 4.20787 0
M  V30 1189 N 124.16 -0.719506 1.40217 0
M  V30 1190 C 125.09 -1.8465 1.42922 0
M  V30 1191 C 126.071 -1.67599 0.29062 0
M  V30 1192 O 127.256 -1.87688 0.498677 0
M  V30 1193 C 124.386 -3.22565 1.28722 0
M  V30 1194 C 123.34 -3.54281 2.40144 0
M  V30 1195 C 122.666 -4.91298 2.11023 0
M  V30 1196 C 123.966 -3.55676 3.82481 0
M  V30 1197 H 125.66 -1.82644 2.37237 0
M  V30 1198 H 123.206 -0.877305 1.1419 0
M  V30 1199 H 125.159 -4.01095 1.29232 0
M  V30 1200 H 123.883 -3.25137 0.308811 0
M  V30 1201 H 122.542 -2.78088 2.38877 0
M  V30 1202 H 122.19 -4.90468 1.11582 0
M  V30 1203 H 121.89 -5.13485 2.8567 0
M  V30 1204 H 123.414 -5.72166 2.13209 0
M  V30 1205 H 124.828 -4.24254 3.85592 0
M  V30 1206 H 123.225 -3.89388 4.56614 0
M  V30 1207 H 124.295 -2.55144 4.12346 0
M  V30 1208 N 125.638 -1.25649 -0.95132 0
M  V30 1209 C 126.586 -1.06118 -2.06982 0
M  V30 1210 C 127.58 0.00889169 -1.69398 0
M  V30 1211 O 128.786 -0.146988 -1.79399 0
M  V30 1212 H 125.161 -0.326248 -0.677544 0
M  V30 1213 H 127.132 -2.00932 -2.2061 0
M  V30 1214 C 125.881 -0.700145 -3.40578 0
M  V30 1215 H 125.204 -1.51537 -3.69968 0
M  V30 1216 H 126.644 -0.603211 -4.19687 0
M  V30 1217 C 125.103 0.59403 -3.31622 0
M  V30 1218 O 125.633 1.63522 -3.66911 0
M  V30 1219 N 123.839 0.58089 -2.84735 0
M  V30 1220 H 123.386 -0.266783 -2.56215 0
M  V30 1221 H 123.344 1.44695 -2.79125 0
M  V30 1222 N 127.117 1.15442 -1.07289 0
M  V30 1223 C 128.08 2.18358 -0.696591 0
M  V30 1224 C 129.08 1.58637 0.262837 0
M  V30 1225 O 130.27 1.74145 0.0438809 0
M  V30 1226 C 127.402 3.4089 -0.0266151 0
M  V30 1227 H 128.595 2.53162 -1.60776 0
M  V30 1228 H 126.148 1.29893 -0.869342 0
M  V30 1229 H 126.883 3.11653 0.896822 0
M  V30 1230 H 126.668 3.85495 -0.716657 0
M  V30 1231 H 128.158 4.17009 0.222028 0
M  V30 1232 N 128.595 0.856903 1.32268 0
M  V30 1233 C 129.525 0.31858 2.31316 0
M  V30 1234 C 130.506 -0.583487 1.59779 0
M  V30 1235 O 131.691 -0.503259 1.87566 0
M  V30 1236 C 128.821 -0.491979 3.43798 0
M  V30 1237 C 127.775 0.315849 4.26833 0
M  V30 1238 C 127.101 -0.619586 5.31098 0
M  V30 1239 C 128.401 1.54282 4.98993 0
M  V30 1240 H 130.095 1.14621 2.76591 0
M  V30 1241 H 127.641 0.552613 1.32974 0
M  V30 1242 H 129.594 -0.879012 4.1213 0
M  V30 1243 H 128.318 -1.35299 2.97257 0
M  V30 1244 H 126.977 0.684664 3.6015 0
M  V30 1245 H 126.625 -1.47751 4.8081 0
M  V30 1246 H 126.325 -0.0830621 5.87541 0
M  V30 1247 H 127.849 -1.00375 6.02293 0
M  V30 1248 H 129.263 1.22796 5.59995 0
M  V30 1249 H 127.66 2.01745 5.65172 0
M  V30 1250 H 128.73 2.30285 4.26728 0
M  V30 1251 N 130.073 -1.45103 0.615059 0
M  V30 1252 C 131.303 -2.06254 0.119596 0
M  V30 1253 C 131.711 -1.4591 -1.20445 0
M  V30 1254 O 131.054 -0.570384 -1.7462 0
M  V30 1255 C 131.116 -3.59396 -0.0865591 0
M  V30 1256 C 130.78 -4.42116 1.15683 0
M  V30 1257 C 131.777 -4.7662 2.07676 0
M  V30 1258 C 129.462 -4.82749 1.38775 0
M  V30 1259 C 131.456 -5.50622 3.21082 0
M  V30 1260 C 129.143 -5.56504 2.52481 0
M  V30 1261 C 130.141 -5.90358 3.43463 0
M  V30 1262 O 129.829 -6.62615 4.55189 0
M  V30 1263 H 129.561 -0.672423 0.0694512 0
M  V30 1264 H 132.115 -1.87219 0.844885 0
M  V30 1265 H 130.345 -3.76859 -0.866823 0
M  V30 1266 H 132.034 -4.02365 -0.534555 0
M  V30 1267 H 132.8 -4.4578 1.91063 0
M  V30 1268 H 128.679 -4.55829 0.688545 0
M  V30 1269 H 132.223 -5.76965 3.92119 0
M  V30 1270 H 128.12 -5.86759 2.69043 0
M  V30 1271 H 128.888 -6.81071 4.53966 0
M  V30 1272 N 131.551 -0.354651 -1.53558 0
M  V30 1273 C 132.799 0.237972 -2.00694 0
M  V30 1274 C 133.12 1.50173 -1.24391 0
M  V30 1275 O 132.39 1.92673 -0.354135 0
M  V30 1276 H 130.97 0.0909256 -0.741446 0
M  V30 1277 H 133.632 -0.478368 -1.88938 0
M  V30 1278 H 132.728 0.47264 -3.085 0
M  V30 1279 N 133.029 1.57378 -0.0835403 0
M  V30 1280 C 134.445 1.57246 0.273109 0
M  V30 1281 C 134.645 1.09385 1.69225 0
M  V30 1282 O 133.701 0.765051 2.40631 0
M  V30 1283 C 135.014 3.00614 0.0720628 0
M  V30 1284 C 136.562 3.12684 0.1407 0
M  V30 1285 C 137.037 4.57989 -0.0322094 0
M  V30 1286 N 138.528 4.63194 0.0230085 0
M  V30 1287 C 139.263 5.73335 -0.0861941 0
M  V30 1288 N 138.759 6.9235 -0.24958 0
M  V30 1289 N 140.552 5.62093 -0.0282886 0
M  V30 1290 H 132.703 1.86801 -1.0109 0
M  V30 1291 H 134.966 0.861687 -0.395222 0
M  V30 1292 H 134.672 3.39786 -0.907662 0
M  V30 1293 H 134.546 3.68193 0.81936 0
M  V30 1294 H 136.933 2.73391 1.11092 0
M  V30 1295 H 137.014 2.47719 -0.637896 0
M  V30 1296 H 136.658 4.97973 -0.999247 0
M  V30 1297 H 136.588 5.21 0.765937 0
M  V30 1298 H 139.079 3.77613 0.14722 0
M  V30 1299 H 139.392 7.72117 -0.324733 0
M  V30 1300 H 137.737 6.94415 -0.285097 0
M  V30 1301 H 140.928 4.67997 0.0981408 0
M  V30 1302 H 141.101 6.47895 -0.116845 0
M  V30 1303 N 134.507 -0.190092 1.56449 0
M  V30 1304 C 135.753 -0.906472 1.82084 0
M  V30 1305 C 136.108 -1.80677 0.661335 0
M  V30 1306 O 135.401 -1.88501 -0.343237 0
M  V30 1307 C 135.595 -1.75382 3.1141 0
M  V30 1308 C 135.424 -0.937053 4.39829 0
M  V30 1309 C 134.194 -0.619507 5.01488 0
M  V30 1310 C 136.392 -0.2874 5.13496 0
M  V30 1311 N 134.374 0.215367 6.13522 0
M  V30 1312 C 135.745 0.409454 6.18646 0
M  V30 1313 C 137.8 -0.203639 4.97483 0
M  V30 1314 C 136.503 1.1821 7.0952 0
M  V30 1315 C 138.529 0.555622 5.88784 0
M  V30 1316 C 137.891 1.24091 6.93384 0
M  V30 1317 H 133.99 -0.310931 0.717528 0
M  V30 1318 H 136.574 -0.174821 1.93914 0
M  V30 1319 H 134.745 -2.45703 3.00806 0
M  V30 1320 H 136.477 -2.41006 3.25112 0
M  V30 1321 H 133.232 -0.945126 4.64074 0
M  V30 1322 H 133.656 0.622562 6.74131 0
M  V30 1323 H 138.298 -0.719099 4.1664 0
M  V30 1324 H 136.016 1.70897 7.89823 0
M  V30 1325 H 139.602 0.621854 5.78467 0
M  V30 1326 H 138.482 1.81901 7.62812 0
M  V30 1327 N 135.985 -1.50799 -0.457987 0
M  V30 1328 C 137.231 -1.62683 -1.21088 0
M  V30 1329 C 137.564 -0.332268 -1.91336 0
M  V30 1330 O 136.839 0.667043 -1.82704 0
M  V30 1331 C 137.122 -2.81615 -2.24422 0
M  V30 1332 C 136.975 -4.20989 -1.58392 0
M  V30 1333 C 138.294 -2.96085 -3.2561 0
M  V30 1334 H 135.413 -0.592087 -0.438864 0
M  V30 1335 H 138.055 -1.83225 -0.50286 0
M  V30 1336 H 136.205 -2.64231 -2.84806 0
M  V30 1337 H 137.877 -4.49994 -1.01504 0
M  V30 1338 H 136.12 -4.24641 -0.886704 0
M  V30 1339 H 136.791 -5.0016 -2.33547 0
M  V30 1340 H 139.267 -3.12042 -2.75262 0
M  V30 1341 H 138.143 -3.80902 -3.95228 0
M  V30 1342 H 138.404 -2.0726 -3.90507 0
M  V30 1343 N 137.463 0.71206 -1.40597 0
M  V30 1344 C 138.393 1.83889 -1.43899 0
M  V30 1345 C 139.374 1.67442 -0.299504 0
M  V30 1346 O 140.559 1.87421 -0.508624 0
M  V30 1347 C 137.689 3.21877 -1.30431 0
M  V30 1348 C 136.643 3.53002 -2.42019 0
M  V30 1349 C 135.969 4.90172 -2.13626 0
M  V30 1350 C 137.269 3.53643 -3.84362 0
M  V30 1351 H 138.963 1.81383 -2.38203 0
M  V30 1352 H 136.509 0.871237 -1.14654 0
M  V30 1353 H 138.462 4.00404 -1.31357 0
M  V30 1354 H 137.186 3.24968 -0.326049 0
M  V30 1355 H 135.845 2.76818 -2.40349 0
M  V30 1356 H 135.493 4.89869 -1.14182 0
M  V30 1357 H 135.193 5.11962 -2.88389 0
M  V30 1358 H 136.717 5.71028 -2.1624 0
M  V30 1359 H 138.131 4.22203 -3.87837 0
M  V30 1360 H 136.528 3.86961 -4.58673 0
M  V30 1361 H 137.598 2.52954 -4.13693 0
M  V30 1362 N 138.941 1.26152 0.944643 0
M  V30 1363 C 139.904 1.07474 2.0244 0
M  V30 1364 C 140.904 0.0242064 1.60782 0
M  V30 1365 O 142.094 0.267302 1.72137 0
M  V30 1366 C 139.226 0.633956 3.34953 0
M  V30 1367 H 140.419 2.03336 2.20442 0
M  V30 1368 H 137.972 1.087 1.12312 0
M  V30 1369 H 138.707 -0.326811 3.22649 0
M  V30 1370 H 138.492 1.39247 3.66542 0
M  V30 1371 H 139.982 0.52501 4.14287 0
M  V30 1372 N 140.419 -1.14872 1.07899 0
M  V30 1373 C 141.835 -1.37776 0.805606 0
M  V30 1374 C 142.035 -1.92743 -0.587555 0
M  V30 1375 O 141.091 -2.13678 -1.34528 0
M  V30 1376 C 142.404 -2.34361 1.88402 0
M  V30 1377 C 143.952 -2.48012 1.90942 0
M  V30 1378 C 144.427 -3.47893 2.97883 0
M  V30 1379 N 145.918 -3.55433 2.97021 0
M  V30 1380 C 146.653 -4.32553 3.76412 0
M  V30 1381 N 146.149 -5.12959 4.65666 0
M  V30 1382 N 147.942 -4.27697 3.64735 0
M  V30 1383 H 140.093 -0.775365 1.97742 0
M  V30 1384 H 142.356 -0.403521 0.857831 0
M  V30 1385 H 142.062 -2.01098 2.88535 0
M  V30 1386 H 141.936 -3.34206 1.74889 0
M  V30 1387 H 144.323 -2.8057 0.914579 0
M  V30 1388 H 144.404 -1.48147 2.08534 0
M  V30 1389 H 144.048 -3.16069 3.97571 0
M  V30 1390 H 143.978 -4.47527 2.77538 0
M  V30 1391 H 146.469 -2.98048 2.32326 0
M  V30 1392 H 146.782 -5.69065 5.22862 0
M  V30 1393 H 145.127 -5.12245 4.69712 0
M  V30 1394 H 148.318 -3.63949 2.94378 0
M  V30 1395 H 148.491 -4.8755 4.26848 0
M  V30 1396 N 141.898 -0.863906 -1.31812 0
M  V30 1397 C 143.146 -0.470904 -1.96537 0
M  V30 1398 C 143.467 0.978771 -1.68657 0
M  V30 1399 O 142.737 1.6853 -0.998717 0
M  V30 1400 H 141.317 -0.171148 -0.72713 0
M  V30 1401 H 143.979 -1.10236 -1.60729 0
M  V30 1402 H 143.075 -0.623616 -3.05806 0
M  V30 1403 N 143.376 1.44774 -0.622745 0
M  V30 1404 C 144.306 2.33382 0.0741861 0
M  V30 1405 C 145.287 1.47719 0.843387 0
M  V30 1406 O 146.472 1.76458 0.810934 0
M  V30 1407 C 143.602 3.30663 1.06204 0
M  V30 1408 C 142.556 4.26079 0.405037 0
M  V30 1409 C 141.882 5.13165 1.5022 0
M  V30 1410 C 143.182 5.1781 -0.683414 0
M  V30 1411 H 144.876 2.91905 -0.665713 0
M  V30 1412 H 142.422 1.40363 -0.321587 0
M  V30 1413 H 144.375 3.9153 1.55827 0
M  V30 1414 H 143.099 2.70331 1.83272 0
M  V30 1415 H 141.758 3.66532 -0.0704683 0
M  V30 1416 H 141.406 4.49191 2.26355 0
M  V30 1417 H 141.106 5.77812 1.06803 0
M  V30 1418 H 142.63 5.76902 2.00041 0
M  V30 1419 H 144.044 5.72661 -0.270631 0
M  V30 1420 H 142.441 5.91015 -1.04023 0
M  V30 1421 H 143.511 4.59326 -1.55395 0
M  V30 1422 N 144.854 0.36279 1.53368 0
M  V30 1423 C 146.094 -0.227882 2.03126 0
M  V30 1424 C 146.458 -1.4622 1.24434 0
M  V30 1425 O 147.659 -2.12831 1.64184 0
M  V30 1426 C 145.93 -0.515427 3.53664 0
M  V30 1427 S 147.489 -1.08017 4.25297 0
M  V30 1428 H 144.307 -0.0665377 0.70788 0
M  V30 1429 H 146.909 0.50501 1.88865 0
M  V30 1430 H 145.613 0.390436 4.08539 0
M  V30 1431 H 145.144 -1.27747 3.72081 0
M  V30 1432 H 147.159 -2.36462 4.36234 0
M  V30 1433 N 146.332 -1.57332 0.0918853 0
M  V30 1434 C 147.262 -2.16872 -0.865371 0
M  V30 1435 C 148.243 -1.10118 -1.29646 0
M  V30 1436 O 149.428 -1.38242 -1.36392 0
M  V30 1437 C 146.558 -2.74649 -2.12569 0
M  V30 1438 C 145.512 -3.86747 -1.83333 0
M  V30 1439 C 144.838 -4.31212 -3.16166 0
M  V30 1440 C 146.138 -5.10089 -1.1228 0
M  V30 1441 H 147.832 -2.97114 -0.369307 0
M  V30 1442 H 145.378 -1.42918 -0.176194 0
M  V30 1443 H 147.331 -3.14952 -2.7997 0
M  V30 1444 H 146.055 -1.91657 -2.64452 0
M  V30 1445 H 144.714 -3.46978 -1.18331 0
M  V30 1446 H 144.362 -3.45115 -3.6593 0
M  V30 1447 H 144.062 -5.06788 -2.97388 0
M  V30 1448 H 145.586 -4.74146 -3.84731 0
M  V30 1449 H 147 -5.47582 -1.69785 0
M  V30 1450 H 145.397 -5.91073 -1.03693 0
M  V30 1451 H 146.467 -4.84786 -0.105041 0
M  V30 1452 N 147.81 0.181792 -1.56548 0
M  V30 1453 C 148.74 1.22765 -1.98623 0
M  V30 1454 C 149.721 1.46747 -0.860189 0
M  V30 1455 O 150.906 1.58259 -1.12551 0
M  V30 1456 C 148.036 2.56894 -2.33715 0
M  V30 1457 C 146.99 2.475 -3.49182 0
M  V30 1458 C 146.316 3.86023 -3.69986 0
M  V30 1459 C 147.616 1.98866 -4.82959 0
M  V30 1460 H 149.31 0.877942 -2.86239 0
M  V30 1461 H 146.856 0.42088 -1.37712 0
M  V30 1462 H 148.809 3.30253 -2.61746 0
M  V30 1463 H 147.533 2.93632 -1.42997 0
M  V30 1464 H 146.192 1.76596 -3.21262 0
M  V30 1465 H 145.84 4.20136 -2.76576 0
M  V30 1466 H 145.54 3.80609 -4.47672 0
M  V30 1467 H 147.064 4.60984 -4.00407 0
M  V30 1468 H 148.478 2.61992 -5.09934 0
M  V30 1469 H 146.875 2.04424 -5.64208 0
M  V30 1470 H 147.945 0.942465 -4.75653 0
M  V30 1471 N 149.288 1.51039 0.449983 0
M  V30 1472 C 150.534 1.64287 1.19923 0
M  V30 1473 C 150.889 0.348701 1.89214 0
M  V30 1474 O 150.182 -0.654751 1.80065 0
M  V30 1475 C 150.376 2.77556 2.25161 0
M  V30 1476 C 150.205 4.17862 1.66198 0
M  V30 1477 C 148.975 4.83976 1.45243 0
M  V30 1478 C 151.173 5.01388 1.14519 0
M  V30 1479 N 149.155 6.08433 0.817437 0
M  V30 1480 C 150.526 6.16743 0.634705 0
M  V30 1481 C 152.581 4.87008 1.03574 0
M  V30 1482 C 151.284 7.19295 0.0255452 0
M  V30 1483 C 153.31 5.89757 0.440489 0
M  V30 1484 C 152.672 7.04375 -0.0595112 0
M  V30 1485 H 148.771 0.655161 0.426952 0
M  V30 1486 H 151.355 1.88228 0.49781 0
M  V30 1487 H 149.526 2.553 2.92706 0
M  V30 1488 H 151.258 2.80049 2.92155 0
M  V30 1489 H 148.013 4.41627 1.71063 0
M  V30 1490 H 148.437 6.75017 0.517747 0
M  V30 1491 H 153.079 3.9866 1.4082 0
M  V30 1492 H 150.797 8.07302 -0.359071 0
M  V30 1493 H 154.383 5.80698 0.35788 0
M  V30 1494 H 153.263 7.82521 -0.512882 0
M  V30 1495 N 150.766 -0.704594 1.40972 0
M  V30 1496 C 151.994 -1.49354 1.43182 0
M  V30 1497 C 152.409 -1.88768 0.0345508 0
M  V30 1498 O 151.766 -1.56184 -0.944081 0
M  V30 1499 C 151.817 -2.76187 2.33244 0
M  V30 1500 O 151.538 -2.38436 3.67532 0
M  V30 1501 C 153.039 -3.7 2.44162 0
M  V30 1502 H 150.259 -0.460559 0.487982 0
M  V30 1503 H 152.803 -0.868261 1.85153 0
M  V30 1504 H 150.958 -3.34974 1.94606 0
M  V30 1505 H 151.372 -3.20126 4.15475 0
M  V30 1506 H 152.846 -4.55803 3.11364 0
M  V30 1507 H 153.323 -4.13867 1.47006 0
M  V30 1508 H 153.929 -3.17121 2.83398 0
M  V30 1509 N 152.244 -1.26651 -0.937939 0
M  V30 1510 C 153.207 -1.08546 -2.01867 0
M  V30 1511 C 154.207 -0.0327327 -1.60767 0
M  V30 1512 O 155.397 -0.276427 -1.71993 0
M  V30 1513 C 152.529 -0.651711 -3.34613 0
M  V30 1514 H 153.722 -2.04502 -2.1936 0
M  V30 1515 H 151.275 -1.09294 -1.11734 0
M  V30 1516 H 152.01 0.309696 -3.22818 0
M  V30 1517 H 151.795 -1.41189 -3.65798 0
M  V30 1518 H 153.285 -0.546973 -4.14002 0
M  V30 1519 N 153.722 1.14298 -1.08507 0
M  V30 1520 C 154.969 1.85359 -0.815373 0
M  V30 1521 C 155.297 1.83001 0.658865 0
M  V30 1522 O 154.552 1.25655 1.50031 0
M  V30 1523 C 154.851 3.33547 -1.28379 0
M  V30 1524 C 154.517 3.56093 -2.76602 0
M  V30 1525 C 153.179 3.61955 -3.17084 0
M  V30 1526 C 155.531 3.64834 -3.72217 0
M  V30 1527 C 152.859 3.74082 -4.51973 0
M  V30 1528 C 155.211 3.78487 -5.06883 0
M  V30 1529 C 153.875 3.82598 -5.46969 0
M  V30 1530 H 153.145 0.678276 -0.298366 0
M  V30 1531 H 155.792 1.35002 -1.35819 0
M  V30 1532 H 154.097 3.86191 -0.660593 0
M  V30 1533 H 155.794 3.86959 -1.05186 0
M  V30 1534 H 152.384 3.52179 -2.4427 0
M  V30 1535 H 156.568 3.59595 -3.42061 0
M  V30 1536 H 151.824 3.75527 -4.82483 0
M  V30 1537 H 155.998 3.84193 -5.80834 0
M  V30 1538 H 153.625 3.91747 -6.51489 0
M  V30 1539 N 155.201 0.870884 1.31352 0
M  V30 1540 C 156.478 0.402907 1.91405 0
M  V30 1541 C 156.858 -1.11512 1.79244 0
M  V30 1542 O 156.206 -1.94411 1.2007 0
M  V30 1543 C 156.416 0.885301 3.37585 0
M  V30 1544 C 157.764 0.911971 4.14691 0
M  V30 1545 O 158.788 0.831016 3.46371 0
M  V30 1546 O 157.647 1.02927 5.3672 0
M  V30 1547 H 154.741 0.120698 0.818145 0
M  V30 1548 H 157.287 0.958857 1.40014 0
M  V30 1549 H 156.059 1.92889 3.40455 0
M  V30 1550 H 155.682 0.307714 3.96407 0
M  V30 1551 N 156.679 -1.44442 0.630414 0
M  V30 1552 C 157.925 -2.02351 0.134816 0
M  V30 1553 C 158.258 -1.4947 -1.23986 0
M  V30 1554 O 157.533 -0.678475 -1.82283 0
M  V30 1555 C 157.816 -3.59898 0.120707 0
M  V30 1556 C 157.669 -4.23063 1.52767 0
M  V30 1557 C 158.988 -4.36585 -0.555127 0
M  V30 1558 H 156.107 -0.73527 0.0504646 0
M  V30 1559 H 158.749 -1.72022 0.806751 0
M  V30 1560 H 156.899 -3.85868 -0.451477 0
M  V30 1561 H 158.571 -4.08202 2.14869 0
M  V30 1562 H 156.814 -3.80586 2.08175 0
M  V30 1563 H 157.485 -5.32071 1.46984 0
M  V30 1564 H 159.961 -4.16044 -0.0685429 0
M  V30 1565 H 158.837 -5.46294 -0.534185 0
M  V30 1566 H 159.098 -4.11138 -1.62535 0
M  V30 1567 N 158.157 -0.370918 -1.53173 0
M  V30 1568 C 159.09 0.516727 -2.22273 0
M  V30 1569 C 160.068 1.07877 -1.21661 0
M  V30 1570 O 161.252 1.13389 -1.50583 0
M  V30 1571 C 158.379 1.71346 -2.92161 0
M  V30 1572 C 157.425 1.27838 -4.0689 0
M  V30 1573 S 158.258 0.275217 -5.34792 0
M  V30 1574 C 159.414 1.47816 -6.08195 0
M  V30 1575 H 159.647 -0.0701054 -2.97217 0
M  V30 1576 H 157.18 -0.155038 -1.5362 0
M  V30 1577 H 159.138 2.39988 -3.3304 0
M  V30 1578 H 157.799 2.27156 -2.16931 0
M  V30 1579 H 156.992 2.17141 -4.54825 0
M  V30 1580 H 156.594 0.671105 -3.6793 0
M  V30 1581 H 158.886 2.40831 -6.33251 0
M  V30 1582 H 159.829 1.04008 -7.0042 0
M  V30 1583 H 160.237 1.68663 -5.38714 0
M  V30 1584 N 159.635 1.57281 -0.100228 0
M  V30 1585 C 160.875 1.96419 0.56558 0
M  V30 1586 C 161.239 0.981265 1.65031 0
M  V30 1587 O 162.44 1.26133 2.37369 0
M  V30 1588 C 160.711 3.39996 1.10171 0
M  V30 1589 S 162.27 4.01134 1.77867 0
M  V30 1590 H 159.088 0.68667 0.184406 0
M  V30 1591 H 161.69 1.94662 -0.180851 0
M  V30 1592 H 160.394 4.09296 0.300803 0
M  V30 1593 H 159.925 3.45361 1.88385 0
M  V30 1594 H 161.94 3.90358 3.06326 0
M  V30 1595 N 161.113 -0.173488 1.56642 0
M  V30 1596 C 162.353 -0.896984 1.83667 0
M  V30 1597 C 162.717 -1.79523 0.680842 0
M  V30 1598 O 163.918 -2.55616 0.831488 0
M  V30 1599 C 162.189 -1.67351 3.15798 0
M  V30 1600 S 163.748 -2.44607 3.64298 0
M  V30 1601 H 160.566 -0.300464 0.644393 0
M  V30 1602 H 163.168 -0.158775 1.94854 0
M  V30 1603 H 161.872 -1.00462 3.97914 0
M  V30 1604 H 161.403 -2.45313 3.07546 0
M  V30 1605 H 163.418 -3.69261 3.31452 0
M  V30 1606 N 162.591 -1.51276 -0.441967 0
M  V30 1607 C 163.816 -1.67799 -1.21895 0
M  V30 1608 C 164.241 -0.372864 -1.84367 0
M  V30 1609 O 163.599 0.666501 -1.68604 0
M  V30 1610 C 163.647 -2.79199 -2.28211 0
M  V30 1611 O 162.751 -2.42479 -3.33583 0
M  V30 1612 H 162.092 -0.559649 -0.357336 0
M  V30 1613 H 164.622 -1.97815 -0.522522 0
M  V30 1614 H 164.632 -3.03146 -2.73069 0
M  V30 1615 H 163.307 -3.73906 -1.82118 0
M  V30 1616 H 161.884 -2.29087 -2.94234 0
M  V30 1617 N 164.069 0.697108 -1.41344 0
M  V30 1618 C 165.032 1.79281 -1.42797 0
M  V30 1619 C 166.032 1.57607 -0.318837 0
M  V30 1620 O 167.222 1.64309 -0.578642 0
M  V30 1621 C 164.354 3.17632 -1.23785 0
M  V30 1622 H 165.547 1.79385 -2.40335 0
M  V30 1623 H 163.1 0.904582 -1.27464 0
M  V30 1624 H 163.835 3.23167 -0.270814 0
M  V30 1625 H 163.62 3.34765 -2.04144 0
M  V30 1626 H 165.11 3.97617 -1.27633 0
M  V30 1627 N 165.547 1.27147 0.931209 0
M  V30 1628 C 166.772 1.16191 1.71797 0
M  V30 1629 C 167.197 -0.278004 1.86034 0
M  V30 1630 O 166.555 -1.20137 1.35782 0
M  V30 1631 C 166.603 1.84673 3.09723 0
M  V30 1632 O 165.707 1.14231 3.96264 0
M  V30 1633 H 165.048 0.404303 0.526721 0
M  V30 1634 H 167.578 1.68152 1.1656 0
M  V30 1635 H 167.588 1.91893 3.60057 0
M  V30 1636 H 166.263 2.89421 2.98677 0
M  V30 1637 H 164.84 1.15056 3.54706 0
M  V30 1638 N 167.025 -1.13721 1.09112 0
M  V30 1639 C 168.274 -1.84275 0.82009 0
M  V30 1640 C 168.587 -1.84253 -0.656509 0
M  V30 1641 O 169.793 -2.50668 -1.04296 0
M  V30 1642 C 168.249 -3.30825 1.41714 0
M  V30 1643 C 167.857 -3.39244 2.92605 0
M  V30 1644 C 169.601 -4.06443 1.22492 0
M  V30 1645 C 167.508 -4.80047 3.45411 0
M  V30 1646 H 166.438 -0.690387 0.30312 0
M  V30 1647 H 169.089 -1.28146 1.31343 0
M  V30 1648 H 167.471 -3.86737 0.851498 0
M  V30 1649 H 168.645 -2.93344 3.55367 0
M  V30 1650 H 166.96 -2.77088 3.10823 0
M  V30 1651 H 169.557 -5.10387 1.59402 0
M  V30 1652 H 169.9 -4.15972 0.165299 0
M  V30 1653 H 170.433 -3.56852 1.75788 0
M  V30 1654 H 167.172 -4.75709 4.50978 0
M  V30 1655 H 166.692 -5.26455 2.87411 0
M  V30 1656 H 168.371 -5.48957 3.42425 0
M  V30 1657 N 168.503 -0.877838 -1.30888 0
M  V30 1658 C 169.433 -0.35534 -2.3078 0
M  V30 1659 C 170.414 0.557994 -1.60687 0
M  V30 1660 O 171.599 0.473355 -1.88343 0
M  V30 1661 C 168.729 0.437221 -3.44537 0
M  V30 1662 C 167.683 -0.383715 -4.26276 0
M  V30 1663 C 167.009 0.535014 -5.32017 0
M  V30 1664 C 168.309 -1.62201 -4.96476 0
M  V30 1665 H 170.003 -1.19007 -2.74732 0
M  V30 1666 H 167.549 -0.573698 -1.32078 0
M  V30 1667 H 169.502 0.813334 -4.13477 0
M  V30 1668 H 168.226 1.30553 -2.99372 0
M  V30 1669 H 166.885 -0.741874 -3.59015 0
M  V30 1670 H 166.533 1.40083 -4.831 0
M  V30 1671 H 166.233 -0.0104211 -5.87599 0
M  V30 1672 H 167.757 0.907799 -6.03814 0
M  V30 1673 H 169.171 -1.31689 -5.5797 0
M  V30 1674 H 167.568 -2.10711 -5.61891 0
M  V30 1675 H 168.638 -2.37044 -4.23011 0
M  V30 1676 N 169.982 1.44106 -0.638065 0
M  V30 1677 C 170.93 2.3248 0.0748149 0
M  V30 1678 C 171.924 1.47746 0.828702 0
M  V30 1679 O 173.13 1.64049 0.740816 0
M  V30 1680 H 169.505 0.750771 0.0429686 0
M  V30 1681 H 171.476 2.90348 -0.688504 0
M  V30 1682 C 170.225 3.31843 1.03805 0
M  V30 1683 H 169.548 3.97059 0.467375 0
M  V30 1684 H 170.988 3.96345 1.50622 0
M  V30 1685 C 169.447 2.61291 2.1267 0
M  V30 1686 O 169.977 2.41702 3.20847 0
M  V30 1687 N 168.183 2.20915 1.88798 0
M  V30 1688 H 167.73 2.37047 1.00829 0
M  V30 1689 H 167.688 1.74038 2.61836 0
M  V30 1690 N 171.46 0.379036 1.52974 0
M  V30 1691 C 172.39 -0.452706 2.29069 0
M  V30 1692 C 173.371 -1.07237 1.32039 0
M  V30 1693 O 174.556 -1.08708 1.60923 0
M  V30 1694 C 171.686 -1.5856 3.08992 0
M  V30 1695 C 170.64 -1.0925 4.13822 0
M  V30 1696 C 169.966 -2.31668 4.81907 0
M  V30 1697 C 171.266 -0.167702 5.22031 0
M  V30 1698 H 172.96 0.182181 2.98845 0
M  V30 1699 H 170.506 0.0890592 1.43724 0
M  V30 1700 H 172.459 -2.1742 3.6098 0
M  V30 1701 H 171.183 -2.24792 2.36931 0
M  V30 1702 H 169.842 -0.526494 3.628 0
M  V30 1703 H 169.49 -2.96386 4.06404 0
M  V30 1704 H 169.19 -1.9934 5.52754 0
M  V30 1705 H 170.714 -2.91189 5.36695 0
M  V30 1706 H 172.128 -0.664186 5.6944 0
M  V30 1707 H 170.525 0.0653265 6.00064 0
M  V30 1708 H 171.595 0.786347 4.78482 0
M  V30 1709 N 172.938 -1.57226 0.108567 0
M  V30 1710 C 174.178 -1.96717 -0.555155 0
M  V30 1711 C 174.542 -0.990003 -1.64508 0
M  V30 1712 O 175.743 -1.2739 -2.36696 0
M  V30 1713 C 174.014 -3.40575 -1.08367 0
M  V30 1714 S 175.573 -4.02072 -1.75737 0
M  V30 1715 H 172.391 -0.687638 -0.180762 0
M  V30 1716 H 174.993 -1.94563 0.191172 0
M  V30 1717 H 173.697 -4.0945 -0.279092 0
M  V30 1718 H 173.228 -3.46356 -1.86551 0
M  V30 1719 H 175.243 -3.91977 -3.04251 0
M  V30 1720 N 174.416 0.165178 -1.56732 0
M  V30 1721 C 175.346 1.20651 -1.99914 0
M  V30 1722 C 176.327 1.45827 -0.875705 0
M  V30 1723 O 177.512 1.57057 -1.14223 0
M  V30 1724 C 174.642 2.54401 -2.36427 0
M  V30 1725 C 173.596 2.43782 -3.51787 0
M  V30 1726 C 172.922 3.82078 -3.7406 0
M  V30 1727 C 174.222 1.93732 -4.85041 0
M  V30 1728 H 175.916 0.847534 -2.87154 0
M  V30 1729 H 173.462 0.40625 -1.38151 0
M  V30 1730 H 175.415 3.27458 -2.65234 0
M  V30 1731 H 174.139 2.92098 -1.46103 0
M  V30 1732 H 172.798 1.73178 -3.23117 0
M  V30 1733 H 172.446 4.17179 -2.81017 0
M  V30 1734 H 172.146 3.7584 -4.51684 0
M  V30 1735 H 173.67 4.56712 -4.05274 0
M  V30 1736 H 175.084 2.56569 -5.12684 0
M  V30 1737 H 173.481 1.98428 -5.66345 0
M  V30 1738 H 174.551 0.891962 -4.76626 0
M  V30 1739 N 175.894 1.51508 0.433938 0
M  V30 1740 C 177.143 1.63578 1.18005 0
M  V30 1741 C 177.456 0.359514 1.92268 0
M  V30 1742 O 178.662 0.359632 2.69108 0
M  V30 1743 C 177.118 2.88901 2.14626 0
M  V30 1744 C 176.726 4.23544 1.45995 0
M  V30 1745 C 178.47 3.10328 2.89649 0
M  V30 1746 C 176.377 5.40014 2.4112 0
M  V30 1747 H 175.307 0.609277 0.444182 0
M  V30 1748 H 177.958 1.77978 0.446773 0
M  V30 1749 H 176.34 2.68142 2.91403 0
M  V30 1750 H 177.514 4.54696 0.747532 0
M  V30 1751 H 175.829 4.08021 0.831115 0
M  V30 1752 H 178.426 3.94518 3.60915 0
M  V30 1753 H 178.769 2.23544 3.51189 0
M  V30 1754 H 179.302 3.31443 2.19978 0
M  V30 1755 H 176.041 6.29068 1.84264 0
M  V30 1756 H 175.561 5.13233 3.10406 0
M  V30 1757 H 177.24 5.72099 3.02177 0
M  V30 1758 N 177.372 -0.689602 1.41712 0
M  V30 1759 C 178.597 -1.48329 1.44959 0
M  V30 1760 C 179.022 -1.8801 0.0581283 0
M  V30 1761 O 178.38 -1.55026 -0.940035 0
M  V30 1762 C 178.428 -2.71835 2.36935 0
M  V30 1763 O 177.532 -3.69549 1.8305 0
M  V30 1764 H 176.873 -0.446199 0.491734 0
M  V30 1765 H 179.403 -0.847127 1.86239 0
M  V30 1766 H 179.413 -3.20076 2.53013 0
M  V30 1767 H 178.088 -2.42291 3.38035 0
M  V30 1768 H 176.665 -3.2851 1.76452 0
M  V30 1769 N 178.85 -1.27639 -0.924453 0
M  V30 1770 C 179.78 -1.13166 -2.04244 0
M  V30 1771 C 180.761 -0.032256 -1.70069 0
M  V30 1772 O 181.946 -0.207328 -1.9309 0
M  V30 1773 C 179.076 -0.781496 -3.38393 0
M  V30 1774 C 178.03 -1.83449 -3.86692 0
M  V30 1775 C 177.356 -1.33822 -5.17683 0
M  V30 1776 C 178.656 -3.23917 -4.09726 0
M  V30 1777 H 180.35 -2.06689 -2.1661 0
M  V30 1778 H 177.896 -0.995136 -1.04082 0
M  V30 1779 H 179.849 -0.667057 -4.16087 0
M  V30 1780 H 178.573 0.189439 -3.2605 0
M  V30 1781 H 177.232 -1.93789 -3.11193 0
M  V30 1782 H 176.88 -0.35665 -5.01734 0
M  V30 1783 H 176.58 -2.04224 -5.50968 0
M  V30 1784 H 178.104 -1.23679 -5.97943 0
M  V30 1785 H 179.518 -3.16559 -4.77978 0
M  V30 1786 H 177.915 -3.92059 -4.54324 0
M  V30 1787 H 178.985 -3.68729 -3.14908 0
M  V30 1788 N 180.328 1.1314 -1.09713 0
M  V30 1789 C 181.605 1.80762 -0.747302 0
M  V30 1790 C 181.985 1.96663 0.767265 0
M  V30 1791 O 181.333 1.53706 1.69076 0
M  V30 1792 C 181.543 3.15606 -1.48975 0
M  V30 1793 C 182.891 3.90914 -1.65746 0
M  V30 1794 O 183.915 3.25239 -1.45251 0
M  V30 1795 O 182.774 5.08718 -1.9967 0
M  V30 1796 H 179.868 0.782103 -0.268782 0
M  V30 1797 H 182.414 1.20041 -1.19951 0
M  V30 1798 H 181.186 2.99278 -2.52088 0
M  V30 1799 H 180.809 3.84029 -1.02991 0
M  V30 1800 N 181.806 0.884767 1.30421 0
M  V30 1801 C 183.222 0.57874 1.48737 0
M  V30 1802 C 183.422 -0.883567 1.81095 0
M  V30 1803 O 182.478 -1.6648 1.89844 0
M  V30 1804 C 183.791 1.49171 2.61091 0
M  V30 1805 C 185.339 1.49532 2.74971 0
M  V30 1806 C 185.814 2.39421 3.90438 0
M  V30 1807 N 187.305 2.37383 3.97748 0
M  V30 1808 C 188.04 3.03647 4.86401 0
M  V30 1809 N 187.536 3.79136 5.79852 0
M  V30 1810 N 189.329 2.9288 4.79768 0
M  V30 1811 H 181.48 1.83075 1.0769 0
M  V30 1812 H 183.743 0.783637 0.533495 0
M  V30 1813 H 183.449 2.53291 2.44001 0
M  V30 1814 H 183.323 1.20113 3.57565 0
M  V30 1815 H 185.71 0.46163 2.91467 0
M  V30 1816 H 185.791 1.8262 1.79119 0
M  V30 1817 H 185.435 3.42874 3.74699 0
M  V30 1818 H 185.365 2.03649 4.85628 0
M  V30 1819 H 187.856 1.82525 3.30897 0
M  V30 1820 H 188.169 4.26789 6.4426 0
M  V30 1821 H 186.514 3.83243 5.79784 0
M  V30 1822 H 189.705 2.33433 4.05742 0
M  V30 1823 H 189.878 3.448 5.4865 0
M  V30 1824 N 183.284 -1.43765 0.645699 0
M  V30 1825 C 184.514 -2.05953 0.163318 0
M  V30 1826 C 184.922 -1.48432 -1.17322 0
M  V30 1827 O 184.265 -0.607295 -1.73371 0
M  V30 1828 C 184.327 -3.59499 -0.0103065 0
M  V30 1829 C 183.991 -4.39563 1.25035 0
M  V30 1830 C 184.988 -4.72108 2.17739 0
M  V30 1831 C 182.673 -4.79697 1.48983 0
M  V30 1832 C 184.667 -5.43688 3.3269 0
M  V30 1833 C 182.354 -5.51023 2.64229 0
M  V30 1834 C 183.352 -5.8294 3.55908 0
M  V30 1835 O 183.04 -6.5281 4.69142 0
M  V30 1836 H 182.772 -0.670798 0.0836986 0
M  V30 1837 H 185.326 -1.85384 0.884407 0
M  V30 1838 H 183.556 -3.78613 -0.78669 0
M  V30 1839 H 185.245 -4.03408 -0.449087 0
M  V30 1840 H 186.011 -4.41627 2.00476 0
M  V30 1841 H 181.89 -4.54266 0.785078 0
M  V30 1842 H 185.434 -5.68517 4.04269 0
M  V30 1843 H 181.331 -5.8092 2.81429 0
M  V30 1844 H 182.099 -6.71288 4.6831 0
M  V30 1845 N 184.763 -0.387143 -1.52771 0
M  V30 1846 C 185.693 0.440551 -2.29306 0
M  V30 1847 C 186.674 1.06535 -1.32606 0
M  V30 1848 O 187.859 1.07853 -1.61497 0
M  V30 1849 C 184.989 1.56919 -3.09829 0
M  V30 1850 C 183.943 1.07054 -4.14395 0
M  V30 1851 C 183.269 2.29109 -4.83129 0
M  V30 1852 C 184.569 0.140015 -5.22112 0
M  V30 1853 H 186.263 -0.198026 -2.98744 0
M  V30 1854 H 183.809 -0.09668 -1.43675 0
M  V30 1855 H 185.762 2.15503 -3.62128 0
M  V30 1856 H 184.486 2.23532 -2.3812 0
M  V30 1857 H 183.145 0.507247 -3.63074 0
M  V30 1858 H 182.793 2.94227 -4.0797 0
M  V30 1859 H 182.493 1.96406 -5.53804 0
M  V30 1860 H 184.017 2.88339 -5.38231 0
M  V30 1861 H 185.431 0.633978 -5.69784 0
M  V30 1862 H 183.828 -0.0971485 -6.00021 0
M  V30 1863 H 184.898 -0.811711 -4.78058 0
M  V30 1864 N 186.241 1.57166 -0.116904 0
M  V30 1865 C 187.171 2.18222 0.830759 0
M  V30 1866 C 188.152 1.12167 1.27877 0
M  V30 1867 O 189.337 1.40394 1.34176 0
M  V30 1868 C 186.467 2.77996 2.08172 0
M  V30 1869 C 185.421 3.89614 1.77157 0
M  V30 1870 C 184.747 4.36187 3.09265 0
M  V30 1871 C 186.047 5.1181 1.04151 0
M  V30 1872 H 187.741 2.97664 0.321992 0
M  V30 1873 H 185.287 1.4318 0.153434 0
M  V30 1874 H 187.24 3.19366 2.74924 0
M  V30 1875 H 185.964 1.9584 2.6137 0
M  V30 1876 H 184.623 3.48816 1.12796 0
M  V30 1877 H 184.271 3.50893 3.60393 0
M  V30 1878 H 183.971 5.11455 2.89288 0
M  V30 1879 H 185.495 4.80207 3.77139 0
M  V30 1880 H 186.909 5.50214 1.61052 0
M  V30 1881 H 185.306 5.92648 0.942762 0
M  V30 1882 H 186.376 4.84892 0.0279022 0
M  V30 1883 N 187.719 -0.156864 1.56817 0
M  V30 1884 C 188.968 -0.869504 1.81996 0
M  V30 1885 C 189.281 -1.82777 0.696545 0
M  V30 1886 O 190.487 -2.58384 0.833658 0
M  V30 1887 C 188.943 -1.59679 3.22538 0
M  V30 1888 C 188.551 -0.681431 4.42787 0
M  V30 1889 C 190.295 -2.2968 3.56997 0
M  V30 1890 C 188.202 -1.40978 5.74351 0
M  V30 1891 H 187.132 -0.328438 0.678708 0
M  V30 1892 H 189.783 -0.1223 1.83092 0
M  V30 1893 H 188.165 -2.38927 3.158 0
M  V30 1894 H 189.339 0.0751166 4.60739 0
M  V30 1895 H 187.654 -0.0903431 4.16302 0
M  V30 1896 H 190.251 -2.84794 4.52544 0
M  V30 1897 H 190.594 -3.05707 2.82576 0
M  V30 1898 H 191.127 -1.57361 3.65352 0
M  V30 1899 H 187.866 -0.691561 6.51842 0
M  V30 1900 H 187.386 -2.13929 5.60352 0
M  V30 1901 H 189.065 -1.95337 6.16808 0
M  V30 1902 N 189.197 -1.51736 -0.425897 0
M  V30 1903 C 190.127 -1.76827 -1.52494 0
M  V30 1904 C 191.108 -0.618524 -1.58456 0
M  V30 1905 O 192.293 -0.862416 -1.74 0
M  V30 1906 C 189.423 -1.90374 -2.90474 0
M  V30 1907 C 188.377 -3.0588 -2.99369 0
M  V30 1908 C 187.703 -3.04625 -4.3944 0
M  V30 1909 C 189.003 -4.45644 -2.72394 0
M  V30 1910 H 190.697 -2.68855 -1.31748 0
M  V30 1911 H 188.243 -1.29372 -0.632362 0
M  V30 1912 H 190.196 -2.0651 -3.6733 0
M  V30 1913 H 188.92 -0.95004 -3.12477 0
M  V30 1914 H 187.579 -2.89467 -2.24954 0
M  V30 1915 H 187.227 -2.0701 -4.58428 0
M  V30 1916 H 186.927 -3.82195 -4.46319 0
M  V30 1917 H 188.451 -3.22869 -5.18255 0
M  V30 1918 H 189.865 -4.62348 -3.38979 0
M  V30 1919 H 188.262 -5.25006 -2.9067 0
M  V30 1920 H 189.332 -4.54893 -1.67929 0
M  V30 1921 N 190.675 0.682077 -1.42076 0
M  V30 1922 C 191.9 1.47558 -1.45744 0
M  V30 1923 C 192.325 1.87977 -0.0680981 0
M  V30 1924 O 191.683 1.55522 0.9318 0
M  V30 1925 C 191.731 2.70575 -2.38373 0
M  V30 1926 O 190.835 3.68573 -1.85007 0
M  V30 1927 H 190.176 0.443585 -0.494093 0
M  V30 1928 H 192.706 0.837238 -1.86686 0
M  V30 1929 H 192.716 3.18729 -2.54707 0
M  V30 1930 H 191.391 2.40495 -3.39315 0
M  V30 1931 H 189.968 3.2757 -1.78192 0
M  V30 1932 N 192.153 1.28127 0.917671 0
M  V30 1933 C 193.564 1.13622 1.48145 0
M  V30 1934 C 193.915 -0.275207 1.9426 0
M  V30 1935 O 193.04 -1.1691 1.82102 0
M  V30 1936 C 193.635 2.05648 2.69248 0
M  V30 1937 C 192.194 1.95219 3.21818 0
M  V30 1938 C 191.341 1.97618 1.94532 0
M  V30 1939 H 194.292 1.40874 0.730772 0
M  V30 1940 H 194.313 1.61818 3.44377 0
M  V30 1941 H 193.825 3.08365 2.35653 0
M  V30 1942 H 191.926 0.955244 3.60147 0
M  V30 1943 H 192.039 2.81976 3.87333 0
M  V30 1944 H 190.403 1.41973 2.11461 0
M  V30 1945 H 191.186 3.02007 1.63238 0
M  V30 1946 N 193.631 -1.12557 1.10312 0
M  V30 1947 C 194.561 -2.20341 0.772798 0
M  V30 1948 C 195.542 -1.68198 -0.25365 0
M  V30 1949 O 196.727 -1.93831 -0.119699 0
M  V30 1950 C 193.857 -3.46709 0.202443 0
M  V30 1951 C 192.811 -4.11996 1.15943 0
M  V30 1952 C 192.137 -5.328 0.450345 0
M  V30 1953 C 193.437 -4.5828 2.50552 0
M  V30 1954 H 195.131 -2.48229 1.674 0
M  V30 1955 H 192.677 -1.19308 0.806326 0
M  V30 1956 H 194.63 -4.2138 -0.0407752 0
M  V30 1957 H 193.354 -3.18245 -0.734001 0
M  V30 1958 H 192.013 -3.39305 1.38808 0
M  V30 1959 H 191.661 -5.00602 -0.490531 0
M  V30 1960 H 191.361 -5.7743 1.08851 0
M  V30 1961 H 192.885 -6.10219 0.215642 0
M  V30 1962 H 194.299 -5.2433 2.31843 0
M  V30 1963 H 192.696 -5.13683 3.10242 0
M  V30 1964 H 193.766 -3.72329 3.10643 0
M  V30 1965 N 195.109 -0.891671 -1.2995 0
M  V30 1966 C 196.525 -0.58662 -1.48428 0
M  V30 1967 C 196.725 0.873951 -1.81561 0
M  V30 1968 O 195.781 1.65471 -1.90724 0
M  V30 1969 C 197.094 -1.50553 -2.60296 0
M  V30 1970 C 198.642 -1.50988 -2.74175 0
M  V30 1971 C 199.117 -2.41488 -3.89163 0
M  V30 1972 N 200.608 -2.39489 -3.96483 0
M  V30 1973 C 201.343 -3.06223 -4.84784 0
M  V30 1974 N 200.839 -3.82206 -5.77833 0
M  V30 1975 N 202.632 -2.95421 -4.78208 0
M  V30 1976 H 194.783 -1.83644 -1.06718 0
M  V30 1977 H 197.046 -0.786455 -0.529332 0
M  V30 1978 H 196.752 -2.54581 -2.42654 0
M  V30 1979 H 196.626 -1.22008 -3.56923 0
M  V30 1980 H 199.013 -0.47708 -2.91218 0
M  V30 1981 H 199.094 -1.83567 -1.78148 0
M  V30 1982 H 198.738 -3.44857 -3.72876 0
M  V30 1983 H 198.668 -2.06222 -4.84541 0
M  V30 1984 H 201.159 -1.84278 -3.29924 0
M  V30 1985 H 201.472 -4.302 -6.41988 0
M  V30 1986 H 199.817 -3.86313 -5.77743 0
M  V30 1987 H 203.008 -2.35581 -4.04499 0
M  V30 1988 H 203.181 -3.47704 -5.46814 0
M  V30 1989 N 196.587 1.43421 -0.653314 0
M  V30 1990 C 197.817 2.05864 -0.174238 0
M  V30 1991 C 198.225 1.49052 1.16534 0
M  V30 1992 O 197.568 0.616481 1.73047 0
M  V30 1993 C 197.63 3.59499 -0.00875873 0
M  V30 1994 C 197.294 4.38893 -1.27364 0
M  V30 1995 C 198.291 4.70947 -2.20239 0
M  V30 1996 C 195.976 4.789 -1.51525 0
M  V30 1997 C 197.97 5.41916 -3.35568 0
M  V30 1998 C 195.657 5.49614 -2.67147 0
M  V30 1999 C 196.655 5.81044 -3.58994 0
M  V30 2000 O 196.343 6.50313 -4.72597 0
M  V30 2001 H 196.075 0.670345 -0.0872549 0
M  V30 2002 H 198.629 1.84913 -0.894226 0
M  V30 2003 H 196.859 3.79025 0.7666 0
M  V30 2004 H 198.548 4.0364 0.427687 0
M  V30 2005 H 199.314 4.40558 -2.02815 0
M  V30 2006 H 195.193 4.53843 -0.809158 0
M  V30 2007 H 198.737 5.66365 -4.07279 0
M  V30 2008 H 194.634 5.79419 -2.84505 0
M  V30 2009 H 195.402 6.68795 -4.71864 0
M  V30 2010 N 198.065 0.39524 1.52563 0
M  V30 2011 C 199.012 -0.437036 2.26624 0
M  V30 2012 C 199.982 -1.05281 1.28472 0
M  V30 2013 O 201.167 -1.07971 1.57311 0
M  V30 2014 C 198.307 -1.55524 3.08069 0
M  V30 2015 C 197.42 -0.961745 4.21158 0
M  V30 2016 C 196.555 -2.05149 4.89987 0
M  V30 2017 C 195.594 -1.4342 5.95061 0
M  V30 2018 N 194.731 -2.46351 6.57462 0
M  V30 2019 H 199.571 0.200976 2.97322 0
M  V30 2020 H 197.108 0.110944 1.46681 0
M  V30 2021 H 199.066 -2.21437 3.53584 0
M  V30 2022 H 197.696 -2.16348 2.3957 0
M  V30 2023 H 196.748 -0.192048 3.79915 0
M  V30 2024 H 198.06 -0.470701 4.96574 0
M  V30 2025 H 197.214 -2.78819 5.38837 0
M  V30 2026 H 195.953 -2.57615 4.14109 0
M  V30 2027 H 194.958 -0.682774 5.45544 0
M  V30 2028 H 196.183 -0.917416 6.72875 0
M  V30 2029 H 194.129 -2.97975 5.8442 0
M  V30 2030 H 194.046 -2.02019 7.28508 0
M  V30 2031 H 195.314 -3.19633 7.10954 0
M  V30 2032 N 199.544 -1.57102 0.125237 0
M  V30 2033 C 200.474 -2.18659 -0.819174 0
M  V30 2034 C 201.455 -1.12843 -1.27281 0
M  V30 2035 O 202.64 -1.41104 -1.33429 0
M  V30 2036 C 199.77 -2.79096 -2.06695 0
M  V30 2037 C 198.724 -3.90548 -1.75088 0
M  V30 2038 C 198.05 -4.37821 -3.06948 0
M  V30 2039 C 199.35 -5.12356 -1.01435 0
M  V30 2040 H 201.044 -2.9783 -0.306202 0
M  V30 2041 H 198.59 -1.4326 -0.145839 0
M  V30 2042 H 200.543 -3.2082 -2.73226 0
M  V30 2043 H 199.267 -1.97223 -2.60328 0
M  V30 2044 H 197.926 -3.49409 -1.10944 0
M  V30 2045 H 197.574 -3.52799 -3.58527 0
M  V30 2046 H 197.274 -5.12982 -2.86571 0
M  V30 2047 H 198.798 -4.822 -3.74587 0
M  V30 2048 H 200.212 -5.5106 -1.58132 0
M  V30 2049 H 198.609 -5.9314 -0.911319 0
M  V30 2050 H 199.679 -4.849 -0.00218681 0
M  V30 2051 N 201.022 0.148545 -1.56898 0
M  V30 2052 C 202.438 0.501131 -1.51528 0
M  V30 2053 C 202.638 1.83458 -0.833399 0
M  V30 2054 O 201.694 2.49259 -0.40328 0
M  V30 2055 C 203.007 0.512864 -2.96294 0
M  V30 2056 C 204.555 0.598487 -3.07225 0
M  V30 2057 C 205.03 0.640897 -4.53494 0
M  V30 2058 N 206.521 0.703163 -4.57832 0
M  V30 2059 C 207.256 0.756935 -5.68382 0
M  V30 2060 N 206.752 0.770147 -6.88506 0
M  V30 2061 N 208.545 0.797698 -5.56411 0
M  V30 2062 H 200.696 -0.725532 -1.99624 0
M  V30 2063 H 202.959 -0.264358 -0.910395 0
M  V30 2064 H 202.665 -0.398691 -3.49433 0
M  V30 2065 H 202.539 1.35133 -3.52163 0
M  V30 2066 H 204.926 1.50046 -2.54106 0
M  V30 2067 H 205.007 -0.267093 -2.54402 0
M  V30 2068 H 204.651 -0.256915 -5.0725 0
M  V30 2069 H 204.581 1.52295 -5.04097 0
M  V30 2070 H 207.072 0.700314 -3.71354 0
M  V30 2071 H 207.385 0.812983 -7.68512 0
M  V30 2072 H 205.73 0.738049 -6.9107 0
M  V30 2073 H 208.921 0.784535 -4.61479 0
M  V30 2074 H 209.094 0.83614 -6.42583 0
M  V30 2075 N 202.5 1.5196 0.417844 0
M  V30 2076 C 203.433 1.69387 1.52916 0
M  V30 2077 C 204.411 0.541419 1.53321 0
M  V30 2078 O 205.595 0.767695 1.72159 0
M  V30 2079 C 202.722 1.72525 2.91467 0
M  V30 2080 C 201.768 2.93967 3.09008 0
M  V30 2081 S 202.601 4.54461 2.83242 0
M  V30 2082 C 203.757 4.60372 4.24038 0
M  V30 2083 H 203.99 2.63382 1.37903 0
M  V30 2084 H 201.523 1.41889 0.608845 0
M  V30 2085 H 203.481 1.75018 3.7132 0
M  V30 2086 H 202.142 0.796733 3.03827 0
M  V30 2087 H 201.335 2.92619 4.10353 0
M  V30 2088 H 200.937 2.89316 2.37007 0
M  V30 2089 H 203.229 4.37213 5.17544 0
M  V30 2090 H 204.172 5.62273 4.30412 0
M  V30 2091 H 204.58 3.89492 4.08602 0
M  V30 2092 N 203.978 -0.674533 1.42435 0
M  V30 2093 C 205.206 -1.46283 1.46317 0
M  V30 2094 C 205.621 -1.88653 0.0745836 0
M  V30 2095 O 204.978 -1.58151 -0.91074 0
M  V30 2096 C 205.029 -2.71178 2.3905 0
M  V30 2097 O 204.75 -2.30586 3.72507 0
M  V30 2098 C 206.251 -3.64738 2.51955 0
M  V30 2099 H 203.471 -0.450104 0.497642 0
M  V30 2100 H 206.015 -0.828792 1.86953 0
M  V30 2101 H 204.17 -3.3077 2.01667 0
M  V30 2102 H 204.584 -3.11241 4.22172 0
M  V30 2103 H 206.058 -4.49096 3.20962 0
M  V30 2104 H 206.535 -4.10656 1.55752 0
M  V30 2105 H 207.141 -3.11038 2.90061 0
M  V30 2106 N 205.456 -1.28612 -0.910864 0
M  V30 2107 C 206.867 -1.14406 -1.47541 0
M  V30 2108 C 207.218 0.264901 -1.94403 0
M  V30 2109 O 206.343 1.15942 -1.82719 0
M  V30 2110 C 206.938 -2.07073 -2.68153 0
M  V30 2111 C 205.497 -1.96923 -3.20778 0
M  V30 2112 C 204.644 -1.98646 -1.93481 0
M  V30 2113 H 207.595 -1.41259 -0.723291 0
M  V30 2114 H 207.616 -1.63642 -3.43514 0
M  V30 2115 H 207.128 -3.09611 -2.34015 0
M  V30 2116 H 205.229 -0.97433 -3.59635 0
M  V30 2117 H 205.342 -2.84026 -3.85832 0
M  V30 2118 H 203.706 -1.43093 -2.10705 0
M  V30 2119 H 204.489 -3.02868 -1.61634 0
M  V30 2120 N 206.934 1.1197 -1.10907 0
M  V30 2121 C 207.864 2.19928 -0.784473 0
M  V30 2122 C 208.845 1.6833 0.244726 0
M  V30 2123 O 210.03 1.93892 0.109418 0
M  V30 2124 C 207.16 3.46597 -0.220827 0
M  V30 2125 C 206.114 4.11376 -1.18127 0
M  V30 2126 C 205.44 5.32554 -0.478594 0
M  V30 2127 C 206.74 4.56945 -2.52979 0
M  V30 2128 H 208.434 2.47337 -1.68715 0
M  V30 2129 H 205.98 1.18879 -0.812642 0
M  V30 2130 H 207.933 4.21396 0.0184278 0
M  V30 2131 H 206.657 3.1863 0.717113 0
M  V30 2132 H 205.316 3.38564 -1.40606 0
M  V30 2133 H 204.964 5.00856 0.463976 0
M  V30 2134 H 204.664 5.76844 -1.11912 0
M  V30 2135 H 206.188 6.10096 -0.248 0
M  V30 2136 H 207.602 5.23093 -2.3462 0
M  V30 2137 H 205.999 5.1203 -3.12962 0
M  V30 2138 H 207.069 3.70676 -3.12614 0
M  V30 2139 N 208.412 0.89855 1.29475 0
M  V30 2140 C 209.828 0.594483 1.48115 0
M  V30 2141 C 210.028 -0.86431 1.82022 0
M  V30 2142 O 209.084 -1.64457 1.91599 0
M  V30 2143 C 210.397 1.51932 2.59494 0
M  V30 2144 C 211.945 1.5244 2.7337 0
M  V30 2145 C 212.42 2.43548 3.87877 0
M  V30 2146 N 213.911 2.41589 3.95208 0
M  V30 2147 C 214.646 3.08789 4.83153 0
M  V30 2148 N 214.142 3.85265 5.75798 0
M  V30 2149 N 215.935 2.97952 4.76635 0
M  V30 2150 H 208.086 1.84207 1.05742 0
M  V30 2151 H 210.349 0.789251 0.525154 0
M  V30 2152 H 210.055 2.55865 2.41301 0
M  V30 2153 H 209.929 1.23899 3.56271 0
M  V30 2154 H 212.316 0.492518 2.90961 0
M  V30 2155 H 212.397 1.8451 1.77172 0
M  V30 2156 H 212.041 3.46829 3.71041 0
M  V30 2157 H 211.971 2.08788 4.83441 0
M  V30 2158 H 214.462 1.86025 3.28943 0
M  V30 2159 H 214.775 4.33598 6.39697 0
M  V30 2160 H 213.12 3.89371 5.75687 0
M  V30 2161 H 216.311 2.37723 4.03244 0
M  V30 2162 H 216.484 3.50599 5.44962 0
M  V30 2163 N 209.89 -1.43072 0.660911 0
M  V30 2164 C 210.853 -2.29194 -0.0166406 0
M  V30 2165 C 211.853 -1.42609 -0.742912 0
M  V30 2166 O 213.043 -1.64155 -0.583004 0
M  V30 2167 C 210.175 -3.24831 -1.0343 0
M  V30 2168 H 211.368 -2.90596 0.741208 0
M  V30 2169 H 208.921 -1.5048 0.422532 0
M  V30 2170 H 209.656 -2.68339 -1.82111 0
M  V30 2171 H 209.441 -3.88676 -0.517082 0
M  V30 2172 H 210.931 -3.89451 -1.50723 0
M  V30 2173 N 211.368 -0.403325 -1.52352 0
M  V30 2174 C 212.298 0.416205 -2.29761 0
M  V30 2175 C 213.279 1.05123 -1.33728 0
M  V30 2176 O 214.464 1.06134 -1.62632 0
M  V30 2177 C 211.594 1.53624 -3.11475 0
M  V30 2178 C 210.548 1.02653 -4.15507 0
M  V30 2179 C 209.874 2.23971 -4.85532 0
M  V30 2180 C 211.174 0.08463 -5.22231 0
M  V30 2181 H 212.868 -0.229701 -2.98518 0
M  V30 2182 H 210.414 -0.111913 -1.43564 0
M  V30 2183 H 212.367 2.1165 -3.64393 0
M  V30 2184 H 211.091 2.20994 -2.40477 0
M  V30 2185 H 209.75 0.46871 -3.63591 0
M  V30 2186 H 209.398 2.89883 -4.11068 0
M  V30 2187 H 209.098 1.90521 -5.55856 0
M  V30 2188 H 210.622 2.82614 -5.41259 0
M  V30 2189 H 212.036 0.573509 -5.70424 0
M  V30 2190 H 210.433 -0.160783 -5.99885 0
M  V30 2191 H 211.503 -0.86237 -4.7717 0
M  V30 2192 N 212.846 1.57033 -0.133567 0
M  V30 2193 C 213.809 2.14897 0.796995 0
M  V30 2194 C 214.809 1.0874 1.18458 0
M  V30 2195 O 215.999 1.34446 1.1077 0
M  V30 2196 C 213.131 2.70112 2.07973 0
M  V30 2197 H 214.324 2.98457 0.293873 0
M  V30 2198 H 211.877 1.55871 0.115787 0
M  V30 2199 H 212.612 1.9018 2.62682 0
M  V30 2200 H 212.397 3.47764 1.81115 0
M  V30 2201 H 213.887 3.14738 2.74462 0
M  V30 2202 N 214.325 -0.140222 1.56975 0
M  V30 2203 C 215.255 -1.17456 2.01808 0
M  V30 2204 C 216.236 -1.44415 0.898794 0
M  V30 2205 O 217.421 -1.5522 1.16707 0
M  V30 2206 C 214.551 -2.50607 2.40444 0
M  V30 2207 C 213.505 -2.38155 3.55621 0
M  V30 2208 C 212.831 -3.76078 3.80091 0
M  V30 2209 C 214.131 -1.85991 4.88062 0
M  V30 2210 H 215.825 -0.801743 2.88466 0
M  V30 2211 H 213.371 -0.38422 1.38779 0
M  V30 2212 H 215.324 -3.23197 2.7041 0
M  V30 2213 H 214.048 -2.89737 1.50732 0
M  V30 2214 H 212.707 -1.68016 3.25832 0
M  V30 2215 H 212.355 -4.12656 2.87618 0
M  V30 2216 H 212.055 -3.68606 4.57606 0
M  V30 2217 H 213.579 -4.50206 4.12488 0
M  V30 2218 H 214.993 -2.4838 5.16701 0
M  V30 2219 H 213.39 -1.89393 5.6943 0
M  V30 2220 H 214.46 -0.816023 4.77984 0
M  V30 2221 N 215.803 -1.52179 -0.40978 0
M  V30 2222 C 217.049 -1.66453 -1.15851 0
M  V30 2223 C 217.382 -0.392972 -1.90182 0
M  V30 2224 O 216.657 0.608579 -1.84734 0
M  V30 2225 C 216.94 -2.88612 -2.15349 0
M  V30 2226 C 216.793 -4.25815 -1.44918 0
M  V30 2227 C 218.112 -3.06294 -3.16026 0
M  V30 2228 H 215.231 -0.60575 -0.419805 0
M  V30 2229 H 217.873 -1.84732 -0.444314 0
M  V30 2230 H 216.023 -2.73158 -2.76255 0
M  V30 2231 H 217.695 -4.52995 -0.871365 0
M  V30 2232 H 215.938 -4.27247 -0.751159 0
M  V30 2233 H 216.609 -5.07337 -2.17516 0
M  V30 2234 H 219.085 -3.20641 -2.65195 0
M  V30 2235 H 217.961 -3.93283 -3.8291 0
M  V30 2236 H 218.222 -2.19579 -3.83715 0
M  V30 2237 N 217.281 0.66697 -1.42791 0
M  V30 2238 C 218.211 1.79218 -1.49677 0
M  V30 2239 C 219.192 1.66405 -0.352623 0
M  V30 2240 O 220.377 1.85708 -0.567993 0
M  V30 2241 C 217.507 3.17565 -1.40605 0
M  V30 2242 C 216.461 3.45124 -2.53127 0
M  V30 2243 C 215.787 4.83127 -2.29112 0
M  V30 2244 C 217.087 3.41236 -3.95418 0
M  V30 2245 H 218.781 1.73713 -2.43853 0
M  V30 2246 H 216.327 0.83432 -1.17367 0
M  V30 2247 H 218.28 3.96022 -1.44029 0
M  V30 2248 H 217.004 3.23767 -0.429271 0
M  V30 2249 H 215.663 2.69031 -2.49034 0
M  V30 2250 H 215.311 4.85988 -1.29709 0
M  V30 2251 H 215.011 5.02528 -3.04531 0
M  V30 2252 H 216.535 5.63859 -2.34297 0
M  V30 2253 H 217.949 4.09651 -4.01073 0
M  V30 2254 H 216.346 3.72173 -4.70752 0
M  V30 2255 H 217.416 2.39665 -4.21532 0
M  V30 2256 N 218.759 1.29093 0.90403 0
M  V30 2257 C 220.007 1.16583 1.65085 0
M  V30 2258 C 220.328 -0.283933 1.92922 0
M  V30 2259 O 219.598 -1.19509 1.55224 0
M  V30 2260 H 218.178 0.428467 0.611903 0
M  V30 2261 H 220.84 1.61959 1.08422 0
M  V30 2262 H 219.936 1.71266 2.6091 0
M  V30 2263 N 220.237 -1.11381 1.11499 0
M  V30 2264 C 221.2 -2.15622 0.777153 0
M  V30 2265 C 222.2 -1.59504 -0.203779 0
M  V30 2266 O 223.39 -1.74188 0.020782 0
M  V30 2267 C 220.522 -3.40556 0.153116 0
M  V30 2268 H 221.715 -2.47021 1.70061 0
M  V30 2269 H 219.268 -1.26577 0.916952 0
M  V30 2270 H 220.003 -3.14767 -0.780536 0
M  V30 2271 H 219.788 -3.8257 0.859238 0
M  V30 2272 H 221.278 -4.17546 -0.0671044 0
M  V30 2273 N 221.715 -0.905404 -1.28997 0
M  V30 2274 C 222.961 -0.544465 -1.95977 0
M  V30 2275 C 223.316 0.90041 -1.70031 0
M  V30 2276 O 222.609 1.63064 -1.00601 0
M  V30 2277 C 222.803 -0.779906 -3.48787 0
M  V30 2278 C 222.632 -2.24612 -3.89589 0
M  V30 2279 C 221.402 -2.89464 -4.14172 0
M  V30 2280 C 223.6 -3.22182 -4.00878 0
M  V30 2281 N 221.582 -4.26469 -4.41585 0
M  V30 2282 C 222.953 -4.44323 -4.32409 0
M  V30 2283 C 225.008 -3.17694 -3.83373 0
M  V30 2284 C 223.711 -5.62546 -4.48258 0
M  V30 2285 C 225.737 -4.35208 -4.00435 0
M  V30 2286 C 225.099 -5.56121 -4.3233 0
M  V30 2287 H 221.198 -0.248948 -0.741316 0
M  V30 2288 H 223.782 -1.1674 -1.5582 0
M  V30 2289 H 221.953 -0.186308 -3.87953 0
M  V30 2290 H 223.685 -0.383833 -4.02876 0
M  V30 2291 H 220.44 -2.40232 -4.08149 0
M  V30 2292 H 220.864 -4.97283 -4.5939 0
M  V30 2293 H 225.506 -2.25297 -3.57773 0
M  V30 2294 H 223.224 -6.55429 -4.72692 0
M  V30 2295 H 226.81 -4.33228 -3.88336 0
M  V30 2296 H 225.69 -6.45537 -4.45255 0
M  V30 2297 N 223.193 1.4272 -0.668489 0
M  V30 2298 C 224.418 2.06484 -0.194758 0
M  V30 2299 C 224.843 1.49862 1.13679 0
M  V30 2300 O 224.201 0.614582 1.70565 0
M  V30 2301 C 224.249 3.60353 -0.133546 0
M  V30 2302 O 223.353 4.02464 0.899806 0
M  V30 2303 H 222.694 0.656137 -0.10188 0
M  V30 2304 H 225.224 1.82964 -0.915722 0
M  V30 2305 H 225.234 4.07976 0.0447041 0
M  V30 2306 H 223.909 4.00938 -1.1055 0
M  V30 2307 H 222.486 3.66402 0.693109 0
M  V30 2308 N 224.671 0.411399 1.52136 0
M  V30 2309 C 225.601 -0.404015 2.29978 0
M  V30 2310 C 226.582 -1.04412 1.34284 0
M  V30 2311 O 227.767 -1.0527 1.63192 0
M  V30 2312 C 224.897 -1.5197 3.12286 0
M  V30 2313 C 223.851 -1.00448 4.16046 0
M  V30 2314 C 223.177 -2.21393 4.86712 0
M  V30 2315 C 224.477 -0.0569336 5.22269 0
M  V30 2316 H 226.171 0.245529 2.98392 0
M  V30 2317 H 223.717 0.119525 1.43503 0
M  V30 2318 H 225.67 -2.09715 3.6551 0
M  V30 2319 H 224.394 -2.19716 2.41646 0
M  V30 2320 H 223.053 -0.449421 3.63835 0
M  V30 2321 H 222.701 -2.87699 4.12599 0
M  V30 2322 H 222.401 -1.87571 5.56858 0
M  V30 2323 H 223.925 -2.7974 5.4275 0
M  V30 2324 H 225.339 -0.54325 5.7072 0
M  V30 2325 H 223.736 0.192594 5.99791 0
M  V30 2326 H 224.806 0.887663 4.76706 0
M  V30 2327 N 226.149 -1.5696 0.141893 0
M  V30 2328 C 227.112 -2.15316 -0.785587 0
M  V30 2329 C 228.112 -1.09366 -1.1788 0
M  V30 2330 O 229.302 -1.35031 -1.10056 0
M  V30 2331 C 226.434 -2.71211 -2.06537 0
M  V30 2332 H 227.627 -2.98608 -0.278041 0
M  V30 2333 H 225.18 -1.5593 -0.107519 0
M  V30 2334 H 225.915 -1.91571 -2.6167 0
M  V30 2335 H 225.7 -3.4872 -1.79268 0
M  V30 2336 H 227.19 -3.16189 -2.72789 0
M  V30 2337 N 227.627 0.131896 -1.57047 0
M  V30 2338 C 228.59 1.14638 -1.98471 0
M  V30 2339 C 229.59 1.35029 -0.873148 0
M  V30 2340 O 230.78 1.31764 -1.13946 0
M  V30 2341 C 227.912 2.50358 -2.31373 0
M  V30 2342 H 229.105 0.79064 -2.8929 0
M  V30 2343 H 226.658 0.375761 -1.51716 0
M  V30 2344 H 227.393 2.90876 -1.43393 0
M  V30 2345 H 227.178 2.36915 -3.12432 0
M  V30 2346 H 228.668 3.23395 -2.64207 0
M  V30 2347 N 229.106 1.52395 0.401703 0
M  V30 2348 C 230.036 1.79231 1.49661 0
M  V30 2349 C 231.017 0.643654 1.57452 0
M  V30 2350 O 232.202 0.889989 1.72606 0
M  V30 2351 C 229.332 1.94971 2.87409 0
M  V30 2352 C 228.286 3.10604 2.94465 0
M  V30 2353 C 227.612 3.11577 4.34538 0
M  V30 2354 C 228.912 4.49921 2.6527 0
M  V30 2355 H 230.606 2.70917 1.27454 0
M  V30 2356 H 228.152 1.30362 0.6117 0
M  V30 2357 H 230.105 2.12328 3.63999 0
M  V30 2358 H 228.829 0.999632 3.10926 0
M  V30 2359 H 227.488 2.93009 2.20321 0
M  V30 2360 H 227.136 2.14277 4.55076 0
M  V30 2361 H 226.836 3.89247 4.40183 0
M  V30 2362 H 228.36 3.31073 5.13053 0
M  V30 2363 H 229.774 4.67683 3.31581 0
M  V30 2364 H 228.171 5.29564 2.82281 0
M  V30 2365 H 229.241 4.57507 1.60671 0
M  V30 2366 N 230.584 -0.659388 1.43143 0
M  V30 2367 C 231.547 -1.75432 1.47501 0
M  V30 2368 C 232.547 -1.56707 0.360512 0
M  V30 2369 O 233.737 -1.62717 0.622002 0
M  V30 2370 C 230.869 -3.14239 1.32162 0
M  V30 2371 H 232.062 -1.7295 2.45006 0
M  V30 2372 H 229.615 -0.870469 1.29817 0
M  V30 2373 H 230.35 -3.22336 0.356401 0
M  V30 2374 H 230.135 -3.29235 2.12948 0
M  V30 2375 H 231.625 -3.94094 1.3813 0
M  V30 2376 N 232.062 -1.29571 -0.897171 0
M  V30 2377 C 233.287 -1.20705 -1.68656 0
M  V30 2378 C 233.712 0.228582 -1.86706 0
M  V30 2379 O 233.07 1.16494 -1.3892 0
M  V30 2380 C 233.118 -1.9282 -3.04717 0
M  V30 2381 O 232.222 -1.24697 -3.93096 0
M  V30 2382 H 231.563 -0.418126 -0.515816 0
M  V30 2383 H 234.093 -1.71183 -1.12061 0
M  V30 2384 H 234.103 -2.01372 -3.54843 0
M  V30 2385 H 232.778 -2.97239 -2.90899 0
M  V30 2386 H 231.355 -1.2442 -3.51531 0
M  V30 2387 N 233.54 1.10788 -1.12088 0
M  V30 2388 C 234.787 1.82671 -0.873931 0
M  V30 2389 C 235.115 1.85004 0.600311 0
M  V30 2390 O 234.37 1.30365 1.45957 0
M  V30 2391 C 234.669 3.29294 -1.38926 0
M  V30 2392 C 234.335 3.47113 -2.87791 0
M  V30 2393 C 232.997 3.51684 -3.28439 0
M  V30 2394 C 235.349 3.52808 -3.83635 0
M  V30 2395 C 232.677 3.59513 -4.63646 0
M  V30 2396 C 235.029 3.62169 -5.18668 0
M  V30 2397 C 233.693 3.65003 -5.58864 0
M  V30 2398 H 232.963 0.668441 -0.319794 0
M  V30 2399 H 235.61 1.30613 -1.40045 0
M  V30 2400 H 233.915 3.83894 -0.783122 0
M  V30 2401 H 235.612 3.83416 -1.17443 0
M  V30 2402 H 232.202 3.4423 -2.5535 0
M  V30 2403 H 236.386 3.4853 -3.53328 0
M  V30 2404 H 231.642 3.59987 -4.94185 0
M  V30 2405 H 235.816 3.6552 -5.92763 0
M  V30 2406 H 233.443 3.70822 -6.63623 0
M  V30 2407 N 235.018 0.912232 1.28515 0
M  V30 2408 C 235.948 0.416403 2.29757 0
M  V30 2409 C 236.929 -0.515194 1.6211 0
M  V30 2410 O 238.114 -0.423253 1.89532 0
M  V30 2411 C 235.244 -0.34572 3.45575 0
M  V30 2412 C 234.198 0.496599 4.25109 0
M  V30 2413 C 233.524 -0.393771 5.33248 0
M  V30 2414 C 234.824 1.75307 4.92001 0
M  V30 2415 H 236.518 1.26249 2.7148 0
M  V30 2416 H 234.064 0.608515 1.30511 0
M  V30 2417 H 236.017 -0.703422 4.15488 0
M  V30 2418 H 234.741 -1.2257 3.02728 0
M  V30 2419 H 233.4 0.8368 3.56922 0
M  V30 2420 H 233.048 -1.27225 4.86644 0
M  V30 2421 H 232.748 0.166209 5.87365 0
M  V30 2422 H 234.272 -0.747389 6.06009 0
M  V30 2423 H 235.686 1.46437 5.54283 0
M  V30 2424 H 234.083 2.25534 5.56106 0
M  V30 2425 H 235.153 2.48176 4.16577 0
M  V30 2426 N 236.496 -1.42363 0.676048 0
M  V30 2427 C 237.907 -1.84649 0.275948 0
M  V30 2428 C 238.258 -1.56588 -1.18214 0
M  V30 2429 O 237.383 -1.02634 -1.90513 0
M  V30 2430 C 237.978 -3.35178 0.494053 0
M  V30 2431 C 236.537 -3.76109 0.148061 0
M  V30 2432 C 235.684 -2.65931 0.785891 0
M  V30 2433 H 238.635 -1.32192 0.878121 0
M  V30 2434 H 238.656 -3.79655 -0.25343 0
M  V30 2435 H 238.168 -3.55571 1.55535 0
M  V30 2436 H 236.269 -3.61323 -0.909742 0
M  V30 2437 H 236.382 -4.7546 0.589454 0
M  V30 2438 H 234.746 -2.53773 0.217113 0
M  V30 2439 H 235.529 -2.89146 1.85067 0
M  V30 2440 N 237.974 -0.419461 -1.51915 0
M  V30 2441 C 238.904 0.391813 -2.30189 0
M  V30 2442 C 239.885 1.03699 -1.34836 0
M  V30 2443 O 241.07 1.04403 -1.63748 0
M  V30 2444 C 238.2 1.50312 -3.13087 0
M  V30 2445 C 237.154 0.9824 -4.16573 0
M  V30 2446 C 236.48 2.18809 -4.8788 0
M  V30 2447 C 237.78 0.0292356 -5.22292 0
M  V30 2448 H 239.474 -0.26135 -2.98257 0
M  V30 2449 H 237.02 -0.127134 -1.43438 0
M  V30 2450 H 238.973 2.07773 -3.66617 0
M  V30 2451 H 237.697 2.18431 -2.42807 0
M  V30 2452 H 236.356 0.430119 -3.64068 0
M  V30 2453 H 236.004 2.85507 -4.14119 0
M  V30 2454 H 235.704 1.84615 -5.57845 0
M  V30 2455 H 237.228 2.76858 -5.44226 0
M  V30 2456 H 238.642 0.512976 -5.71 0
M  V30 2457 H 237.039 -0.2244 -5.9968 0
M  V30 2458 H 238.109 -0.912931 -4.76228 0
M  V30 2459 N 239.452 1.56882 -0.150215 0
M  V30 2460 C 240.382 2.19935 0.784284 0
M  V30 2461 C 241.363 1.14854 1.25469 0
M  V30 2462 O 242.548 1.43209 1.31168 0
M  V30 2463 C 239.678 2.82349 2.02229 0
M  V30 2464 C 238.632 3.93285 1.68853 0
M  V30 2465 C 237.958 4.42649 2.99944 0
M  V30 2466 C 239.258 5.13904 0.932714 0
M  V30 2467 H 240.952 2.9828 0.258781 0
M  V30 2468 H 238.498 1.43473 0.123029 0
M  V30 2469 H 240.451 3.25126 2.68088 0
M  V30 2470 H 239.175 2.0134 2.57157 0
M  V30 2471 H 237.834 3.5113 1.05371 0
M  V30 2472 H 237.482 3.58458 3.52869 0
M  V30 2473 H 237.182 5.17476 2.78374 0
M  V30 2474 H 238.706 4.88099 3.66868 0
M  V30 2475 H 240.12 5.53506 1.49345 0
M  V30 2476 H 238.517 5.94515 0.81684 0
M  V30 2477 H 239.587 4.84842 -0.0749568 0
M  V30 2478 N 240.93 -0.123565 1.57115 0
M  V30 2479 C 241.86 -1.15309 2.03042 0
M  V30 2480 C 242.841 -1.43454 0.914061 0
M  V30 2481 O 244.026 -1.53973 1.18347 0
M  V30 2482 C 241.156 -2.48043 2.43089 0
M  V30 2483 C 240.11 -2.3437 3.58127 0
M  V30 2484 C 239.436 -3.72026 3.84059 0
M  V30 2485 C 240.736 -1.80804 4.90007 0
M  V30 2486 H 242.43 -0.771102 2.893 0
M  V30 2487 H 239.976 -0.369479 1.39179 0
M  V30 2488 H 241.929 -3.20311 2.73823 0
M  V30 2489 H 240.653 -2.88122 1.53796 0
M  V30 2490 H 239.312 -1.64551 3.27595 0
M  V30 2491 H 238.96 -4.09582 2.91979 0
M  V30 2492 H 238.66 -3.63732 4.6149 0
M  V30 2493 H 240.184 -4.45806 4.1724 0
M  V30 2494 H 241.598 -2.42886 5.19307 0
M  V30 2495 H 239.995 -1.83343 5.71407 0
M  V30 2496 H 241.065 -0.76528 4.78823 0
M  V30 2497 N 242.408 -1.52605 -0.393616 0
M  V30 2498 C 243.656 -1.67093 -1.13685 0
M  V30 2499 C 243.977 -0.411011 -1.90619 0
M  V30 2500 O 243.247 0.574491 -1.87287 0
M  V30 2501 H 241.827 -0.615923 -0.422668 0
M  V30 2502 H 244.489 -1.89704 -0.447039 0
M  V30 2503 H 243.585 -2.51922 -1.84232 0
M  V30 2504 N 243.887 0.651787 -1.4349 0
M  V30 2505 C 245.133 1.4121 -1.46395 0
M  V30 2506 C 245.488 1.92202 -0.087366 0
M  V30 2507 O 244.781 1.69452 0.894231 0
M  V30 2508 C 244.975 2.60914 -2.44251 0
M  V30 2509 C 244.804 2.21639 -3.91288 0
M  V30 2510 C 243.574 2.09897 -4.59643 0
M  V30 2511 C 245.772 1.81835 -4.81083 0
M  V30 2512 N 243.754 1.63967 -5.91598 0
M  V30 2513 C 245.125 1.46998 -6.02322 0
M  V30 2514 C 247.18 1.69031 -4.6833 0
M  V30 2515 C 245.883 1.00638 -7.12225 0
M  V30 2516 C 247.909 1.24077 -5.78238 0
M  V30 2517 C 247.271 0.901772 -6.98604 0
M  V30 2518 H 243.37 0.512322 -0.590805 0
M  V30 2519 H 245.954 0.74989 -1.7968 0
M  V30 2520 H 244.125 3.24792 -2.1299 0
M  V30 2521 H 245.857 3.27622 -2.37584 0
M  V30 2522 H 242.612 2.297 -4.14168 0
M  V30 2523 H 243.036 1.43359 -6.61647 0
M  V30 2524 H 247.678 1.93878 -3.75727 0
M  V30 2525 H 245.396 0.745399 -8.04655 0
M  V30 2526 H 248.982 1.14657 -5.7039 0
M  V30 2527 H 247.862 0.559226 -7.82203 0
M  V30 2528 N 245.365 1.30045 0.890287 0
M  V30 2529 C 246.315 1.12592 1.9826 0
M  V30 2530 C 247.299 0.0426021 1.60844 0
M  V30 2531 O 248.491 0.265346 1.75 0
M  V30 2532 C 245.62 0.814301 3.33503 0
M  V30 2533 C 244.706 1.93761 3.7725 0
M  V30 2534 N 245.097 3.18232 3.93143 0
M  V30 2535 C 243.395 1.83277 4.06602 0
M  V30 2536 C 244.096 3.9158 4.30163 0
M  V30 2537 N 243.072 3.19591 4.3973 0
M  V30 2538 H 246.874 2.07003 2.08631 0
M  V30 2539 H 244.388 1.21307 1.07974 0
M  V30 2540 H 246.385 0.67029 4.11476 0
M  V30 2541 H 245.045 -0.121797 3.24471 0
M  V30 2542 H 246.056 3.53581 3.78419 0
M  V30 2543 H 242.733 0.97001 4.06075 0
M  V30 2544 H 244.123 4.98744 4.50226 0
M  V30 2545 N 246.843 -1.10192 1.12674 0
M  V30 2546 C 247.753 -2.20172 0.810026 0
M  V30 2547 C 248.769 -1.72821 -0.202188 0
M  V30 2548 O 249.945 -2.01369 -0.0351691 0
M  V30 2549 C 247.01 -3.45631 0.272007 0
M  V30 2550 C 246.071 -4.07704 1.34447 0
M  V30 2551 C 245.304 -5.27175 0.832029 0
M  V30 2552 O 245.527 -5.69425 -0.333284 0
M  V30 2553 O 244.461 -5.80168 1.60277 0
M  V30 2554 H 248.287 -2.49701 1.72867 0
M  V30 2555 H 245.872 -1.18977 0.903597 0
M  V30 2556 H 247.754 -4.21394 -0.0230219 0
M  V30 2557 H 246.429 -3.17723 -0.619164 0
M  V30 2558 H 245.336 -3.33614 1.6927 0
M  V30 2559 H 246.669 -4.3982 2.2095 0
M  V30 2560 N 248.321 -0.919034 -1.28029 0
M  V30 2561 C 249.251 -0.428581 -2.29533 0
M  V30 2562 C 250.232 0.50659 -1.62381 0
M  V30 2563 O 251.417 0.413195 -1.89753 0
M  V30 2564 C 248.547 0.327388 -3.45753 0
M  V30 2565 C 247.501 -0.519137 -4.2484 0
M  V30 2566 C 246.827 0.365486 -5.33449 0
M  V30 2567 C 248.127 -1.77914 -4.91064 0
M  V30 2568 H 249.821 -1.27687 -2.70807 0
M  V30 2569 H 247.367 -0.615428 -1.30186 0
M  V30 2570 H 249.32 0.681378 -4.15855 0
M  V30 2571 H 248.044 1.20963 -3.03374 0
M  V30 2572 H 246.703 -0.855717 -3.56473 0
M  V30 2573 H 246.351 1.24642 -4.87312 0
M  V30 2574 H 246.051 -0.197356 -5.87268 0
M  V30 2575 H 247.575 0.715241 -6.06396 0
M  V30 2576 H 248.989 -1.49374 -5.53498 0
M  V30 2577 H 247.386 -2.2848 -5.54903 0
M  V30 2578 H 248.456 -2.50382 -4.15255 0
M  V30 2579 N 249.799 1.42003 -0.683588 0
M  V30 2580 C 251.047 2.01015 -0.209101 0
M  V30 2581 C 251.368 1.54365 1.19149 0
M  V30 2582 O 250.638 0.769083 1.80172 0
M  V30 2583 H 249.218 0.743294 -0.074315 0
M  V30 2584 H 251.88 1.73798 -0.882066 0
M  V30 2585 H 250.976 3.11343 -0.2172 0
M  V30 2586 N 251.277 0.427512 1.51691 0
M  V30 2587 C 252.227 -0.406604 2.24345 0
M  V30 2588 C 253.211 -0.998276 1.26187 0
M  V30 2589 O 254.403 -0.918045 1.51331 0
M  V30 2590 C 251.532 -1.51266 3.08177 0
M  V30 2591 C 250.618 -0.930868 4.13758 0
M  V30 2592 N 251.009 -0.0773552 5.05741 0
M  V30 2593 C 249.307 -1.19948 4.29568 0
M  V30 2594 C 250.008 0.248344 5.8117 0
M  V30 2595 N 248.984 -0.365535 5.4237 0
M  V30 2596 H 252.786 0.251581 2.92821 0
M  V30 2597 H 250.3 0.239003 1.60632 0
M  V30 2598 H 252.297 -2.123 3.58796 0
M  V30 2599 H 250.957 -2.17328 2.41244 0
M  V30 2600 H 251.968 0.288351 5.17097 0
M  V30 2601 H 248.645 -1.85832 3.73862 0
M  V30 2602 H 250.035 0.942286 6.6526 0
M  V30 2603 N 252.755 -1.56801 0.158532 0
M  V30 2604 C 253.718 -2.16138 -0.762705 0
M  V30 2605 C 254.718 -1.1061 -1.16713 0
M  V30 2606 O 255.908 -1.36191 -1.08617 0
M  V30 2607 C 253.04 -2.73386 -2.03649 0
M  V30 2608 H 254.233 -2.98886 -0.246354 0
M  V30 2609 H 251.786 -1.56035 -0.0909744 0
M  V30 2610 H 252.521 -1.94335 -2.59623 0
M  V30 2611 H 252.306 -3.50601 -1.75559 0
M  V30 2612 H 253.796 -3.19065 -2.6942 0
M  V30 2613 N 254.233 0.115231 -1.57178 0
M  V30 2614 C 255.649 0.468877 -1.52557 0
M  V30 2615 C 255.849 1.81649 -0.872125 0
M  V30 2616 O 254.905 2.48347 -0.45606 0
M  V30 2617 C 256.218 0.4499 -2.97315 0
M  V30 2618 C 257.766 0.533185 -3.08425 0
M  V30 2619 C 258.241 0.54456 -4.54751 0
M  V30 2620 N 259.732 0.605892 -4.5922 0
M  V30 2621 C 260.467 0.636203 -5.6986 0
M  V30 2622 N 259.963 0.623931 -6.89985 0
M  V30 2623 N 261.756 0.679496 -5.57978 0
M  V30 2624 H 253.907 -0.767712 -1.9804 0
M  V30 2625 H 256.17 -0.283609 -0.904583 0
M  V30 2626 H 255.876 -0.472721 -3.48509 0
M  V30 2627 H 255.75 1.27632 -3.5495 0
M  V30 2628 H 258.137 1.44623 -2.57232 0
M  V30 2629 H 258.218 -0.320995 -2.53778 0
M  V30 2630 H 257.862 -0.364452 -5.06591 0
M  V30 2631 H 257.792 1.41568 -5.07214 0
M  V30 2632 H 260.283 0.621386 -3.72756 0
M  V30 2633 H 260.596 0.649787 -7.70063 0
M  V30 2634 H 258.941 0.591296 -6.9248 0
M  V30 2635 H 262.132 0.686472 -4.63039 0
M  V30 2636 H 262.305 0.69965 -6.44212 0
M  V30 2637 N 255.711 1.52812 0.385517 0
M  V30 2638 C 257.122 1.5993 0.963293 0
M  V30 2639 C 257.473 0.454302 1.90868 0
M  V30 2640 O 256.598 -0.422132 2.12243 0
M  V30 2641 C 257.193 2.89871 1.75387 0
M  V30 2642 C 255.752 2.99389 2.28129 0
M  V30 2643 C 254.899 2.55071 1.08783 0
M  V30 2644 H 257.85 1.5784 0.164948 0
M  V30 2645 H 257.871 2.76553 2.61341 0
M  V30 2646 H 257.383 3.73186 1.06554 0
M  V30 2647 H 255.484 2.20619 3.00263 0
M  V30 2648 H 255.597 4.04096 2.57377 0
M  V30 2649 H 253.961 2.09473 1.4489 0
M  V30 2650 H 254.744 3.40785 0.414807 0
M  V30 2651 N 257.189 -0.644168 1.43834 0
M  V30 2652 C 258.6 -1.22554 1.40845 0
M  V30 2653 C 258.951 -1.9585 0.117115 0
M  V30 2654 O 258.076 -2.01734 -0.783086 0
M  V30 2655 C 258.671 -2.22907 2.55143 0
M  V30 2656 C 257.23 -2.76501 2.5539 0
M  V30 2657 C 256.377 -1.51287 2.32396 0
M  V30 2658 H 259.328 -0.43563 1.52604 0
M  V30 2659 H 259.349 -3.05259 2.2715 0
M  V30 2660 H 258.861 -1.69533 3.49114 0
M  V30 2661 H 256.962 -3.33914 1.65324 0
M  V30 2662 H 257.075 -3.23429 3.53455 0
M  V30 2663 H 255.439 -1.78957 1.81236 0
M  V30 2664 H 256.222 -0.998336 3.28463 0
M  V30 2665 N 258.668 -1.30515 -0.883378 0
M  V30 2666 C 259.914 -1.19607 -1.63774 0
M  V30 2667 C 260.247 0.248314 -1.92606 0
M  V30 2668 O 259.522 1.17742 -1.54813 0
M  V30 2669 C 259.805 -2.02669 -2.97653 0
M  V30 2670 C 259.658 -3.55335 -2.75784 0
M  V30 2671 C 260.977 -1.86573 -3.98596 0
M  V30 2672 H 258.096 -0.435856 -0.594305 0
M  V30 2673 H 260.738 -1.60165 -1.02212 0
M  V30 2674 H 258.888 -1.68208 -3.50197 0
M  V30 2675 H 260.56 -3.99863 -2.30016 0
M  V30 2676 H 258.803 -3.79438 -2.1026 0
M  V30 2677 H 259.474 -4.08745 -3.70988 0
M  V30 2678 H 261.95 -2.16703 -3.55217 0
M  V30 2679 H 260.826 -2.47014 -4.90179 0
M  V30 2680 H 261.087 -0.825321 -4.34328 0
M  V30 2681 N 260.146 1.09593 -1.13257 0
M  V30 2682 C 261.557 1.63229 -0.906274 0
M  V30 2683 C 261.908 1.8811 0.557578 0
M  V30 2684 O 261.033 1.62953 1.42391 0
M  V30 2685 C 261.628 2.96535 -1.63867 0
M  V30 2686 C 260.187 3.47003 -1.45828 0
M  V30 2687 C 259.334 2.2145 -1.66898 0
M  V30 2688 H 262.285 0.92978 -1.28611 0
M  V30 2689 H 262.306 3.64411 -1.09476 0
M  V30 2690 H 261.818 2.78394 -2.70404 0
M  V30 2691 H 259.919 3.70272 -0.415848 0
M  V30 2692 H 260.032 4.24551 -2.2202 0
M  V30 2693 H 258.396 2.30022 -1.09371 0
M  V30 2694 H 259.179 2.0583 -2.74752 0
M  V30 2695 N 261.624 0.925811 1.2754 0
M  V30 2696 C 262.872 0.564138 1.94067 0
M  V30 2697 C 263.193 -0.897188 1.73134 0
M  V30 2698 O 262.463 -1.63573 1.07799 0
M  V30 2699 H 261.043 0.205645 0.718136 0
M  V30 2700 H 263.705 1.1778 1.55287 0
M  V30 2701 H 262.801 0.76881 3.02483 0
M  V30 2702 N 263.102 -1.41638 0.69111 0
M  V30 2703 C 264.034 -2.29194 -0.0161523 0
M  V30 2704 C 265.047 -1.44549 -0.748955 0
M  V30 2705 O 266.236 -1.681 -0.6004 0
M  V30 2706 C 263.336 -3.22325 -1.0469 0
M  V30 2707 C 262.509 -4.35706 -0.384621 0
M  V30 2708 C 261.568 -5.09443 -1.31737 0
M  V30 2709 O 260.594 -5.63386 -0.811451 0
M  V30 2710 N 261.796 -5.16487 -2.64993 0
M  V30 2711 H 264.561 -2.90534 0.735523 0
M  V30 2712 H 262.122 -1.52742 0.53679 0
M  V30 2713 H 264.114 -3.68522 -1.67252 0
M  V30 2714 H 262.684 -2.62323 -1.70015 0
M  V30 2715 H 261.904 -3.91948 0.420804 0
M  V30 2716 H 263.192 -5.08743 0.0760765 0
M  V30 2717 H 262.59 -4.741 -3.08619 0
M  V30 2718 H 261.147 -5.66276 -3.22761 0
M  V30 2719 N 264.58 -0.43555 -1.51462 0
M  V30 2720 C 265.82 0.130708 -2.03982 0
M  V30 2721 C 266.184 1.40117 -1.31268 0
M  V30 2722 O 267.385 2.04755 -1.74152 0
M  V30 2723 C 265.656 0.346102 -3.5572 0
M  V30 2724 S 267.215 0.876022 -4.29967 0
M  V30 2725 H 264.033 0.0326881 -0.710248 0
M  V30 2726 H 266.635 -0.594544 -1.8624 0
M  V30 2727 H 265.339 -0.584911 -4.0621 0
M  V30 2728 H 264.87 1.09849 -3.77752 0
M  V30 2729 H 266.885 2.15379 -4.47019 0
M  V30 2730 N 266.058 1.56714 -0.166846 0
M  V30 2731 C 267.474 1.58473 0.189372 0
M  V30 2732 C 267.674 1.18201 1.63189 0
M  V30 2733 O 266.73 0.891528 2.36237 0
M  V30 2734 C 268.043 3.00573 -0.0873872 0
M  V30 2735 C 269.591 3.1299 -0.0252443 0
M  V30 2736 C 270.066 4.57174 -0.274934 0
M  V30 2737 N 271.557 4.62665 -0.222553 0
M  V30 2738 C 272.292 5.72072 -0.389985 0
M  V30 2739 N 271.788 6.90054 -0.616229 0
M  V30 2740 N 273.581 5.61153 -0.326202 0
M  V30 2741 H 265.732 1.8118 -1.10849 0
M  V30 2742 H 267.995 0.839525 -0.440342 0
M  V30 2743 H 267.701 3.34497 -1.0865 0
M  V30 2744 H 267.575 3.72019 0.623037 0
M  V30 2745 H 269.962 2.78895 0.96444 0
M  V30 2746 H 270.043 2.43989 -0.768309 0
M  V30 2747 H 269.687 4.91976 -1.26181 0
M  V30 2748 H 269.617 5.24328 0.48869 0
M  V30 2749 H 272.108 3.77863 -0.0531512 0
M  V30 2750 H 272.421 7.69311 -0.733559 0
M  V30 2751 H 270.766 6.91927 -0.652791 0
M  V30 2752 H 273.957 4.67859 -0.150072 0
M  V30 2753 H 274.13 6.46364 -0.460116 0
M  V30 2754 N 267.536 -0.106894 1.57237 0
M  V30 2755 C 268.466 -1.13148 2.04254 0
M  V30 2756 C 269.447 -1.42476 0.929224 0
M  V30 2757 O 270.632 -1.52709 1.19973 0
M  V30 2758 C 267.762 -2.4545 2.45706 0
M  V30 2759 C 266.716 -2.30558 3.60592 0
M  V30 2760 C 266.042 -3.67931 3.87983 0
M  V30 2761 C 267.342 -1.75597 4.91897 0
M  V30 2762 H 269.036 -0.740374 2.90101 0
M  V30 2763 H 266.582 -0.354696 1.39563 0
M  V30 2764 H 268.535 -3.17389 2.77205 0
M  V30 2765 H 267.259 -2.86475 1.56843 0
M  V30 2766 H 265.918 -1.61067 3.29322 0
M  V30 2767 H 265.566 -4.06462 2.96306 0
M  V30 2768 H 265.266 -3.58817 4.65322 0
M  V30 2769 H 266.79 -4.41356 4.21945 0
M  V30 2770 H 268.204 -2.37364 5.21854 0
M  V30 2771 H 266.601 -1.77272 5.73319 0
M  V30 2772 H 267.671 -0.714451 4.79608 0
M  V30 2773 N 269.014 -1.53014 -0.377408 0
M  V30 2774 C 269.944 -1.81589 -1.46791 0
M  V30 2775 C 270.925 -0.668622 -1.56408 0
M  V30 2776 O 272.11 -0.917337 -1.71168 0
M  V30 2777 C 269.24 -1.99519 -2.8427 0
M  V30 2778 C 268.194 -3.15249 -2.89486 0
M  V30 2779 C 267.52 -3.18451 -4.29527 0
M  V30 2780 C 268.82 -4.54084 -2.58079 0
M  V30 2781 H 270.514 -2.7291 -1.23127 0
M  V30 2782 H 268.06 -1.31319 -0.590883 0
M  V30 2783 H 270.013 -2.18092 -3.60575 0
M  V30 2784 H 268.737 -1.04897 -3.09296 0
M  V30 2785 H 267.396 -2.96477 -2.15631 0
M  V30 2786 H 267.044 -2.2149 -4.5161 0
M  V30 2787 H 266.744 -3.962 -4.33934 0
M  V30 2788 H 268.268 -3.39193 -5.07721 0
M  V30 2789 H 269.682 -4.72899 -3.24098 0
M  V30 2790 H 268.079 -5.33987 -2.7382 0
M  V30 2791 H 269.149 -4.60006 -1.53372 0
M  V30 2792 N 270.492 0.636531 -1.44174 0
M  V30 2793 C 271.455 1.73063 -1.50273 0
M  V30 2794 C 272.455 1.56113 -0.385397 0
M  V30 2795 O 273.645 1.61707 -0.64781 0
M  V30 2796 C 270.777 3.12096 -1.37145 0
M  V30 2797 H 271.97 1.69031 -2.47727 0
M  V30 2798 H 269.523 0.849706 -1.31186 0
M  V30 2799 H 270.258 3.21728 -0.407636 0
M  V30 2800 H 270.043 3.25805 -2.18159 0
M  V30 2801 H 271.533 3.91846 -1.44382 0
M  V30 2802 N 271.97 1.30982 0.876444 0
M  V30 2803 C 273.195 1.23373 1.66715 0
M  V30 2804 C 273.62 -0.19885 1.87046 0
M  V30 2805 O 272.978 -1.1427 1.40756 0
M  V30 2806 C 273.026 1.97644 3.01611 0
M  V30 2807 O 272.13 1.30935 3.91062 0
M  V30 2808 H 271.471 0.426279 0.509099 0
M  V30 2809 H 274.001 1.72944 1.09323 0
M  V30 2810 H 274.011 2.06992 3.51594 0
M  V30 2811 H 272.686 3.01829 2.86133 0
M  V30 2812 H 271.263 1.29996 3.49507 0
M  V30 2813 N 273.449 -1.08991 1.13837 0
M  V30 2814 C 274.379 -2.17771 0.842507 0
M  V30 2815 C 275.36 -1.6892 -0.20001 0
M  V30 2816 O 276.545 -1.94113 -0.0579731 0
M  V30 2817 C 273.675 -3.4589 0.312644 0
M  V30 2818 C 272.629 -4.08099 1.28992 0
M  V30 2819 C 271.955 -5.31098 0.619623 0
M  V30 2820 C 273.255 -4.50077 2.65005 0
M  V30 2821 H 274.949 -2.42777 1.75213 0
M  V30 2822 H 272.495 -1.16682 0.843875 0
M  V30 2823 H 274.448 -4.21297 0.0933043 0
M  V30 2824 H 273.172 -3.20419 -0.632382 0
M  V30 2825 H 271.831 -3.34717 1.49533 0
M  V30 2826 H 271.479 -5.0191 -0.33102 0
M  V30 2827 H 271.179 -5.73674 1.27167 0
M  V30 2828 H 272.703 -6.09224 0.409669 0
M  V30 2829 H 274.117 -5.16688 2.48407 0
M  V30 2830 H 272.514 -5.03553 3.26427 0
M  V30 2831 H 273.584 -3.62257 3.22332 0
M  V30 2832 N 274.927 -0.932562 -1.27047 0
M  V30 2833 C 276.338 -0.619451 -1.76124 0
M  V30 2834 C 276.689 0.865397 -1.76083 0
M  V30 2835 O 275.814 1.67722 -1.36742 0
M  V30 2836 C 276.409 -1.11771 -3.19832 0
M  V30 2837 C 274.968 -0.855174 -3.66557 0
M  V30 2838 C 274.115 -1.27362 -2.46321 0
M  V30 2839 H 277.066 -1.11181 -1.13245 0
M  V30 2840 H 277.087 -0.46759 -3.77616 0
M  V30 2841 H 276.599 -2.19842 -3.1983 0
M  V30 2842 H 274.7 0.211524 -3.71999 0
M  V30 2843 H 274.813 -1.47613 -4.55793 0
M  V30 2844 H 273.177 -0.692119 -2.45116 0
M  V30 2845 H 273.96 -2.36307 -2.49025 0
M  V30 2846 N 276.405 1.4127 -0.698611 0
M  V30 2847 C 277.652 2.0118 -0.230865 0
M  V30 2848 C 277.98 1.55338 1.17049 0
M  V30 2849 O 277.235 0.756775 1.80475 0
M  V30 2850 C 277.534 3.56592 -0.240192 0
M  V30 2851 C 277.2 4.21955 -1.58948 0
M  V30 2852 C 275.862 4.39524 -1.95887 0
M  V30 2853 C 278.214 4.58576 -2.47704 0
M  V30 2854 C 275.542 4.90992 -3.2116 0
M  V30 2855 C 277.894 5.11435 -3.72313 0
M  V30 2856 C 276.558 5.27215 -4.0939 0
M  V30 2857 H 275.828 0.736169 -0.0844796 0
M  V30 2858 H 278.475 1.69124 -0.8983 0
M  V30 2859 H 276.78 3.88456 0.510797 0
M  V30 2860 H 278.477 4.00758 0.139296 0
M  V30 2861 H 275.067 4.08657 -1.29219 0
M  V30 2862 H 279.251 4.44654 -2.20445 0
M  V30 2863 H 274.507 5.01393 -3.49878 0
M  V30 2864 H 278.681 5.38752 -4.4127 0
M  V30 2865 H 276.308 5.66859 -5.06533 0
M  V30 2866 N 277.883 0.443576 1.51229 0
M  V30 2867 C 279.129 -0.120975 2.02439 0
M  V30 2868 C 279.462 -1.41815 1.32674 0
M  V30 2869 O 278.737 -1.89373 0.443622 0
M  V30 2870 C 279.02 -0.333291 3.58554 0
M  V30 2871 C 278.873 0.982968 4.38928 0
M  V30 2872 C 280.192 -1.10028 4.26124 0
M  V30 2873 H 277.311 -0.0424923 0.735774 0
M  V30 2874 H 279.953 0.583794 1.80809 0
M  V30 2875 H 278.103 -0.933614 3.77115 0
M  V30 2876 H 279.775 1.61775 4.32003 0
M  V30 2877 H 278.018 1.58611 4.03763 0
M  V30 2878 H 278.689 0.788379 5.46341 0
M  V30 2879 H 281.165 -0.591711 4.11871 0
M  V30 2880 H 280.041 -1.21761 5.35225 0
M  V30 2881 H 280.302 -2.12996 3.87408 0
M  V30 2882 N 279.361 -1.56624 0.175154 0
M  V30 2883 C 280.291 -2.21155 -0.749195 0
M  V30 2884 C 281.272 -1.16836 -1.23626 0
M  V30 2885 O 282.457 -1.45277 -1.28873 0
M  V30 2886 C 279.587 -2.8553 -1.97711 0
M  V30 2887 C 278.541 -3.95921 -1.62575 0
M  V30 2888 C 277.867 -4.47365 -2.92864 0
M  V30 2889 C 279.167 -5.15323 -0.850838 0
M  V30 2890 H 280.861 -2.98653 -0.211295 0
M  V30 2891 H 278.407 -1.43651 -0.100188 0
M  V30 2892 H 280.36 -3.2935 -2.62881 0
M  V30 2893 H 279.084 -2.05406 -2.53921 0
M  V30 2894 H 277.743 -3.52762 -0.997719 0
M  V30 2895 H 277.391 -3.64027 -3.47122 0
M  V30 2896 H 277.091 -5.21839 -2.70106 0
M  V30 2897 H 278.615 -4.93873 -3.59056 0
M  V30 2898 H 280.029 -5.55812 -1.40521 0
M  V30 2899 H 278.426 -5.95739 -0.722154 0
M  V30 2900 H 279.496 -4.84661 0.152082 0
M  V30 2901 N 280.839 0.0985539 -1.57292 0
M  V30 2902 C 282.085 0.803867 -1.86188 0
M  V30 2903 C 282.418 1.78549 -0.763794 0
M  V30 2904 O 281.693 1.93153 0.22855 0
M  V30 2905 C 281.976 1.53568 -3.25713 0
M  V30 2906 C 281.829 0.572277 -4.46145 0
M  V30 2907 C 283.148 2.48708 -3.63087 0
M  V30 2908 H 280.267 0.290781 -0.677211 0
M  V30 2909 H 282.909 0.0675783 -1.8988 0
M  V30 2910 H 281.059 2.16332 -3.22696 0
M  V30 2911 H 282.731 -0.0480894 -4.61275 0
M  V30 2912 H 280.974 -0.114618 -4.33649 0
M  V30 2913 H 281.645 1.12139 -5.40489 0
M  V30 2914 H 284.121 1.96039 -3.67026 0
M  V30 2915 H 282.997 2.96932 -4.61652 0
M  V30 2916 H 283.258 3.32309 -2.91588 0
M  V30 2917 N 282.317 1.53212 0.369288 0
M  V30 2918 C 283.28 1.7872 1.43498 0
M  V30 2919 C 284.28 0.657554 1.46741 0
M  V30 2920 O 285.47 0.925736 1.47566 0
M  V30 2921 C 282.602 1.90591 2.82645 0
M  V30 2922 H 283.795 2.73894 1.22156 0
M  V30 2923 H 281.348 1.44233 0.602203 0
M  V30 2924 H 282.083 0.974709 3.09306 0
M  V30 2925 H 281.868 2.72751 2.8169 0
M  V30 2926 H 283.358 2.11931 3.59826 0
M  V30 2927 N 283.795 -0.628877 1.44509 0
M  V30 2928 C 285.02 -1.42048 1.5112 0
M  V30 2929 C 285.445 -1.87594 0.137818 0
M  V30 2930 O 284.803 -1.58873 -0.873437 0
M  V30 2931 C 284.851 -2.61541 2.48251 0
M  V30 2932 O 283.955 -3.61453 1.98559 0
M  V30 2933 H 283.296 -0.424942 0.510216 0
M  V30 2934 H 285.826 -0.767374 1.89664 0
M  V30 2935 H 285.836 -3.09057 2.66361 0
M  V30 2936 H 284.511 -2.27736 3.48007 0
M  V30 2937 H 283.088 -3.20731 1.90227 0
M  V30 2938 N 285.273 -1.31445 -0.869486 0
M  V30 2939 C 286.521 -1.20918 -1.61936 0
M  V30 2940 C 286.842 0.232683 -1.93607 0
M  V30 2941 O 286.112 1.15352 -1.58338 0
M  V30 2942 H 284.692 -0.44454 -0.600328 0
M  V30 2943 H 287.354 -1.64776 -1.0409 0
M  V30 2944 H 286.45 -1.78124 -2.56278 0
M  V30 2945 N 286.751 1.08385 -1.14413 0
M  V30 2946 C 287.681 2.17321 -0.854044 0
M  V30 2947 C 288.662 1.69024 0.191049 0
M  V30 2948 O 289.847 1.94141 0.0476779 0
M  V30 2949 C 286.977 3.45719 -0.330983 0
M  V30 2950 C 285.931 4.07409 -1.31155 0
M  V30 2951 C 285.257 5.30762 -0.64778 0
M  V30 2952 C 286.557 4.48665 -2.67388 0
M  V30 2953 H 288.251 2.41845 -1.76498 0
M  V30 2954 H 285.797 1.16233 -0.850051 0
M  V30 2955 H 287.75 4.21241 -0.115645 0
M  V30 2956 H 286.474 3.2075 0.615381 0
M  V30 2957 H 285.133 3.33919 -1.51306 0
M  V30 2958 H 284.781 5.02078 0.304398 0
M  V30 2959 H 284.481 5.72992 -1.30207 0
M  V30 2960 H 286.005 6.08998 -0.441972 0
M  V30 2961 H 287.419 5.15364 -2.51143 0
M  V30 2962 H 285.816 5.01814 -3.29093 0
M  V30 2963 H 286.886 3.60543 -3.24248 0
M  V30 2964 N 288.23 0.939286 1.26551 0
M  V30 2965 C 289.458 0.602536 1.97932 0
M  V30 2966 C 289.873 -0.82206 1.69964 0
M  V30 2967 O 289.23 -1.54789 0.966784 0
M  V30 2968 C 289.281 0.832946 3.51773 0
M  V30 2969 O 289.002 2.20151 3.78768 0
M  V30 2970 C 290.503 0.506483 4.40397 0
M  V30 2971 H 287.723 0.227248 0.631347 0
M  V30 2972 H 290.267 1.25948 1.61113 0
M  V30 2973 H 288.422 0.222644 3.8676 0
M  V30 2974 H 288.836 2.26013 4.73306 0
M  V30 2975 H 290.31 0.718333 5.47306 0
M  V30 2976 H 290.787 -0.558451 4.35635 0
M  V30 2977 H 291.393 1.09543 4.10951 0
M  V30 2978 N 289.708 -1.40897 0.706093 0
M  V30 2979 C 290.955 -2.01054 0.241531 0
M  V30 2980 C 291.283 -1.55956 -1.16223 0
M  V30 2981 O 290.538 -0.766336 -1.80072 0
M  V30 2982 C 290.837 -3.5646 0.259099 0
M  V30 2983 C 290.503 -4.21106 1.61184 0
M  V30 2984 C 289.165 -4.38479 1.98216 0
M  V30 2985 C 291.517 -4.57256 2.50132 0
M  V30 2986 C 288.845 -4.89282 3.2376 0
M  V30 2987 C 291.197 -5.09454 3.7502 0
M  V30 2988 C 289.861 -5.25037 4.12181 0
M  V30 2989 H 289.131 -0.73571 0.0883825 0
M  V30 2990 H 291.778 -1.68645 0.907257 0
M  V30 2991 H 290.083 -3.88721 -0.490189 0
M  V30 2992 H 291.78 -4.00826 -0.11804 0
M  V30 2993 H 288.37 -4.07966 1.31384 0
M  V30 2994 H 292.554 -4.43479 2.228 0
M  V30 2995 H 287.81 -4.99531 3.52532 0
M  V30 2996 H 291.984 -5.36404 4.44121 0
M  V30 2997 H 289.611 -5.64164 5.09532 0
M  V30 2998 N 291.186 -0.45159 -1.50991 0
M  V30 2999 C 292.433 0.110074 -2.02201 0
M  V30 3000 C 292.761 1.4146 -1.33489 0
M  V30 3001 O 292.016 1.90617 -0.443125 0
M  V30 3002 C 292.315 0.361728 -3.55565 0
M  V30 3003 C 291.981 -0.858717 -4.42648 0
M  V30 3004 C 290.643 -1.19338 -4.66167 0
M  V30 3005 C 292.995 -1.67221 -4.93646 0
M  V30 3006 C 290.323 -2.34195 -5.37931 0
M  V30 3007 C 292.675 -2.8119 -5.6667 0
M  V30 3008 C 291.339 -3.15094 -5.88449 0
M  V30 3009 H 290.609 0.040279 -0.739904 0
M  V30 3010 H 293.256 -0.601696 -1.81802 0
M  V30 3011 H 291.561 1.15554 -3.74372 0
M  V30 3012 H 293.258 0.80996 -3.92735 0
M  V30 3013 H 289.848 -0.58796 -4.24548 0
M  V30 3014 H 294.032 -1.42686 -4.75347 0
M  V30 3015 H 289.288 -2.6076 -5.53005 0
M  V30 3016 H 293.462 -3.44585 -6.05173 0
M  V30 3017 H 291.089 -4.04204 -6.43835 0
M  V30 3018 N 292.664 1.56529 -0.183458 0
M  V30 3019 C 293.594 2.21549 0.737456 0
M  V30 3020 C 294.575 1.17489 1.23005 0
M  V30 3021 O 295.76 1.45959 1.281 0
M  V30 3022 C 292.89 2.86575 1.96194 0
M  V30 3023 C 291.844 3.96778 1.60473 0
M  V30 3024 C 291.17 4.48911 2.90487 0
M  V30 3025 C 292.47 5.15767 0.823497 0
M  V30 3026 H 294.164 2.98761 0.195453 0
M  V30 3027 H 291.71 1.43702 0.0925686 0
M  V30 3028 H 293.663 3.30739 2.61131 0
M  V30 3029 H 292.387 2.06749 2.52828 0
M  V30 3030 H 291.046 3.53286 0.978997 0
M  V30 3031 H 290.694 3.65862 3.45186 0
M  V30 3032 H 290.394 5.23265 2.67335 0
M  V30 3033 H 291.918 4.95771 3.56432 0
M  V30 3034 H 293.332 5.56549 1.37571 0
M  V30 3035 H 291.729 5.96114 0.690551 0
M  V30 3036 H 292.799 4.84574 -0.177782 0
M  V30 3037 N 294.142 -0.090211 1.57342 0
M  V30 3038 C 295.553 -0.644173 1.75235 0
M  V30 3039 C 295.904 -1.78865 0.806335 0
M  V30 3040 O 295.029 -2.16395 -0.0140128 0
M  V30 3041 C 295.624 -1.17532 3.1776 0
M  V30 3042 C 294.183 -1.67531 3.37061 0
M  V30 3043 C 293.33 -0.58693 2.71017 0
M  V30 3044 H 296.281 0.135884 1.58117 0
M  V30 3045 H 296.302 -2.04455 3.20902 0
M  V30 3046 H 295.814 -0.342138 3.86589 0
M  V30 3047 H 293.915 -2.53234 2.73319 0
M  V30 3048 H 294.028 -1.76493 4.45406 0
M  V30 3049 H 292.392 -1.02756 2.33052 0
M  V30 3050 H 293.175 0.235758 3.4249 0
M  V30 3051 N 295.62 -1.53406 -0.361157 0
M  V30 3052 C 296.845 -1.74024 -1.12829 0
M  V30 3053 C 297.27 -0.470069 -1.82132 0
M  V30 3054 O 296.628 0.57619 -1.719 0
M  V30 3055 C 296.676 -2.90903 -2.13091 0
M  V30 3056 O 295.78 -2.59821 -3.20261 0
M  V30 3057 H 295.121 -0.577804 -0.327168 0
M  V30 3058 H 297.651 -2.00307 -0.41693 0
M  V30 3059 H 297.661 -3.17194 -2.56616 0
M  V30 3060 H 296.336 -3.83034 -1.62042 0
M  V30 3061 H 294.913 -2.44362 -2.81677 0
M  V30 3062 N 297.098 0.621204 -1.44841 0
M  V30 3063 C 298.346 1.37783 -1.47852 0
M  V30 3064 C 298.667 1.94653 -0.116224 0
M  V30 3065 O 297.937 1.76367 0.852737 0
M  V30 3066 H 296.517 0.511453 -0.544449 0
M  V30 3067 H 299.179 0.730446 -1.80694 0
M  V30 3068 H 298.275 2.20414 -2.20961 0
M  V30 3069 N 298.576 1.31904 0.862503 0
M  V30 3070 C 299.539 1.20131 1.95195 0
M  V30 3071 C 300.539 0.126409 1.60302 0
M  V30 3072 O 301.729 0.376234 1.70089 0
M  V30 3073 C 298.861 0.845691 3.30244 0
M  V30 3074 H 300.054 2.16943 2.07064 0
M  V30 3075 H 297.607 1.15622 1.05172 0
M  V30 3076 H 298.342 -0.120957 3.24074 0
M  V30 3077 H 298.127 1.62276 3.56944 0
M  V30 3078 H 299.617 0.787418 4.10109 0
M  V30 3079 N 300.054 -1.07777 1.14986 0
M  V30 3080 C 301.303 -1.79669 0.916617 0
M  V30 3081 C 301.616 -1.87474 -0.557917 0
M  V30 3082 O 302.822 -2.55845 -0.908617 0
M  V30 3083 C 301.278 -3.22848 1.59051 0
M  V30 3084 C 300.886 -3.23257 3.10176 0
M  V30 3085 C 302.63 -3.99379 1.43864 0
M  V30 3086 C 300.537 -4.61063 3.70372 0
M  V30 3087 H 299.467 -0.673349 0.33929 0
M  V30 3088 H 302.118 -1.21003 1.37951 0
M  V30 3089 H 300.5 -3.8168 1.0553 0
M  V30 3090 H 301.674 -2.74095 3.70417 0
M  V30 3091 H 299.989 -2.60222 3.25074 0
M  V30 3092 H 302.586 -5.0122 1.86232 0
M  V30 3093 H 302.929 -4.14511 0.385564 0
M  V30 3094 H 303.462 -3.47032 1.94457 0
M  V30 3095 H 300.201 -4.51135 4.7556 0
M  V30 3096 H 299.721 -5.1048 3.14913 0
M  V30 3097 H 301.4 -5.30034 3.71043 0
M  V30 3098 N 301.532 -0.945985 -1.26051 0
M  V30 3099 C 302.772 -0.603665 -1.95282 0
M  V30 3100 C 303.136 0.842377 -1.72534 0
M  V30 3101 O 304.337 1.29387 -2.35611 0
M  V30 3102 C 302.608 -0.942292 -3.44754 0
M  V30 3103 S 304.167 -0.711242 -4.32997 0
M  V30 3104 H 300.985 -0.222176 -0.675395 0
M  V30 3105 H 303.587 -1.21832 -1.52896 0
M  V30 3106 H 302.291 -1.99203 -3.58812 0
M  V30 3107 H 301.822 -0.317546 -3.92116 0
M  V30 3108 H 303.837 0.422221 -4.944 0
M  V30 3109 N 303.011 1.40521 -0.713556 0
M  V30 3110 C 304.258 2.00923 -0.25219 0
M  V30 3111 C 304.586 1.56571 1.15395 0
M  V30 3112 O 303.841 0.775874 1.79663 0
M  V30 3113 C 304.14 3.56317 -0.278 0
M  V30 3114 C 303.806 4.20246 -1.63415 0
M  V30 3115 C 302.468 4.37422 -2.00538 0
M  V30 3116 C 304.82 4.55923 -2.52554 0
M  V30 3117 C 302.148 4.87558 -3.2635 0
M  V30 3118 C 304.5 5.07458 -3.77716 0
M  V30 3119 C 303.164 5.22843 -4.14959 0
M  V30 3120 H 302.434 0.735231 -0.0922829 0
M  V30 3121 H 305.081 1.68161 -0.916188 0
M  V30 3122 H 303.386 3.88976 0.469567 0
M  V30 3123 H 305.083 4.00883 0.0967819 0
M  V30 3124 H 301.673 4.07263 -1.33546 0
M  V30 3125 H 305.857 4.42291 -2.25149 0
M  V30 3126 H 301.113 4.97654 -3.55176 0
M  V30 3127 H 305.287 5.34041 -4.4696 0
M  V30 3128 H 302.914 5.61454 -5.12516 0
M  V30 3129 N 304.489 0.459591 1.5075 0
M  V30 3130 C 305.717 -0.0973749 2.06671 0
M  V30 3131 C 306.132 -1.34524 1.32472 0
M  V30 3132 O 305.489 -1.7827 0.390634 0
M  V30 3133 C 305.54 -0.39714 3.59312 0
M  V30 3134 O 305.261 0.801214 4.30711 0
M  V30 3135 C 306.762 -1.00234 4.31819 0
M  V30 3136 H 303.982 0.00195854 0.670997 0
M  V30 3137 H 306.526 0.645072 1.94059 0
M  V30 3138 H 304.681 -1.08951 3.71764 0
M  V30 3139 H 305.095 0.538857 5.21725 0
M  V30 3140 H 306.569 -1.16193 5.39632 0
M  V30 3141 H 307.046 -1.98939 3.91561 0
M  V30 3142 H 307.652 -0.348699 4.23868 0
M  V30 3143 N 305.967 -1.56429 0.191757 0
M  V30 3144 C 307.197 -2.01574 -0.452928 0
M  V30 3145 C 307.605 -1.07107 -1.55964 0
M  V30 3146 O 306.948 -0.067534 -1.83576 0
M  V30 3147 C 307.01 -3.43121 -1.07278 0
M  V30 3148 C 306.674 -4.56879 -0.105214 0
M  V30 3149 C 307.671 -5.15379 0.684149 0
M  V30 3150 C 305.356 -5.023 0.00489824 0
M  V30 3151 C 307.35 -6.17746 1.57062 0
M  V30 3152 C 305.037 -6.04511 0.894935 0
M  V30 3153 C 306.035 -6.62108 1.67637 0
M  V30 3154 O 305.723 -7.62335 2.55149 0
M  V30 3155 H 305.455 -0.665554 -0.118379 0
M  V30 3156 H 308.009 -2.03245 0.296737 0
M  V30 3157 H 306.239 -3.38425 -1.87097 0
M  V30 3158 H 307.928 -3.72093 -1.62177 0
M  V30 3159 H 308.694 -4.81157 0.609365 0
M  V30 3160 H 304.573 -4.57168 -0.593156 0
M  V30 3161 H 308.117 -6.6263 2.181 0
M  V30 3162 H 304.014 -6.38157 0.970847 0
M  V30 3163 H 304.782 -7.79741 2.48892 0
M  V30 3164 N 307.445 0.0818655 -1.57387 0
M  V30 3165 C 308.685 0.788375 -1.88584 0
M  V30 3166 C 309.049 1.75248 -0.784351 0
M  V30 3167 O 310.25 2.50334 -0.979105 0
M  V30 3168 C 308.521 1.48654 -3.25018 0
M  V30 3169 S 310.08 2.22951 -3.7794 0
M  V30 3170 H 306.898 0.262383 -0.660815 0
M  V30 3171 H 309.5 0.0448995 -1.95448 0
M  V30 3172 H 308.204 0.770919 -4.03094 0
M  V30 3173 H 307.735 2.26965 -3.21326 0
M  V30 3174 H 309.75 3.49309 -3.52417 0
M  V30 3175 N 308.923 1.53595 0.353017 0
M  V30 3176 C 310.339 1.43648 0.695516 0
M  V30 3177 C 310.539 0.585617 1.92802 0
M  V30 3178 O 309.595 0.0729223 2.52395 0
M  V30 3179 C 310.908 2.8701 0.896991 0
M  V30 3180 C 312.456 2.96723 0.996209 0
M  V30 3181 C 312.931 4.41173 1.23007 0
M  V30 3182 N 314.422 4.44657 1.29749 0
M  V30 3183 C 315.157 5.53547 1.49577 0
M  V30 3184 N 314.653 6.72461 1.66639 0
M  V30 3185 N 316.446 5.41145 1.52048 0
M  V30 3186 H 308.597 2.07415 -0.457481 0
M  V30 3187 H 310.86 0.9372 -0.142687 0
M  V30 3188 H 310.566 3.51644 0.0629938 0
M  V30 3189 H 310.44 3.31401 1.80148 0
M  V30 3190 H 312.827 2.32235 1.82074 0
M  V30 3191 H 312.908 2.55707 0.0688331 0
M  V30 3192 H 312.552 5.06238 0.410505 0
M  V30 3193 H 312.482 4.79772 2.17086 0
M  V30 3194 H 314.973 3.58963 1.18126 0
M  V30 3195 H 315.286 7.51214 1.81378 0
M  V30 3196 H 313.631 6.75423 1.63794 0
M  V30 3197 H 316.822 4.47205 1.38294 0
M  V30 3198 H 316.995 6.26068 1.67159 0
M  V30 3199 N 310.401 -0.613514 1.45168 0
M  V30 3200 C 311.65 -1.36874 1.4815 0
M  V30 3201 C 311.963 -1.952 0.124982 0
M  V30 3202 O 313.169 -2.71481 0.0324176 0
M  V30 3203 C 311.625 -2.47905 2.60904 0
M  V30 3204 C 311.233 -1.96016 4.02842 0
M  V30 3205 C 312.977 -3.24965 2.73126 0
M  V30 3206 C 310.884 -3.04494 5.06988 0
M  V30 3207 H 309.814 -0.514428 0.551253 0
M  V30 3208 H 312.465 -0.658182 1.7129 0
M  V30 3209 H 310.847 -3.21618 2.31037 0
M  V30 3210 H 312.021 -1.29051 4.4236 0
M  V30 3211 H 310.336 -1.31719 3.95018 0
M  V30 3212 H 312.933 -4.05865 3.48106 0
M  V30 3213 H 313.276 -3.75588 1.79553 0
M  V30 3214 H 313.809 -2.5835 3.0249 0
M  V30 3215 H 310.548 -2.58795 6.0225 0
M  V30 3216 H 310.068 -3.70044 4.72046 0
M  V30 3217 H 311.747 -3.68976 5.31475 0
M  V30 3218 N 311.879 -1.3236 -0.855495 0
M  V30 3219 C 312.809 -1.23833 -1.97958 0
M  V30 3220 C 313.79 -0.122361 -1.69659 0
M  V30 3221 O 314.975 -0.30939 -1.9172 0
M  V30 3222 C 312.105 -0.959772 -3.33775 0
M  V30 3223 C 311.059 -2.03689 -3.76424 0
M  V30 3224 C 310.385 -1.61075 -5.09862 0
M  V30 3225 C 311.685 -3.4518 -3.9198 0
M  V30 3226 H 313.379 -2.1788 -2.0535 0
M  V30 3227 H 310.925 -1.04891 -0.986605 0
M  V30 3228 H 312.878 -0.886678 -4.11966 0
M  V30 3229 H 311.602 0.0163404 -3.26596 0
M  V30 3230 H 310.261 -2.10012 -3.00484 0
M  V30 3231 H 309.909 -0.622107 -4.99138 0
M  V30 3232 H 309.609 -2.33143 -5.39368 0
M  V30 3233 H 311.133 -1.55201 -5.90546 0
M  V30 3234 H 312.547 -3.4145 -4.60526 0
M  V30 3235 H 310.944 -4.1559 -4.32903 0
M  V30 3236 H 312.014 -3.84903 -2.94919 0
M  V30 3237 N 313.357 1.07166 -1.15556 0
M  V30 3238 C 314.287 2.16403 -0.877046 0
M  V30 3239 C 315.268 1.69217 0.173111 0
M  V30 3240 O 316.453 1.94181 0.027084 0
M  V30 3241 C 313.583 3.45349 -0.367632 0
M  V30 3242 C 312.537 4.05995 -1.35468 0
M  V30 3243 C 311.863 5.30045 -0.704038 0
M  V30 3244 C 313.163 4.45804 -2.72132 0
M  V30 3245 H 314.857 2.39959 -1.79053 0
M  V30 3246 H 312.403 1.15325 -0.862331 0
M  V30 3247 H 314.356 4.21095 -0.160317 0
M  V30 3248 H 313.08 3.21385 0.581326 0
M  V30 3249 H 311.739 3.32296 -1.54839 0
M  V30 3250 H 311.387 5.02373 0.251128 0
M  V30 3251 H 311.087 5.71579 -1.36277 0
M  V30 3252 H 312.611 6.08495 -0.50654 0
M  V30 3253 H 314.025 5.12671 -2.56595 0
M  V30 3254 H 312.422 4.98296 -3.34397 0
M  V30 3255 H 313.492 3.57083 -3.28054 0
M  V30 3256 N 314.835 0.952656 1.25548 0
M  V30 3257 C 315.798 0.475794 2.24207 0
M  V30 3258 C 316.798 -0.419428 1.55234 0
M  V30 3259 O 317.988 -0.216994 1.72843 0
M  V30 3260 C 315.12 -0.312814 3.39462 0
M  V30 3261 H 316.313 1.34779 2.67908 0
M  V30 3262 H 313.866 0.735739 1.37901 0
M  V30 3263 H 314.601 -1.20257 3.01179 0
M  V30 3264 H 314.386 0.329404 3.90714 0
M  V30 3265 H 315.876 -0.635986 4.12729 0
M  V30 3266 N 316.313 -1.40141 0.720998 0
M  V30 3267 C 317.276 -2.29058 0.0805834 0
M  V30 3268 C 318.276 -1.45632 -0.681758 0
M  V30 3269 O 319.466 -1.6648 -0.512856 0
M  V30 3270 C 316.598 -3.28925 -0.895593 0
M  V30 3271 H 317.791 -2.87191 0.863793 0
M  V30 3272 H 315.344 -1.48553 0.485975 0
M  V30 3273 H 316.079 -2.75822 -1.70566 0
M  V30 3274 H 315.864 -3.90519 -0.351766 0
M  V30 3275 H 317.354 -3.95494 -1.34069 0
M  V30 3276 N 317.792 -0.46758 -1.50504 0
M  V30 3277 C 319.208 -0.121533 -1.59137 0
M  V30 3278 C 319.408 1.3717 -1.47603 0
M  V30 3279 O 318.464 2.14464 -1.33272 0
M  V30 3280 C 319.777 -0.6686 -2.93173 0
M  V30 3281 C 321.325 -0.631716 -3.06559 0
M  V30 3282 C 321.8 -1.15627 -4.43164 0
M  V30 3283 N 323.291 -1.11553 -4.49567 0
M  V30 3284 C 324.026 -1.49195 -5.5365 0
M  V30 3285 N 323.522 -1.94269 -6.65005 0
M  V30 3286 N 325.315 -1.4082 -5.44175 0
M  V30 3287 H 317.466 -1.4388 -1.56245 0
M  V30 3288 H 319.729 -0.594784 -0.738198 0
M  V30 3289 H 319.435 -1.71453 -3.07078 0
M  V30 3290 H 319.309 -0.11021 -3.77039 0
M  V30 3291 H 321.696 0.405297 -2.92304 0
M  V30 3292 H 321.777 -1.22687 -2.24458 0
M  V30 3293 H 321.421 -2.1919 -4.58168 0
M  V30 3294 H 321.351 -0.537365 -5.23851 0
M  V30 3295 H 323.842 -0.784895 -3.69659 0
M  V30 3296 H 324.155 -2.21148 -7.40482 0
M  V30 3297 H 322.5 -1.98219 -6.66134 0
M  V30 3298 H 325.691 -1.0545 -4.56068 0
M  V30 3299 H 325.864 -1.70481 -6.25172 0
M  V30 3300 N 319.27 1.56325 -0.20005 0
M  V30 3301 C 320.217 2.1932 0.718833 0
M  V30 3302 C 321.187 1.14198 1.20615 0
M  V30 3303 O 322.372 1.42469 1.26914 0
M  V30 3304 C 319.512 2.86041 1.93066 0
M  V30 3305 C 318.625 4.05702 1.48425 0
M  V30 3306 C 317.76 4.60266 2.65196 0
M  V30 3307 C 316.799 5.72273 2.17185 0
M  V30 3308 N 315.936 6.21221 3.27152 0
M  V30 3309 H 320.776 2.97486 0.17489 0
M  V30 3310 H 318.313 1.46911 0.0745794 0
M  V30 3311 H 320.271 3.22897 2.64184 0
M  V30 3312 H 318.901 2.1043 2.44783 0
M  V30 3313 H 317.953 3.74475 0.668755 0
M  V30 3314 H 319.265 4.86699 1.09204 0
M  V30 3315 H 318.419 4.99453 3.4443 0
M  V30 3316 H 317.158 3.78386 3.07693 0
M  V30 3317 H 316.163 5.3261 1.36407 0
M  V30 3318 H 317.388 6.55974 1.75713 0
M  V30 3319 H 315.334 5.42263 3.69171 0
M  V30 3320 H 315.251 6.97284 2.92116 0
M  V30 3321 H 316.519 6.65063 4.06585 0
M  V30 3322 N 320.748 -0.0735177 1.57428 0
M  V30 3323 C 321.68 -1.11423 2.00294 0
M  V30 3324 C 322.693 -1.35084 0.908637 0
M  V30 3325 O 323.882 -1.33355 1.18654 0
M  V30 3326 C 320.982 -2.46548 2.32523 0
M  V30 3327 C 320.155 -2.42867 3.63778 0
M  V30 3328 C 319.214 -3.60087 3.83697 0
M  V30 3329 O 318.24 -3.41595 4.55304 0
M  V30 3330 N 319.442 -4.80372 3.25919 0
M  V30 3331 H 322.207 -0.749206 2.90184 0
M  V30 3332 H 319.768 -0.262195 1.59763 0
M  V30 3333 H 321.76 -3.23607 2.43024 0
M  V30 3334 H 320.33 -2.75059 1.48531 0
M  V30 3335 H 319.55 -1.51206 3.64047 0
M  V30 3336 H 320.838 -2.37506 4.49965 0
M  V30 3337 H 320.236 -4.983 2.67795 0
M  V30 3338 H 318.793 -5.54948 3.41871 0
M  V30 3339 N 322.226 -1.5378 -0.344866 0
M  V30 3340 C 323.189 -1.80981 -1.40637 0
M  V30 3341 C 324.189 -0.680816 -1.45676 0
M  V30 3342 O 325.379 -0.949095 -1.46075 0
M  V30 3343 C 322.511 -1.95063 -2.79577 0
M  V30 3344 H 323.704 -2.75803 -1.17783 0
M  V30 3345 H 321.257 -1.45173 -0.579181 0
M  V30 3346 H 321.992 -1.02379 -3.07716 0
M  V30 3347 H 321.777 -2.77198 -2.77315 0
M  V30 3348 H 323.267 -2.17629 -3.56409 0
M  V30 3349 N 323.704 0.605807 -1.45491 0
M  V30 3350 C 324.95 1.36679 -1.49823 0
M  V30 3351 C 325.283 1.93693 -0.140175 0
M  V30 3352 O 324.558 1.75158 0.845581 0
M  V30 3353 C 324.841 2.51337 -2.57879 0
M  V30 3354 C 324.694 1.99508 -4.03134 0
M  V30 3355 C 326.013 3.53463 -2.62205 0
M  V30 3356 H 323.132 0.495617 -0.545466 0
M  V30 3357 H 325.774 0.682732 -1.7731 0
M  V30 3358 H 323.924 3.09691 -2.34571 0
M  V30 3359 H 325.596 1.45789 -4.37656 0
M  V30 3360 H 323.839 1.30496 -4.13707 0
M  V30 3361 H 324.51 2.82169 -4.74431 0
M  V30 3362 H 326.986 3.04953 -2.83095 0
M  V30 3363 H 325.862 4.31178 -3.39672 0
M  V30 3364 H 326.123 4.09197 -1.67363 0
M  V30 3365 N 325.182 1.32811 0.848464 0
M  V30 3366 C 326.114 1.18095 1.96433 0
M  V30 3367 C 327.127 0.114354 1.62398 0
M  V30 3368 O 328.316 0.363892 1.74751 0
M  V30 3369 C 325.416 0.786798 3.2964 0
M  V30 3370 C 324.589 1.943 3.91875 0
M  V30 3371 C 323.648 1.53138 5.03423 0
M  V30 3372 O 322.674 2.24432 5.23086 0
M  V30 3373 N 323.876 0.430915 5.78898 0
M  V30 3374 H 326.641 2.14218 2.09597 0
M  V30 3375 H 324.202 1.2543 1.02367 0
M  V30 3376 H 326.194 0.493715 4.01677 0
M  V30 3377 H 324.764 -0.0834541 3.12489 0
M  V30 3378 H 323.984 2.40224 3.12547 0
M  V30 3379 H 325.272 2.71689 4.30189 0
M  V30 3380 H 324.67 -0.162333 5.65467 0
M  V30 3381 H 323.227 0.197466 6.51501 0
M  V30 3382 N 326.66 -1.06551 1.16123 0
M  V30 3383 C 327.906 -1.79567 0.94252 0
M  V30 3384 C 328.239 -1.86869 -0.528547 0
M  V30 3385 O 327.514 -1.35838 -1.39206 0
M  V30 3386 C 327.797 -3.24195 1.56747 0
M  V30 3387 C 327.65 -3.24989 3.10969 0
M  V30 3388 C 328.969 -4.21678 1.25998 0
M  V30 3389 H 326.088 -0.651883 0.343828 0
M  V30 3390 H 328.73 -1.2463 1.43413 0
M  V30 3391 H 326.88 -3.71107 1.14942 0
M  V30 3392 H 328.552 -2.86258 3.61737 0
M  V30 3393 H 326.795 -2.63716 3.44436 0
M  V30 3394 H 327.466 -4.27005 3.49815 0
M  V30 3395 H 329.942 -3.83196 1.62174 0
M  V30 3396 H 328.818 -5.21146 1.7233 0
M  V30 3397 H 329.079 -4.4174 0.178367 0
M  V30 3398 N 328.138 -0.959301 -1.25041 0
M  V30 3399 C 329.101 -0.487677 -2.23952 0
M  V30 3400 C 330.101 0.41119 -1.55454 0
M  V30 3401 O 331.291 0.207825 -1.72956 0
M  V30 3402 C 328.423 0.294807 -3.39623 0
M  V30 3403 H 329.616 -1.36198 -2.67189 0
M  V30 3404 H 327.169 -0.743042 -1.37508 0
M  V30 3405 H 327.904 1.18658 -3.01813 0
M  V30 3406 H 327.689 -0.35012 -3.90534 0
M  V30 3407 H 329.179 0.614089 -4.1306 0
M  V30 3408 N 329.616 1.39756 -0.72842 0
M  V30 3409 C 330.841 2.05472 -0.282159 0
M  V30 3410 C 331.266 1.54549 1.07221 0
M  V30 3411 O 330.624 0.686372 1.67805 0
M  V30 3412 C 330.672 3.59462 -0.286264 0
M  V30 3413 O 329.776 4.05918 0.728298 0
M  V30 3414 H 329.117 0.651226 -0.129618 0
M  V30 3415 H 331.647 1.78915 -0.992499 0
M  V30 3416 H 331.657 4.07798 -0.128373 0
M  V30 3417 H 330.332 3.95889 -1.27456 0
M  V30 3418 H 328.909 3.69012 0.537081 0
M  V30 3419 N 331.094 0.475555 1.50254 0
M  V30 3420 C 332.024 -0.30611 2.31485 0
M  V30 3421 C 333.005 -0.986228 1.38591 0
M  V30 3422 O 334.19 -0.982541 1.67511 0
M  V30 3423 C 331.32 -1.38588 3.1845 0
M  V30 3424 C 330.274 -0.827115 4.19932 0
M  V30 3425 C 329.6 -2.00551 4.95665 0
M  V30 3426 C 330.9 0.16463 5.2204 0
M  V30 3427 H 332.594 0.371866 2.97082 0
M  V30 3428 H 330.14 0.180282 1.42867 0
M  V30 3429 H 332.093 -1.94023 3.74076 0
M  V30 3430 H 330.817 -2.09269 2.50747 0
M  V30 3431 H 329.476 -0.294702 3.65414 0
M  V30 3432 H 329.124 -2.6994 4.2443 0
M  V30 3433 H 328.824 -1.63784 5.64313 0
M  V30 3434 H 330.348 -2.56468 5.54127 0
M  V30 3435 H 331.762 -0.300699 5.72511 0
M  V30 3436 H 330.159 0.446813 5.98434 0
M  V30 3437 H 331.229 1.08905 4.72512 0
M  V30 3438 N 332.573 -1.56217 0.208337 0
M  V30 3439 C 333.801 -2.02337 -0.43215 0
M  V30 3440 C 334.216 -1.08834 -1.54275 0
M  V30 3441 O 333.573 -0.0955462 -1.8225 0
M  V30 3442 C 333.624 -3.48072 -0.976138 0
M  V30 3443 O 333.345 -4.38007 0.0901621 0
M  V30 3444 C 334.846 -4.09773 -1.69119 0
M  V30 3445 H 332.066 -0.662385 -0.10718 0
M  V30 3446 H 334.61 -2.01966 0.320923 0
M  V30 3447 H 332.765 -3.49099 -1.67954 0
M  V30 3448 H 333.179 -5.23543 -0.316701 0
M  V30 3449 H 334.653 -5.13556 -2.02397 0
M  V30 3450 H 335.13 -3.53999 -2.59964 0
M  V30 3451 H 335.736 -4.12556 -1.03332 0
M  V30 3452 N 334.051 0.0651679 -1.57465 0
M  V30 3453 C 335.279 0.775808 -1.91804 0
M  V30 3454 C 335.694 1.70782 -0.804916 0
M  V30 3455 O 335.051 1.81153 0.221311 0
M  V30 3456 C 335.102 1.56381 -3.25925 0
M  V30 3457 O 334.823 0.669248 -4.32958 0
M  V30 3458 C 336.324 2.37485 -3.7432 0
M  V30 3459 H 333.544 0.2202 -0.63384 0
M  V30 3460 H 336.088 0.0334587 -2.04473 0
M  V30 3461 H 334.243 2.25837 -3.14764 0
M  V30 3462 H 334.657 1.21801 -5.10162 0
M  V30 3463 H 336.131 2.88223 -4.70778 0
M  V30 3464 H 336.608 3.17307 -3.03666 0
M  V30 3465 H 337.214 1.73173 -3.88447 0
M  V30 3466 N 335.529 1.53961 0.336706 0
M  V30 3467 C 336.777 1.71197 1.07405 0
M  V30 3468 C 337.098 0.481475 1.88962 0
M  V30 3469 O 336.368 -0.504585 1.8929 0
M  V30 3470 H 334.948 0.631185 0.399517 0
M  V30 3471 H 337.61 1.91232 0.376323 0
M  V30 3472 H 336.706 2.58587 1.74755 0
M  V30 3473 N 337.007 -0.598083 1.45811 0
M  V30 3474 C 337.94 -1.7223 1.49706 0
M  V30 3475 C 338.918 -1.58732 0.352535 0
M  V30 3476 O 340.102 -1.80162 0.554438 0
M  V30 3477 C 337.229 -3.10148 1.3611 0
M  V30 3478 C 336.275 -3.42209 2.54549 0
M  V30 3479 S 337.108 -3.35989 4.16979 0
M  V30 3480 C 338.264 -4.76471 4.05865 0
M  V30 3481 H 338.497 -1.68665 2.44826 0
M  V30 3482 H 336.03 -0.775541 1.33509 0
M  V30 3483 H 337.988 -3.8972 1.28953 0
M  V30 3484 H 336.649 -3.11219 0.424451 0
M  V30 3485 H 335.842 -4.42652 2.40988 0
M  V30 3486 H 335.444 -2.70173 2.58617 0
M  V30 3487 H 337.736 -5.665 3.71596 0
M  V30 3488 H 338.679 -4.95089 5.06253 0
M  V30 3489 H 339.087 -4.52599 3.37364 0
M  V30 3490 N 338.485 -1.33259 -0.841409 0
M  V30 3491 C 339.448 -1.23221 -1.9326 0
M  V30 3492 C 340.448 -0.151895 -1.60081 0
M  V30 3493 O 341.638 -0.403246 -1.69468 0
M  V30 3494 C 338.77 -0.898123 -3.28856 0
M  V30 3495 H 339.963 -2.2021 -2.03587 0
M  V30 3496 H 337.516 -1.17281 -1.03319 0
M  V30 3497 H 338.251 0.0693841 -3.24226 0
M  V30 3498 H 338.036 -1.67934 -3.54317 0
M  V30 3499 H 339.526 -0.852563 -4.08805 0
M  V30 3500 N 339.963 1.05934 -1.16686 0
M  V30 3501 C 341.188 1.83029 -0.975455 0
M  V30 3502 C 341.613 1.82096 0.471452 0
M  V30 3503 O 340.971 1.22443 1.33706 0
M  V30 3504 C 341.019 3.27372 -1.51195 0
M  V30 3505 O 340.123 4.06054 -0.720701 0
M  V30 3506 H 339.464 0.566194 -0.346872 0
M  V30 3507 H 341.994 1.33541 -1.55009 0
M  V30 3508 H 342.004 3.78186 -1.53099 0
M  V30 3509 H 340.679 3.27366 -2.56523 0
M  V30 3510 H 339.256 3.64812 -0.772458 0
M  V30 3511 N 341.441 0.965919 1.2453 0
M  V30 3512 C 342.373 0.452465 2.2469 0
M  V30 3513 C 343.386 -0.437821 1.56802 0
M  V30 3514 O 344.575 -0.244283 1.76821 0
M  V30 3515 C 341.675 -0.366258 3.36915 0
M  V30 3516 C 340.848 0.513701 4.34373 0
M  V30 3517 C 339.907 -0.248716 5.25612 0
M  V30 3518 O 338.933 0.356745 5.68081 0
M  V30 3519 N 340.135 -1.53877 5.59734 0
M  V30 3520 H 342.9 1.31361 2.69378 0
M  V30 3521 H 340.461 0.837541 1.38553 0
M  V30 3522 H 342.453 -0.884297 3.94921 0
M  V30 3523 H 341.023 -1.12832 2.91526 0
M  V30 3524 H 340.243 1.21273 3.75082 0
M  V30 3525 H 341.531 1.11391 4.96457 0
M  V30 3526 H 340.929 -2.05243 5.27154 0
M  V30 3527 H 339.486 -2.00254 6.20275 0
M  V30 3528 N 342.919 -1.39368 0.735821 0
M  V30 3529 C 343.882 -2.2896 0.104874 0
M  V30 3530 C 344.882 -1.46347 -0.666274 0
M  V30 3531 O 346.072 -1.67014 -0.49517 0
M  V30 3532 C 343.204 -3.29857 -0.860656 0
M  V30 3533 H 344.397 -2.86259 0.894205 0
M  V30 3534 H 341.95 -1.48029 0.501704 0
M  V30 3535 H 342.685 -2.77615 -1.67631 0
M  V30 3536 H 342.47 -3.9087 -0.310327 0
M  V30 3537 H 343.96 -3.96893 -1.29867 0
M  V30 3538 N 344.397 -0.483516 -1.5 0
M  V30 3539 C 345.622 0.0667119 -2.07293 0
M  V30 3540 C 346.047 1.3164 -1.3436 0
M  V30 3541 O 345.405 1.76945 -0.394987 0
M  V30 3542 C 345.453 0.321126 -3.59167 0
M  V30 3543 O 344.557 1.39927 -3.87936 0
M  V30 3544 H 343.898 -0.0184758 -0.663743 0
M  V30 3545 H 346.428 -0.678125 -1.93035 0
M  V30 3546 H 346.438 0.557906 -4.04168 0
M  V30 3547 H 345.113 -0.592007 -4.11665 0
M  V30 3548 H 343.69 1.14882 -3.54763 0
M  V30 3549 N 345.875 1.56104 -0.216619 0
M  V30 3550 C 346.785 2.23694 0.706982 0
M  V30 3551 C 347.801 1.24295 1.21765 0
M  V30 3552 O 348.977 1.57094 1.2603 0
M  V30 3553 C 346.042 2.8998 1.90033 0
M  V30 3554 C 345.103 4.04708 1.43213 0
M  V30 3555 C 344.336 4.67824 2.56859 0
M  V30 3556 O 344.559 4.29913 3.74874 0
M  V30 3557 O 343.493 5.56905 2.28343 0
M  V30 3558 H 347.319 3.03272 0.161235 0
M  V30 3559 H 344.904 1.49394 0.0136177 0
M  V30 3560 H 346.786 3.31837 2.59735 0
M  V30 3561 H 345.461 2.13365 2.43428 0
M  V30 3562 H 344.368 3.6743 0.70327 0
M  V30 3563 H 345.701 4.83051 0.944615 0
M  V30 3564 N 347.353 -0.0568162 1.57498 0
M  V30 3565 C 348.581 -0.765626 1.92213 0
M  V30 3566 C 348.996 -1.70353 0.813961 0
M  V30 3567 O 348.353 -1.81268 -0.211701 0
M  V30 3568 C 348.404 -1.5465 3.2675 0
M  V30 3569 O 348.125 -0.646278 4.33307 0
M  V30 3570 C 349.626 -2.35497 3.75574 0
M  V30 3571 H 346.846 -0.216835 0.634999 0
M  V30 3572 H 349.39 -0.0226146 2.04487 0
M  V30 3573 H 347.545 -2.24165 3.15957 0
M  V30 3574 H 347.959 -1.19093 5.108 0
M  V30 3575 H 349.433 -2.85722 4.72299 0
M  V30 3576 H 349.91 -3.15692 3.05344 0
M  V30 3577 H 350.516 -1.7111 3.8936 0
M  V30 3578 N 348.832 -1.54138 -0.328536 0
M  V30 3579 C 349.762 -1.86167 -1.40939 0
M  V30 3580 C 350.743 -0.718044 -1.54202 0
M  V30 3581 O 351.928 -0.971328 -1.68163 0
M  V30 3582 C 349.058 -2.08461 -2.77779 0
M  V30 3583 C 348.012 -3.24299 -2.7931 0
M  V30 3584 C 347.338 -3.31955 -4.19178 0
M  V30 3585 C 348.638 -4.62065 -2.43502 0
M  V30 3586 H 350.332 -2.76689 -1.14383 0
M  V30 3587 H 347.878 -1.33132 -0.548806 0
M  V30 3588 H 349.831 -2.29453 -3.53454 0
M  V30 3589 H 348.555 -1.14684 -3.05802 0
M  V30 3590 H 347.214 -3.03187 -2.0609 0
M  V30 3591 H 346.862 -2.35745 -4.44335 0
M  V30 3592 H 346.562 -4.09805 -4.2111 0
M  V30 3593 H 348.086 -3.55175 -4.96672 0
M  V30 3594 H 349.5 -4.8297 -3.08889 0
M  V30 3595 H 347.897 -5.42429 -2.56693 0
M  V30 3596 H 348.967 -4.64652 -1.38659 0
M  V30 3597 N 350.31 0.590341 -1.46126 0
M  V30 3598 C 351.242 1.71427 -1.52136 0
M  V30 3599 C 352.255 1.57542 -0.41042 0
M  V30 3600 O 353.444 1.65106 -0.678389 0
M  V30 3601 C 350.544 3.09605 -1.37834 0
M  V30 3602 C 349.717 3.49566 -2.62912 0
M  V30 3603 C 348.776 4.66773 -2.42918 0
M  V30 3604 O 347.802 4.73019 -3.1661 0
M  V30 3605 N 349.004 5.61161 -1.4859 0
M  V30 3606 H 351.769 1.66728 -2.49042 0
M  V30 3607 H 349.33 0.776113 -1.42085 0
M  V30 3608 H 351.322 3.85796 -1.22243 0
M  V30 3609 H 349.892 3.08714 -0.491393 0
M  V30 3610 H 349.112 2.63158 -2.93499 0
M  V30 3611 H 350.4 3.73028 -3.46017 0
M  V30 3612 H 349.798 5.58844 -0.87808 0
M  V30 3613 H 348.355 6.36814 -1.38965 0
M  V30 3614 N 351.788 1.33704 0.83433 0
M  V30 3615 C 353.034 1.25603 1.59222 0
M  V30 3616 C 353.367 -0.176659 1.93395 0
M  V30 3617 O 352.642 -1.11915 1.59076 0
M  V30 3618 C 352.925 2.13576 2.89926 0
M  V30 3619 C 352.778 3.65326 2.62406 0
M  V30 3620 C 354.097 2.01238 3.91397 0
M  V30 3621 H 351.216 0.457613 0.577719 0
M  V30 3622 H 353.858 1.63848 0.961972 0
M  V30 3623 H 352.008 1.8109 3.43713 0
M  V30 3624 H 353.68 4.08124 2.15017 0
M  V30 3625 H 351.923 3.8698 1.96033 0
M  V30 3626 H 352.594 4.22232 3.55562 0
M  V30 3627 H 355.07 2.29738 3.46929 0
M  V30 3628 H 353.946 2.65036 4.80673 0
M  V30 3629 H 354.207 0.985951 4.30966 0
M  V30 3630 N 353.266 -1.05314 1.17247 0
M  V30 3631 C 354.677 -1.59753 0.96623 0
M  V30 3632 C 355.028 -1.9005 -0.487378 0
M  V30 3633 O 354.153 -1.68126 -1.36245 0
M  V30 3634 C 354.748 -2.90249 1.74759 0
M  V30 3635 C 353.307 -3.41352 1.58606 0
M  V30 3636 C 352.454 -2.15103 1.75002 0
M  V30 3637 H 355.405 -0.881406 1.31973 0
M  V30 3638 H 355.426 -3.60097 1.22925 0
M  V30 3639 H 354.938 -2.68166 2.8055 0
M  V30 3640 H 353.039 -3.68474 0.552985 0
M  V30 3641 H 353.152 -4.16019 2.37624 0
M  V30 3642 H 351.516 -2.25804 1.17833 0
M  V30 3643 H 352.299 -1.95491 2.82202 0
M  V30 3644 N 354.744 -0.972509 -1.24016 0
M  V30 3645 C 356.16 -0.679827 -1.44397 0
M  V30 3646 C 356.36 0.756716 -1.86751 0
M  V30 3647 O 355.416 1.53007 -2.00861 0
M  V30 3648 C 356.729 -1.66803 -2.50195 0
M  V30 3649 C 358.277 -1.68119 -2.64017 0
M  V30 3650 C 358.752 -2.65748 -3.73017 0
M  V30 3651 N 360.243 -2.64219 -3.8045 0
M  V30 3652 C 360.978 -3.36433 -4.64328 0
M  V30 3653 N 360.474 -4.1818 -5.52356 0
M  V30 3654 N 362.267 -3.25235 -4.58453 0
M  V30 3655 H 354.418 -1.90059 -0.948228 0
M  V30 3656 H 356.681 -0.818527 -0.478245 0
M  V30 3657 H 356.387 -2.69498 -2.25973 0
M  V30 3658 H 356.261 -1.4446 -3.48441 0
M  V30 3659 H 358.648 -0.661319 -2.87594 0
M  V30 3660 H 358.729 -1.94525 -1.66113 0
M  V30 3661 H 358.373 -3.67872 -3.50189 0
M  V30 3662 H 358.303 -2.36619 -4.70446 0
M  V30 3663 H 360.794 -2.04887 -3.17537 0
M  V30 3664 H 361.107 -4.70157 -6.13329 0
M  V30 3665 H 359.452 -4.22273 -5.52006 0
M  V30 3666 H 362.643 -2.60829 -3.88698 0
M  V30 3667 H 362.816 -3.81776 -5.23594 0
M  V30 3668 N 356.222 1.38976 -0.743202 0
M  V30 3669 C 357.45 2.04636 -0.30525 0
M  V30 3670 C 357.865 1.56044 1.06281 0
M  V30 3671 O 357.222 0.728921 1.67311 0
M  V30 3672 C 357.273 3.60193 -0.307177 0
M  V30 3673 O 356.994 4.06998 -1.62124 0
M  V30 3674 C 358.495 4.4306 0.145928 0
M  V30 3675 H 355.715 0.65788 -0.132041 0
M  V30 3676 H 358.259 1.77866 -1.00915 0
M  V30 3677 H 356.414 3.85835 0.347898 0
M  V30 3678 H 356.828 5.01371 -1.54036 0
M  V30 3679 H 358.302 5.51921 0.0934183 0
M  V30 3680 H 358.779 4.22706 1.19231 0
M  V30 3681 H 359.385 4.22584 -0.479886 0
M  V30 3682 N 357.7 0.491464 1.49741 0
M  V30 3683 C 359.111 0.0413169 1.86654 0
M  V30 3684 C 359.462 -1.36985 1.40462 0
M  V30 3685 O 358.587 -2.01917 0.778354 0
M  V30 3686 C 359.182 0.0682023 3.38731 0
M  V30 3687 C 357.741 -0.32656 3.74981 0
M  V30 3688 C 356.888 0.444888 2.73708 0
M  V30 3689 H 359.839 0.704733 1.42194 0
M  V30 3690 H 359.86 -0.729322 3.73445 0
M  V30 3691 H 359.372 1.09539 3.72321 0
M  V30 3692 H 357.473 -1.35734 3.46997 0
M  V30 3693 H 357.586 -0.013741 4.79098 0
M  V30 3694 H 355.95 -0.104062 2.54487 0
M  V30 3695 H 356.733 1.47197 3.10142 0
M  V30 3696 N 359.178 -1.55987 0.224894 0
M  V30 3697 C 360.594 -1.59066 -0.130426 0
M  V30 3698 C 360.794 -1.24176 -1.5869 0
M  V30 3699 O 359.85 -0.978592 -2.32766 0
M  V30 3700 C 361.163 -3.00042 0.198883 0
M  V30 3701 C 362.711 -3.1268 0.141391 0
M  V30 3702 C 363.186 -4.55839 0.444422 0
M  V30 3703 N 364.677 -4.6152 0.394115 0
M  V30 3704 C 365.412 -5.70231 0.602038 0
M  V30 3705 N 364.908 -6.87291 0.871914 0
M  V30 3706 N 366.701 -5.59555 0.534245 0
M  V30 3707 H 358.852 -1.76941 1.17497 0
M  V30 3708 H 361.115 -0.822604 0.471197 0
M  V30 3709 H 360.821 -3.30234 1.2099 0
M  V30 3710 H 360.695 -3.74075 -0.484535 0
M  V30 3711 H 363.082 -2.82283 -0.860265 0
M  V30 3712 H 363.163 -2.40969 0.858335 0
M  V30 3713 H 362.807 -4.86954 1.44353 0
M  V30 3714 H 362.737 -5.2578 -0.293752 0
M  V30 3715 H 365.228 -3.77405 0.193356 0
M  V30 3716 H 365.541 -7.66058 1.01858 0
M  V30 3717 H 363.886 -6.89028 0.909145 0
M  V30 3718 H 367.077 -4.6698 0.323612 0
M  V30 3719 H 367.25 -6.44211 0.699693 0
M  V30 3720 N 360.656 0.0484629 -1.57525 0
M  V30 3721 C 362.067 0.597486 -1.76881 0
M  V30 3722 C 362.418 1.76664 -0.853475 0
M  V30 3723 O 361.543 2.16357 -0.0433656 0
M  V30 3724 C 362.138 1.09066 -3.20765 0
M  V30 3725 C 360.697 1.58535 -3.41385 0
M  V30 3726 C 359.844 0.514868 -2.72478 0
M  V30 3727 H 362.795 -0.177758 -1.57701 0
M  V30 3728 H 362.816 1.95875 -3.2621 0
M  V30 3729 H 362.328 0.239521 -3.8736 0
M  V30 3730 H 360.429 2.45898 -2.79937 0
M  V30 3731 H 360.542 1.64622 -4.49929 0
M  V30 3732 H 358.906 0.965407 -2.35695 0
M  V30 3733 H 359.689 -0.32648 -3.41744 0
M  V30 3734 N 362.134 1.5431 0.320358 0
M  V30 3735 C 363.382 1.72327 1.05583 0
M  V30 3736 C 363.703 0.50149 1.88441 0
M  V30 3737 O 362.973 -0.48448 1.89815 0
M  V30 3738 H 361.553 0.635387 0.3928 0
M  V30 3739 H 364.215 1.91621 0.356019 0
M  V30 3740 H 363.311 2.60426 1.72003 0
M  V30 3741 N 363.613 -0.582584 1.46437 0
M  V30 3742 C 364.859 -1.34278 1.51978 0
M  V30 3743 C 365.192 -1.93446 0.170973 0
M  V30 3744 O 364.467 -1.76481 -0.817608 0
M  V30 3745 C 364.75 -2.47203 2.61845 0
M  V30 3746 C 364.603 -1.93069 4.06257 0
M  V30 3747 C 365.922 -3.49247 2.67795 0
M  V30 3748 H 363.041 -0.486876 0.553282 0
M  V30 3749 H 365.683 -0.654437 1.78374 0
M  V30 3750 H 363.833 -3.0592 2.39469 0
M  V30 3751 H 365.505 -1.38808 4.3992 0
M  V30 3752 H 363.748 -1.23898 4.1573 0
M  V30 3753 H 364.419 -2.74586 4.7886 0
M  V30 3754 H 366.895 -3.00411 2.8791 0
M  V30 3755 H 365.771 -4.25719 3.46489 0
M  V30 3756 H 366.032 -4.06482 1.73852 0
M  V30 3757 N 365.091 -1.34144 -0.827227 0
M  V30 3758 C 366.001 -1.27428 -1.96975 0
M  V30 3759 C 367.017 -0.182728 -1.73038 0
M  V30 3760 O 368.193 -0.408426 -1.97215 0
M  V30 3761 C 365.258 -1.02526 -3.31194 0
M  V30 3762 C 364.319 -2.20796 -3.68168 0
M  V30 3763 C 363.552 -1.97073 -4.95982 0
M  V30 3764 O 363.775 -0.926822 -5.6282 0
M  V30 3765 O 362.709 -2.83912 -5.30733 0
M  V30 3766 H 366.535 -2.23537 -2.05584 0
M  V30 3767 H 364.12 -1.14307 -0.961989 0
M  V30 3768 H 366.002 -0.904026 -4.11589 0
M  V30 3769 H 364.677 -0.0945389 -3.23562 0
M  V30 3770 H 363.584 -2.38477 -2.88235 0
M  V30 3771 H 364.917 -3.12243 -3.8048 0
M  V30 3772 N 366.569 1.04691 -1.17803 0
M  V30 3773 C 367.794 1.81984 -0.994813 0
M  V30 3774 C 368.219 1.82586 0.452112 0
M  V30 3775 O 367.577 1.23854 1.324 0
M  V30 3776 C 367.625 3.2575 -1.54659 0
M  V30 3777 O 366.729 4.05267 -0.763728 0
M  V30 3778 H 366.07 0.562483 -0.352857 0
M  V30 3779 H 368.6 1.3189 -1.56417 0
M  V30 3780 H 368.61 3.76541 -1.57102 0
M  V30 3781 H 367.285 3.24627 -2.59981 0
M  V30 3782 H 365.862 3.63972 -0.811108 0
M  V30 3783 N 368.047 0.979072 1.23499 0
M  V30 3784 C 369.01 0.523244 2.23147 0
M  V30 3785 C 370.01 -0.386406 1.56088 0
M  V30 3786 O 371.2 -0.180283 1.73265 0
M  V30 3787 C 368.332 -0.240739 3.40049 0
M  V30 3788 H 369.525 1.40432 2.64989 0
M  V30 3789 H 367.078 0.764824 1.36309 0
M  V30 3790 H 367.813 -1.13841 3.03662 0
M  V30 3791 H 367.598 0.412207 3.89927 0
M  V30 3792 H 369.088 -0.548297 4.13985 0
M  V30 3793 N 369.525 -1.3858 0.750561 0
M  V30 3794 C 370.802 -1.94231 0.231009 0
M  V30 3795 C 371.182 -1.68611 -1.27018 0
M  V30 3796 O 370.53 -1.02296 -2.04323 0
M  V30 3797 C 370.74 -3.44123 0.581428 0
M  V30 3798 C 372.088 -4.2116 0.539389 0
M  V30 3799 O 373.112 -3.52391 0.519541 0
M  V30 3800 O 371.971 -5.43749 0.54765 0
M  V30 3801 H 369.065 -0.825639 0.0474263 0
M  V30 3802 H 371.611 -1.4799 0.830478 0
M  V30 3803 H 370.383 -3.56267 1.61833 0
M  V30 3804 H 370.006 -3.97573 -0.0462047 0
M  V30 3805 N 371.003 -0.499398 -1.49478 0
M  V30 3806 C 372.228 0.044722 -2.07352 0
M  V30 3807 C 372.653 1.30207 -1.35749 0
M  V30 3808 O 372.011 1.76516 -0.413732 0
M  V30 3809 C 372.059 0.283013 -3.59488 0
M  V30 3810 O 371.163 1.35804 -3.89398 0
M  V30 3811 H 370.504 -0.0255147 -0.66351 0
M  V30 3812 H 373.034 -0.698561 -1.92305 0
M  V30 3813 H 373.044 0.515007 -4.04737 0
M  V30 3814 H 371.719 -0.635636 -4.11014 0
M  V30 3815 H 370.296 1.11113 -3.55961 0
M  V30 3816 N 372.481 1.55866 -0.233164 0
M  V30 3817 C 373.897 1.59133 0.121988 0
M  V30 3818 C 374.097 1.25016 1.58029 0
M  V30 3819 O 373.153 0.990922 2.32243 0
M  V30 3820 C 374.466 2.99932 -0.214792 0
M  V30 3821 C 376.014 3.12601 -0.157971 0
M  V30 3822 C 376.489 4.55597 -0.46859 0
M  V30 3823 N 377.98 4.61305 -0.418585 0
M  V30 3824 C 378.715 5.69903 -0.63227 0
M  V30 3825 N 378.211 6.86819 -0.90835 0
M  V30 3826 N 380.004 5.59264 -0.563913 0
M  V30 3827 H 372.155 1.76315 -1.18434 0
M  V30 3828 H 374.418 0.820093 -0.475553 0
M  V30 3829 H 374.124 3.29588 -1.22739 0
M  V30 3830 H 373.998 3.74327 0.464691 0
M  V30 3831 H 376.385 2.82735 0.845283 0
M  V30 3832 H 376.466 2.40511 -0.871102 0
M  V30 3833 H 376.11 4.86182 -1.46934 0
M  V30 3834 H 376.04 5.25928 0.265865 0
M  V30 3835 H 378.531 3.77297 -0.213368 0
M  V30 3836 H 378.844 7.65507 -1.05919 0
M  V30 3837 H 377.189 6.88536 -0.945673 0
M  V30 3838 H 380.38 4.66802 -0.348372 0
M  V30 3839 H 380.553 6.43831 -0.733847 0
M  V30 3840 N 373.959 -0.0401083 1.57549 0
M  V30 3841 C 375.375 -0.395556 1.54621 0
M  V30 3842 C 375.575 -1.77281 0.957799 0
M  V30 3843 O 374.631 -2.45888 0.574031 0
M  V30 3844 C 375.944 -0.307535 2.99123 0
M  V30 3845 C 377.492 -0.385425 3.10618 0
M  V30 3846 C 377.967 -0.326973 4.56831 0
M  V30 3847 N 379.458 -0.386102 4.61588 0
M  V30 3848 C 380.193 -0.363591 5.72246 0
M  V30 3849 N 379.689 -0.29402 6.92176 0
M  V30 3850 N 381.482 -0.412503 5.60584 0
M  V30 3851 H 373.633 0.861325 1.94152 0
M  V30 3852 H 375.896 0.326445 0.890021 0
M  V30 3853 H 375.602 0.638461 3.45856 0
M  V30 3854 H 375.476 -1.10552 3.60636 0
M  V30 3855 H 377.863 -1.32185 2.63839 0
M  V30 3856 H 377.944 0.44171 2.51957 0
M  V30 3857 H 377.588 0.605738 5.04275 0
M  V30 3858 H 377.518 -1.17207 5.13391 0
M  V30 3859 H 380.009 -0.442832 3.75296 0
M  V30 3860 H 380.322 -0.28164 7.72287 0
M  V30 3861 H 378.667 -0.260232 6.94513 0
M  V30 3862 H 381.858 -0.464769 4.65787 0
M  V30 3863 H 382.031 -0.391492 6.46816 0
M  V30 3864 N 375.437 -1.54477 -0.31217 0
M  V30 3865 C 376.367 -1.87652 -1.38957 0
M  V30 3866 C 377.348 -0.734358 -1.53431 0
M  V30 3867 O 378.533 -0.98911 -1.67123 0
M  V30 3868 C 375.663 -2.11396 -2.75552 0
M  V30 3869 C 374.617 -3.27243 -2.75855 0
M  V30 3870 C 373.943 -3.36382 -4.15633 0
M  V30 3871 C 375.243 -4.64622 -2.38587 0
M  V30 3872 H 376.937 -2.77887 -1.11442 0
M  V30 3873 H 374.483 -1.33707 -0.534655 0
M  V30 3874 H 376.436 -2.33189 -3.51 0
M  V30 3875 H 375.16 -1.17921 -3.04569 0
M  V30 3876 H 373.819 -3.05356 -2.02863 0
M  V30 3877 H 373.467 -2.40445 -4.41809 0
M  V30 3878 H 373.167 -4.14249 -4.1674 0
M  V30 3879 H 374.691 -3.60422 -4.92877 0
M  V30 3880 H 376.105 -4.86219 -3.03749 0
M  V30 3881 H 374.502 -5.45121 -2.50925 0
M  V30 3882 H 375.572 -4.66097 -1.33723 0
M  V30 3883 N 376.915 0.57481 -1.46744 0
M  V30 3884 C 377.878 1.66533 -1.57478 0
M  V30 3885 C 378.878 1.54338 -0.451263 0
M  V30 3886 O 380.068 1.58814 -0.715813 0
M  V30 3887 C 377.2 3.05999 -1.50259 0
M  V30 3888 H 378.393 1.58372 -2.54673 0
M  V30 3889 H 375.946 0.793301 -1.34672 0
M  V30 3890 H 376.681 3.19709 -0.543725 0
M  V30 3891 H 376.466 3.16259 -2.31781 0
M  V30 3892 H 377.956 3.8537 -1.60872 0
M  V30 3893 N 378.394 1.34581 0.820102 0
M  V30 3894 C 379.622 1.3018 1.60813 0
M  V30 3895 C 380.037 -0.123551 1.88395 0
M  V30 3896 O 379.394 -1.07148 1.47735 0
M  V30 3897 C 379.445 2.09312 2.94739 0
M  V30 3898 O 379.166 3.46288 2.68358 0
M  V30 3899 C 380.667 2.1234 3.89136 0
M  V30 3900 H 377.887 0.447726 0.499782 0
M  V30 3901 H 380.431 1.77237 1.02017 0
M  V30 3902 H 378.586 1.65889 3.50085 0
M  V30 3903 H 379 3.87227 3.53774 0
M  V30 3904 H 380.474 2.72126 4.80262 0
M  V30 3905 H 380.951 1.11854 4.24718 0
M  V30 3906 H 381.557 2.55864 3.39726 0
M  V30 3907 N 379.872 -1.04064 1.18357 0
M  V30 3908 C 380.819 -2.12077 0.910603 0
M  V30 3909 C 381.789 -1.65421 -0.15 0
M  V30 3910 O 382.974 -1.90797 -0.0103614 0
M  V30 3911 C 380.114 -3.42252 0.442472 0
M  V30 3912 C 379.227 -4.0252 1.5685 0
M  V30 3913 C 378.362 -5.20657 1.05309 0
M  V30 3914 C 377.401 -5.72955 2.1538 0
M  V30 3915 N 376.538 -6.8238 1.65233 0
M  V30 3916 H 381.378 -2.34764 1.83548 0
M  V30 3917 H 378.915 -1.15157 0.915279 0
M  V30 3918 H 380.873 -4.16921 0.152534 0
M  V30 3919 H 379.503 -3.19712 -0.445428 0
M  V30 3920 H 378.555 -3.25178 1.97391 0
M  V30 3921 H 379.867 -4.37362 2.39824 0
M  V30 3922 H 379.021 -6.0244 0.717677 0
M  V30 3923 H 377.76 -4.87318 0.19293 0
M  V30 3924 H 376.765 -4.89793 2.49766 0
M  V30 3925 H 377.99 -6.08337 3.01832 0
M  V30 3926 H 375.936 -6.50917 0.815064 0
M  V30 3927 H 375.853 -7.16286 2.41805 0
M  V30 3928 H 377.121 -7.67788 1.34619 0
M  V30 3929 N 381.35 -0.985608 -1.22978 0
M  V30 3930 C 382.3 -0.50118 -2.22423 0
M  V30 3931 C 383.284 0.426649 -1.5514 0
M  V30 3932 O 384.476 0.254656 -1.75159 0
M  V30 3933 C 381.605 0.190003 -3.42774 0
M  V30 3934 C 380.691 -0.757703 -4.17276 0
M  V30 3935 N 381.082 -1.90251 -4.68656 0
M  V30 3936 C 379.38 -0.57209 -4.42316 0
M  V30 3937 C 380.081 -2.49676 -5.25392 0
M  V30 3938 N 379.057 -1.78013 -5.13627 0
M  V30 3939 H 382.859 -1.37441 -2.59783 0
M  V30 3940 H 380.373 -0.846941 -1.38567 0
M  V30 3941 H 382.37 0.55439 -4.13197 0
M  V30 3942 H 381.03 1.05946 -3.06929 0
M  V30 3943 H 382.041 -2.28354 -4.64839 0
M  V30 3944 H 378.718 0.251909 -4.16739 0
M  V30 3945 H 380.108 -3.46384 -5.75732 0
M  V30 3946 N 382.828 1.3818 -0.7579 0
M  V30 3947 C 384.053 2.04827 -0.325679 0
M  V30 3948 C 384.478 1.56788 1.03919 0
M  V30 3949 O 383.836 0.721811 1.66312 0
M  V30 3950 C 383.884 3.58774 -0.362447 0
M  V30 3951 O 382.988 4.07372 0.642033 0
M  V30 3952 H 382.329 0.64833 -0.143402 0
M  V30 3953 H 384.859 1.7677 -1.03023 0
M  V30 3954 H 384.869 4.07434 -0.214844 0
M  V30 3955 H 383.544 3.93096 -1.35824 0
M  V30 3956 H 382.121 3.70068 0.458688 0
M  V30 3957 N 384.306 0.507319 1.49211 0
M  V30 3958 C 385.722 0.163682 1.58758 0
M  V30 3959 C 385.922 -1.33208 1.51188 0
M  V30 3960 O 384.978 -2.10855 1.38911 0
M  V30 3961 C 386.291 0.746095 2.91297 0
M  V30 3962 C 387.839 0.712773 3.04776 0
M  V30 3963 C 388.314 1.27336 4.39943 0
M  V30 3964 N 389.805 1.23433 4.46451 0
M  V30 3965 C 390.54 1.63821 5.495 0
M  V30 3966 N 390.036 2.11832 6.5962 0
M  V30 3967 N 391.829 1.55198 5.4025 0
M  V30 3968 H 383.98 1.47972 1.52375 0
M  V30 3969 H 386.243 0.614147 0.722168 0
M  V30 3970 H 385.949 1.79534 3.02424 0
M  V30 3971 H 385.823 0.210137 3.76614 0
M  V30 3972 H 388.21 -0.327656 2.93275 0
M  V30 3973 H 388.291 1.28595 2.21127 0
M  V30 3974 H 387.935 2.3126 4.52196 0
M  V30 3975 H 387.865 0.676066 5.22242 0
M  V30 3976 H 390.356 0.882627 3.67448 0
M  V30 3977 H 390.669 2.40703 7.34358 0
M  V30 3978 H 389.014 2.1581 6.60644 0
M  V30 3979 H 392.205 1.17505 4.53112 0
M  V30 3980 H 392.378 1.86997 6.20432 0
M  V30 3981 N 385.784 -1.5574 0.241426 0
M  V30 3982 C 386.731 -2.21149 -0.660432 0
M  V30 3983 C 387.701 -1.17356 -1.17545 0
M  V30 3984 O 388.886 -1.45784 -1.23093 0
M  V30 3985 C 386.026 -2.91059 -1.85414 0
M  V30 3986 C 385.139 -4.09495 -1.37616 0
M  V30 3987 C 384.274 -4.67135 -2.529 0
M  V30 3988 C 383.313 -5.77831 -2.01936 0
M  V30 3989 N 382.45 -6.29677 -3.10566 0
M  V30 3990 H 387.29 -2.97845 -0.095955 0
M  V30 3991 H 384.827 -1.47057 -0.0356024 0
M  V30 3992 H 386.785 -3.29788 -2.5553 0
M  V30 3993 H 385.415 -2.16846 -2.39118 0
M  V30 3994 H 384.467 -3.76117 -0.569235 0
M  V30 3995 H 385.779 -4.89423 -0.962618 0
M  V30 3996 H 384.933 -5.08409 -3.31067 0
M  V30 3997 H 383.672 -3.86411 -2.97553 0
M  V30 3998 H 382.677 -5.36039 -1.22238 0
M  V30 3999 H 383.902 -6.60402 -1.58259 0
M  V30 4000 H 381.848 -5.5186 -3.54664 0
M  V30 4001 H 381.765 -7.04783 -2.73526 0
M  V30 4002 H 383.033 -6.75609 -3.88809 0
M  V30 4003 N 387.262 0.0317525 -1.57568 0
M  V30 4004 C 388.225 1.01783 -2.0536 0
M  V30 4005 C 389.225 1.29203 -0.957253 0
M  V30 4006 O 390.415 1.24251 -1.22095 0
M  V30 4007 C 387.547 2.35137 -2.46827 0
M  V30 4008 H 388.74 0.605062 -2.93733 0
M  V30 4009 H 386.293 0.278514 -1.53799 0
M  V30 4010 H 387.028 2.81168 -1.61602 0
M  V30 4011 H 386.813 2.16566 -3.26866 0
M  V30 4012 H 388.303 3.05938 -2.84239 0
M  V30 4013 N 388.74 1.54641 0.303973 0
M  V30 4014 C 389.67 1.88386 1.3796 0
M  V30 4015 C 390.651 0.742485 1.5304 0
M  V30 4016 O 391.836 0.997959 1.66597 0
M  V30 4017 C 388.966 2.12854 2.74427 0
M  V30 4018 C 387.92 3.28702 2.74115 0
M  V30 4019 C 387.246 3.38582 4.13844 0
M  V30 4020 C 388.546 4.65881 2.3612 0
M  V30 4021 H 390.24 2.78474 1.09966 0
M  V30 4022 H 387.786 1.33988 0.527556 0
M  V30 4023 H 389.739 2.35047 3.49758 0
M  V30 4024 H 388.463 1.19535 3.03939 0
M  V30 4025 H 387.122 3.06428 2.0124 0
M  V30 4026 H 386.77 2.42784 4.40528 0
M  V30 4027 H 386.47 4.16453 4.14537 0
M  V30 4028 H 387.994 3.63031 4.90959 0
M  V30 4029 H 389.408 4.87823 3.01167 0
M  V30 4030 H 387.805 5.46444 2.48031 0
M  V30 4031 H 388.875 4.66799 1.3125 0
M  V30 4032 N 390.218 -0.567019 1.47046 0
M  V30 4033 C 391.165 -1.67489 1.58796 0
M  V30 4034 C 392.135 -1.60399 0.43144 0
M  V30 4035 O 393.32 -1.79378 0.650233 0
M  V30 4036 C 390.46 -3.05821 1.59899 0
M  V30 4037 C 389.573 -3.2342 2.86397 0
M  V30 4038 C 388.708 -4.52093 2.789 0
M  V30 4039 C 387.747 -4.6309 4.00267 0
M  V30 4040 N 386.884 -5.83106 3.91064 0
M  V30 4041 H 391.724 -1.56785 2.53422 0
M  V30 4042 H 389.261 -0.763896 1.2571 0
M  V30 4043 H 391.219 -3.8591 1.58522 0
M  V30 4044 H 389.849 -3.15384 0.687929 0
M  V30 4045 H 388.901 -2.3683 2.97684 0
M  V30 4046 H 390.213 -3.27412 3.76301 0
M  V30 4047 H 389.367 -5.4043 2.75718 0
M  V30 4048 H 388.106 -4.50565 1.86662 0
M  V30 4049 H 387.111 -3.73168 4.03765 0
M  V30 4050 H 388.336 -4.66386 4.93621 0
M  V30 4051 H 386.282 -5.82546 3.01623 0
M  V30 4052 H 386.199 -5.88434 4.74638 0
M  V30 4053 H 387.467 -6.73831 3.91882 0
M  V30 4054 N 391.696 -1.35014 -0.812953 0
M  V30 4055 C 392.659 -1.27292 -1.90602 0
M  V30 4056 C 393.659 -0.185817 -1.59723 0
M  V30 4057 O 394.849 -0.439102 -1.68575 0
M  V30 4058 C 391.981 -0.967676 -3.26877 0
M  V30 4059 H 393.174 -2.24479 -1.9887 0
M  V30 4060 H 390.727 -1.19446 -1.00808 0
M  V30 4061 H 391.462 0.0005954 -3.243 0
M  V30 4062 H 391.247 -1.75412 -3.50675 0
M  V30 4063 H 392.737 -0.939085 -4.06904 0
M  V30 4064 N 393.175 1.03435 -1.18907 0
M  V30 4065 C 394.4 1.80919 -1.01406 0
M  V30 4066 C 394.825 1.83055 0.432721 0
M  V30 4067 O 394.183 1.25252 1.31079 0
M  V30 4068 C 394.231 3.24091 -1.58105 0
M  V30 4069 O 393.335 4.04434 -0.806669 0
M  V30 4070 H 392.676 0.558709 -0.358803 0
M  V30 4071 H 395.206 1.30223 -1.57807 0
M  V30 4072 H 395.216 3.74853 -1.61087 0
M  V30 4073 H 393.891 3.21851 -2.6341 0
M  V30 4074 H 392.468 3.63091 -0.849666 0
M  V30 4075 N 394.653 0.992116 1.22453 0
M  V30 4076 C 395.583 0.561677 2.26644 0
M  V30 4077 C 396.564 -0.411055 1.65059 0
M  V30 4078 O 397.749 -0.301861 1.9184 0
M  V30 4079 C 394.879 -0.125247 3.47074 0
M  V30 4080 C 393.833 0.765948 4.21091 0
M  V30 4081 C 393.159 -0.0538484 5.34673 0
M  V30 4082 C 394.459 2.06242 4.79856 0
M  V30 4083 H 396.153 1.43259 2.62902 0
M  V30 4084 H 393.699 0.690283 1.26377 0
M  V30 4085 H 395.652 -0.437764 4.1912 0
M  V30 4086 H 394.376 -1.03069 3.0991 0
M  V30 4087 H 393.035 1.0621 3.50878 0
M  V30 4088 H 392.683 -0.960188 4.9375 0
M  V30 4089 H 392.383 0.539415 5.85119 0
M  V30 4090 H 393.907 -0.360477 6.09535 0
M  V30 4091 H 395.321 1.8139 5.43848 0
M  V30 4092 H 393.718 2.60444 5.40638 0
M  V30 4093 H 394.788 2.74167 3.99951 0
M  V30 4094 N 396.131 -1.37776 0.765217 0
M  V30 4095 C 397.359 -2.04124 0.337767 0
M  V30 4096 C 397.774 -1.57715 -1.03785 0
M  V30 4097 O 397.131 -0.755447 -1.6613 0
M  V30 4098 C 397.182 -3.59658 0.364442 0
M  V30 4099 O 396.903 -4.04367 1.68579 0
M  V30 4100 C 398.404 -4.43236 -0.0754221 0
M  V30 4101 H 395.624 -0.655696 0.142491 0
M  V30 4102 H 398.168 -1.76238 1.03732 0
M  V30 4103 H 396.323 -3.86339 -0.286471 0
M  V30 4104 H 396.737 -4.98857 1.61993 0
M  V30 4105 H 398.211 -5.52 -0.00560067 0
M  V30 4106 H 398.688 -4.2455 -1.12491 0
M  V30 4107 H 399.294 -4.21767 0.547055 0
M  V30 4108 N 397.609 -0.515225 -1.4894 0
M  V30 4109 C 398.539 0.244628 -2.32215 0
M  V30 4110 C 399.52 0.949136 -1.41157 0
M  V30 4111 O 400.705 0.937783 -1.70057 0
M  V30 4112 C 397.835 1.30096 -3.22013 0
M  V30 4113 C 396.789 0.715486 -4.21977 0
M  V30 4114 C 396.115 1.87339 -5.00808 0
M  V30 4115 C 397.415 -0.302982 -5.2142 0
M  V30 4116 H 399.109 -0.450501 -2.95991 0
M  V30 4117 H 396.655 -0.218098 -1.42339 0
M  V30 4118 H 398.608 1.84037 -3.79089 0
M  V30 4119 H 397.332 2.02547 -2.56207 0
M  V30 4120 H 395.991 0.197715 -3.66066 0
M  V30 4121 H 395.639 2.58592 -4.31438 0
M  V30 4122 H 395.339 1.48764 -5.68457 0
M  V30 4123 H 396.863 2.41686 -5.60732 0
M  V30 4124 H 398.277 0.148802 -5.73107 0
M  V30 4125 H 396.674 -0.60532 -5.97039 0
M  V30 4126 H 397.744 -1.21395 -4.69459 0
M  V30 4127 N 399.087 1.5561 -0.249682 0
M  V30 4128 C 400.335 1.98618 0.373548 0
M  V30 4129 C 400.656 1.13919 1.58264 0
M  V30 4130 O 399.926 0.222637 1.94631 0
M  V30 4131 H 398.506 0.733571 0.141006 0
M  V30 4132 H 401.168 1.91748 -0.349117 0
M  V30 4133 H 400.264 3.04584 0.680796 0
M  V30 4134 N 400.565 -0.0233959 1.57583 0
M  V30 4135 C 401.814 -0.712133 1.8871 0
M  V30 4136 C 402.127 -1.76217 0.848944 0
M  V30 4137 O 403.333 -2.50389 1.04964 0
M  V30 4138 C 401.789 -1.3177 3.3491 0
M  V30 4139 C 401.397 -0.303715 4.46969 0
M  V30 4140 C 403.141 -1.98598 3.75179 0
M  V30 4141 C 401.048 -0.917945 5.84233 0
M  V30 4142 H 399.978 -0.269735 0.704101 0
M  V30 4143 H 402.629 0.0333114 1.8347 0
M  V30 4144 H 401.011 -2.11304 3.34913 0
M  V30 4145 H 402.185 0.465325 4.58445 0
M  V30 4146 H 400.5 0.2628 4.1557 0
M  V30 4147 H 403.097 -2.45416 4.75053 0
M  V30 4148 H 403.44 -2.80659 3.07468 0
M  V30 4149 H 403.973 -1.25831 3.77374 0
M  V30 4150 H 400.712 -0.136633 6.55358 0
M  V30 4151 H 400.232 -1.65669 5.76467 0
M  V30 4152 H 401.911 -1.4236 6.31144 0
M  V30 4153 N 402.043 -1.548 -0.295768 0
M  V30 4154 C 402.973 -1.89115 -1.36959 0
M  V30 4155 C 403.954 -0.75059 -1.52644 0
M  V30 4156 O 405.139 -1.00678 -1.66065 0
M  V30 4157 C 402.269 -2.14307 -2.73295 0
M  V30 4158 C 401.223 -3.30151 -2.72368 0
M  V30 4159 C 400.549 -3.40772 -4.12042 0
M  V30 4160 C 401.849 -4.67126 -2.33646 0
M  V30 4161 H 403.543 -2.79053 -1.08488 0
M  V30 4162 H 401.089 -1.34266 -0.520443 0
M  V30 4163 H 403.042 -2.36898 -3.48507 0
M  V30 4164 H 401.766 -1.21145 -3.03301 0
M  V30 4165 H 400.425 -3.0749 -1.99613 0
M  V30 4166 H 400.073 -2.45117 -4.39234 0
M  V30 4167 H 399.773 -4.18645 -4.12322 0
M  V30 4168 H 401.297 -3.6563 -4.89027 0
M  V30 4169 H 402.711 -4.89414 -2.98575 0
M  V30 4170 H 401.108 -5.47751 -2.45129 0
M  V30 4171 H 402.178 -4.67489 -1.28772 0
M  V30 4172 N 403.521 0.559213 -1.47345 0
M  V30 4173 C 404.451 1.67622 -1.62558 0
M  V30 4174 C 405.432 1.63331 -0.475087 0
M  V30 4175 O 406.617 1.80983 -0.704182 0
M  V30 4176 C 403.747 3.0626 -1.63774 0
M  V30 4177 C 402.701 3.25397 -2.7803 0
M  V30 4178 C 402.027 4.64801 -2.64318 0
M  V30 4179 C 403.327 3.10965 -4.19641 0
M  V30 4180 H 405.021 1.55146 -2.56067 0
M  V30 4181 H 402.567 0.744961 -1.23233 0
M  V30 4182 H 404.52 3.84247 -1.73008 0
M  V30 4183 H 403.244 3.1969 -0.66825 0
M  V30 4184 H 401.903 2.49817 -2.68304 0
M  V30 4185 H 401.551 4.75028 -1.65401 0
M  V30 4186 H 401.251 4.78555 -3.40968 0
M  V30 4187 H 402.775 5.44926 -2.75478 0
M  V30 4188 H 404.189 3.78772 -4.30354 0
M  V30 4189 H 402.586 3.36229 -4.97062 0
M  V30 4190 H 403.656 2.07736 -4.38148 0
M  V30 4191 N 404.999 1.35443 0.805782 0
M  V30 4192 C 406.247 1.28507 1.55982 0
M  V30 4193 C 406.568 -0.140046 1.94496 0
M  V30 4194 O 405.838 -1.07666 1.63661 0
M  V30 4195 H 404.418 0.472676 0.578434 0
M  V30 4196 H 407.08 1.69555 0.961098 0
M  V30 4197 H 406.176 1.90148 2.47488 0
M  V30 4198 N 406.477 -1.02803 1.19454 0
M  V30 4199 C 407.41 -2.107 0.876396 0
M  V30 4200 C 408.388 -1.61741 -0.166897 0
M  V30 4201 O 409.572 -1.88451 -0.0430195 0
M  V30 4202 C 406.699 -3.37262 0.311758 0
M  V30 4203 C 405.745 -4.05093 1.33424 0
M  V30 4204 S 406.578 -4.50498 2.89503 0
M  V30 4205 C 407.734 -5.80277 2.34584 0
M  V30 4206 H 407.967 -2.37362 1.79016 0
M  V30 4207 H 405.5 -1.15755 1.02177 0
M  V30 4208 H 407.458 -4.10499 -0.00748752 0
M  V30 4209 H 406.119 -3.08693 -0.58032 0
M  V30 4210 H 405.312 -4.9611 0.888302 0
M  V30 4211 H 404.914 -3.3803 1.60037 0
M  V30 4212 H 407.206 -6.54873 1.73633 0
M  V30 4213 H 408.149 -6.29651 3.23952 0
M  V30 4214 H 408.557 -5.3599 1.77131 0
M  V30 4215 N 407.956 -0.998596 -1.21925 0
M  V30 4216 C 409.203 -0.677663 -1.90824 0
M  V30 4217 C 409.531 0.790905 -1.77693 0
M  V30 4218 O 408.786 1.58817 -1.14349 0
M  V30 4219 C 409.085 -1.03648 -3.42041 0
M  V30 4220 C 408.751 -2.49825 -3.75364 0
M  V30 4221 C 407.413 -2.8977 -3.8417 0
M  V30 4222 C 409.765 -3.44545 -3.91073 0
M  V30 4223 C 407.093 -4.23412 -4.06127 0
M  V30 4224 C 409.445 -4.77853 -4.14535 0
M  V30 4225 C 408.109 -5.17531 -4.21566 0
M  V30 4226 H 407.379 -0.247975 -0.698276 0
M  V30 4227 H 410.026 -1.25584 -1.44571 0
M  V30 4228 H 408.331 -0.376457 -3.89987 0
M  V30 4229 H 410.028 -0.766113 -3.93614 0
M  V30 4230 H 406.618 -2.17866 -3.69097 0
M  V30 4231 H 410.802 -3.14853 -3.83642 0
M  V30 4232 H 406.058 -4.53734 -4.09799 0
M  V30 4233 H 410.232 -5.51189 -4.25633 0
M  V30 4234 H 407.859 -6.21102 -4.38333 0
M  V30 4235 N 409.434 1.37368 -0.772513 0
M  V30 4236 C 410.681 1.99673 -0.337182 0
M  V30 4237 C 411.009 1.61324 1.0865 0
M  V30 4238 O 410.264 0.851377 1.7621 0
M  V30 4239 C 410.563 3.54817 -0.428876 0
M  V30 4240 C 410.229 4.12936 -1.81092 0
M  V30 4241 C 408.891 4.28523 -2.1891 0
M  V30 4242 C 411.243 4.44801 -2.71664 0
M  V30 4243 C 408.571 4.73277 -3.46735 0
M  V30 4244 C 410.923 4.90981 -3.98899 0
M  V30 4245 C 409.587 5.04773 -4.36761 0
M  V30 4246 H 408.857 0.730656 -0.123384 0
M  V30 4247 H 411.504 1.64124 -0.986686 0
M  V30 4248 H 409.809 3.90618 0.304167 0
M  V30 4249 H 411.506 4.00933 -0.0733334 0
M  V30 4250 H 408.096 4.01233 -1.50699 0
M  V30 4251 H 412.28 4.32344 -2.43706 0
M  V30 4252 H 407.536 4.82142 -3.75964 0
M  V30 4253 H 411.71 5.14603 -4.69208 0
M  V30 4254 H 409.337 5.39211 -5.35868 0
M  V30 4255 N 410.912 0.523116 1.48665 0
M  V30 4256 C 412.158 -0.0134963 2.02796 0
M  V30 4257 C 412.491 -1.34582 1.40004 0
M  V30 4258 O 411.766 -1.86756 0.543381 0
M  V30 4259 C 412.049 -0.14276 3.59817 0
M  V30 4260 C 411.902 1.21425 4.331 0
M  V30 4261 C 413.221 -0.872856 4.31357 0
M  V30 4262 H 410.34 -0.00343074 0.736992 0
M  V30 4263 H 412.982 0.678816 1.7746 0
M  V30 4264 H 411.132 -0.732401 3.81534 0
M  V30 4265 H 412.804 1.84447 4.2282 0
M  V30 4266 H 411.047 1.79791 3.94788 0
M  V30 4267 H 411.718 1.07687 5.41394 0
M  V30 4268 H 414.194 -0.372555 4.14429 0
M  V30 4269 H 413.07 -0.932185 5.40927 0
M  V30 4270 H 413.331 -1.92161 3.98154 0
M  V30 4271 N 412.39 -1.55475 0.257931 0
M  V30 4272 C 413.618 -2.03609 -0.367559 0
M  V30 4273 C 414.033 -1.13687 -1.50734 0
M  V30 4274 O 413.39 -0.153479 -1.81853 0
M  V30 4275 C 413.441 -3.51001 -0.864908 0
M  V30 4276 O 413.162 -4.37499 0.229465 0
M  V30 4277 C 414.663 -4.14946 -1.55997 0
M  V30 4278 H 411.883 -0.665459 -0.0860521 0
M  V30 4279 H 414.427 -2.00843 0.385014 0
M  V30 4280 H 412.582 -3.54266 -1.56762 0
M  V30 4281 H 412.996 -5.24286 -0.14998 0
M  V30 4282 H 414.47 -5.19735 -1.85956 0
M  V30 4283 H 414.947 -3.6209 -2.4857 0
M  V30 4284 H 415.553 -4.15635 -0.901543 0
M  V30 4285 N 413.868 0.0150385 -1.57593 0
M  V30 4286 C 415.114 0.69849 -1.91031 0
M  V30 4287 C 415.469 1.72208 -0.85804 0
M  V30 4288 O 414.762 1.91147 0.131614 0
M  V30 4289 C 414.956 1.39686 -3.28972 0
M  V30 4290 C 414.785 0.442428 -4.47518 0
M  V30 4291 C 413.555 0.0583223 -5.05266 0
M  V30 4292 C 415.753 -0.285072 -5.13509 0
M  V30 4293 N 413.735 -0.895893 -6.07328 0
M  V30 4294 C 415.106 -1.09447 -6.10263 0
M  V30 4295 C 417.161 -0.350518 -4.96665 0
M  V30 4296 C 415.864 -1.96333 -6.91987 0
M  V30 4297 C 417.89 -1.20655 -5.78962 0
M  V30 4298 C 417.252 -2.00383 -6.75297 0
M  V30 4299 H 413.351 0.22926 -0.747639 0
M  V30 4300 H 415.935 -0.0417748 -1.94655 0
M  V30 4301 H 414.106 2.1075 -3.2625 0
M  V30 4302 H 415.838 2.03381 -3.49883 0
M  V30 4303 H 412.593 0.423506 -4.71703 0
M  V30 4304 H 413.017 -1.36792 -6.63036 0
M  V30 4305 H 417.659 0.251596 -4.22051 0
M  V30 4306 H 415.377 -2.57618 -7.65936 0
M  V30 4307 H 418.963 -1.2609 -5.67972 0
M  V30 4308 H 417.843 -2.65552 -7.3787 0
M  V30 4309 N 415.346 1.54954 0.287554 0
M  V30 4310 C 416.276 1.89839 1.35954 0
M  V30 4311 C 417.257 0.758675 1.52244 0
M  V30 4312 O 418.442 1.01557 1.65529 0
M  V30 4313 C 415.572 2.15753 2.72154 0
M  V30 4314 C 414.526 3.3159 2.70614 0
M  V30 4315 C 413.852 3.42952 4.10229 0
M  V30 4316 C 415.152 4.68359 2.31165 0
M  V30 4317 H 416.846 2.79625 1.07007 0
M  V30 4318 H 414.392 1.3454 0.513316 0
M  V30 4319 H 416.345 2.38743 3.47246 0
M  V30 4320 H 415.069 1.22752 3.02654 0
M  V30 4321 H 413.728 3.08545 1.97979 0
M  V30 4322 H 413.376 2.47443 4.37928 0
M  V30 4323 H 413.076 4.20826 4.10097 0
M  V30 4324 H 414.6 3.68218 4.87081 0
M  V30 4325 H 416.014 4.9099 2.95976 0
M  V30 4326 H 414.411 5.49044 2.42221 0
M  V30 4327 H 415.481 4.68165 1.26291 0
M  V30 4328 N 416.824 -0.551391 1.4764 0
M  V30 4329 C 418.235 -1.13349 1.48354 0
M  V30 4330 C 418.586 -1.94709 0.241432 0
M  V30 4331 O 417.711 -2.06306 -0.653205 0
M  V30 4332 C 418.306 -2.0623 2.68802 0
M  V30 4333 C 416.865 -2.597 2.72457 0
M  V30 4334 C 416.012 -1.36201 2.41546 0
M  V30 4335 H 418.963 -0.337698 1.55065 0
M  V30 4336 H 418.984 -2.90196 2.46103 0
M  V30 4337 H 418.496 -1.46987 3.59188 0
M  V30 4338 H 416.597 -3.22724 1.86225 0
M  V30 4339 H 416.71 -3.00296 3.73308 0
M  V30 4340 H 415.074 -1.67068 1.9225 0
M  V30 4341 H 415.857 -0.787425 3.34147 0
M  V30 4342 N 418.302 -1.35869 -0.798587 0
M  V30 4343 C 419.549 -1.29588 -1.55606 0
M  V30 4344 C 419.877 0.127456 -1.94082 0
M  V30 4345 O 419.132 1.09461 -1.62225 0
M  V30 4346 C 419.431 -2.1556 -2.85077 0
M  V30 4347 C 419.097 -3.6424 -2.65781 0
M  V30 4348 C 417.759 -4.04766 -2.60227 0
M  V30 4349 C 420.111 -4.58547 -2.47758 0
M  V30 4350 C 417.439 -5.37753 -2.34603 0
M  V30 4351 C 419.791 -5.91742 -2.23662 0
M  V30 4352 C 418.455 -6.31402 -2.16534 0
M  V30 4353 H 417.725 -0.474197 -0.569402 0
M  V30 4354 H 420.372 -1.67839 -0.922086 0
M  V30 4355 H 418.677 -1.70216 -3.52893 0
M  V30 4356 H 420.374 -2.08031 -3.42818 0
M  V30 4357 H 416.964 -3.32086 -2.70956 0
M  V30 4358 H 421.148 -4.28117 -2.51056 0
M  V30 4359 H 416.404 -5.67474 -2.2756 0
M  V30 4360 H 420.578 -6.6439 -2.08708 0
M  V30 4361 H 418.205 -7.34381 -1.96441 0
M  V30 4362 N 419.78 1.02168 -1.19998 0
M  V30 4363 C 421.027 1.75685 -1.00702 0
M  V30 4364 C 421.355 1.88947 0.461426 0
M  V30 4365 O 420.61 1.40832 1.35885 0
M  V30 4366 C 420.909 3.18081 -1.62969 0
M  V30 4367 C 420.575 3.24809 -3.12746 0
M  V30 4368 C 419.237 3.26352 -3.53621 0
M  V30 4369 C 421.589 3.23379 -4.08749 0
M  V30 4370 C 418.917 3.2413 -4.89036 0
M  V30 4371 C 421.269 3.22698 -5.44104 0
M  V30 4372 C 419.933 3.22542 -5.84399 0
M  V30 4373 H 419.203 0.642877 -0.368496 0
M  V30 4374 H 421.85 1.19865 -1.49348 0
M  V30 4375 H 420.155 3.77027 -1.06573 0
M  V30 4376 H 421.852 3.73648 -1.45561 0
M  V30 4377 H 418.442 3.2434 -2.80181 0
M  V30 4378 H 422.626 3.21361 -3.78207 0
M  V30 4379 H 417.882 3.22338 -5.19527 0
M  V30 4380 H 422.056 3.20543 -6.18244 0
M  V30 4381 H 419.683 3.20575 -6.89301 0
M  V30 4382 N 421.258 1.00505 1.21394 0
M  V30 4383 C 422.504 0.688793 1.90745 0
M  V30 4384 C 422.837 -0.778486 1.77914 0
M  V30 4385 O 422.112 -1.56433 1.15581 0
M  V30 4386 C 422.395 1.11063 3.42545 0
M  V30 4387 C 422.248 2.63737 3.64367 0
M  V30 4388 C 423.567 0.673059 4.34923 0
M  V30 4389 H 420.686 0.251702 0.692687 0
M  V30 4390 H 423.328 1.25074 1.43026 0
M  V30 4391 H 421.478 0.632508 3.83317 0
M  V30 4392 H 423.15 3.19313 3.32922 0
M  V30 4393 H 421.393 3.05248 3.08231 0
M  V30 4394 H 422.064 2.88305 4.70727 0
M  V30 4395 H 424.54 1.08392 4.01734 0
M  V30 4396 H 423.416 0.996383 5.39781 0
M  V30 4397 H 423.677 -0.425808 4.40045 0
M  V30 4398 N 422.737 -1.36956 0.779787 0
M  V30 4399 C 423.7 -2.2851 0.177662 0
M  V30 4400 C 424.7 -1.48393 -0.619377 0
M  V30 4401 O 425.89 -1.68505 -0.441785 0
M  V30 4402 C 423.022 -3.32428 -0.755279 0
M  V30 4403 H 424.215 -2.83269 0.984823 0
M  V30 4404 H 421.768 -1.46358 0.548544 0
M  V30 4405 H 422.503 -2.82808 -1.58714 0
M  V30 4406 H 422.288 -3.91659 -0.185817 0
M  V30 4407 H 423.778 -4.00824 -1.17174 0
M  V30 4408 N 424.215 -0.530993 -1.48385 0
M  V30 4409 C 425.163 0.244595 -2.3131 0
M  V30 4410 C 426.157 0.93451 -1.41291 0
M  V30 4411 O 427.363 0.85878 -1.58193 0
M  V30 4412 H 423.738 0.0977472 -0.74562 0
M  V30 4413 H 425.709 -0.474369 -2.94605 0
M  V30 4414 C 424.458 1.2779 -3.23365 0
M  V30 4415 H 423.781 0.756439 -3.92579 0
M  V30 4416 H 425.221 1.79198 -3.84271 0
M  V30 4417 C 423.68 2.31205 -2.45042 0
M  V30 4418 O 424.21 3.37661 -2.17596 0
M  V30 4419 N 422.416 2.04446 -2.0652 0
M  V30 4420 H 421.963 1.17891 -2.2904 0
M  V30 4421 H 421.921 2.73861 -1.54427 0
M  V30 4422 N 425.693 1.55336 -0.266172 0
M  V30 4423 C 426.942 1.98574 0.353749 0
M  V30 4424 C 427.255 1.15789 1.57646 0
M  V30 4425 O 428.461 1.49129 2.26876 0
M  V30 4426 C 426.917 3.53403 0.680747 0
M  V30 4427 C 426.525 4.44953 -0.52165 0
M  V30 4428 C 428.269 4.05251 1.26379 0
M  V30 4429 C 426.176 5.91156 -0.169736 0
M  V30 4430 H 425.106 0.741643 0.135949 0
M  V30 4431 H 427.757 1.79743 -0.369421 0
M  V30 4432 H 426.139 3.68001 1.46257 0
M  V30 4433 H 427.313 4.42121 -1.29869 0
M  V30 4434 H 425.628 4.03691 -1.02093 0
M  V30 4435 H 428.225 5.12021 1.54074 0
M  V30 4436 H 428.568 3.53749 2.19471 0
M  V30 4437 H 429.101 3.94057 0.544447 0
M  V30 4438 H 425.84 6.46736 -1.0683 0
M  V30 4439 H 425.36 5.97079 0.570717 0
M  V30 4440 H 427.039 6.4655 0.241245 0
M  V30 4441 N 427.171 -0.0066808 1.57599 0
M  V30 4442 C 428.417 -0.693947 1.90558 0
M  V30 4443 C 428.75 -1.73792 0.866594 0
M  V30 4444 O 428.025 -1.94156 -0.115548 0
M  V30 4445 C 428.308 -1.34317 3.34112 0
M  V30 4446 C 428.161 -0.311189 4.48722 0
M  V30 4447 C 429.48 -2.27116 3.7697 0
M  V30 4448 H 426.599 -0.250803 0.693013 0
M  V30 4449 H 429.241 0.043242 1.89951 0
M  V30 4450 H 427.391 -1.9715 3.3476 0
M  V30 4451 H 429.063 0.316944 4.6021 0
M  V30 4452 H 427.306 0.367253 4.32243 0
M  V30 4453 H 427.977 -0.804366 5.46108 0
M  V30 4454 H 430.453 -1.74306 3.77831 0
M  V30 4455 H 429.329 -2.69511 4.78179 0
M  V30 4456 H 429.59 -3.14743 3.10466 0
M  V30 4457 N 428.649 -1.55105 -0.279332 0
M  V30 4458 C 429.581 -1.83952 -1.36727 0
M  V30 4459 C 430.594 -0.723642 -1.45833 0
M  V30 4460 O 431.783 -1.00141 -1.47763 0
M  V30 4461 C 428.883 -1.98183 -2.74912 0
M  V30 4462 C 428.056 -3.28787 -2.88475 0
M  V30 4463 C 427.115 -3.33162 -4.07295 0
M  V30 4464 O 426.141 -4.06576 -3.98353 0
M  V30 4465 N 427.343 -2.60109 -5.18964 0
M  V30 4466 H 430.108 -2.77853 -1.12328 0
M  V30 4467 H 427.669 -1.54945 -0.469442 0
M  V30 4468 H 429.661 -1.98488 -3.52682 0
M  V30 4469 H 428.231 -1.11177 -2.92162 0
M  V30 4470 H 427.451 -3.41075 -1.97641 0
M  V30 4471 H 428.739 -4.14933 -2.94463 0
M  V30 4472 H 428.137 -2.00136 -5.29115 0
M  V30 4473 H 426.694 -2.66143 -5.94988 0
M  V30 4474 N 430.127 0.543554 -1.4793 0
M  V30 4475 C 431.09 1.63156 -1.60975 0
M  V30 4476 C 432.09 1.53346 -0.483899 0
M  V30 4477 O 433.28 1.5726 -0.749339 0
M  V30 4478 C 430.412 3.02743 -1.56716 0
M  V30 4479 H 431.605 1.52934 -2.57975 0
M  V30 4480 H 429.158 0.764557 -1.36324 0
M  V30 4481 H 429.893 3.18484 -0.611418 0
M  V30 4482 H 429.678 3.11272 -2.38438 0
M  V30 4483 H 431.168 3.81871 -1.6901 0
M  V30 4484 N 431.605 1.3629 0.791371 0
M  V30 4485 C 432.851 1.30605 1.55146 0
M  V30 4486 C 433.184 -0.115042 1.93859 0
M  V30 4487 O 432.459 -1.06798 1.62556 0
M  V30 4488 C 432.742 2.22692 2.82985 0
M  V30 4489 C 432.595 3.73489 2.50651 0
M  V30 4490 C 433.914 2.13588 3.84796 0
M  V30 4491 H 431.033 0.475761 0.562868 0
M  V30 4492 H 433.675 1.66825 0.909358 0
M  V30 4493 H 431.825 1.91933 3.37778 0
M  V30 4494 H 433.497 4.14758 2.01924 0
M  V30 4495 H 431.74 3.93021 1.83622 0
M  V30 4496 H 432.411 4.3333 3.41949 0
M  V30 4497 H 434.887 2.40659 3.39445 0
M  V30 4498 H 433.763 2.80195 4.71998 0
M  V30 4499 H 434.024 1.12256 4.27611 0
M  V30 4500 N 433.083 -1.0153 1.20538 0
M  V30 4501 C 434.323 -1.76689 1.02763 0
M  V30 4502 C 434.687 -1.87065 -0.432513 0
M  V30 4503 O 435.888 -2.58684 -0.730481 0
M  V30 4504 C 434.159 -3.14707 1.69393 0
M  V30 4505 S 435.718 -4.05886 1.66738 0
M  V30 4506 H 432.536 -0.608076 0.368463 0
M  V30 4507 H 435.138 -1.21558 1.53114 0
M  V30 4508 H 433.842 -3.04782 2.74838 0
M  V30 4509 H 433.373 -3.74913 1.19179 0
M  V30 4510 H 435.388 -4.91221 0.70117 0
M  V30 4511 N 434.561 -1.01147 -1.20859 0
M  V30 4512 C 435.838 -0.613136 -1.85742 0
M  V30 4513 C 436.218 0.909004 -1.90526 0
M  V30 4514 O 435.566 1.79862 -1.40932 0
M  V30 4515 C 435.776 -1.255 -3.25654 0
M  V30 4516 C 437.124 -1.3672 -4.01986 0
M  V30 4517 O 438.148 -1.21082 -3.34989 0
M  V30 4518 O 437.007 -1.6194 -5.21956 0
M  V30 4519 H 434.101 -0.210878 -0.799662 0
M  V30 4520 H 436.647 -1.10853 -1.2849 0
M  V30 4521 H 435.419 -2.29532 -3.16908 0
M  V30 4522 H 435.042 -0.746369 -3.90532 0
M  V30 4523 N 436.039 1.36541 -0.78704 0
M  V30 4524 C 437.279 2.01138 -0.363714 0
M  V30 4525 C 437.643 1.61114 1.04433 0
M  V30 4526 O 438.844 2.18285 1.56861 0
M  V30 4527 C 437.115 3.53603 -0.519582 0
M  V30 4528 S 438.674 4.38415 -0.183782 0
M  V30 4529 H 435.492 0.697263 -0.13909 0
M  V30 4530 H 438.094 1.66475 -1.02501 0
M  V30 4531 H 436.798 3.8022 -1.5447 0
M  V30 4532 H 436.329 3.93084 0.15773 0
M  V30 4533 H 438.344 4.85698 1.01547 0
M  V30 4534 N 437.518 0.538854 1.48102 0
M  V30 4535 C 438.767 0.0059532 2.01699 0
M  V30 4536 C 439.08 -1.34476 1.42041 0
M  V30 4537 O 440.286 -1.96653 1.87189 0
M  V30 4538 C 438.742 -0.0397627 3.59878 0
M  V30 4539 C 438.35 1.30659 4.28523 0
M  V30 4540 C 440.094 -0.521024 4.2129 0
M  V30 4541 C 438.001 1.22098 5.78659 0
M  V30 4542 H 436.931 -0.00154456 0.753998 0
M  V30 4543 H 439.582 0.683963 1.70277 0
M  V30 4544 H 437.964 -0.783037 3.88181 0
M  V30 4545 H 439.138 2.06613 4.11883 0
M  V30 4546 H 437.453 1.7243 3.79021 0
M  V30 4547 H 440.05 -0.603184 5.31287 0
M  V30 4548 H 440.393 -1.52885 3.8721 0
M  V30 4549 H 440.926 0.166834 3.9745 0
M  V30 4550 H 437.665 2.20424 6.17328 0
M  V30 4551 H 437.185 0.50295 5.97688 0
M  V30 4552 H 438.864 0.915345 6.40492 0
M  V30 4553 N 438.996 -1.55193 0.274407 0
M  V30 4554 C 440.221 -2.04446 -0.348824 0
M  V30 4555 C 440.646 -1.15149 -1.48735 0
M  V30 4556 O 440.004 -0.149952 -1.80679 0
M  V30 4557 C 440.052 -3.51431 -0.808009 0
M  V30 4558 O 439.156 -3.65225 -1.91531 0
M  V30 4559 H 438.497 -0.66006 -0.0722276 0
M  V30 4560 H 441.027 -2.00481 0.408498 0
M  V30 4561 H 441.037 -3.92781 -1.10395 0
M  V30 4562 H 439.712 -4.15892 0.0249865 0
M  V30 4563 H 438.289 -3.35778 -1.62196 0
M  V30 4564 N 440.474 -0.00167713 -1.576 0
M  V30 4565 C 441.885 0.54091 -1.78693 0
M  V30 4566 C 442.236 1.7386 -0.909247 0
M  V30 4567 O 441.361 2.16109 -0.112176 0
M  V30 4568 C 441.956 0.98806 -3.24072 0
M  V30 4569 C 440.515 1.47594 -3.46256 0
M  V30 4570 C 439.662 0.42792 -2.73978 0
M  V30 4571 H 442.613 -0.22784 -1.57056 0
M  V30 4572 H 442.634 1.85398 -3.32277 0
M  V30 4573 H 442.146 0.116164 -3.87926 0
M  V30 4574 H 440.247 2.36868 -2.87618 0
M  V30 4575 H 440.36 1.50225 -4.54939 0
M  V30 4576 H 438.724 0.889934 -2.38647 0
M  V30 4577 H 439.507 -0.435038 -3.40532 0
M  V30 4578 N 441.952 1.55251 0.271103 0
M  V30 4579 C 443.2 1.75599 1.00047 0
M  V30 4580 C 443.521 0.561188 1.8675 0
M  V30 4581 O 442.791 -0.423846 1.9126 0
M  V30 4582 H 441.371 0.647562 0.372387 0
M  V30 4583 H 444.033 1.92656 0.294876 0
M  V30 4584 H 443.129 2.65766 1.6363 0
M  V30 4585 N 443.43 -0.535701 1.48216 0
M  V30 4586 C 444.36 -1.65014 1.65204 0
M  V30 4587 C 445.341 -1.62554 0.501011 0
M  V30 4588 O 446.526 -1.7984 0.732886 0
M  V30 4589 C 443.656 -3.03616 1.68626 0
M  V30 4590 C 442.61 -3.20932 2.83172 0
M  V30 4591 C 441.936 -4.60537 2.71679 0
M  V30 4592 C 443.236 -3.04249 4.24535 0
M  V30 4593 H 444.93 -1.51053 2.58502 0
M  V30 4594 H 442.476 -0.725262 1.24402 0
M  V30 4595 H 444.429 -3.81446 1.79099 0
M  V30 4596 H 443.153 -3.18587 0.719026 0
M  V30 4597 H 441.812 -2.45517 2.72244 0
M  V30 4598 H 441.46 -4.72336 1.72937 0
M  V30 4599 H 441.16 -4.73069 3.48538 0
M  V30 4600 H 442.684 -5.40475 2.84112 0
M  V30 4601 H 444.098 -3.71877 4.36326 0
M  V30 4602 H 442.495 -3.28278 5.02348 0
M  V30 4603 H 443.565 -2.00739 4.41397 0
M  V30 4604 N 444.908 -1.36708 -0.784132 0
M  V30 4605 C 446.155 -1.31231 -1.54222 0
M  V30 4606 C 446.483 0.106864 -1.94206 0
M  V30 4607 O 445.738 1.07734 -1.63376 0
M  V30 4608 C 446.037 -2.18571 -2.82774 0
M  V30 4609 C 445.703 -3.67039 -2.61903 0
M  V30 4610 C 444.365 -4.07503 -2.55919 0
M  V30 4611 C 446.717 -4.61149 -2.4288 0
M  V30 4612 C 444.045 -5.40211 -2.28886 0
M  V30 4613 C 446.397 -5.94081 -2.17373 0
M  V30 4614 C 445.061 -6.33664 -2.09825 0
M  V30 4615 H 444.331 -0.48021 -0.56434 0
M  V30 4616 H 446.978 -1.68807 -0.904233 0
M  V30 4617 H 445.283 -1.73949 -3.51068 0
M  V30 4618 H 446.98 -2.11655 -3.40592 0
M  V30 4619 H 443.57 -3.34941 -2.67418 0
M  V30 4620 H 447.754 -4.30756 -2.46501 0
M  V30 4621 H 443.01 -5.69855 -2.21529 0
M  V30 4622 H 447.184 -6.66566 -2.01649 0
M  V30 4623 H 444.811 -7.36423 -1.88641 0
M  V30 4624 N 446.386 1.0089 -1.21074 0
M  V30 4625 C 447.663 1.71834 -0.934469 0
M  V30 4626 C 448.043 2.0368 0.554753 0
M  V30 4627 O 447.391 1.70742 1.51854 0
M  V30 4628 C 447.601 2.98061 -1.8155 0
M  V30 4629 C 448.949 3.7117 -2.06199 0
M  V30 4630 O 449.973 3.08034 -1.78867 0
M  V30 4631 O 448.832 4.84721 -2.52404 0
M  V30 4632 H 445.926 0.749253 -0.35007 0
M  V30 4633 H 448.472 1.06668 -1.31985 0
M  V30 4634 H 447.244 2.70908 -2.82355 0
M  V30 4635 H 446.867 3.70968 -1.43068 0
M  V30 4636 N 447.864 1.01787 1.20321 0
M  V30 4637 C 449.11 0.708985 1.90003 0
M  V30 4638 C 449.443 -0.759572 1.78729 0
M  V30 4639 O 448.718 -1.55198 1.17234 0
M  V30 4640 C 449.001 1.1469 3.41348 0
M  V30 4641 C 448.854 2.67586 3.61549 0
M  V30 4642 C 450.173 0.71915 4.34185 0
M  V30 4643 H 447.292 0.259034 0.689978 0
M  V30 4644 H 449.934 1.26584 1.41692 0
M  V30 4645 H 448.084 0.673128 3.82624 0
M  V30 4646 H 449.756 3.22826 3.29517 0
M  V30 4647 H 447.999 3.085 3.04976 0
M  V30 4648 H 448.67 2.93281 4.67643 0
M  V30 4649 H 451.146 1.12647 4.00562 0
M  V30 4650 H 450.022 1.05358 5.38694 0
M  V30 4651 H 450.283 -0.379111 4.40472 0
M  V30 4652 N 449.342 -1.36122 0.79427 0
M  V30 4653 C 450.272 -2.32551 0.210328 0
M  V30 4654 C 451.253 -1.56884 -0.657386 0
M  V30 4655 O 452.438 -1.85014 -0.590207 0
M  V30 4656 C 449.568 -3.41128 -0.651819 0
M  V30 4657 C 448.522 -4.27842 0.116395 0
M  V30 4658 C 447.848 -5.2763 -0.86666 0
M  V30 4659 C 449.148 -5.05647 1.30837 0
M  V30 4660 H 450.842 -2.81636 1.01594 0
M  V30 4661 H 448.388 -1.35407 0.489981 0
M  V30 4662 H 450.341 -4.07581 -1.07031 0
M  V30 4663 H 449.065 -2.90622 -1.49019 0
M  V30 4664 H 447.724 -3.62952 0.515915 0
M  V30 4665 H 447.372 -4.73395 -1.70019 0
M  V30 4666 H 447.072 -5.86514 -0.35705 0
M  V30 4667 H 448.596 -5.96955 -1.28361 0
M  V30 4668 H 450.01 -5.65113 0.965393 0
M  V30 4669 H 448.407 -5.73967 1.75161 0
M  V30 4670 H 449.477 -4.37006 2.10128 0
M  V30 4671 N 450.82 -0.546701 -1.47814 0
M  V30 4672 C 452.048 -0.0232857 -2.06887 0
M  V30 4673 C 452.463 1.26571 -1.4009 0
M  V30 4674 O 451.82 1.7569 -0.493906 0
M  V30 4675 C 451.871 0.186975 -3.61016 0
M  V30 4676 O 451.592 -1.05097 -4.25307 0
M  V30 4677 C 453.093 0.748872 -4.36929 0
M  V30 4678 H 450.313 -0.0410763 -0.669742 0
M  V30 4679 H 452.857 -0.757117 -1.89968 0
M  V30 4680 H 451.012 0.870903 -3.77484 0
M  V30 4681 H 451.426 -0.842121 -5.17695 0
M  V30 4682 H 452.9 0.845334 -5.45489 0
M  V30 4683 H 453.377 1.75772 -4.02493 0
M  V30 4684 H 453.983 0.100979 -4.2518 0
M  V30 4685 N 452.299 1.55045 -0.282633 0
M  V30 4686 C 453.545 2.0078 0.325436 0
M  V30 4687 C 453.9 1.1676 1.52921 0
M  V30 4688 O 453.193 0.231475 1.90197 0
M  V30 4689 C 453.387 3.49422 0.750938 0
M  V30 4690 C 453.216 4.47827 -0.410056 0
M  V30 4691 C 451.986 4.97288 -0.896239 0
M  V30 4692 C 454.184 4.98903 -1.24902 0
M  V30 4693 N 452.166 5.79508 -2.02591 0
M  V30 4694 C 453.537 5.78644 -2.22646 0
M  V30 4695 C 455.592 4.81126 -1.2815 0
M  V30 4696 C 454.295 6.42502 -3.23393 0
M  V30 4697 C 456.321 5.45789 -2.27745 0
M  V30 4698 C 455.683 6.25348 -3.24222 0
M  V30 4699 H 451.782 0.77747 0.08405 0
M  V30 4700 H 454.366 1.90369 -0.408368 0
M  V30 4701 H 452.537 3.60159 1.45395 0
M  V30 4702 H 454.269 3.81978 1.33698 0
M  V30 4703 H 451.024 4.71219 -0.474277 0
M  V30 4704 H 451.448 6.25308 -2.59459 0
M  V30 4705 H 456.09 4.19215 -0.549397 0
M  V30 4706 H 453.808 7.03558 -3.97533 0
M  V30 4707 H 457.394 5.33972 -2.31009 0
M  V30 4708 H 456.274 6.74498 -4.00027 0
M  V30 4709 N 453.777 0.010035 1.57597 0
M  V30 4710 C 454.707 -0.976857 2.12084 0
M  V30 4711 C 455.688 -1.35191 1.03235 0
M  V30 4712 O 456.873 -1.43389 1.3097 0
M  V30 4713 C 454.003 -2.26548 2.63236 0
M  V30 4714 C 452.957 -2.03175 3.76701 0
M  V30 4715 C 452.283 -3.38138 4.14206 0
M  V30 4716 C 453.583 -1.38625 5.03568 0
M  V30 4717 H 455.277 -0.523145 2.94794 0
M  V30 4718 H 452.823 -0.250195 1.4181 0
M  V30 4719 H 454.776 -2.95952 2.99984 0
M  V30 4720 H 453.5 -2.74051 1.77661 0
M  V30 4721 H 452.159 -1.36195 3.40362 0
M  V30 4722 H 451.807 -3.83363 3.25641 0
M  V30 4723 H 451.507 -3.23312 4.90656 0
M  V30 4724 H 453.031 -4.08841 4.53521 0
M  V30 4725 H 454.445 -1.98 5.38023 0
M  V30 4726 H 452.842 -1.34256 5.84889 0
M  V30 4727 H 453.912 -0.356722 4.83586 0
M  V30 4728 N 455.255 -1.55392 -0.262866 0
M  V30 4729 C 456.503 -1.76127 -0.991147 0
M  V30 4730 C 456.824 -0.571083 -1.8645 0
M  V30 4731 O 456.094 0.413698 -1.91482 0
M  V30 4732 H 454.674 -0.649528 -0.368948 0
M  V30 4733 H 457.336 -1.9281 -0.284655 0
M  V30 4734 H 456.432 -2.6663 -1.62219 0
M  V30 4735 N 456.733 0.527833 -1.48498 0
M  V30 4736 C 457.963 1.30633 -1.60058 0
M  V30 4737 C 458.371 1.87394 -0.260786 0
M  V30 4738 O 457.714 1.67227 0.760317 0
M  V30 4739 C 457.776 2.49361 -2.58958 0
M  V30 4740 C 457.44 2.13671 -4.03972 0
M  V30 4741 C 458.437 1.69217 -4.91591 0
M  V30 4742 C 456.122 2.24129 -4.49524 0
M  V30 4743 C 458.116 1.35689 -6.2279 0
M  V30 4744 C 455.803 1.90212 -5.80743 0
M  V30 4745 C 456.801 1.46063 -6.67199 0
M  V30 4746 O 456.489 1.12593 -7.95976 0
M  V30 4747 H 456.221 0.403444 -0.54241 0
M  V30 4748 H 458.775 0.643233 -1.95068 0
M  V30 4749 H 457.005 3.18659 -2.19073 0
M  V30 4750 H 458.694 3.11421 -2.6033 0
M  V30 4751 H 459.46 1.60607 -4.57636 0
M  V30 4752 H 455.339 2.57447 -3.82416 0
M  V30 4753 H 458.883 1.01157 -6.90227 0
M  V30 4754 H 454.78 1.98464 -6.14233 0
M  V30 4755 H 455.548 1.25972 -8.08748 0
M  V30 4756 N 458.211 1.37122 0.776871 0
M  V30 4757 C 459.451 1.33441 1.54831 0
M  V30 4758 C 459.815 -0.0818963 1.91825 0
M  V30 4759 O 461.016 -0.24338 2.67696 0
M  V30 4760 C 459.287 2.24267 2.78279 0
M  V30 4761 S 460.846 2.38389 3.68397 0
M  V30 4762 H 457.664 0.473791 0.530135 0
M  V30 4763 H 460.266 1.7282 0.913968 0
M  V30 4764 H 458.97 3.261 2.49173 0
M  V30 4765 H 458.501 1.85953 3.46677 0
M  V30 4766 H 460.516 1.59068 4.70013 0
M  V30 4767 N 459.689 -1.00246 1.21608 0
M  V30 4768 C 460.637 -2.11193 0.97469 0
M  V30 4769 C 461.631 -1.69216 -0.0789303 0
M  V30 4770 O 462.837 -1.79853 0.0726806 0
M  V30 4771 H 459.212 -0.690455 0.297953 0
M  V30 4772 H 461.183 -2.2873 1.91638 0
M  V30 4773 C 459.932 -3.43182 0.558717 0
M  V30 4774 H 459.255 -3.75918 1.3611 0
M  V30 4775 H 460.695 -4.21823 0.429154 0
M  V30 4776 C 459.154 -3.28882 -0.730648 0
M  V30 4777 O 459.684 -3.59835 -1.78554 0
M  V30 4778 N 457.89 -2.8209 -0.698131 0
M  V30 4779 H 457.437 -2.57099 0.16061 0
M  V30 4780 H 457.395 -2.72903 -1.56113 0
M  V30 4781 N 461.167 -1.02423 -1.1978 0
M  V30 4782 C 462.392 -0.7373 -1.93852 0
M  V30 4783 C 462.817 0.696923 -1.74713 0
M  V30 4784 O 462.175 1.48056 -1.04638 0
M  V30 4785 C 462.223 -1.08783 -3.438 0
M  V30 4786 O 461.327 -0.20383 -4.11896 0
M  V30 4787 H 460.668 -0.27284 -0.605355 0
M  V30 4788 H 463.198 -1.36966 -1.51992 0
M  V30 4789 H 463.208 -1.04276 -3.9445 0
M  V30 4790 H 461.883 -2.13274 -3.57053 0
M  V30 4791 H 460.46 -0.307091 -3.71633 0
M  V30 4792 N 462.645 1.35699 -0.801477 0
M  V30 4793 C 463.873 2.03157 -0.391768 0
M  V30 4794 C 464.288 1.60412 0.995668 0
M  V30 4795 O 463.645 0.799228 1.64069 0
M  V30 4796 C 463.696 3.58566 -0.459671 0
M  V30 4797 O 463.417 3.99756 -1.7924 0
M  V30 4798 C 464.918 4.4328 -0.0421205 0
M  V30 4799 H 462.138 0.651688 -0.159825 0
M  V30 4800 H 464.682 1.73426 -1.08368 0
M  V30 4801 H 462.837 3.86963 0.183939 0
M  V30 4802 H 463.251 4.94387 -1.75162 0
M  V30 4803 H 464.725 5.51821 -0.140754 0
M  V30 4804 H 465.202 4.27383 1.01196 0
M  V30 4805 H 465.808 4.20168 -0.658687 0
M  V30 4806 N 464.123 0.554532 1.47522 0
M  V30 4807 C 465.056 -0.242442 2.26908 0
M  V30 4808 C 466.034 -0.922722 1.33883 0
M  V30 4809 O 467.218 -0.942244 1.63261 0
M  V30 4810 C 464.345 -1.34525 3.10839 0
M  V30 4811 C 463.391 -0.773805 4.19422 0
M  V30 4812 S 464.224 0.377525 5.34168 0
M  V30 4813 C 465.38 -0.727164 6.21662 0
M  V30 4814 H 465.613 0.431218 2.94156 0
M  V30 4815 H 463.146 0.3408 1.50592 0
M  V30 4816 H 465.104 -1.97683 3.59766 0
M  V30 4817 H 463.765 -1.99073 2.42958 0
M  V30 4818 H 462.958 -1.60187 4.77866 0
M  V30 4819 H 462.56 -0.218448 3.73361 0
M  V30 4820 H 464.852 -1.61992 6.57849 0
M  V30 4821 H 465.795 -0.180135 7.07871 0
M  V30 4822 H 466.203 -1.01863 5.55233 0
M  V30 4823 N 465.601 -1.54893 0.290851 0
M  V30 4824 C 466.549 -2.24579 -0.605576 0
M  V30 4825 C 467.543 -1.24824 -1.14522 0
M  V30 4826 O 468.749 -1.42706 -1.09704 0
M  V30 4827 H 465.124 -0.720946 -0.213872 0
M  V30 4828 H 467.095 -2.984 0.0048173 0
M  V30 4829 C 465.844 -2.99224 -1.77088 0
M  V30 4830 H 465.167 -3.75782 -1.36484 0
M  V30 4831 H 466.607 -3.51281 -2.3744 0
M  V30 4832 C 465.066 -2.05602 -2.66888 0
M  V30 4833 O 465.596 -1.61745 -3.67698 0
M  V30 4834 N 463.802 -1.71771 -2.34399 0
M  V30 4835 H 463.349 -2.07633 -1.52468 0
M  V30 4836 H 463.307 -1.09403 -2.94751 0
M  V30 4837 N 467.08 -0.0183926 -1.57589 0
M  V30 4838 C 468.491 0.521927 -1.79256 0
M  V30 4839 C 468.842 1.72885 -0.927636 0
M  V30 4840 O 467.967 2.15978 -0.135091 0
M  V30 4841 C 468.562 0.953632 -3.25102 0
M  V30 4842 C 467.121 1.43913 -3.47801 0
M  V30 4843 C 466.268 0.398837 -2.74417 0
M  V30 4844 H 469.219 -0.244485 -1.56805 0
M  V30 4845 H 469.24 1.81863 -3.34224 0
M  V30 4846 H 468.752 0.0750123 -3.88028 0
M  V30 4847 H 466.853 2.33804 -2.90115 0
M  V30 4848 H 466.966 1.45391 -4.56507 0
M  V30 4849 H 465.33 0.864572 -2.39577 0
M  V30 4850 H 466.113 -0.471132 -3.40052 0
M  V30 4851 N 468.558 1.5553 0.254621 0
M  V30 4852 C 469.807 1.76202 0.981612 0
M  V30 4853 C 470.12 0.580883 1.86776 0
M  V30 4854 O 471.326 0.670448 2.63092 0
M  V30 4855 C 469.782 3.11921 1.79537 0
M  V30 4856 C 469.39 4.37659 0.956991 0
M  V30 4857 C 471.134 3.41936 2.51555 0
M  V30 4858 C 469.041 5.64411 1.76619 0
M  V30 4859 H 467.971 0.656841 0.370237 0
M  V30 4860 H 470.622 1.81969 0.236556 0
M  V30 4861 H 469.004 3.00241 2.58208 0
M  V30 4862 H 470.178 4.60307 0.21315 0
M  V30 4863 H 468.493 4.14922 0.350497 0
M  V30 4864 H 471.09 4.33849 3.12536 0
M  V30 4865 H 471.433 2.62905 3.22779 0
M  V30 4866 H 471.966 3.54797 1.799 0
M  V30 4867 H 468.705 6.46241 1.09783 0
M  V30 4868 H 468.225 5.45877 2.48551 0
M  V30 4869 H 469.904 6.03386 2.33527 0
M  V30 4870 N 470.036 -0.519951 1.48776 0
M  V30 4871 C 471.285 -1.27175 1.56555 0
M  V30 4872 C 471.598 -1.9401 0.248869 0
M  V30 4873 O 472.804 -2.70725 0.205004 0
M  V30 4874 C 471.26 -2.30811 2.76142 0
M  V30 4875 C 470.868 -1.7 4.14493 0
M  V30 4876 C 472.612 -3.06937 2.9324 0
M  V30 4877 C 470.519 -2.71635 5.25327 0
M  V30 4878 H 469.449 -0.478329 0.582853 0
M  V30 4879 H 472.1 -0.547916 1.75129 0
M  V30 4880 H 470.482 -3.06274 2.51023 0
M  V30 4881 H 471.656 -1.00658 4.49672 0
M  V30 4882 H 469.971 -1.06331 4.02595 0
M  V30 4883 H 472.568 -3.82905 3.73213 0
M  V30 4884 H 472.911 -3.63409 2.03075 0
M  V30 4885 H 473.444 -2.38589 3.18308 0
M  V30 4886 H 470.183 -2.1997 6.1749 0
M  V30 4887 H 469.703 -3.39275 4.94624 0
M  V30 4888 H 471.382 -3.34429 5.53865 0
M  V30 4889 N 471.514 -1.37532 -0.769588 0
M  V30 4890 C 472.744 -1.35861 -1.55645 0
M  V30 4891 C 473.152 0.0574398 -1.89113 0
M  V30 4892 O 472.495 1.03021 -1.52093 0
M  V30 4893 C 472.557 -2.13431 -2.89288 0
M  V30 4894 C 472.221 -3.62378 -2.78444 0
M  V30 4895 C 473.218 -4.56215 -2.49326 0
M  V30 4896 C 470.903 -4.05529 -2.96398 0
M  V30 4897 C 472.897 -5.91181 -2.38294 0
M  V30 4898 C 470.584 -5.40579 -2.84987 0
M  V30 4899 C 471.582 -6.33218 -2.55975 0
M  V30 4900 O 471.27 -7.65787 -2.44594 0
M  V30 4901 H 471.002 -0.467001 -0.48876 0
M  V30 4902 H 473.556 -1.81505 -0.961515 0
M  V30 4903 H 471.786 -1.62481 -3.50909 0
M  V30 4904 H 473.475 -2.04368 -3.50697 0
M  V30 4905 H 474.241 -4.24187 -2.35139 0
M  V30 4906 H 470.12 -3.33781 -3.1798 0
M  V30 4907 H 473.664 -6.63457 -2.15571 0
M  V30 4908 H 469.561 -5.72209 -2.98743 0
M  V30 4909 H 470.329 -7.76132 -2.59927 0
M  V30 4910 N 472.992 0.995999 -1.22138 0
M  V30 4911 C 474.403 1.54961 -1.04135 0
M  V30 4912 C 474.754 1.92159 0.396147 0
M  V30 4913 O 473.879 1.74435 1.28069 0
M  V30 4914 C 474.474 2.81581 -1.88408 0
M  V30 4915 C 473.033 3.33396 -1.74712 0
M  V30 4916 C 472.18 2.06509 -1.85066 0
M  V30 4917 H 475.131 0.817436 -1.36028 0
M  V30 4918 H 475.152 3.53822 -1.39966 0
M  V30 4919 H 474.664 2.54476 -2.93025 0
M  V30 4920 H 472.765 3.65416 -0.728159 0
M  V30 4921 H 472.878 4.04208 -2.57202 0
M  V30 4922 H 471.242 2.19925 -1.28472 0
M  V30 4923 H 472.025 1.81804 -2.91208 0
M  V30 4924 N 474.47 1.03057 1.19235 0
M  V30 4925 C 475.4 0.633497 2.24742 0
M  V30 4926 C 476.381 -0.358335 1.66283 0
M  V30 4927 O 477.566 -0.240676 1.92703 0
M  V30 4928 C 474.696 -0.0147648 3.47297 0
M  V30 4929 C 473.65 0.899527 4.18441 0
M  V30 4930 C 472.976 0.116281 5.34574 0
M  V30 4931 C 474.276 2.21404 4.73051 0
M  V30 4932 H 475.97 1.5155 2.58211 0
M  V30 4933 H 473.516 0.73014 1.24117 0
M  V30 4934 H 475.469 -0.304202 4.20301 0
M  V30 4935 H 474.193 -0.931577 3.13032 0
M  V30 4936 H 472.852 1.17319 3.47321 0
M  V30 4937 H 472.5 -0.802619 4.96555 0
M  V30 4938 H 472.2 0.725293 5.83107 0
M  V30 4939 H 473.724 -0.166376 6.10373 0
M  V30 4940 H 475.138 1.98601 5.37802 0
M  V30 4941 H 473.535 2.77512 5.32078 0
M  V30 4942 H 474.605 2.86752 3.91026 0
M  V30 4943 N 475.948 -1.35272 0.808662 0
M  V30 4944 C 477.195 -1.98709 0.390003 0
M  V30 4945 C 477.523 -1.64148 -1.04335 0
M  V30 4946 O 476.778 -0.897797 -1.73891 0
M  V30 4947 C 477.077 -3.53556 0.522798 0
M  V30 4948 C 476.743 -4.0799 1.91977 0
M  V30 4949 C 475.405 -4.22568 2.30195 0
M  V30 4950 C 477.757 -4.37442 2.83361 0
M  V30 4951 C 475.085 -4.63918 3.59162 0
M  V30 4952 C 477.437 -4.80232 4.11776 0
M  V30 4953 C 476.101 -4.93016 4.49991 0
M  V30 4954 H 475.371 -0.727127 0.142712 0
M  V30 4955 H 478.018 -1.6145 1.02985 0
M  V30 4956 H 476.323 -3.91287 -0.200494 0
M  V30 4957 H 478.02 -4.00598 0.179608 0
M  V30 4958 H 474.61 -3.97096 1.61284 0
M  V30 4959 H 478.794 -4.25731 2.55083 0
M  V30 4960 H 474.05 -4.72005 3.88615 0
M  V30 4961 H 478.224 -5.01982 4.82687 0
M  V30 4962 H 475.851 -5.24814 5.49976 0
M  V30 4963 N 477.426 -0.562348 -1.47226 0
M  V30 4964 C 478.359 0.230405 -2.27034 0
M  V30 4965 C 479.337 0.915609 -1.3437 0
M  V30 4966 O 480.521 0.933573 -1.63758 0
M  V30 4967 C 477.648 1.32874 -3.11548 0
M  V30 4968 C 476.694 0.751552 -4.19826 0
M  V30 4969 S 477.527 -0.405848 -5.3396 0
M  V30 4970 C 478.683 0.694186 -6.22038 0
M  V30 4971 H 478.916 -0.446811 -2.93923 0
M  V30 4972 H 476.449 -0.348781 -1.50409 0
M  V30 4973 H 478.407 1.95773 -3.60809 0
M  V30 4974 H 477.068 1.97782 -2.44011 0
M  V30 4975 H 476.261 1.57651 -4.78709 0
M  V30 4976 H 475.863 0.198645 -3.73472 0
M  V30 4977 H 478.155 1.58501 -6.58698 0
M  V30 4978 H 479.098 0.142592 -7.07956 0
M  V30 4979 H 479.506 0.989169 -5.55766 0
M  V30 4980 N 478.904 1.54736 -0.299062 0
M  V30 4981 C 480.32 1.59507 0.0543849 0
M  V30 4982 C 480.52 1.31606 1.52585 0
M  V30 4983 O 479.576 1.08853 2.27832 0
M  V30 4984 C 480.889 2.98751 -0.34181 0
M  V30 4985 C 482.437 3.1165 -0.290414 0
M  V30 4986 C 482.912 4.53199 -0.661402 0
M  V30 4987 N 484.403 4.59114 -0.613863 0
M  V30 4988 C 485.138 5.66709 -0.873417 0
M  V30 4989 N 484.634 6.82349 -1.19884 0
M  V30 4990 N 486.427 5.56369 -0.800608 0
M  V30 4991 H 478.578 1.71133 -1.25806 0
M  V30 4992 H 480.841 0.799186 -0.509908 0
M  V30 4993 H 480.547 3.24085 -1.36608 0
M  V30 4994 H 480.421 3.75961 0.305508 0
M  V30 4995 H 482.808 2.86066 0.724605 0
M  V30 4996 H 482.889 2.366 -0.972327 0
M  V30 4997 H 482.533 4.79513 -1.67422 0
M  V30 4998 H 482.463 5.26583 0.0425612 0
M  V30 4999 H 484.954 3.76053 -0.3732 0
M  V30 5000 H 485.267 7.60326 -1.38291 0
M  V30 5001 H 483.612 6.83906 -1.23685 0
M  V30 5002 H 486.803 4.64904 -0.546045 0
M  V30 5003 H 486.976 6.40139 -1.00626 0
M  V30 5004 N 480.382 0.0267497 1.57577 0
M  V30 5005 C 481.659 -0.690926 1.82991 0
M  V30 5006 C 482.039 -1.90471 0.910164 0
M  V30 5007 O 481.387 -2.28474 -0.0347985 0
M  V30 5008 C 481.597 -1.07139 3.32148 0
M  V30 5009 C 482.945 -1.46402 3.98562 0
M  V30 5010 O 483.969 -1.16443 3.36629 0
M  V30 5011 O 482.828 -2.02214 5.07712 0
M  V30 5012 H 479.922 -0.338747 0.75444 0
M  V30 5013 H 482.468 0.0542506 1.69613 0
M  V30 5014 H 481.24 -0.207394 3.9075 0
M  V30 5015 H 480.863 -1.87481 3.50623 0
M  V30 5016 N 481.861 -1.55662 -0.24637 0
M  V30 5017 C 483.108 -1.77519 -0.974335 0
M  V30 5018 C 483.436 -0.591165 -1.85298 0
M  V30 5019 O 482.691 0.425497 -1.91018 0
M  V30 5020 C 482.99 -3.04885 -1.86494 0
M  V30 5021 C 482.656 -4.36209 -1.14161 0
M  V30 5022 C 481.318 -4.71896 -0.941701 0
M  V30 5023 C 483.67 -5.17391 -0.628957 0
M  V30 5024 C 480.998 -5.86299 -0.216852 0
M  V30 5025 C 483.35 -6.32546 0.0824273 0
M  V30 5026 C 482.014 -6.66853 0.293807 0
M  V30 5027 H 481.284 -0.649588 -0.356535 0
M  V30 5028 H 483.931 -1.89934 -0.244394 0
M  V30 5029 H 482.236 -2.87484 -2.66196 0
M  V30 5030 H 483.933 -3.18994 -2.42989 0
M  V30 5031 H 480.523 -4.08174 -1.30736 0
M  V30 5032 H 484.707 -4.90276 -0.770943 0
M  V30 5033 H 479.963 -6.11385 -0.0426124 0
M  V30 5034 H 484.137 -6.94693 0.487292 0
M  V30 5035 H 481.764 -7.55349 0.857428 0
M  V30 5036 N 483.339 0.512053 -1.4905 0
M  V30 5037 C 484.286 1.6148 -1.64902 0
M  V30 5038 C 485.256 1.58687 -0.490673 0
M  V30 5039 O 486.441 1.76842 -0.71636 0
M  V30 5040 C 483.581 2.99676 -1.71139 0
M  V30 5041 C 482.694 3.12568 -2.98203 0
M  V30 5042 C 481.829 4.4143 -2.95487 0
M  V30 5043 C 480.868 4.47916 -4.17179 0
M  V30 5044 N 480.005 5.68191 -4.12437 0
M  V30 5045 H 484.845 1.47271 -2.59066 0
M  V30 5046 H 482.382 0.716713 -1.28459 0
M  V30 5047 H 484.34 3.79761 -1.72736 0
M  V30 5048 H 482.97 3.12614 -0.804508 0
M  V30 5049 H 482.022 2.25618 -3.06269 0
M  V30 5050 H 483.334 3.1322 -3.88194 0
M  V30 5051 H 482.488 5.29825 -2.95585 0
M  V30 5052 H 481.227 4.43326 -2.03256 0
M  V30 5053 H 480.232 3.57925 -4.17337 0
M  V30 5054 H 481.457 4.47744 -5.1059 0
M  V30 5055 H 479.403 5.7095 -3.23036 0
M  V30 5056 H 479.32 5.70413 -4.96151 0
M  V30 5057 H 480.588 6.58823 -4.16621 0
M  V30 5058 N 484.817 1.37938 0.762283 0
M  V30 5059 C 486.233 1.18945 1.06415 0
M  V30 5060 C 486.433 0.0321163 2.01474 0
M  V30 5061 O 485.489 -0.624844 2.44647 0
M  V30 5062 C 486.802 2.51218 1.65258 0
M  V30 5063 C 488.35 2.57824 1.7747 0
M  V30 5064 C 488.825 3.90251 2.39725 0
M  V30 5065 N 490.316 3.91744 2.47166 0
M  V30 5066 C 491.051 4.90966 2.96209 0
M  V30 5067 N 490.547 6.00585 3.45354 0
M  V30 5068 N 492.34 4.78363 2.9517 0
M  V30 5069 H 484.491 2.11994 0.131301 0
M  V30 5070 H 486.754 0.940262 0.120879 0
M  V30 5071 H 486.46 3.36317 1.02878 0
M  V30 5072 H 486.334 2.68989 2.64433 0
M  V30 5073 H 488.721 1.73126 2.3898 0
M  V30 5074 H 488.802 2.43928 0.770241 0
M  V30 5075 H 488.446 4.75368 1.78852 0
M  V30 5076 H 488.376 4.01454 3.40796 0
M  V30 5077 H 490.867 3.12563 2.12397 0
M  V30 5078 H 491.18 6.72236 3.81207 0
M  V30 5079 H 489.525 6.04217 3.43434 0
M  V30 5080 H 492.716 3.91841 2.56082 0
M  V30 5081 H 492.889 5.55843 3.33081 0
M  V30 5082 N 486.295 -0.989507 1.22664 0
M  V30 5083 C 487.258 -2.06183 1.00106 0
M  V30 5084 C 488.258 -1.60765 -0.0337726 0
M  V30 5085 O 489.448 -1.72989 0.205072 0
M  V30 5086 C 486.58 -3.37021 0.51279 0
M  V30 5087 H 487.773 -2.27629 1.95256 0
M  V30 5088 H 485.326 -1.16158 1.0458 0
M  V30 5089 H 486.061 -3.21261 -0.442917 0
M  V30 5090 H 485.846 -3.71323 1.25942 0
M  V30 5091 H 487.336 -4.1591 0.375315 0
M  V30 5092 N 487.773 -1.03688 -1.18687 0
M  V30 5093 C 488.703 -0.645407 -2.24403 0
M  V30 5094 C 489.684 0.349511 -1.66471 0
M  V30 5095 O 490.869 0.230453 -1.92828 0
M  V30 5096 C 487.999 -0.00365337 -3.473 0
M  V30 5097 C 486.953 -0.921705 -4.17958 0
M  V30 5098 C 486.279 -0.144629 -5.34504 0
M  V30 5099 C 487.579 -2.23909 -4.71871 0
M  V30 5100 H 489.273 -1.52917 -2.57404 0
M  V30 5101 H 486.819 -0.736711 -1.23728 0
M  V30 5102 H 488.772 0.281908 -4.20456 0
M  V30 5103 H 487.496 0.914963 -3.13522 0
M  V30 5104 H 486.155 -1.19159 -3.46694 0
M  V30 5105 H 485.803 0.776274 -4.96974 0
M  V30 5106 H 485.503 -0.756206 -5.82714 0
M  V30 5107 H 487.027 0.134004 -6.10453 0
M  V30 5108 H 488.441 -2.0145 -5.36741 0
M  V30 5109 H 486.838 -2.8033 -5.30599 0
M  V30 5110 H 487.908 -2.88822 -3.895 0
M  V30 5111 N 489.251 1.34841 -0.815825 0
M  V30 5112 C 490.499 1.98107 -0.399744 0
M  V30 5113 C 490.82 1.65019 1.03894 0
M  V30 5114 O 490.09 0.937311 1.72021 0
M  V30 5115 H 488.67 0.732827 -0.144823 0
M  V30 5116 H 491.332 1.64599 -1.0437 0
M  V30 5117 H 490.428 3.07856 -0.512965 0
M  V30 5118 N 490.729 0.570148 1.46925 0
M  V30 5119 C 492.145 0.23087 1.57921 0
M  V30 5120 C 492.345 -1.26676 1.56702 0
M  V30 5121 O 491.401 -2.04774 1.47729 0
M  V30 5122 C 492.714 0.868973 2.8787 0
M  V30 5123 C 494.262 0.841397 3.01479 0
M  V30 5124 C 494.737 1.45881 4.34146 0
M  V30 5125 N 496.228 1.42258 4.40814 0
M  V30 5126 C 496.963 1.8698 5.42057 0
M  V30 5127 N 496.459 2.39618 6.50042 0
M  V30 5128 N 498.252 1.77972 5.33181 0
M  V30 5129 H 490.403 1.54301 1.45962 0
M  V30 5130 H 492.666 0.644224 0.69547 0
M  V30 5131 H 492.372 1.922 2.94537 0
M  V30 5132 H 492.246 0.369682 3.75384 0
M  V30 5133 H 494.633 -0.202973 2.94401 0
M  V30 5134 H 494.714 1.37858 2.15474 0
M  V30 5135 H 494.358 2.50231 4.4198 0
M  V30 5136 H 494.288 0.896958 5.18905 0
M  V30 5137 H 496.779 1.03768 3.63374 0
M  V30 5138 H 497.092 2.71633 7.23488 0
M  V30 5139 H 495.437 2.43636 6.50897 0
M  V30 5140 H 498.628 1.36617 4.4772 0
M  V30 5141 H 498.801 2.13143 6.11943 0
M  V30 5142 N 492.207 -1.54576 0.307264 0
M  V30 5143 C 493.454 -2.00263 -0.300167 0
M  V30 5144 C 493.782 -1.19561 -1.53413 0
M  V30 5145 O 493.037 -0.261487 -1.93945 0
M  V30 5146 C 493.336 -3.50572 -0.695253 0
M  V30 5147 C 493.002 -4.48771 0.437679 0
M  V30 5148 C 491.664 -4.7534 0.748681 0
M  V30 5149 C 494.016 -5.0721 1.19949 0
M  V30 5150 C 491.344 -5.5761 1.8245 0
M  V30 5151 C 493.696 -5.90651 2.26527 0
M  V30 5152 C 492.36 -6.15528 2.58227 0
M  V30 5153 H 491.63 -0.732814 -0.109839 0
M  V30 5154 H 494.277 -1.86664 0.427661 0
M  V30 5155 H 492.582 -3.61814 -1.50326 0
M  V30 5156 H 494.279 -3.83352 -1.17653 0
M  V30 5157 H 490.869 -4.282 0.185187 0
M  V30 5158 H 495.053 -4.86679 0.972474 0
M  V30 5159 H 490.309 -5.75121 2.07476 0
M  V30 5160 H 494.483 -6.34957 2.86011 0
M  V30 5161 H 492.11 -6.79066 3.4172 0
M  V30 5162 N 493.685 -0.035106 -1.57561 0
M  V30 5163 C 494.615 0.942993 -2.13612 0
M  V30 5164 C 495.596 1.33531 -1.05373 0
M  V30 5165 O 496.781 1.41287 -1.33235 0
M  V30 5166 C 493.911 2.22332 -2.66807 0
M  V30 5167 C 492.865 1.97156 -3.79886 0
M  V30 5168 C 492.191 3.31506 -4.19533 0
M  V30 5169 C 493.491 1.30596 -5.05709 0
M  V30 5170 H 495.185 0.476179 -2.95589 0
M  V30 5171 H 492.731 0.227602 -1.4219 0
M  V30 5172 H 494.684 2.91142 -3.04654 0
M  V30 5173 H 493.408 2.7119 -1.81999 0
M  V30 5174 H 492.067 1.30763 -3.42486 0
M  V30 5175 H 491.715 3.78134 -3.31698 0
M  V30 5176 H 491.415 3.15465 -4.95738 0
M  V30 5177 H 492.939 4.01574 -4.59968 0
M  V30 5178 H 494.353 1.89416 -5.41105 0
M  V30 5179 H 492.75 1.24934 -5.86951 0
M  V30 5180 H 493.82 0.279742 -4.84092 0
M  V30 5181 N 495.163 1.55791 0.238111 0
M  V30 5182 C 496.574 1.68383 0.806472 0
M  V30 5183 C 496.925 0.634157 1.85669 0
M  V30 5184 O 496.05 -0.217913 2.153 0
M  V30 5185 C 496.645 3.05268 1.46959 0
M  V30 5186 C 495.204 3.1977 1.98555 0
M  V30 5187 C 494.351 2.64279 0.839763 0
M  V30 5188 H 497.302 1.58694 0.0137535 0
M  V30 5189 H 497.323 3.00203 2.33792 0
M  V30 5190 H 496.835 3.81643 0.704993 0
M  V30 5191 H 494.936 2.48234 2.77868 0
M  V30 5192 H 495.049 4.26788 2.17689 0
M  V30 5193 H 493.413 2.22329 1.24265 0
M  V30 5194 H 494.196 3.43187 0.0881032 0
M  V30 5195 N 496.642 -0.504142 1.49319 0
M  V30 5196 C 497.882 -1.26867 1.60263 0
M  V30 5197 C 498.246 -1.89924 0.281578 0
M  V30 5198 O 499.447 -2.67479 0.266176 0
M  V30 5199 C 497.718 -2.30956 2.72753 0
M  V30 5200 S 499.277 -3.1679 3.03628 0
M  V30 5201 H 496.095 -0.431198 0.565322 0
M  V30 5202 H 498.697 -0.571407 1.86963 0
M  V30 5203 H 497.401 -1.83156 3.67263 0
M  V30 5204 H 496.932 -3.05356 2.48035 0
M  V30 5205 H 498.947 -4.31549 2.44908 0
M  V30 5206 N 498.12 -1.38341 -0.754957 0
M  V30 5207 C 499.531 -1.30803 -1.3322 0
M  V30 5208 C 499.882 0.0368 -1.96165 0
M  V30 5209 O 499.007 0.938844 -1.94974 0
M  V30 5210 C 499.602 -2.3688 -2.42225 0
M  V30 5211 C 498.161 -2.32925 -2.95674 0
M  V30 5212 C 497.308 -2.19819 -1.69042 0
M  V30 5213 H 500.259 -1.48719 -0.553937 0
M  V30 5214 H 500.28 -2.02517 -3.22129 0
M  V30 5215 H 499.792 -3.34747 -1.96383 0
M  V30 5216 H 497.893 -1.38635 -3.45848 0
M  V30 5217 H 498.006 -3.27008 -3.50146 0
M  V30 5218 H 496.37 -1.66648 -1.92615 0
M  V30 5219 H 497.153 -3.19625 -1.25279 0
M  V30 5220 N 499.598 0.982988 -1.23187 0
M  V30 5221 C 501.014 1.2487 -0.993967 0
M  V30 5222 C 501.214 1.99155 0.306498 0
M  V30 5223 O 500.27 2.30688 1.0266 0
M  V30 5224 C 501.583 2.05078 -2.19917 0
M  V30 5225 C 503.131 2.18227 -2.2438 0
M  V30 5226 C 503.606 3.01825 -3.44479 0
M  V30 5227 N 505.097 3.09411 -3.44702 0
M  V30 5228 C 505.832 3.74412 -4.34285 0
M  V30 5229 N 505.328 4.41259 -5.341 0
M  V30 5230 N 507.121 3.71273 -4.22035 0
M  V30 5231 H 499.272 0.485253 -2.06783 0
M  V30 5232 H 501.535 0.276979 -0.906635 0
M  V30 5233 H 501.241 1.57867 -3.14279 0
M  V30 5234 H 501.115 3.05829 -2.2079 0
M  V30 5235 H 503.502 2.64648 -1.30559 0
M  V30 5236 H 503.583 1.16873 -2.2754 0
M  V30 5237 H 503.227 2.56102 -4.38605 0
M  V30 5238 H 503.157 4.03342 -3.38559 0
M  V30 5239 H 505.648 2.61845 -2.7248 0
M  V30 5240 H 505.961 4.88629 -5.98717 0
M  V30 5241 H 504.306 4.39975 -5.38002 0
M  V30 5242 H 507.497 3.18217 -3.43301 0
M  V30 5243 H 507.67 4.21649 -4.92053 0
M  V30 5244 N 501.076 1.04316 1.18135 0
M  V30 5245 C 502.316 0.756937 1.89868 0
M  V30 5246 C 502.68 -0.702609 1.78682 0
M  V30 5247 O 503.881 -1.10255 2.45148 0
M  V30 5248 C 502.152 1.21327 3.36176 0
M  V30 5249 S 503.711 1.05307 4.25976 0
M  V30 5250 H 500.529 0.275143 0.655604 0
M  V30 5251 H 503.131 1.33597 1.42731 0
M  V30 5252 H 501.835 2.27086 3.41848 0
M  V30 5253 H 501.366 0.628137 3.88353 0
M  V30 5254 H 503.381 -0.0280093 4.96192 0
M  V30 5255 N 502.554 -1.34406 0.822964 0
M  V30 5256 C 503.965 -1.8069 0.469879 0
M  V30 5257 C 504.316 -1.68223 -1.00972 0
M  V30 5258 O 503.441 -1.22226 -1.78577 0
M  V30 5259 C 504.036 -3.28064 0.846118 0
M  V30 5260 C 502.595 -3.72428 0.545402 0
M  V30 5261 C 501.742 -2.56116 1.06301 0
M  V30 5262 H 504.693 -1.22153 1.01313 0
M  V30 5263 H 504.714 -3.80205 0.149922 0
M  V30 5264 H 504.226 -3.37107 1.92304 0
M  V30 5265 H 502.327 -3.68924 -0.522109 0
M  V30 5266 H 502.44 -4.66548 1.0895 0
M  V30 5267 H 500.804 -2.50048 0.484554 0
M  V30 5268 H 501.587 -2.67928 2.14638 0
M  V30 5269 N 504.032 -0.577932 -1.46621 0
M  V30 5270 C 505.448 -0.239242 -1.57797 0
M  V30 5271 C 505.648 1.25843 -1.57371 0
M  V30 5272 O 504.704 2.03988 -1.48813 0
M  V30 5273 C 506.017 -0.884227 -2.87405 0
M  V30 5274 C 507.565 -0.857373 -3.01028 0
M  V30 5275 C 508.04 -1.48181 -4.33366 0
M  V30 5276 N 509.531 -1.44593 -4.40053 0
M  V30 5277 C 510.266 -1.89852 -5.41058 0
M  V30 5278 N 509.762 -2.43062 -6.48762 0
M  V30 5279 N 511.555 -1.80797 -5.3223 0
M  V30 5280 H 503.706 -1.55073 -1.45142 0
M  V30 5281 H 505.969 -0.647903 -0.692044 0
M  V30 5282 H 505.675 -1.93759 -2.93514 0
M  V30 5283 H 505.549 -0.389585 -3.75183 0
M  V30 5284 H 507.936 0.187357 -2.94505 0
M  V30 5285 H 508.017 -1.38999 -2.14739 0
M  V30 5286 H 507.661 -2.52572 -4.40647 0
M  V30 5287 H 507.591 -0.924464 -5.18422 0
M  V30 5288 H 510.082 -1.05694 -3.62819 0
M  V30 5289 H 510.395 -2.75466 -7.22038 0
M  V30 5290 H 508.74 -2.47085 -6.49595 0
M  V30 5291 H 511.931 -1.38989 -4.46989 0
M  V30 5292 H 512.104 -2.16385 -6.10804 0
M  V30 5293 N 505.51 1.54411 -0.315457 0
M  V30 5294 C 506.42 2.27737 0.56329 0
M  V30 5295 C 507.436 1.31787 1.13614 0
M  V30 5296 O 508.612 1.64791 1.15784 0
M  V30 5297 C 505.677 3.01478 1.71207 0
M  V30 5298 C 504.738 4.12997 1.17185 0
M  V30 5299 C 503.971 4.83212 2.26588 0
M  V30 5300 O 504.194 4.52884 3.46775 0
M  V30 5301 O 503.128 5.70299 1.92463 0
M  V30 5302 H 506.954 3.03683 -0.0319614 0
M  V30 5303 H 504.539 1.49178 -0.0814188 0
M  V30 5304 H 506.421 3.47683 2.38106 0
M  V30 5305 H 505.096 2.28414 2.29366 0
M  V30 5306 H 504.003 3.71159 0.468174 0
M  V30 5307 H 505.336 4.8808 0.635501 0
M  V30 5308 N 506.988 0.0434614 1.5754 0
M  V30 5309 C 508.404 -0.313039 1.565 0
M  V30 5310 C 508.604 -1.71954 1.05043 0
M  V30 5311 O 507.66 -2.425 0.703564 0
M  V30 5312 C 508.973 -0.148544 3.00333 0
M  V30 5313 C 510.521 -0.220231 3.12224 0
M  V30 5314 C 510.996 -0.0843565 4.57922 0
M  V30 5315 N 512.487 -0.140881 4.62986 0
M  V30 5316 C 513.222 -0.0597443 5.73369 0
M  V30 5317 N 512.718 0.0733004 6.92761 0
M  V30 5318 N 514.511 -0.11477 5.61983 0
M  V30 5319 H 506.662 0.96303 1.89313 0
M  V30 5320 H 508.925 0.373164 0.871466 0
M  V30 5321 H 508.631 0.820894 3.41986 0
M  V30 5322 H 508.505 -0.912798 3.65989 0
M  V30 5323 H 510.892 -1.18014 2.70475 0
M  V30 5324 H 510.973 0.574646 2.49262 0
M  V30 5325 H 510.617 0.872192 5.00355 0
M  V30 5326 H 510.547 -0.898281 5.18882 0
M  V30 5327 H 513.038 -0.243273 3.77116 0
M  V30 5328 H 513.351 0.128128 7.72694 0
M  V30 5329 H 511.696 0.10828 6.94916 0
M  V30 5330 H 514.887 -0.217212 4.67596 0
M  V30 5331 H 515.06 -0.0480779 6.47982 0
M  V30 5332 N 508.466 -1.55915 -0.229846 0
M  V30 5333 C 509.398 -1.88209 -1.30805 0
M  V30 5334 C 510.411 -0.769672 -1.43457 0
M  V30 5335 O 511.6 -1.04792 -1.44502 0
M  V30 5336 C 508.7 -2.06829 -2.68468 0
M  V30 5337 C 507.873 -3.37798 -2.77869 0
M  V30 5338 C 506.932 -3.45952 -3.96489 0
M  V30 5339 O 505.958 -4.19043 -3.85216 0
M  V30 5340 N 507.16 -2.76488 -5.10426 0
M  V30 5341 H 509.925 -2.81286 -1.03431 0
M  V30 5342 H 507.486 -1.5636 -0.41991 0
M  V30 5343 H 509.478 -2.09608 -3.46189 0
M  V30 5344 H 508.048 -1.20416 -2.88477 0
M  V30 5345 H 507.268 -3.4719 -1.86689 0
M  V30 5346 H 508.556 -4.24091 -2.81113 0
M  V30 5347 H 507.954 -2.16868 -5.2248 0
M  V30 5348 H 506.511 -2.84938 -5.8622 0
M  V30 5349 N 509.944 0.496216 -1.49584 0
M  V30 5350 C 510.907 1.57952 -1.66084 0
M  V30 5351 C 511.907 1.51729 -0.53244 0
M  V30 5352 O 513.097 1.54796 -0.79899 0
M  V30 5353 C 510.229 2.97604 -1.66268 0
M  V30 5354 H 511.422 1.44649 -2.6271 0
M  V30 5355 H 508.975 0.7208 -1.38687 0
M  V30 5356 H 509.71 3.16378 -0.712432 0
M  V30 5357 H 509.495 3.03528 -2.4822 0
M  V30 5358 H 510.985 3.76301 -1.81073 0
M  V30 5359 N 511.423 1.38739 0.74761 0
M  V30 5360 C 512.648 1.38702 1.54197 0
M  V30 5361 C 513.073 -0.019664 1.8809 0
M  V30 5362 O 512.431 -1.00333 1.51006 0
M  V30 5363 C 512.479 2.25492 2.814 0
M  V30 5364 O 511.583 1.67613 3.76802 0
M  V30 5365 H 510.924 0.472863 0.466151 0
M  V30 5366 H 513.454 1.82577 0.923413 0
M  V30 5367 H 513.464 2.39561 3.30264 0
M  V30 5368 H 512.139 3.27727 2.56062 0
M  V30 5369 H 510.716 1.62718 3.35526 0
M  V30 5370 N 512.901 -0.976442 1.23707 0
M  V30 5371 C 513.831 -2.08749 1.04624 0
M  V30 5372 C 514.812 -1.70057 -0.0380956 0
M  V30 5373 O 515.997 -1.93782 0.127308 0
M  V30 5374 C 513.127 -3.41335 0.640902 0
M  V30 5375 C 512.081 -3.93947 1.67302 0
M  V30 5376 C 511.407 -5.22774 1.12301 0
M  V30 5377 C 512.707 -4.22769 3.06697 0
M  V30 5378 H 514.401 -2.24972 1.97555 0
M  V30 5379 H 511.947 -1.08108 0.951247 0
M  V30 5380 H 513.9 -4.18489 0.494434 0
M  V30 5381 H 512.624 -3.24988 -0.324099 0
M  V30 5382 H 511.283 -3.18941 1.80755 0
M  V30 5383 H 510.931 -5.0278 0.148877 0
M  V30 5384 H 510.631 -5.58942 1.81267 0
M  V30 5385 H 512.155 -6.02546 0.988479 0
M  V30 5386 H 513.569 -4.90659 2.96524 0
M  V30 5387 H 511.966 -4.70147 3.72937 0
M  V30 5388 H 513.036 -3.29885 3.55392 0
M  V30 5389 N 514.379 -1.04941 -1.1758 0
M  V30 5390 C 515.342 -0.652456 -2.19717 0
M  V30 5391 C 516.342 0.294745 -1.58076 0
M  V30 5392 O 517.532 0.0789579 -1.74021 0
M  V30 5393 C 514.664 0.0420712 -3.40874 0
M  V30 5394 H 515.857 -1.55642 -2.5635 0
M  V30 5395 H 513.41 -0.842995 -1.31618 0
M  V30 5396 H 514.145 0.95943 -3.09783 0
M  V30 5397 H 513.93 -0.638844 -3.86861 0
M  V30 5398 H 515.42 0.306 -4.16477 0
M  V30 5399 N 515.857 1.33968 -0.830081 0
M  V30 5400 C 517.082 2.02813 -0.433796 0
M  V30 5401 C 517.507 1.62076 0.954614 0
M  V30 5402 O 516.865 0.808955 1.62252 0
M  V30 5403 C 516.913 3.56348 -0.552115 0
M  V30 5404 O 516.017 4.10202 0.425191 0
M  V30 5405 H 515.358 0.639817 -0.177567 0
M  V30 5406 H 517.888 1.7106 -1.12248 0
M  V30 5407 H 517.898 4.05722 -0.430513 0
M  V30 5408 H 516.573 3.85344 -1.56471 0
M  V30 5409 H 515.15 3.71979 0.261878 0
M  V30 5410 N 517.335 0.585699 1.46312 0
M  V30 5411 C 518.746 0.159938 1.86014 0
M  V30 5412 C 519.097 -1.27775 1.48889 0
M  V30 5413 O 518.222 -1.96559 0.90519 0
M  V30 5414 C 518.817 0.283485 3.37612 0
M  V30 5415 C 517.376 -0.0874256 3.76298 0
M  V30 5416 C 516.523 0.618055 2.70325 0
M  V30 5417 H 519.474 0.793737 1.37425 0
M  V30 5418 H 519.495 -0.490348 3.77327 0
M  V30 5419 H 519.007 1.32995 3.64601 0
M  V30 5420 H 517.108 -1.13391 3.54927 0
M  V30 5421 H 517.221 0.290975 4.78216 0
M  V30 5422 H 515.585 0.057993 2.54634 0
M  V30 5423 H 516.368 1.66623 3.00153 0
M  V30 5424 N 518.813 -1.54241 0.323641 0
M  V30 5425 C 520.038 -2.05452 -0.283605 0
M  V30 5426 C 520.463 -1.19823 -1.44997 0
M  V30 5427 O 519.821 -0.207358 -1.8011 0
M  V30 5428 C 519.869 -3.53823 -0.695795 0
M  V30 5429 O 518.973 -3.71134 -1.79815 0
M  V30 5430 H 518.314 -0.662024 -0.0511917 0
M  V30 5431 H 520.844 -1.99079 0.472073 0
M  V30 5432 H 520.854 -3.96094 -0.978434 0
M  V30 5433 H 519.529 -4.15602 0.157287 0
M  V30 5434 H 518.106 -3.40768 -1.51431 0
M  V30 5435 N 520.291 -0.0518155 -1.57515 0
M  V30 5436 C 521.221 0.920283 -2.146 0
M  V30 5437 C 522.202 1.32406 -1.06783 0
M  V30 5438 O 523.387 1.39866 -1.34726 0
M  V30 5439 C 520.517 2.1949 -2.6915 0
M  V30 5440 C 519.471 1.93116 -3.81956 0
M  V30 5441 C 518.797 3.27037 -4.23026 0
M  V30 5442 C 520.097 1.25225 -5.07066 0
M  V30 5443 H 521.791 0.444801 -2.96077 0
M  V30 5444 H 519.337 0.212508 -1.42423 0
M  V30 5445 H 521.29 2.87894 -3.07725 0
M  V30 5446 H 520.014 2.69244 -1.84865 0
M  V30 5447 H 518.673 1.27123 -3.43854 0
M  V30 5448 H 518.321 3.74595 -3.3569 0
M  V30 5449 H 518.021 3.10189 -4.99056 0
M  V30 5450 H 519.545 3.96673 -4.64202 0
M  V30 5451 H 520.959 1.83666 -5.43083 0
M  V30 5452 H 519.356 1.18702 -5.88243 0
M  V30 5453 H 520.426 0.228382 -4.84362 0
M  V30 5454 N 521.769 1.56035 0.221574 0
M  V30 5455 C 523.185 1.49026 0.571271 0
M  V30 5456 C 523.385 0.746912 1.87146 0
M  V30 5457 O 522.441 0.286566 2.50869 0
M  V30 5458 C 523.754 2.93579 0.650522 0
M  V30 5459 C 525.302 3.04099 0.741151 0
M  V30 5460 C 525.777 4.5001 0.851747 0
M  V30 5461 N 527.268 4.54053 0.915968 0
M  V30 5462 C 528.003 5.64232 1.02125 0
M  V30 5463 N 527.499 6.84164 1.09049 0
M  V30 5464 N 529.292 5.52084 1.05639 0
M  V30 5465 H 521.443 2.02791 -0.63162 0
M  V30 5466 H 523.706 0.921736 -0.221602 0
M  V30 5467 H 523.412 3.50912 -0.235253 0
M  V30 5468 H 523.286 3.45476 1.51413 0
M  V30 5469 H 525.673 2.4683 1.61737 0
M  V30 5470 H 525.754 2.55371 -0.148128 0
M  V30 5471 H 525.398 5.07896 -0.0200117 0
M  V30 5472 H 525.328 4.96444 1.75644 0
M  V30 5473 H 527.819 3.67683 0.872782 0
M  V30 5474 H 528.132 7.63883 1.1706 0
M  V30 5475 H 526.477 6.86875 1.05962 0
M  V30 5476 H 529.668 4.57317 0.998953 0
M  V30 5477 H 529.841 6.37983 1.13498 0
M  V30 5478 N 523.247 -0.488276 1.49845 0
M  V30 5479 C 524.475 -1.26527 1.63702 0
M  V30 5480 C 524.89 -1.8618 0.313447 0
M  V30 5481 O 524.247 -1.68432 -0.702624 0
M  V30 5482 C 524.298 -2.3864 2.71538 0
M  V30 5483 O 524.019 -1.81437 3.98763 0
M  V30 5484 C 525.52 -3.29805 2.96215 0
M  V30 5485 H 522.74 -0.383295 0.55075 0
M  V30 5486 H 525.284 -0.584779 1.95961 0
M  V30 5487 H 523.439 -3.02496 2.42023 0
M  V30 5488 H 523.853 -2.55135 4.58265 0
M  V30 5489 H 525.327 -4.04722 3.75372 0
M  V30 5490 H 525.804 -3.87563 2.06619 0
M  V30 5491 H 526.41 -2.71703 3.27196 0
M  V30 5492 N 524.725 -1.39134 -0.740242 0
M  V30 5493 C 525.95 -1.39518 -1.53459 0
M  V30 5494 C 526.375 0.00968883 -1.88098 0
M  V30 5495 O 525.733 0.995312 -1.51536 0
M  V30 5496 C 525.781 -2.26981 -2.802 0
M  V30 5497 O 524.885 -1.69609 -3.75908 0
M  V30 5498 H 524.226 -0.475328 -0.463637 0
M  V30 5499 H 526.756 -1.83064 -0.913717 0
M  V30 5500 H 526.766 -2.41309 -3.28989 0
M  V30 5501 H 525.441 -3.29081 -2.5432 0
M  V30 5502 H 524.018 -1.64495 -3.34658 0
M  V30 5503 N 526.204 0.969867 -1.24223 0
M  V30 5504 C 527.154 2.04913 -0.999732 0
M  V30 5505 C 528.138 1.60795 0.0580636 0
M  V30 5506 O 529.33 1.76317 -0.155392 0
M  V30 5507 C 526.459 3.37942 -0.604154 0
M  V30 5508 C 525.545 3.88628 -1.69791 0
M  V30 5509 N 525.936 4.12274 -2.93025 0
M  V30 5510 C 524.234 4.17268 -1.57492 0
M  V30 5511 C 524.935 4.53808 -3.63914 0
M  V30 5512 N 523.911 4.58855 -2.91468 0
M  V30 5513 H 527.713 2.21168 -1.93551 0
M  V30 5514 H 525.227 1.15349 -1.14317 0
M  V30 5515 H 527.224 4.14863 -0.411665 0
M  V30 5516 H 525.884 3.23075 0.324465 0
M  V30 5517 H 526.895 3.99789 -3.29225 0
M  V30 5518 H 523.572 4.11346 -0.714175 0
M  V30 5519 H 524.962 4.80534 -4.69614 0
M  V30 5520 N 527.682 1.05563 1.17022 0
M  V30 5521 C 528.907 0.788437 1.91829 0
M  V30 5522 C 529.332 -0.650356 1.76499 0
M  V30 5523 O 528.69 -1.45229 1.08527 0
M  V30 5524 C 528.738 1.1786 3.40795 0
M  V30 5525 O 527.842 0.312965 4.11211 0
M  V30 5526 H 527.183 0.288794 0.597908 0
M  V30 5527 H 529.713 1.40948 1.48307 0
M  V30 5528 H 529.723 1.14697 3.91546 0
M  V30 5529 H 528.398 2.22666 3.51273 0
M  V30 5530 H 526.975 0.405515 3.70689 0
M  V30 5531 N 529.16 -1.33526 0.837174 0
M  V30 5532 C 530.408 -1.97446 0.431211 0
M  V30 5533 C 530.729 -1.6665 -1.01255 0
M  V30 5534 O 529.999 -0.964559 -1.70508 0
M  V30 5535 H 528.579 -0.73043 0.156463 0
M  V30 5536 H 531.241 -1.62918 1.06976 0
M  V30 5537 H 530.337 -3.07001 0.561877 0
M  V30 5538 N 530.638 -0.59345 -1.46 0
M  V30 5539 C 532.049 -0.169801 -1.85926 0
M  V30 5540 C 532.4 1.26984 -1.49565 0
M  V30 5541 O 531.525 1.96076 -0.915602 0
M  V30 5542 C 532.12 -0.301385 -3.37457 0
M  V30 5543 C 530.679 0.0674684 -3.7634 0
M  V30 5544 C 529.826 -0.632383 -2.69993 0
M  V30 5545 H 532.777 -0.801014 -1.37002 0
M  V30 5546 H 532.798 0.470331 -3.77582 0
M  V30 5547 H 532.31 -1.34927 -3.63891 0
M  V30 5548 H 530.411 1.11507 -3.55523 0
M  V30 5549 H 530.524 -0.316332 -4.78055 0
M  V30 5550 H 528.888 -0.0714961 -2.546 0
M  V30 5551 H 529.671 -1.68212 -2.99265 0
M  V30 5552 N 532.116 1.54067 -0.331816 0
M  V30 5553 C 533.532 1.59587 0.0205388 0
M  V30 5554 C 533.732 1.34813 1.49759 0
M  V30 5555 O 532.788 1.13661 2.25471 0
M  V30 5556 C 534.101 2.97959 -0.405103 0
M  V30 5557 C 535.649 3.10964 -0.356454 0
M  V30 5558 C 536.124 4.51694 -0.757384 0
M  V30 5559 N 537.615 4.57709 -0.71111 0
M  V30 5560 C 538.35 5.64729 -0.993427 0
M  V30 5561 N 537.846 6.79652 -1.3433 0
M  V30 5562 N 539.639 5.54546 -0.918442 0
M  V30 5563 H 531.79 1.68426 -1.29407 0
M  V30 5564 H 534.053 0.78819 -0.526745 0
M  V30 5565 H 533.759 3.21115 -1.43451 0
M  V30 5566 H 533.633 3.76524 0.225692 0
M  V30 5567 H 536.02 2.87538 0.663763 0
M  V30 5568 H 536.101 2.34484 -1.02229 0
M  V30 5569 H 535.745 4.75853 -1.77555 0
M  V30 5570 H 535.675 5.26555 -0.0691444 0
M  V30 5571 H 538.166 3.75176 -0.452883 0
M  V30 5572 H 538.479 7.57221 -1.54388 0
M  V30 5573 H 536.824 6.81128 -1.38164 0
M  V30 5574 H 540.015 4.63641 -0.644536 0
M  V30 5575 H 540.188 6.37861 -1.14181 0
M  V30 5576 N 533.594 0.0601682 1.57485 0
M  V30 5577 C 535.005 -0.474217 1.80577 0
M  V30 5578 C 535.356 -1.70365 0.973147 0
M  V30 5579 O 534.481 -2.15544 0.192306 0
M  V30 5580 C 535.076 -0.867102 3.27516 0
M  V30 5581 C 533.635 -1.34642 3.51495 0
M  V30 5582 C 532.782 -0.32594 2.75378 0
M  V30 5583 H 535.733 0.285973 1.56102 0
M  V30 5584 H 535.754 -1.72938 3.38929 0
M  V30 5585 H 535.266 0.0278927 3.8809 0
M  V30 5586 H 533.367 -2.2603 2.96212 0
M  V30 5587 H 533.48 -1.33237 4.60201 0
M  V30 5588 H 531.844 -0.800749 2.41785 0
M  V30 5589 H 532.627 0.561125 3.38683 0
M  V30 5590 N 535.072 -1.5615 -0.213296 0
M  V30 5591 C 536.32 -1.79191 -0.934612 0
M  V30 5592 C 536.641 -0.630112 -1.84539 0
M  V30 5593 O 535.911 0.35257 -1.92701 0
M  V30 5594 H 534.491 -0.660937 -0.348097 0
M  V30 5595 H 537.153 -1.93618 -0.22317 0
M  V30 5596 H 536.249 -2.71656 -1.53654 0
M  V30 5597 N 536.55 0.480323 -1.50102 0
M  V30 5598 C 537.48 1.58769 -1.71215 0
M  V30 5599 C 538.461 1.60583 -0.560997 0
M  V30 5600 O 539.646 1.76996 -0.799127 0
M  V30 5601 C 536.776 2.97148 -1.79778 0
M  V30 5602 C 535.73 3.10201 -2.94888 0
M  V30 5603 C 535.056 4.50137 -2.88584 0
M  V30 5604 C 536.356 2.88283 -4.35534 0
M  V30 5605 H 538.05 1.41354 -2.6393 0
M  V30 5606 H 535.596 0.678591 -1.27008 0
M  V30 5607 H 537.549 3.74536 -1.93133 0
M  V30 5608 H 536.273 3.15699 -0.836772 0
M  V30 5609 H 534.932 2.35244 -2.81169 0
M  V30 5610 H 534.58 4.65593 -1.90349 0
M  V30 5611 H 534.28 4.59808 -3.65856 0
M  V30 5612 H 535.804 5.29558 -3.03976 0
M  V30 5613 H 537.218 3.55427 -4.49827 0
M  V30 5614 H 535.615 3.09408 -5.14186 0
M  V30 5615 H 536.685 1.84219 -4.48544 0
M  V30 5616 N 538.028 1.39524 0.732853 0
M  V30 5617 C 539.253 1.40329 1.52717 0
M  V30 5618 C 539.678 0.000286574 1.881 0
M  V30 5619 O 539.036 -0.987262 1.52062 0
M  V30 5620 C 539.084 2.28464 2.78992 0
M  V30 5621 O 538.188 1.716 3.75003 0
M  V30 5622 H 537.529 0.47778 0.461109 0
M  V30 5623 H 540.059 1.83546 0.903996 0
M  V30 5624 H 540.069 2.43051 3.27705 0
M  V30 5625 H 538.744 3.30425 2.52572 0
M  V30 5626 H 537.321 1.66267 3.33781 0
M  V30 5627 N 539.506 -0.963266 1.24736 0
M  V30 5628 C 540.436 -2.07628 1.06832 0
M  V30 5629 C 541.417 -1.70088 -0.0200566 0
M  V30 5630 O 542.602 -1.93636 0.147854 0
M  V30 5631 C 539.732 -3.40636 0.677069 0
M  V30 5632 C 538.686 -3.9215 1.71471 0
M  V30 5633 C 538.012 -5.21553 1.1784 0
M  V30 5634 C 539.312 -4.19493 3.11164 0
M  V30 5635 H 541.006 -2.22864 1.9993 0
M  V30 5636 H 538.552 -1.07093 0.96266 0
M  V30 5637 H 540.505 -4.17941 0.538792 0
M  V30 5638 H 539.229 -3.25313 -0.289612 0
M  V30 5639 H 537.888 -3.17005 1.84128 0
M  V30 5640 H 537.536 -5.02593 0.202195 0
M  V30 5641 H 537.236 -5.56988 1.87185 0
M  V30 5642 H 538.76 -6.01463 1.05233 0
M  V30 5643 H 540.174 -4.87487 3.01711 0
M  V30 5644 H 538.571 -4.66165 3.77902 0
M  V30 5645 H 539.641 -3.26097 3.58871 0
M  V30 5646 N 540.985 -1.06182 -1.16461 0
M  V30 5647 C 541.917 -0.629584 -2.20383 0
M  V30 5648 C 542.93 0.311834 -1.59786 0
M  V30 5649 O 544.119 0.103 -1.78203 0
M  V30 5650 C 541.219 0.0973695 -3.3876 0
M  V30 5651 C 540.392 -0.857252 -4.28917 0
M  V30 5652 C 539.451 -0.169749 -5.25926 0
M  V30 5653 O 538.477 -0.807044 -5.6345 0
M  V30 5654 N 539.679 1.08911 -5.70192 0
M  V30 5655 H 542.444 -1.52352 -2.58087 0
M  V30 5656 H 540.005 -0.944993 -1.31459 0
M  V30 5657 H 541.997 0.567676 -4.00699 0
M  V30 5658 H 540.567 0.893093 -2.99571 0
M  V30 5659 H 539.787 -1.50696 -3.64259 0
M  V30 5660 H 541.075 -1.50489 -4.86035 0
M  V30 5661 H 540.473 1.62703 -5.41797 0
M  V30 5662 H 539.03 1.50331 -6.34227 0
M  V30 5663 N 542.463 1.3308 -0.844243 0
M  V30 5664 C 543.395 2.27954 -0.238671 0
M  V30 5665 C 544.408 1.51978 0.583665 0
M  V30 5666 O 545.597 1.73731 0.409857 0
M  V30 5667 C 542.697 3.31963 0.682185 0
M  V30 5668 C 541.87 4.37281 -0.101998 0
M  V30 5669 C 540.929 5.20928 0.743022 0
M  V30 5670 O 539.955 5.68914 0.180285 0
M  V30 5671 N 541.157 5.42738 2.0595 0
M  V30 5672 H 543.922 2.8056 -1.05386 0
M  V30 5673 H 541.483 1.4583 -0.70322 0
M  V30 5674 H 543.475 3.84828 1.25259 0
M  V30 5675 H 542.045 2.79594 1.39808 0
M  V30 5676 H 541.265 3.84843 -0.853802 0
M  V30 5677 H 542.553 5.04746 -0.641015 0
M  V30 5678 H 541.951 5.05463 2.54016 0
M  V30 5679 H 540.508 5.98639 2.57827 0
M  V30 5680 N 543.941 0.601185 1.45683 0
M  V30 5681 C 545.187 0.0940202 2.02582 0
M  V30 5682 C 545.52 -1.26972 1.46941 0
M  V30 5683 O 544.795 -1.83613 0.641612 0
M  V30 5684 C 545.078 0.0481715 3.60068 0
M  V30 5685 C 544.931 1.44212 4.26055 0
M  V30 5686 C 546.25 -0.642975 4.35378 0
M  V30 5687 H 543.369 0.0356404 0.736138 0
M  V30 5688 H 546.011 0.771929 1.73612 0
M  V30 5689 H 544.161 -0.529128 3.8488 0
M  V30 5690 H 545.833 2.06601 4.12449 0
M  V30 5691 H 544.076 2.00465 3.84703 0
M  V30 5692 H 544.747 1.36234 5.34925 0
M  V30 5693 H 547.223 -0.152351 4.15821 0
M  V30 5694 H 546.099 -0.644141 5.45107 0
M  V30 5695 H 546.36 -1.70785 4.0778 0
M  V30 5696 N 545.419 -1.53889 0.339982 0
M  V30 5697 C 546.349 -2.27843 -0.510856 0
M  V30 5698 C 547.33 -1.29267 -1.10563 0
M  V30 5699 O 548.515 -1.58104 -1.12768 0
M  V30 5700 C 545.645 -3.04857 -1.66372 0
M  V30 5701 C 544.599 -4.10907 -1.19746 0
M  V30 5702 C 543.925 -4.75855 -2.43857 0
M  V30 5703 C 545.225 -5.21435 -0.300501 0
M  V30 5704 H 546.919 -2.99212 0.106067 0
M  V30 5705 H 544.465 -1.43904 0.0524533 0
M  V30 5706 H 546.418 -3.5533 -2.26537 0
M  V30 5707 H 545.142 -2.31133 -2.30749 0
M  V30 5708 H 543.801 -3.61342 -0.618654 0
M  V30 5709 H 543.449 -3.9873 -3.06633 0
M  V30 5710 H 543.149 -5.47502 -2.13343 0
M  V30 5711 H 544.673 -5.2911 -3.04754 0
M  V30 5712 H 546.087 -5.67565 -0.80889 0
M  V30 5713 H 544.484 -6.00036 -0.0874076 0
M  V30 5714 H 545.554 -4.80328 0.664321 0
M  V30 5715 N 546.897 -0.0685191 -1.57451 0
M  V30 5716 C 548.308 0.464634 -1.80826 0
M  V30 5717 C 548.659 1.69847 -0.982169 0
M  V30 5718 O 547.784 2.15439 -0.203734 0
M  V30 5719 C 548.379 0.849721 -3.27971 0
M  V30 5720 C 546.938 1.32776 -3.52204 0
M  V30 5721 C 546.085 0.311332 -2.75547 0
M  V30 5722 H 549.036 -0.294248 -1.55948 0
M  V30 5723 H 549.057 1.71138 -3.39841 0
M  V30 5724 H 548.569 -0.0484736 -3.8807 0
M  V30 5725 H 546.67 2.24456 -2.97406 0
M  V30 5726 H 546.783 1.30794 -4.60901 0
M  V30 5727 H 545.147 0.787915 -2.42206 0
M  V30 5728 H 545.93 -0.579078 -3.38381 0
M  V30 5729 N 548.375 1.56261 0.205012 0
M  V30 5730 C 549.305 1.96779 1.257 0
M  V30 5731 C 550.286 0.838309 1.48008 0
M  V30 5732 O 551.471 1.10189 1.59913 0
M  V30 5733 C 548.601 2.29876 2.60335 0
M  V30 5734 C 547.555 3.45469 2.52656 0
M  V30 5735 C 546.881 3.64215 3.91473 0
M  V30 5736 C 548.181 4.79954 2.06014 0
M  V30 5737 H 549.875 2.84904 0.920338 0
M  V30 5738 H 547.421 1.37072 0.441277 0
M  V30 5739 H 549.374 2.56814 3.34102 0
M  V30 5740 H 548.098 1.38622 2.95722 0
M  V30 5741 H 546.757 3.18605 1.81345 0
M  V30 5742 H 546.405 2.70309 4.24196 0
M  V30 5743 H 546.105 4.41973 3.87213 0
M  V30 5744 H 547.629 3.93519 4.66878 0
M  V30 5745 H 549.043 5.05989 2.69533 0
M  V30 5746 H 547.44 5.61111 2.12777 0
M  V30 5747 H 548.51 4.74201 1.01297 0
M  V30 5748 N 549.853 -0.472356 1.50355 0
M  V30 5749 C 551.264 -1.05326 1.54154 0
M  V30 5750 C 551.615 -1.93155 0.344303 0
M  V30 5751 O 550.74 -2.09479 -0.542928 0
M  V30 5752 C 551.335 -1.91691 2.79356 0
M  V30 5753 C 549.894 -2.44892 2.8584 0
M  V30 5754 C 549.041 -1.23205 2.48426 0
M  V30 5755 H 551.992 -0.255027 1.56637 0
M  V30 5756 H 552.013 -2.76742 2.6114 0
M  V30 5757 H 551.525 -1.27741 3.66475 0
M  V30 5758 H 549.626 -3.12399 2.0307 0
M  V30 5759 H 549.739 -2.80086 3.88701 0
M  V30 5760 H 548.103 -1.56643 2.00836 0
M  V30 5761 H 548.886 -0.609194 3.37852 0
M  V30 5762 N 551.331 -1.39911 -0.725443 0
M  V30 5763 C 552.261 -1.42138 -1.85254 0
M  V30 5764 C 553.242 -0.283513 -1.67721 0
M  V30 5765 O 554.427 -0.490717 -1.87898 0
M  V30 5766 C 551.557 -1.27354 -3.23107 0
M  V30 5767 C 550.511 -2.3864 -3.55296 0
M  V30 5768 C 549.837 -2.08939 -4.92188 0
M  V30 5769 C 551.137 -3.8097 -3.57295 0
M  V30 5770 H 552.831 -2.36461 -1.83648 0
M  V30 5771 H 550.377 -1.13817 -0.882138 0
M  V30 5772 H 552.33 -1.2753 -4.01639 0
M  V30 5773 H 551.054 -0.295025 -3.25265 0
M  V30 5774 H 549.713 -2.37696 -2.79099 0
M  V30 5775 H 549.361 -1.09502 -4.90936 0
M  V30 5776 H 549.061 -2.83491 -5.14691 0
M  V30 5777 H 550.585 -2.10781 -5.73065 0
M  V30 5778 H 551.999 -3.8379 -4.25885 0
M  V30 5779 H 550.396 -4.5496 -3.9132 0
M  V30 5780 H 551.466 -4.11261 -2.5689 0
M  V30 5781 N 552.809 0.956637 -1.25245 0
M  V30 5782 C 554.22 1.51569 -1.09012 0
M  V30 5783 C 554.571 1.93322 0.334813 0
M  V30 5784 O 553.696 1.78421 1.22454 0
M  V30 5785 C 554.291 2.75444 -1.97271 0
M  V30 5786 C 552.85 3.27669 -1.8523 0
M  V30 5787 C 551.997 2.00517 -1.91542 0
M  V30 5788 H 554.948 0.773746 -1.3856 0
M  V30 5789 H 554.969 3.4919 -1.51151 0
M  V30 5790 H 554.481 2.45024 -3.00973 0
M  V30 5791 H 552.582 3.62914 -0.844045 0
M  V30 5792 H 552.695 3.9582 -2.69932 0
M  V30 5793 H 551.059 2.15727 -1.35404 0
M  V30 5794 H 551.842 1.72448 -2.96844 0
M  V30 5795 N 554.287 1.06798 1.15896 0
M  V30 5796 C 555.698 0.811355 1.68149 0
M  V30 5797 C 556.049 -0.664339 1.8461 0
M  V30 5798 O 555.174 -1.51485 1.54535 0
M  V30 5799 C 555.769 1.46624 3.05429 0
M  V30 5800 C 554.328 1.25726 3.54781 0
M  V30 5801 C 553.475 1.53949 2.3064 0
M  V30 5802 H 556.426 1.23078 1.00187 0
M  V30 5803 H 556.447 0.88437 3.7008 0
M  V30 5804 H 555.959 2.54025 2.93416 0
M  V30 5805 H 554.06 0.20322 3.72045 0
M  V30 5806 H 554.173 1.97354 4.36564 0
M  V30 5807 H 552.537 0.96025 2.35905 0
M  V30 5808 H 553.32 2.6252 2.2122 0
M  V30 5809 N 555.766 -1.3263 0.851289 0
M  V30 5810 C 557.043 -1.91982 0.374448 0
M  V30 5811 C 557.423 -1.77568 -1.14161 0
M  V30 5812 O 556.771 -1.1717 -1.96172 0
M  V30 5813 C 556.981 -3.38862 0.835088 0
M  V30 5814 C 558.329 -4.15999 0.850309 0
M  V30 5815 O 559.353 -3.47566 0.779505 0
M  V30 5816 O 558.212 -5.38189 0.949481 0
M  V30 5817 H 555.306 -0.819846 0.10854 0
M  V30 5818 H 557.852 -1.41422 0.937966 0
M  V30 5819 H 556.624 -3.43281 1.87814 0
M  V30 5820 H 556.247 -3.96821 0.248833 0
M  V30 5821 N 557.244 -0.608902 -1.45362 0
M  V30 5822 C 558.469 -0.10921 -2.07112 0
M  V30 5823 C 558.894 1.19779 -1.45033 0
M  V30 5824 O 558.252 1.72961 -0.543527 0
M  V30 5825 C 558.3 0.0155745 -3.60597 0
M  V30 5826 O 557.404 1.06546 -3.98399 0
M  V30 5827 H 556.745 -0.0746619 -0.659789 0
M  V30 5828 H 559.275 -0.839283 -1.86594 0
M  V30 5829 H 559.285 0.213364 -4.07442 0
M  V30 5830 H 557.96 -0.938765 -4.05167 0
M  V30 5831 H 556.537 0.844024 -3.63223 0
M  V30 5832 N 558.722 1.53707 -0.348139 0
M  V30 5833 C 559.999 1.93247 0.302475 0
M  V30 5834 C 560.379 1.28012 1.67857 0
M  V30 5835 O 559.727 0.43274 2.24365 0
M  V30 5836 C 559.937 3.47031 0.370159 0
M  V30 5837 C 561.285 4.20066 0.61882 0
M  V30 5838 O 562.309 3.53319 0.452087 0
M  V30 5839 O 561.168 5.38318 0.94215 0
M  V30 5840 H 558.262 0.807736 0.177458 0
M  V30 5841 H 560.808 1.64927 -0.399651 0
M  V30 5842 H 559.58 3.86745 -0.59534 0
M  V30 5843 H 559.203 3.81532 1.11888 0
M  V30 5844 N 560.2 0.0768682 1.57412 0
M  V30 5845 C 561.425 -0.603404 1.98428 0
M  V30 5846 C 561.85 -1.62047 0.955108 0
M  V30 5847 O 561.208 -1.81129 -0.0786778 0
M  V30 5848 C 561.256 -1.24396 3.38464 0
M  V30 5849 O 560.36 -2.35982 3.3821 0
M  V30 5850 H 559.701 -0.154741 0.645718 0
M  V30 5851 H 562.231 0.152885 2.04028 0
M  V30 5852 H 562.241 -1.5896 3.7576 0
M  V30 5853 H 560.916 -0.498735 4.12899 0
M  V30 5854 H 559.493 -2.03173 3.1269 0
M  V30 5855 N 561.678 -1.56367 -0.196722 0
M  V30 5856 C 562.955 -1.71359 -0.943159 0
M  V30 5857 C 563.335 -0.631192 -2.01443 0
M  V30 5858 O 562.683 0.358071 -2.25677 0
M  V30 5859 C 562.893 -3.13623 -1.53106 0
M  V30 5860 C 564.241 -3.73806 -2.01381 0
M  V30 5861 O 565.265 -3.16742 -1.62951 0
M  V30 5862 O 564.124 -4.73951 -2.7209 0
M  V30 5863 H 561.218 -0.698851 -0.442195 0
M  V30 5864 H 563.764 -1.68672 -0.186547 0
M  V30 5865 H 562.536 -3.83873 -0.758785 0
M  V30 5866 H 562.159 -3.20532 -2.35255 0
M  V30 5867 N 563.156 0.464375 -1.50603 0
M  V30 5868 C 564.381 1.24372 -1.65971 0
M  V30 5869 C 564.806 1.84901 -0.345453 0
M  V30 5870 O 564.164 1.67596 0.691457 0
M  V30 5871 C 564.212 2.32331 -2.7578 0
M  V30 5872 O 563.316 3.37146 -2.375 0
M  V30 5873 H 562.657 0.365604 -0.554283 0
M  V30 5874 H 565.187 0.55183 -1.97018 0
M  V30 5875 H 565.197 2.77539 -2.99059 0
M  V30 5876 H 563.872 1.87648 -3.71162 0
M  V30 5877 H 562.449 2.97602 -2.24694 0
M  V30 5878 N 564.634 1.40294 0.718013 0
M  V30 5879 C 565.911 1.2894 1.47084 0
M  V30 5880 C 566.291 -0.0933625 2.10893 0
M  V30 5881 O 565.639 -1.10598 1.99951 0
M  V30 5882 C 565.849 2.4264 2.50852 0
M  V30 5883 C 567.197 2.8276 3.16752 0
M  V30 5884 O 568.221 2.42215 2.61171 0
M  V30 5885 O 567.08 3.528 4.17366 0
M  V30 5886 H 564.174 0.506236 0.653952 0
M  V30 5887 H 566.72 1.52208 0.750394 0
M  V30 5888 H 565.492 3.35009 2.022 0
M  V30 5889 H 565.115 2.21129 3.30435 0
M  V30 5890 N 566.112 -0.949982 1.2575 0
M  V30 5891 C 567.075 -2.02894 1.06615 0
M  V30 5892 C 568.075 -1.60791 0.0173905 0
M  V30 5893 O 569.265 -1.72249 0.260003 0
M  V30 5894 C 566.397 -3.35219 0.619751 0
M  V30 5895 H 567.59 -2.21302 2.02399 0
M  V30 5896 H 565.143 -1.12772 1.08223 0
M  V30 5897 H 565.878 -3.22508 -0.340486 0
M  V30 5898 H 565.663 -3.67129 1.37692 0
M  V30 5899 H 567.153 -4.14505 0.507443 0
M  V30 5900 N 567.59 -1.07411 -1.15328 0
M  V30 5901 C 568.838 -0.796073 -1.85761 0
M  V30 5902 C 569.159 0.679864 -1.82764 0
M  V30 5903 O 568.429 1.49242 -1.269 0
M  V30 5904 H 567.009 -0.291495 -0.687779 0
M  V30 5905 H 569.671 -1.35799 -1.39802 0
M  V30 5906 H 568.767 -1.13114 -2.90881 0
M  V30 5907 N 569.068 1.32177 -0.85831 0
M  V30 5908 C 570.293 2.01847 -0.476718 0
M  V30 5909 C 570.718 1.64065 0.920021 0
M  V30 5910 O 570.076 0.843189 1.60499 0
M  V30 5911 C 570.124 3.55097 -0.627578 0
M  V30 5912 O 569.228 4.11012 0.338086 0
M  V30 5913 H 568.569 0.635907 -0.191099 0
M  V30 5914 H 571.099 1.68641 -1.15851 0
M  V30 5915 H 571.109 4.04718 -0.516476 0
M  V30 5916 H 569.784 3.81938 -1.64609 0
M  V30 5917 H 568.361 3.72451 0.182917 0
M  V30 5918 N 570.547 0.616602 1.45037 0
M  V30 5919 C 571.795 0.115103 2.01772 0
M  V30 5920 C 572.116 -1.2622 1.48639 0
M  V30 5921 O 571.386 -1.83563 0.684199 0
M  V30 5922 H 569.966 0.0395607 0.745952 0
M  V30 5923 H 572.628 0.800032 1.77723 0
M  V30 5924 H 571.724 0.0717274 3.12018 0
M  V30 5925 N 572.025 -1.5352 0.356285 0
M  V30 5926 C 573.273 -2.00719 -0.235837 0
M  V30 5927 C 573.594 -1.24551 -1.5004 0
M  V30 5928 O 572.864 -0.356185 -1.92635 0
M  V30 5929 H 571.444 -0.741542 -0.0901366 0
M  V30 5930 H 574.106 -1.88887 0.480378 0
M  V30 5931 H 573.202 -3.08551 -0.469357 0
M  V30 5932 N 573.503 -0.0852151 -1.57369 0
M  V30 5933 C 574.728 0.592872 -1.98746 0
M  V30 5934 C 575.153 1.61538 -0.963689 0
M  V30 5935 O 574.511 1.81168 0.069071 0
M  V30 5936 C 574.559 1.22599 -3.39119 0
M  V30 5937 O 573.663 2.34185 -3.39457 0
M  V30 5938 H 573.004 0.151314 -0.646529 0
M  V30 5939 H 575.534 -0.163703 -2.03944 0
M  V30 5940 H 575.544 1.56965 -3.76598 0
M  V30 5941 H 574.219 0.476831 -4.13158 0
M  V30 5942 H 572.796 2.01512 -3.13763 0
M  V30 5943 N 574.981 1.5647 0.188427 0
M  V30 5944 C 576.206 1.85486 0.927891 0
M  V30 5945 C 576.631 0.669575 1.75779 0
M  V30 5946 O 575.989 -0.381573 1.77239 0
M  V30 5947 C 576.037 3.12784 1.7944 0
M  V30 5948 O 575.141 2.93805 2.894 0
M  V30 5949 H 574.482 0.610585 0.260925 0
M  V30 5950 H 577.012 2.037 0.191729 0
M  V30 5951 H 577.022 3.43749 2.19774 0
M  V30 5952 H 575.697 3.98671 1.18468 0
M  V30 5953 H 574.274 2.74153 2.52774 0
M  V30 5954 N 576.459 -0.456382 1.50847 0
M  V30 5955 C 577.707 -1.20497 1.62249 0
M  V30 5956 C 578.028 -1.92156 0.331839 0
M  V30 5957 O 577.298 -1.84751 -0.651443 0
M  V30 5958 H 575.878 -0.447775 0.597918 0
M  V30 5959 H 578.54 -0.525099 1.87693 0
M  V30 5960 H 577.636 -1.94492 2.44089 0
M  V30 5961 N 577.937 -1.40673 -0.710563 0
M  V30 5962 C 578.867 -1.44095 -1.83736 0
M  V30 5963 C 579.848 -0.301286 -1.67411 0
M  V30 5964 O 581.033 -0.510618 -1.87367 0
M  V30 5965 C 578.163 -1.30773 -3.21738 0
M  V30 5966 C 577.117 -2.42395 -3.52745 0
M  V30 5967 C 576.443 -2.14147 -4.89944 0
M  V30 5968 C 577.743 -3.84738 -3.53234 0
M  V30 5969 H 579.437 -2.38396 -1.81129 0
M  V30 5970 H 576.983 -1.14746 -0.870017 0
M  V30 5971 H 578.936 -1.31783 -4.00264 0
M  V30 5972 H 577.66 -0.329507 -3.24934 0
M  V30 5973 H 576.319 -2.40643 -2.76562 0
M  V30 5974 H 575.967 -1.14703 -4.89747 0
M  V30 5975 H 575.667 -2.88934 -5.11655 0
M  V30 5976 H 577.191 -2.16848 -5.70797 0
M  V30 5977 H 578.605 -3.88286 -4.2179 0
M  V30 5978 H 577.002 -4.59085 -3.86473 0
M  V30 5979 H 578.072 -4.13962 -2.52514 0
M  V30 5980 N 579.415 0.9433 -1.26252 0
M  V30 5981 C 580.831 1.21644 -1.03319 0
M  V30 5982 C 581.031 2.0003 0.242983 0
M  V30 5983 O 580.087 2.33838 0.952688 0
M  V30 5984 C 581.4 1.97978 -2.2633 0
M  V30 5985 C 582.948 2.10978 -2.31209 0
M  V30 5986 C 583.423 2.90713 -3.53907 0
M  V30 5987 N 584.914 2.98287 -3.54371 0
M  V30 5988 C 585.649 3.60406 -4.45976 0
M  V30 5989 N 585.145 4.24043 -5.47868 0
M  V30 5990 N 586.938 3.57658 -4.33633 0
M  V30 5991 H 579.089 0.419221 -2.08222 0
M  V30 5992 H 581.352 0.247995 -0.914988 0
M  V30 5993 H 581.058 1.47788 -3.19142 0
M  V30 5994 H 580.932 2.9865 -2.30408 0
M  V30 5995 H 583.319 2.6036 -1.38913 0
M  V30 5996 H 583.4 1.09575 -2.31143 0
M  V30 5997 H 583.044 2.42018 -4.46531 0
M  V30 5998 H 582.974 3.92367 -3.5122 0
M  V30 5999 H 585.465 2.53044 -2.80673 0
M  V30 6000 H 585.778 4.69334 -6.13959 0
M  V30 6001 H 584.123 4.22637 -5.51728 0
M  V30 6002 H 587.314 3.07134 -3.53251 0
M  V30 6003 H 587.487 4.05782 -5.05218 0
M  V30 6004 N 580.893 1.08022 1.14757 0
M  V30 6005 C 581.823 0.728248 2.21853 0
M  V30 6006 C 582.804 -0.287486 1.67653 0
M  V30 6007 O 583.989 -0.158727 1.9355 0
M  V30 6008 C 581.119 0.132549 3.47047 0
M  V30 6009 C 580.073 1.07619 4.14249 0
M  V30 6010 C 579.399 0.342907 5.33599 0
M  V30 6011 C 580.699 2.41268 4.63235 0
M  V30 6012 H 582.393 1.62365 2.51551 0
M  V30 6013 H 579.939 0.782125 1.20908 0
M  V30 6014 H 581.892 -0.125665 4.21213 0
M  V30 6015 H 580.616 -0.797971 3.16702 0
M  V30 6016 H 579.275 1.31944 3.42033 0
M  V30 6017 H 578.923 -0.59129 4.99513 0
M  V30 6018 H 578.623 0.971955 5.79506 0
M  V30 6019 H 580.147 0.0926538 6.1053 0
M  V30 6020 H 581.561 2.21232 5.28894 0
M  V30 6021 H 579.958 2.9983 5.19829 0
M  V30 6022 H 581.028 3.03079 3.78512 0
M  V30 6023 N 582.371 -1.3172 0.865308 0
M  V30 6024 C 583.599 -2.01057 0.488251 0
M  V30 6025 C 584.014 -1.64979 -0.918 0
M  V30 6026 O 583.371 -0.876597 -1.60069 0
M  V30 6027 C 583.422 -3.55964 0.630224 0
M  V30 6028 O 583.143 -3.90749 1.98109 0
M  V30 6029 C 584.644 -4.42574 0.253567 0
M  V30 6030 H 581.864 -0.64332 0.190736 0
M  V30 6031 H 584.408 -1.68058 1.16519 0
M  V30 6032 H 582.563 -3.874 0.000895422 0
M  V30 6033 H 582.977 -4.85467 1.9855 0
M  V30 6034 H 584.451 -5.50521 0.403875 0
M  V30 6035 H 584.928 -4.31724 -0.806895 0
M  V30 6036 H 585.534 -4.16547 0.858404 0
M  V30 6037 N 583.85 -0.624285 -1.44708 0
M  V30 6038 C 584.812 0.0749638 -2.29077 0
M  V30 6039 C 585.812 0.778965 -1.40673 0
M  V30 6040 O 587.003 0.624591 -1.62618 0
M  V30 6041 C 584.135 1.11663 -3.22094 0
M  V30 6042 H 585.327 -0.667013 -2.92388 0
M  V30 6043 H 582.88 -0.384098 -1.51507 0
M  V30 6044 H 583.615 1.88881 -2.63618 0
M  V30 6045 H 583.401 0.61583 -3.87234 0
M  V30 6046 H 584.891 1.60585 -3.8549 0
M  V30 6047 N 585.328 1.53329 -0.364422 0
M  V30 6048 C 586.26 2.23286 0.517293 0
M  V30 6049 C 587.273 1.24657 1.04711 0
M  V30 6050 O 588.462 1.50887 0.95369 0
M  V30 6051 C 585.562 2.91604 1.72685 0
M  V30 6052 C 584.735 4.1673 1.32873 0
M  V30 6053 C 583.794 4.68269 2.40022 0
M  V30 6054 O 582.82 5.31976 2.02461 0
M  V30 6055 N 584.022 4.45983 3.7159 0
M  V30 6056 H 586.787 2.99588 -0.0819391 0
M  V30 6057 H 584.348 1.60787 -0.189544 0
M  V30 6058 H 586.34 3.22992 2.4384 0
M  V30 6059 H 584.91 2.18763 2.23297 0
M  V30 6060 H 584.13 3.91657 0.447069 0
M  V30 6061 H 585.418 4.98078 1.03902 0
M  V30 6062 H 584.816 3.95077 4.04883 0
M  V30 6063 H 583.373 4.81924 4.38854 0
M  V30 6064 N 586.806 0.0935595 1.57322 0
M  V30 6065 C 587.736 -0.863062 2.16964 0
M  V30 6066 C 588.717 -1.29528 1.10256 0
M  V30 6067 O 589.902 -1.36245 1.38387 0
M  V30 6068 C 587.032 -2.12276 2.74875 0
M  V30 6069 C 585.986 -1.82921 3.86942 0
M  V30 6070 C 585.312 -3.15707 4.31548 0
M  V30 6071 C 586.612 -1.11737 5.10208 0
M  V30 6072 H 588.306 -0.366145 2.97153 0
M  V30 6073 H 585.852 -0.174673 1.42937 0
M  V30 6074 H 587.805 -2.79634 3.1525 0
M  V30 6075 H 586.529 -2.64248 1.91938 0
M  V30 6076 H 585.188 -1.17961 3.47103 0
M  V30 6077 H 584.836 -3.65563 3.45504 0
M  V30 6078 H 584.536 -2.96849 5.07104 0
M  V30 6079 H 586.06 -3.84226 4.74555 0
M  V30 6080 H 587.474 -1.69203 5.47762 0
M  V30 6081 H 585.871 -1.03064 5.91183 0
M  V30 6082 H 586.941 -0.0998818 4.84797 0
M  V30 6083 N 588.284 -1.56567 -0.180126 0
M  V30 6084 C 589.214 -1.98753 -1.22553 0
M  V30 6085 C 590.195 -0.86175 -1.46656 0
M  V30 6086 O 591.38 -1.12719 -1.58139 0
M  V30 6087 C 588.51 -2.33988 -2.56645 0
M  V30 6088 C 587.464 -3.49445 -2.47128 0
M  V30 6089 C 586.79 -3.70397 -3.8563 0
M  V30 6090 C 588.09 -4.83171 -1.98352 0
M  V30 6091 H 589.784 -2.86332 -0.874896 0
M  V30 6092 H 587.33 -1.37757 -0.419414 0
M  V30 6093 H 589.283 -2.62097 -3.29974 0
M  V30 6094 H 588.007 -1.43309 -2.93479 0
M  V30 6095 H 586.666 -3.2145 -1.76254 0
M  V30 6096 H 586.314 -2.77023 -4.19842 0
M  V30 6097 H 586.014 -4.48077 -3.80132 0
M  V30 6098 H 587.538 -4.00897 -4.60558 0
M  V30 6099 H 588.952 -5.10213 -2.61449 0
M  V30 6100 H 587.349 -5.64425 -2.03823 0
M  V30 6101 H 588.419 -4.75753 -0.937402 0
M  V30 6102 N 589.762 0.448376 -1.51087 0
M  V30 6103 C 590.692 1.55102 -1.74544 0
M  V30 6104 C 591.673 1.59357 -0.594932 0
M  V30 6105 O 592.858 1.75261 -0.836491 0
M  V30 6106 C 589.988 2.93268 -1.86041 0
M  V30 6107 C 588.942 3.03877 -3.01402 0
M  V30 6108 C 588.268 4.43914 -2.98068 0
M  V30 6109 C 589.568 2.7898 -4.41551 0
M  V30 6110 H 591.262 1.35724 -2.66869 0
M  V30 6111 H 588.808 0.651498 -1.28419 0
M  V30 6112 H 590.761 3.70356 -2.01034 0
M  V30 6113 H 589.485 3.13853 -0.903548 0
M  V30 6114 H 588.144 2.29227 -2.86096 0
M  V30 6115 H 587.792 4.6145 -2.00182 0
M  V30 6116 H 587.492 4.51944 -3.75527 0
M  V30 6117 H 589.016 5.22991 -3.1514 0
M  V30 6118 H 590.43 3.45805 -4.57265 0
M  V30 6119 H 588.827 2.98431 -5.20633 0
M  V30 6120 H 589.897 1.74663 -4.5235 0
M  V30 6121 N 591.24 1.41047 0.703093 0
M  V30 6122 C 592.651 1.35657 1.28274 0
M  V30 6123 C 593.002 0.0360309 1.96167 0
M  V30 6124 O 592.127 -0.865833 1.98324 0
M  V30 6125 C 592.722 2.45707 2.33267 0
M  V30 6126 C 591.281 2.43738 2.86825 0
M  V30 6127 C 590.428 2.25941 1.60767 0
M  V30 6128 H 593.379 1.50672 0.49836 0
M  V30 6129 H 593.4 2.14333 3.14391 0
M  V30 6130 H 592.912 3.41805 1.83824 0
M  V30 6131 H 591.013 1.51375 3.40465 0
M  V30 6132 H 591.126 3.39779 3.37768 0
M  V30 6133 H 589.49 1.73681 1.86298 0
M  V30 6134 H 590.273 3.24054 1.1333 0
M  V30 6135 N 592.718 -0.936591 1.26751 0
M  V30 6136 C 593.966 -1.67998 1.12343 0
M  V30 6137 C 594.287 -1.92137 -0.332938 0
M  V30 6138 O 593.557 -1.52132 -1.23421 0
M  V30 6139 H 592.137 -0.622609 0.412756 0
M  V30 6140 H 594.799 -1.12509 1.59147 0
M  V30 6141 H 593.895 -2.65185 1.64571 0
M  V30 6142 N 594.196 -1.08629 -1.14182 0
M  V30 6143 C 595.106 -0.730126 -2.22949 0
M  V30 6144 C 596.122 0.26436 -1.7198 0
M  V30 6145 O 597.298 0.107742 -2.01112 0
M  V30 6146 C 594.363 -0.147227 -3.46387 0
M  V30 6147 C 593.424 -1.19662 -4.12286 0
M  V30 6148 C 592.657 -0.641437 -5.29831 0
M  V30 6149 O 592.88 0.538351 -5.67854 0
M  V30 6150 O 591.814 -1.39257 -5.85569 0
M  V30 6151 H 595.64 -1.63753 -2.55771 0
M  V30 6152 H 593.225 -0.860118 -1.22157 0
M  V30 6153 H 595.107 0.174923 -4.21037 0
M  V30 6154 H 593.782 0.733304 -3.15285 0
M  V30 6155 H 592.689 -1.57133 -3.395 0
M  V30 6156 H 594.022 -2.0495 -4.475 0
M  V30 6157 N 595.674 1.31259 -0.872281 0
M  V30 6158 C 596.637 2.26744 -0.334656 0
M  V30 6159 C 597.637 1.52307 0.515681 0
M  V30 6160 O 598.827 1.71148 0.324656 0
M  V30 6161 C 595.959 3.36841 0.524482 0
M  V30 6162 H 597.152 2.75812 -1.17762 0
M  V30 6163 H 594.705 1.42232 -0.648064 0
M  V30 6164 H 595.44 2.93069 1.38855 0
M  V30 6165 H 595.225 3.92009 -0.0844299 0
M  V30 6166 H 596.715 4.07944 0.892838 0
M  V30 6167 N 597.152 0.631951 1.44375 0
M  V30 6168 C 598.38 0.143867 2.06399 0
M  V30 6169 C 598.795 -1.18188 1.47231 0
M  V30 6170 O 598.152 -1.72511 0.595498 0
M  V30 6171 C 598.203 0.0238253 3.61492 0
M  V30 6172 O 597.924 1.29715 4.18456 0
M  V30 6173 C 599.425 -0.492856 4.40552 0
M  V30 6174 H 596.645 0.0800542 0.666207 0
M  V30 6175 H 599.189 0.866586 1.85231 0
M  V30 6176 H 597.344 -0.649338 3.81919 0
M  V30 6177 H 597.758 1.14252 5.11905 0
M  V30 6178 H 599.232 -0.525861 5.49489 0
M  V30 6179 H 599.709 -1.52006 4.12057 0
M  V30 6180 H 600.315 0.147085 4.25046 0
M  V30 6181 N 598.631 -1.53133 0.372548 0
M  V30 6182 C 599.563 -2.23557 -0.505444 0
M  V30 6183 C 600.576 -1.25211 -1.04049 0
M  V30 6184 O 601.765 -1.51391 -0.945675 0
M  V30 6185 C 598.865 -2.92516 -1.71136 0
M  V30 6186 C 598.038 -4.17428 -1.30661 0
M  V30 6187 C 597.097 -4.69535 -2.37536 0
M  V30 6188 O 596.123 -5.33042 -1.99637 0
M  V30 6189 N 597.325 -4.47947 -3.6922 0
M  V30 6190 H 600.09 -2.9954 0.0978259 0
M  V30 6191 H 597.651 -1.60684 0.198068 0
M  V30 6192 H 599.643 -3.24281 -2.42124 0
M  V30 6193 H 598.213 -2.19944 -2.22134 0
M  V30 6194 H 597.433 -3.91888 -0.426292 0
M  V30 6195 H 598.721 -4.98622 -1.01259 0
M  V30 6196 H 598.119 -3.97219 -4.02783 0
M  V30 6197 H 596.676 -4.84245 -4.36292 0
M  V30 6198 N 600.109 -0.101901 -1.5727 0
M  V30 6199 C 601.386 0.602832 -1.86079 0
M  V30 6200 C 601.766 1.85912 -1 0
M  V30 6201 O 601.114 2.28379 -0.0742488 0
M  V30 6202 C 601.324 0.911694 -3.36881 0
M  V30 6203 C 602.672 1.2722 -4.05093 0
M  V30 6204 O 603.696 1.0025 -3.41802 0
M  V30 6205 O 602.555 1.7776 -5.16782 0
M  V30 6206 H 599.649 0.302366 -0.769743 0
M  V30 6207 H 602.195 -0.135113 -1.69161 0
M  V30 6208 H 600.967 0.0207256 -3.91295 0
M  V30 6209 H 600.59 1.70538 -3.59169 0
M  V30 6210 N 601.587 1.56661 0.17182 0
M  V30 6211 C 602.998 1.71652 0.734329 0
M  V30 6212 C 603.349 0.712335 1.82812 0
M  V30 6213 O 602.474 -0.126401 2.16031 0
M  V30 6214 C 603.069 3.11226 1.3388 0
M  V30 6215 C 601.628 3.27904 1.84813 0
M  V30 6216 C 600.775 2.67603 0.726917 0
M  V30 6217 H 603.726 1.5861 -0.0535665 0
M  V30 6218 H 603.747 3.09849 2.20849 0
M  V30 6219 H 603.259 3.8429 0.54249 0
M  V30 6220 H 601.36 2.59796 2.6709 0
M  V30 6221 H 601.473 4.35637 1.99392 0
M  V30 6222 H 599.837 2.274 1.14723 0
M  V30 6223 H 600.62 3.43252 -0.0575334 0
M  V30 6224 N 603.065 -0.440357 1.51323 0
M  V30 6225 C 604.476 -1.02032 1.56353 0
M  V30 6226 C 604.827 -1.92382 0.385197 0
M  V30 6227 O 603.952 -2.10583 -0.498373 0
M  V30 6228 C 604.547 -1.85723 2.83359 0
M  V30 6229 C 603.106 -2.38774 2.90971 0
M  V30 6230 C 602.253 -1.17908 2.50984 0
M  V30 6231 H 605.204 -0.221744 1.57143 0
M  V30 6232 H 605.225 -2.71141 2.66951 0
M  V30 6233 H 604.737 -1.19939 3.69102 0
M  V30 6234 H 602.838 -3.08021 2.09651 0
M  V30 6235 H 602.951 -2.71778 3.94555 0
M  V30 6236 H 601.315 -1.52347 2.04114 0
M  V30 6237 H 602.098 -0.537393 3.39068 0
M  V30 6238 N 604.543 -1.41418 -0.695603 0
M  V30 6239 C 605.473 -1.46035 -1.82197 0
M  V30 6240 C 606.454 -0.319025 -1.67082 0
M  V30 6241 O 607.639 -0.530462 -1.86815 0
M  V30 6242 C 604.769 -1.34179 -3.20333 0
M  V30 6243 C 603.723 -2.46123 -3.50154 0
M  V30 6244 C 603.049 -2.19332 -4.87645 0
M  V30 6245 C 604.349 -3.88463 -3.49133 0
M  V30 6246 H 606.043 -2.40303 -1.78591 0
M  V30 6247 H 603.589 -1.15663 -0.857797 0
M  V30 6248 H 605.542 -1.36021 -3.98844 0
M  V30 6249 H 604.266 -0.363952 -3.24566 0
M  V30 6250 H 602.925 -2.43563 -2.73994 0
M  V30 6251 H 602.573 -1.19891 -4.88503 0
M  V30 6252 H 602.273 -2.94344 -5.08562 0
M  V30 6253 H 603.797 -2.22889 -5.68465 0
M  V30 6254 H 605.211 -3.92738 -4.17648 0
M  V30 6255 H 603.608 -4.63158 -3.81582 0
M  V30 6256 H 604.678 -4.16617 -2.48109 0
M  V30 6257 N 606.021 0.929856 -1.27246 0
M  V30 6258 C 607.432 1.49223 -1.12203 0
M  V30 6259 C 607.783 1.93989 0.293731 0
M  V30 6260 O 606.908 1.80978 1.18642 0
M  V30 6261 C 607.503 2.71198 -2.0307 0
M  V30 6262 C 606.062 3.23666 -1.92139 0
M  V30 6263 C 605.209 1.96409 -1.95752 0
M  V30 6264 H 608.16 0.744181 -1.4017 0
M  V30 6265 H 608.181 3.45905 -1.58524 0
M  V30 6266 H 607.693 2.38585 -3.06102 0
M  V30 6267 H 605.794 3.61042 -0.920834 0
M  V30 6268 H 605.907 3.90006 -2.78267 0
M  V30 6269 H 604.271 2.12806 -1.39949 0
M  V30 6270 H 605.054 1.66113 -3.00436 0
M  V30 6271 N 607.499 1.09233 1.13605 0
M  V30 6272 C 608.727 0.848908 1.88683 0
M  V30 6273 C 609.142 -0.599667 1.79024 0
M  V30 6274 O 608.499 -1.41265 1.15544 0
M  V30 6275 C 608.55 1.27273 3.38355 0
M  V30 6276 O 608.271 2.66449 3.47759 0
M  V30 6277 C 609.772 1.0614 4.30406 0
M  V30 6278 H 606.992 0.305549 0.597395 0
M  V30 6279 H 609.536 1.4538 1.43823 0
M  V30 6280 H 607.691 0.711776 3.80805 0
M  V30 6281 H 608.105 2.84264 4.40788 0
M  V30 6282 H 609.579 1.40725 5.33761 0
M  V30 6283 H 610.056 -0.000960332 4.392 0
M  V30 6284 H 610.662 1.60821 3.93722 0
M  V30 6285 N 608.977 -1.30795 0.87923 0
M  V30 6286 C 610.393 -1.48981 0.57243 0
M  V30 6287 C 610.593 -1.80719 -0.891236 0
M  V30 6288 O 609.649 -1.89136 -1.67283 0
M  V30 6289 C 610.962 -2.61721 1.48063 0
M  V30 6290 C 612.51 -2.75603 1.48365 0
M  V30 6291 C 612.985 -3.91449 2.37763 0
M  V30 6292 N 614.476 -3.98751 2.35695 0
M  V30 6293 C 615.211 -4.87684 3.01583 0
M  V30 6294 N 614.707 -5.81454 3.76674 0
M  V30 6295 N 616.5 -4.81005 2.90844 0
M  V30 6296 H 608.651 -1.08465 1.82617 0
M  V30 6297 H 610.914 -0.536813 0.781368 0
M  V30 6298 H 610.62 -2.45073 2.52254 0
M  V30 6299 H 610.494 -3.58071 1.18596 0
M  V30 6300 H 612.881 -2.9166 0.44927 0
M  V30 6301 H 612.962 -1.79891 1.81859 0
M  V30 6302 H 612.606 -3.76149 3.41283 0
M  V30 6303 H 612.536 -4.86487 2.01589 0
M  V30 6304 H 615.027 -3.31668 1.81121 0
M  V30 6305 H 615.34 -6.46063 4.24054 0
M  V30 6306 H 613.685 -5.81403 3.80782 0
M  V30 6307 H 616.876 -4.06728 2.31711 0
M  V30 6308 H 617.049 -5.50107 3.42471 0
M  V30 6309 N 610.455 -0.639598 -1.44038 0
M  V30 6310 C 611.418 0.0506628 -2.29144 0
M  V30 6311 C 612.418 0.764001 -1.41491 0
M  V30 6312 O 613.608 0.607309 -1.63271 0
M  V30 6313 C 610.74 1.0824 -3.2326 0
M  V30 6314 H 611.933 -0.697987 -2.91664 0
M  V30 6315 H 609.486 -0.400146 -1.51091 0
M  V30 6316 H 610.221 1.86075 -2.65606 0
M  V30 6317 H 610.006 0.574725 -3.87865 0
M  V30 6318 H 611.496 1.56487 -3.87171 0
M  V30 6319 N 611.933 1.52934 -0.380664 0
M  V30 6320 C 612.896 2.24809 0.446473 0
M  V30 6321 C 613.896 1.26133 0.997347 0
M  V30 6322 O 615.086 1.50297 0.880714 0
M  V30 6323 C 612.218 2.99649 1.62553 0
M  V30 6324 H 613.411 2.99343 -0.182677 0
M  V30 6325 H 610.964 1.55736 -0.132618 0
M  V30 6326 H 611.699 2.29395 2.29235 0
M  V30 6327 H 611.484 3.72066 1.23732 0
M  V30 6328 H 612.974 3.54246 2.21133 0
M  V30 6329 N 613.412 0.11024 1.57214 0
M  V30 6330 C 614.375 -0.828808 2.1369 0
M  V30 6331 C 615.375 -1.20059 1.06969 0
M  V30 6332 O 616.565 -1.12754 1.32786 0
M  V30 6333 C 613.697 -2.11959 2.66994 0
M  V30 6334 H 614.89 -0.338146 2.97988 0
M  V30 6335 H 612.443 -0.138913 1.55681 0
M  V30 6336 H 613.178 -2.65476 1.8626 0
M  V30 6337 H 612.963 -1.86258 3.45037 0
M  V30 6338 H 614.453 -2.79105 3.10629 0
M  V30 6339 N 614.89 -1.56749 -0.16351 0
M  V30 6340 C 615.853 -1.96121 -1.18613 0
M  V30 6341 C 616.853 -0.845765 -1.36761 0
M  V30 6342 O 618.043 -1.11268 -1.34033 0
M  V30 6343 C 615.175 -2.26282 -2.54969 0
M  V30 6344 H 616.368 -2.87639 -0.848764 0
M  V30 6345 H 613.921 -1.50928 -0.406251 0
M  V30 6346 H 614.656 -1.37504 -2.93706 0
M  V30 6347 H 614.441 -3.07595 -2.43162 0
M  V30 6348 H 615.931 -2.57638 -3.28653 0
M  V30 6349 N 616.368 0.432326 -1.51554 0
M  V30 6350 C 617.614 1.18309 -1.64714 0
M  V30 6351 C 617.947 1.90745 -0.364696 0
M  V30 6352 O 617.222 1.8381 0.635936 0
M  V30 6353 C 617.505 2.1961 -2.85383 0
M  V30 6354 C 617.358 1.51223 -4.23617 0
M  V30 6355 C 618.677 3.20538 -3.01569 0
M  V30 6356 H 615.796 0.428751 -0.599451 0
M  V30 6357 H 618.438 0.471689 -1.84052 0
M  V30 6358 H 616.588 2.8028 -2.69027 0
M  V30 6359 H 618.26 0.938516 -4.51652 0
M  V30 6360 H 616.503 0.814501 -4.26085 0
M  V30 6361 H 617.174 2.25024 -5.04052 0
M  V30 6362 H 619.65 2.69926 -3.16669 0
M  V30 6363 H 618.526 3.88706 -3.87555 0
M  V30 6364 H 618.787 3.86933 -2.13859 0
M  V30 6365 N 617.846 1.41785 0.688094 0
M  V30 6366 C 618.794 1.44436 1.82321 0
M  V30 6367 C 619.788 0.321544 1.6632 0
M  V30 6368 O 620.994 0.493931 1.73091 0
M  V30 6369 H 617.369 0.452084 0.600936 0
M  V30 6370 H 619.34 2.40087 1.77202 0
M  V30 6371 C 618.089 1.35071 3.20392 0
M  V30 6372 H 617.412 2.2076 3.33324 0
M  V30 6373 H 618.852 1.40988 3.99873 0
M  V30 6374 C 617.311 0.0639127 3.36839 0
M  V30 6375 O 617.841 -0.888495 3.91751 0
M  V30 6376 N 616.047 -0.0146114 2.90596 0
M  V30 6377 H 615.594 0.761191 2.46097 0
M  V30 6378 H 615.552 -0.874988 3.01979 0
M  V30 6379 N 619.324 -0.923095 1.27737 0
M  V30 6380 C 620.571 -1.67127 1.14345 0
M  V30 6381 C 620.899 -1.92017 -0.30982 0
M  V30 6382 O 620.154 -1.51185 -1.24264 0
M  V30 6383 C 620.453 -3.04125 1.8773 0
M  V30 6384 C 620.119 -2.98929 3.37568 0
M  V30 6385 C 618.781 -2.9722 3.78436 0
M  V30 6386 C 621.133 -2.89875 4.33154 0
M  V30 6387 C 618.461 -2.84244 5.13247 0
M  V30 6388 C 620.813 -2.7844 5.68026 0
M  V30 6389 C 619.477 -2.75083 6.08182 0
M  V30 6390 H 618.747 -0.611562 0.418417 0
M  V30 6391 H 621.394 -1.07618 1.584 0
M  V30 6392 H 619.699 -3.67366 1.36196 0
M  V30 6393 H 621.396 -3.609 1.74792 0
M  V30 6394 H 617.986 -3.0105 3.05069 0
M  V30 6395 H 622.17 -2.9029 4.02548 0
M  V30 6396 H 617.426 -2.80034 5.43499 0
M  V30 6397 H 621.6 -2.70401 6.4176 0
M  V30 6398 H 619.227 -2.64786 7.12596 0
M  V30 6399 N 620.802 -1.09834 -1.13024 0
M  V30 6400 C 622.049 -0.83695 -1.84395 0
M  V30 6401 C 622.377 0.637463 -1.83757 0
M  V30 6402 O 621.632 1.48554 -1.27398 0
M  V30 6403 C 621.931 -1.32263 -3.32026 0
M  V30 6404 C 621.597 -2.80739 -3.52841 0
M  V30 6405 C 620.259 -3.21286 -3.5823 0
M  V30 6406 C 622.611 -3.76449 -3.60466 0
M  V30 6407 C 619.939 -4.56308 -3.68781 0
M  V30 6408 C 622.291 -5.11266 -3.72546 0
M  V30 6409 C 620.955 -5.51397 -3.76189 0
M  V30 6410 H 620.225 -0.306262 -0.674748 0
M  V30 6411 H 622.872 -1.37385 -1.33408 0
M  V30 6412 H 621.177 -0.705618 -3.85394 0
M  V30 6413 H 622.874 -1.09695 -3.85705 0
M  V30 6414 H 619.464 -2.48363 -3.49305 0
M  V30 6415 H 623.648 -3.46234 -3.55578 0
M  V30 6416 H 618.904 -4.86832 -3.69871 0
M  V30 6417 H 623.078 -5.85279 -3.77388 0
M  V30 6418 H 620.705 -6.56017 -3.84117 0
M  V30 6419 N 622.28 1.30327 -0.886154 0
M  V30 6420 C 623.228 2.30052 -0.343317 0
M  V30 6421 C 624.222 1.60212 0.550305 0
M  V30 6422 O 625.428 1.74674 0.434609 0
M  V30 6423 H 621.803 0.746306 -0.0923681 0
M  V30 6424 H 623.774 2.73294 -1.19804 0
M  V30 6425 C 622.523 3.45079 0.426107 0
M  V30 6426 H 621.846 3.99003 -0.25227 0
M  V30 6427 H 623.286 4.16931 0.771009 0
M  V30 6428 C 621.745 2.95195 1.62363 0
M  V30 6429 O 622.275 2.95323 2.723 0
M  V30 6430 N 620.481 2.51192 1.4612 0
M  V30 6431 H 620.028 2.51286 0.566832 0
M  V30 6432 H 619.986 2.18173 2.2638 0
M  V30 6433 N 623.758 0.647228 1.43697 0
M  V30 6434 C 625.007 0.155552 2.01099 0
M  V30 6435 C 625.32 -1.23569 1.51624 0
M  V30 6436 O 626.526 -1.82226 2.01261 0
M  V30 6437 C 624.982 0.227296 3.59182 0
M  V30 6438 C 624.59 1.62086 4.17651 0
M  V30 6439 C 626.334 -0.207085 4.23995 0
M  V30 6440 C 624.241 1.64685 5.68008 0
M  V30 6441 H 623.171 0.0543895 0.752036 0
M  V30 6442 H 625.822 0.808386 1.64734 0
M  V30 6443 H 624.204 -0.492937 3.9292 0
M  V30 6444 H 625.378 2.36597 3.95422 0
M  V30 6445 H 623.693 2.0007 3.65186 0
M  V30 6446 H 626.29 -0.207426 5.34298 0
M  V30 6447 H 626.633 -1.23742 3.97484 0
M  V30 6448 H 627.166 0.461193 3.95118 0
M  V30 6449 H 623.905 2.65608 5.99277 0
M  V30 6450 H 623.425 0.944914 5.9231 0
M  V30 6451 H 625.104 1.38792 6.31938 0
M  V30 6452 N 625.236 -1.5273 0.388769 0
M  V30 6453 C 626.513 -1.93981 -0.251133 0
M  V30 6454 C 626.893 -1.32418 -1.64404 0
M  V30 6455 O 626.241 -0.492074 -2.23139 0
M  V30 6456 C 626.451 -3.47891 -0.27802 0
M  V30 6457 C 627.799 -4.21559 -0.507229 0
M  V30 6458 O 628.823 -3.54394 -0.358252 0
M  V30 6459 O 627.682 -5.40626 -0.799094 0
M  V30 6460 H 624.776 -0.812157 -0.15598 0
M  V30 6461 H 627.322 -1.63809 0.443237 0
M  V30 6462 H 626.094 -3.8503 0.697669 0
M  V30 6463 H 625.717 -3.84364 -1.01733 0
M  V30 6464 N 626.714 -0.118576 -1.57153 0
M  V30 6465 C 628.125 0.40687 -1.82213 0
M  V30 6466 C 628.476 1.66636 -1.03571 0
M  V30 6467 O 627.601 2.14682 -0.272171 0
M  V30 6468 C 628.196 0.744949 -3.30509 0
M  V30 6469 C 626.755 1.21503 -3.5625 0
M  V30 6470 C 625.902 0.223511 -2.76398 0
M  V30 6471 H 628.853 -0.343712 -1.54933 0
M  V30 6472 H 628.874 1.6024 -3.45114 0
M  V30 6473 H 628.386 -0.171911 -3.87719 0
M  V30 6474 H 626.487 2.1488 -3.04396 0
M  V30 6475 H 626.6 1.16065 -4.64829 0
M  V30 6476 H 624.964 0.71046 -2.44591 0
M  V30 6477 H 625.747 -0.686439 -3.36367 0
M  V30 6478 N 628.193 1.56834 0.155195 0
M  V30 6479 C 629.156 1.96748 1.17571 0
M  V30 6480 C 630.156 0.853006 1.3631 0
M  V30 6481 O 631.346 1.11978 1.33441 0
M  V30 6482 C 628.478 2.27631 2.53765 0
M  V30 6483 H 629.671 2.88085 0.833498 0
M  V30 6484 H 627.224 1.51141 0.398242 0
M  V30 6485 H 627.959 1.39059 2.92973 0
M  V30 6486 H 627.744 3.0888 2.41527 0
M  V30 6487 H 629.234 2.59377 3.27282 0
M  V30 6488 N 629.671 -0.424282 1.51781 0
M  V30 6489 C 630.581 -1.54087 1.76902 0
M  V30 6490 C 631.597 -1.61249 0.653826 0
M  V30 6491 O 632.773 -1.78247 0.937552 0
M  V30 6492 C 629.838 -2.8996 1.90063 0
M  V30 6493 C 628.899 -2.92809 3.13945 0
M  V30 6494 C 628.132 -4.22201 3.26469 0
M  V30 6495 O 628.355 -5.15286 2.44616 0
M  V30 6496 O 627.289 -4.31599 4.1953 0
M  V30 6497 H 631.115 -1.358 2.71647 0
M  V30 6498 H 628.7 -0.608618 1.36441 0
M  V30 6499 H 630.582 -3.70575 2.0063 0
M  V30 6500 H 629.257 -3.08347 0.985067 0
M  V30 6501 H 628.164 -2.11102 3.08847 0
M  V30 6502 H 629.497 -2.79369 4.05233 0
M  V30 6503 N 631.149 -1.42148 -0.680565 0
M  V30 6504 C 632.56 -1.3768 -1.26099 0
M  V30 6505 C 632.911 -0.0672348 -1.96085 0
M  V30 6506 O 632.036 0.834172 -1.99676 0
M  V30 6507 C 632.631 -2.49387 -2.29328 0
M  V30 6508 C 631.19 -2.4827 -2.82911 0
M  V30 6509 C 630.337 -2.2847 -1.57152 0
M  V30 6510 H 633.288 -1.51446 -0.474326 0
M  V30 6511 H 633.309 -2.19307 -3.10941 0
M  V30 6512 H 632.821 -3.44686 -1.78363 0
M  V30 6513 H 630.922 -1.56773 -3.38013 0
M  V30 6514 H 631.035 -3.45109 -3.3232 0
M  V30 6515 H 629.399 -1.76623 -1.83511 0
M  V30 6516 H 630.182 -3.25816 -1.0816 0
M  V30 6517 N 632.627 0.916307 -1.28225 0
M  V30 6518 C 633.537 2.05165 -1.13775 0
M  V30 6519 C 634.553 1.73879 -0.0649418 0
M  V30 6520 O 635.729 1.99531 -0.273722 0
M  V30 6521 C 632.794 3.37385 -0.798267 0
M  V30 6522 C 631.855 3.82296 -1.95316 0
M  V30 6523 C 631.088 5.08206 -1.62978 0
M  V30 6524 O 631.311 5.6781 -0.542948 0
M  V30 6525 O 630.245 5.48768 -2.47261 0
M  V30 6526 H 634.071 2.20273 -2.09078 0
M  V30 6527 H 631.656 1.0373 -1.07519 0
M  V30 6528 H 633.538 4.16773 -0.62278 0
M  V30 6529 H 632.213 3.23458 0.125139 0
M  V30 6530 H 631.12 3.03746 -2.18378 0
M  V30 6531 H 632.453 4.00782 -2.85718 0
M  V30 6532 N 634.105 1.10431 1.1244 0
M  V30 6533 C 635.035 0.775143 2.20258 0
M  V30 6534 C 636.016 -0.25186 1.68225 0
M  V30 6535 O 637.201 -0.117637 1.93843 0
M  V30 6536 C 634.331 0.206133 3.46688 0
M  V30 6537 C 633.285 1.16382 4.11873 0
M  V30 6538 C 632.611 0.456014 5.32752 0
M  V30 6539 C 633.911 2.5104 4.58013 0
M  V30 6540 H 635.605 1.67665 2.4805 0
M  V30 6541 H 633.151 0.807595 1.19222 0
M  V30 6542 H 635.104 -0.036291 4.21384 0
M  V30 6543 H 633.828 -0.730614 3.18323 0
M  V30 6544 H 632.487 1.39169 3.39157 0
M  V30 6545 H 632.135 -0.485203 5.00654 0
M  V30 6546 H 631.835 1.09466 5.77314 0
M  V30 6547 H 633.359 0.222135 6.10196 0
M  V30 6548 H 634.773 2.32401 5.24083 0
M  V30 6549 H 633.17 3.10789 5.13352 0
M  V30 6550 H 634.24 3.11039 3.71998 0
M  V30 6551 N 635.583 -1.29855 0.893053 0
M  V30 6552 C 636.999 -1.48366 0.588199 0
M  V30 6553 C 637.199 -1.81654 -0.872018 0
M  V30 6554 O 636.255 -1.909 -1.65268 0
M  V30 6555 C 637.568 -2.60136 1.5083 0
M  V30 6556 C 639.116 -2.74014 1.51279 0
M  V30 6557 C 639.591 -3.88905 2.41902 0
M  V30 6558 N 641.082 -3.96228 2.39911 0
M  V30 6559 C 641.817 -4.84458 3.06738 0
M  V30 6560 N 641.313 -5.77426 3.8282 0
M  V30 6561 N 643.106 -4.77894 2.95929 0
M  V30 6562 H 635.257 -1.06522 1.83757 0
M  V30 6563 H 637.52 -0.528495 0.787018 0
M  V30 6564 H 637.226 -2.42383 2.54839 0
M  V30 6565 H 637.1 -3.56793 1.22388 0
M  V30 6566 H 639.487 -2.91167 0.480179 0
M  V30 6567 H 639.568 -1.77952 1.83757 0
M  V30 6568 H 639.212 -3.72508 3.45253 0
M  V30 6569 H 639.142 -4.84322 2.06737 0
M  V30 6570 H 641.633 -3.29728 1.84629 0
M  V30 6571 H 641.946 -6.41529 4.30883 0
M  V30 6572 H 640.291 -5.77332 3.86927 0
M  V30 6573 H 643.482 -4.04248 2.36012 0
M  V30 6574 H 643.655 -5.46444 3.48286 0
M  V30 6575 N 637.061 -0.65484 -1.43351 0
M  V30 6576 C 638.472 -0.248506 -1.85039 0
M  V30 6577 C 638.823 1.20526 -1.54816 0
M  V30 6578 O 637.948 1.92016 -0.99794 0
M  V30 6579 C 638.543 -0.444241 -3.35875 0
M  V30 6580 C 637.102 -0.0922108 -3.76287 0
M  V30 6581 C 636.249 -0.746327 -2.67068 0
M  V30 6582 H 639.2 -0.8584 -1.33481 0
M  V30 6583 H 639.221 0.309762 -3.79237 0
M  V30 6584 H 638.733 -1.50239 -3.5784 0
M  V30 6585 H 636.834 0.96328 -3.59933 0
M  V30 6586 H 636.947 -0.518807 -4.76283 0
M  V30 6587 H 635.311 -0.179416 -2.54067 0
M  V30 6588 H 636.094 -1.80754 -2.91861 0
M  V30 6589 N 638.539 1.52521 -0.396863 0
M  V30 6590 C 639.489 2.2348 0.451722 0
M  V30 6591 C 640.473 1.2415 1.0235 0
M  V30 6592 O 641.665 1.4945 0.948348 0
M  V30 6593 C 638.794 3.05067 1.57445 0
M  V30 6594 C 637.88 4.11799 1.01404 0
M  V30 6595 N 638.271 5.05482 0.179234 0
M  V30 6596 C 636.569 4.27064 1.28578 0
M  V30 6597 C 637.27 5.81552 -0.131202 0
M  V30 6598 N 636.246 5.41523 0.474735 0
M  V30 6599 H 640.048 2.93269 -0.192534 0
M  V30 6600 H 637.562 1.61081 -0.206591 0
M  V30 6601 H 639.559 3.54446 2.19485 0
M  V30 6602 H 638.219 2.36816 2.22145 0
M  V30 6603 H 639.23 5.17573 -0.18411 0
M  V30 6604 H 635.907 3.70042 1.93327 0
M  V30 6605 H 637.297 6.67023 -0.808061 0
M  V30 6606 N 640.017 0.126909 1.57088 0
M  V30 6607 C 641.428 -0.397201 1.82426 0
M  V30 6608 C 641.779 -1.66084 1.04453 0
M  V30 6609 O 640.904 -2.14534 0.283552 0
M  V30 6610 C 641.499 -0.727411 3.30899 0
M  V30 6611 C 640.058 -1.19612 3.56889 0
M  V30 6612 C 639.205 -0.20885 2.76512 0
M  V30 6613 H 642.156 0.351924 1.54749 0
M  V30 6614 H 642.177 -1.58407 3.45959 0
M  V30 6615 H 641.689 0.19247 3.87622 0
M  V30 6616 H 639.79 -2.13263 3.05532 0
M  V30 6617 H 639.903 -1.13598 4.65438 0
M  V30 6618 H 638.267 -0.697479 2.44964 0
M  V30 6619 H 639.05 0.704267 3.35998 0
M  V30 6620 N 641.495 -1.56914 -0.146875 0
M  V30 6621 C 642.425 -2.01308 -1.1831 0
M  V30 6622 C 643.406 -0.892664 -1.44795 0
M  V30 6623 O 644.591 -1.16048 -1.55713 0
M  V30 6624 C 641.721 -2.3938 -2.51624 0
M  V30 6625 C 640.675 -3.54608 -2.3966 0
M  V30 6626 C 640.001 -3.78493 -3.77686 0
M  V30 6627 C 641.301 -4.87269 -1.88058 0
M  V30 6628 H 642.995 -2.88123 -0.813964 0
M  V30 6629 H 640.541 -1.38615 -0.3901 0
M  V30 6630 H 642.494 -2.69037 -3.24341 0
M  V30 6631 H 641.218 -1.49502 -2.90373 0
M  V30 6632 H 639.877 -3.25116 -1.69396 0
M  V30 6633 H 639.525 -2.85866 -4.13871 0
M  V30 6634 H 639.225 -4.56039 -3.70543 0
M  V30 6635 H 640.749 -4.10576 -4.51951 0
M  V30 6636 H 642.163 -5.15644 -2.50568 0
M  V30 6637 H 640.56 -5.68622 -1.91805 0
M  V30 6638 H 641.63 -4.77634 -0.836277 0
M  V30 6639 N 642.974 0.416227 -1.52004 0
M  V30 6640 C 644.222 1.16153 -1.65387 0
M  V30 6641 C 644.543 1.91208 -0.382669 0
M  V30 6642 O 643.813 1.86413 0.602231 0
M  V30 6643 H 642.393 0.431765 -0.60958 0
M  V30 6644 H 645.055 0.475151 -1.89019 0
M  V30 6645 H 644.151 1.87952 -2.4916 0
M  V30 6646 N 644.452 1.42507 0.673017 0
M  V30 6647 C 645.701 1.42364 1.42883 0
M  V30 6648 C 646.014 0.0441598 1.9555 0
M  V30 6649 O 647.22 -0.0798679 2.71382 0
M  V30 6650 C 645.676 2.5043 2.58482 0
M  V30 6651 C 645.284 3.94392 2.12506 0
M  V30 6652 C 647.028 2.59455 3.35981 0
M  V30 6653 C 644.935 4.93964 3.25198 0
M  V30 6654 H 643.865 0.52951 0.536782 0
M  V30 6655 H 646.516 1.68422 0.728448 0
M  V30 6656 H 644.898 2.1754 3.30896 0
M  V30 6657 H 646.072 4.36645 1.47233 0
M  V30 6658 H 644.387 3.89233 1.4794 0
M  V30 6659 H 646.984 3.31025 4.19912 0
M  V30 6660 H 647.327 1.63869 3.82691 0
M  V30 6661 H 647.86 2.91549 2.70637 0
M  V30 6662 H 644.599 5.91034 2.83477 0
M  V30 6663 H 644.119 4.56341 3.89247 0
M  V30 6664 H 645.798 5.15763 3.90637 0
M  V30 6665 N 645.93 -0.909495 1.28709 0
M  V30 6666 C 647.341 -1.47419 1.14563 0
M  V30 6667 C 647.692 -1.94432 -0.262832 0
M  V30 6668 O 646.817 -1.82842 -1.15748 0
M  V30 6669 C 647.412 -2.67933 2.07358 0
M  V30 6670 C 645.971 -3.20568 1.97264 0
M  V30 6671 C 645.118 -1.93269 1.98852 0
M  V30 6672 H 648.069 -0.721787 1.41336 0
M  V30 6673 H 648.09 -3.43339 1.64007 0
M  V30 6674 H 647.602 -2.33685 3.09859 0
M  V30 6675 H 645.703 -3.59531 0.978157 0
M  V30 6676 H 645.816 -3.85529 2.84436 0
M  V30 6677 H 644.18 -2.10553 1.43317 0
M  V30 6678 H 644.963 -1.61312 3.0304 0
M  V30 6679 N 647.408 -1.11026 -1.11852 0
M  V30 6680 C 648.636 -0.878818 -1.87308 0
M  V30 6681 C 649.051 0.57111 -1.79955 0
M  V30 6682 O 648.408 1.39409 -1.17777 0
M  V30 6683 C 648.459 -1.3264 -3.36287 0
M  V30 6684 O 648.18 -2.71948 -3.43476 0
M  V30 6685 C 649.681 -1.12974 -4.28663 0
M  V30 6686 H 646.901 -0.315015 -0.592458 0
M  V30 6687 H 649.445 -1.47649 -1.41492 0
M  V30 6688 H 647.6 -0.772269 -3.79625 0
M  V30 6689 H 648.014 -2.91241 -4.3621 0
M  V30 6690 H 649.488 -1.49198 -5.31454 0
M  V30 6691 H 649.965 -0.0689127 -4.39146 0
M  V30 6692 H 650.571 -1.67064 -3.91113 0
M  V30 6693 N 648.886 1.2938 -0.899927 0
M  V30 6694 C 649.834 2.29675 -0.367698 0
M  V30 6695 C 650.828 1.60787 0.533282 0
M  V30 6696 O 652.034 1.75126 0.416058 0
M  V30 6697 H 648.409 0.745284 -0.100279 0
M  V30 6698 H 650.38 2.72008 -1.22696 0
M  V30 6699 C 649.129 3.45512 0.389483 0
M  V30 6700 H 648.452 3.98713 -0.294575 0
M  V30 6701 H 649.892 4.17725 0.726744 0
M  V30 6702 C 648.351 2.969 1.59223 0
M  V30 6703 O 648.881 2.98195 2.69152 0
M  V30 6704 N 647.087 2.52728 1.43447 0
M  V30 6705 H 646.634 2.51873 0.540148 0
M  V30 6706 H 646.592 2.20561 2.24054 0
M  V30 6707 O 650.403 0.801822 1.40189 0
M  V30 6708 H 651.094 0.376359 1.90008 0
M  V30 END ATOM
M  V30 BEGIN BOND
M  V30 END BOND
M  V30 END CTAB
M  END
$$$$
