drugbank_target|P33221 Phosphoribosylglycinamide formyltransferase 2 (DB02236; DB02930; DB03434; DB03909; DB04395)
 OpenBabel12092119563D

  0  0  0     0  0            999 V3000
M  V30 BEGIN CTAB
M  V30 COUNTS 5991 6041 0 0 0
M  V30 BEGIN ATOM
M  V30 1 H -0.908 1.98254 -0.117106 0
M  V30 2 N 0 1.576 0 0
M  V30 3 C 0.933 2.03868 1.02534 0
M  V30 4 C 1.911 0.928543 1.3348 0
M  V30 5 O 3.095 1.19667 1.45644 0
M  V30 6 C 0.222 2.43627 2.35294 0
M  V30 7 C -0.732 3.65373 2.2001 0
M  V30 8 S 0.101 5.13292 1.52614 0
M  V30 9 C 1.257 5.56322 2.86805 0
M  V30 10 H 1.49 2.90518 0.631377 0
M  V30 11 H -0.977 1.52953 0.210867 0
M  V30 12 H 0.981 2.67203 3.11629 0
M  V30 13 H -0.358 1.57376 2.7183 0
M  V30 14 H -1.165 3.90944 3.18086 0
M  V30 15 H -1.563 3.418 1.51819 0
M  V30 16 H 0.729 5.58782 3.83104 0
M  V30 17 H 1.672 6.56266 2.65933 0
M  V30 18 H 2.08 4.83886 2.90714 0
M  V30 19 N 1.4781 -0.272755 1.55222 0
M  V30 20 C 2.7061 -1.02255 1.79865 0
M  V30 21 C 3.1211 -1.79924 0.572088 0
M  V30 22 O 2.4781 -1.76638 -0.458842 0
M  V30 23 C 2.5291 -1.98094 3.02392 0
M  V30 24 O 2.2501 -1.23572 4.20311 0
M  V30 25 C 3.7511 -2.84884 3.39641 0
M  V30 26 H 0.9711 -0.302057 0.599168 0
M  V30 27 H 3.5151 -0.303465 2.02236 0
M  V30 28 H 1.6701 -2.65465 2.82147 0
M  V30 29 H 2.0841 -1.88172 4.89583 0
M  V30 30 H 3.5581 -3.47927 4.28545 0
M  V30 31 H 4.0351 -3.54665 2.59055 0
M  V30 32 H 4.6411 -2.23003 3.62146 0
M  V30 33 N 2.9562 -1.48159 -0.537278 0
M  V30 34 C 3.8862 -1.65029 -1.6519 0
M  V30 35 C 4.8672 -0.499281 -1.62607 0
M  V30 36 O 6.0522 -0.730972 -1.79918 0
M  V30 37 C 3.1822 -1.68303 -3.03795 0
M  V30 38 C 2.1362 -2.8283 -3.21234 0
M  V30 39 C 1.4622 -2.71189 -4.60826 0
M  V30 40 C 2.7622 -4.24211 -3.04701 0
M  V30 41 H 4.4562 -2.58341 -1.51328 0
M  V30 42 H 2.0022 -1.24325 -0.726585 0
M  V30 43 H 3.9552 -1.78693 -3.81637 0
M  V30 44 H 2.6792 -0.715635 -3.18663 0
M  V30 45 H 1.3382 -2.71983 -2.45807 0
M  V30 46 H 0.9862 -1.72435 -4.7252 0
M  V30 47 H 0.6862 -3.48035 -4.7344 0
M  V30 48 H 2.2102 -2.83537 -5.40777 0
M  V30 49 H 3.6242 -4.3593 -3.72341 0
M  V30 50 H 2.0212 -5.01998 -3.28813 0
M  V30 51 H 3.0912 -4.41184 -2.01209 0
M  V30 52 N 4.4343 0.785586 -1.36625 0
M  V30 53 C 5.3643 1.91259 -1.33949 0
M  V30 54 C 6.3453 1.68795 -0.210325 0
M  V30 55 O 7.5303 1.89854 -0.408561 0
M  V30 56 C 4.6603 3.28339 -1.13186 0
M  V30 57 C 3.6143 3.65335 -2.22967 0
M  V30 58 C 2.9403 5.00806 -1.87342 0
M  V30 59 C 4.2403 3.7352 -3.65075 0
M  V30 60 H 5.9343 1.93755 -2.28253 0
M  V30 61 H 3.4803 0.930788 -1.09874 0
M  V30 62 H 5.4333 4.06804 -1.09948 0
M  V30 63 H 4.1573 3.2624 -0.153332 0
M  V30 64 H 2.8163 2.89169 -2.25337 0
M  V30 65 H 2.4643 4.95233 -0.880545 0
M  V30 66 H 2.1643 5.26529 -2.60846 0
M  V30 67 H 3.6883 5.81687 -1.85667 0
M  V30 68 H 5.1023 4.42168 -3.64911 0
M  V30 69 H 3.4993 4.10731 -4.37516 0
M  V30 70 H 4.5693 2.74527 -3.99703 0
M  V30 71 N 5.9124 1.20967 1.01018 0
M  V30 72 C 7.1604 1.02172 1.74371 0
M  V30 73 C 7.4814 -0.446414 1.89821 0
M  V30 74 O 6.7514 -1.32234 1.44537 0
M  V30 75 H 5.3314 0.375066 0.646014 0
M  V30 76 H 7.9934 1.52187 1.21758 0
M  V30 77 H 7.0894 1.48538 2.74487 0
M  V30 78 N 7.3905 -1.2043 1.01659 0
M  V30 79 C 8.6185 -1.93777 0.725132 0
M  V30 80 C 9.0335 -1.74772 -0.714166 0
M  V30 81 O 8.3905 -1.06169 -1.4844 0
M  V30 82 C 8.4415 -3.45876 1.05129 0
M  V30 83 O 8.1625 -3.6426 2.43406 0
M  V30 84 C 9.6635 -4.36368 0.780891 0
M  V30 85 H 6.8835 -0.615901 0.266284 0
M  V30 86 H 9.4275 -1.52922 1.35776 0
M  V30 87 H 7.5825 -3.8461 0.464065 0
M  V30 88 H 7.9965 -4.58246 2.55169 0
M  V30 89 H 9.4705 -5.41743 1.05918 0
M  V30 90 H 9.9475 -4.38275 -0.284937 0
M  V30 91 H 10.5535 -4.03296 1.35027 0
M  V30 92 N 8.8686 -0.792821 -1.36206 0
M  V30 93 C 9.8316 -0.199459 -2.2833 0
M  V30 94 C 10.8316 0.605189 -1.48977 0
M  V30 95 O 12.0216 0.425685 -1.68919 0
M  V30 96 C 9.1536 0.723523 -3.33134 0
M  V30 97 H 10.3466 -1.01181 -2.82316 0
M  V30 98 H 7.8996 -0.562485 -1.45828 0
M  V30 99 H 8.6346 1.56008 -2.84309 0
M  V30 100 H 8.4196 0.148436 -3.91819 0
M  V30 101 H 9.9096 1.13344 -4.01924 0
M  V30 102 N 10.3467 1.47872 -0.545128 0
M  V30 103 C 11.2767 2.32661 0.197793 0
M  V30 104 C 12.2577 1.43041 0.920504 0
M  V30 105 O 13.4427 1.71912 0.90333 0
M  V30 106 C 10.5727 3.24569 1.23582 0
M  V30 107 C 9.5267 4.23333 0.630323 0
M  V30 108 C 8.8527 5.0448 1.77211 0
M  V30 109 C 10.1527 5.20704 -0.407974 0
M  V30 110 H 11.8467 2.95024 -0.510045 0
M  V30 111 H 9.3927 1.4187 -0.246731 0
M  V30 112 H 11.3457 3.8272 1.76362 0
M  V30 113 H 10.0697 2.60236 1.97344 0
M  V30 114 H 8.7287 3.6639 0.123922 0
M  V30 115 H 8.3767 4.36561 2.49847 0
M  V30 116 H 8.0767 5.71339 1.37281 0
M  V30 117 H 9.6007 5.65487 2.3034 0
M  V30 118 H 11.0147 5.7329 0.033305 0
M  V30 119 H 9.4117 5.95699 -0.725486 0
M  V30 120 H 10.4817 4.66917 -1.30828 0
M  V30 121 N 11.8248 0.280983 1.55075 0
M  V30 122 C 13.2408 -0.0729964 1.59433 0
M  V30 123 C 13.4408 -1.5411 1.29817 0
M  V30 124 O 12.4968 -2.29086 1.06187 0
M  V30 125 C 13.8098 0.306921 2.9913 0
M  V30 126 C 15.3578 0.254023 3.11968 0
M  V30 127 C 15.8328 0.608467 4.5394 0
M  V30 128 N 17.3238 0.560241 4.59799 0
M  V30 129 C 18.0588 0.80722 5.6769 0
M  V30 130 N 17.5548 1.11912 6.83701 0
M  V30 131 N 19.3478 0.735623 5.57266 0
M  V30 132 H 11.4988 1.238 1.7259 0
M  V30 133 H 13.7618 0.500547 0.805082 0
M  V30 134 H 13.4678 1.32816 3.25657 0
M  V30 135 H 13.3418 -0.349363 3.75579 0
M  V30 136 H 15.7288 -0.75794 2.852 0
M  V30 137 H 15.8098 0.944649 2.37718 0
M  V30 138 H 15.4538 1.61814 4.81434 0
M  V30 139 H 15.3838 -0.104013 5.26497 0
M  V30 140 H 17.8748 0.329288 3.76463 0
M  V30 141 H 18.1878 1.29409 7.61888 0
M  V30 142 H 16.5328 1.15695 6.85303 0
M  V30 143 H 19.7238 0.491752 4.6551 0
M  V30 144 H 19.8968 0.931482 6.4127 0
M  V30 145 N 13.3029 -1.57598 0.00835791 0
M  V30 146 C 14.7139 -1.7892 -0.53333 0
M  V30 147 C 15.0649 -0.916609 -1.73473 0
M  V30 148 O 14.1899 -0.121336 -2.1606 0
M  V30 149 C 14.7849 -3.24488 -0.974313 0
M  V30 150 C 13.3439 -3.46878 -1.46125 0
M  V30 151 C 12.4909 -2.74157 -0.416302 0
M  V30 152 H 15.4419 -1.56958 0.234495 0
M  V30 153 H 15.4629 -3.3306 -1.83988 0
M  V30 154 H 14.9749 -3.87972 -0.099718 0
M  V30 155 H 13.0759 -2.8862 -2.35646 0
M  V30 156 H 13.1889 -4.55572 -1.48295 0
M  V30 157 H 11.5529 -2.39022 -0.87981 0
M  V30 158 H 12.3359 -3.40345 0.44947 0
M  V30 159 N 14.781 0.264519 -1.55364 0
M  V30 160 C 15.744 1.31046 -1.88042 0
M  V30 161 C 16.744 1.41943 -0.755569 0
M  V30 162 O 17.934 1.40947 -1.02369 0
M  V30 163 C 15.066 2.69067 -2.09323 0
M  V30 164 H 16.259 1.03297 -2.81549 0
M  V30 165 H 13.812 0.502989 -1.47986 0
M  V30 166 H 14.547 3.01982 -1.18226 0
M  V30 167 H 14.332 2.62542 -2.91229 0
M  V30 168 H 15.822 3.44623 -2.35848 0
M  V30 169 N 16.2591 1.48442 0.529413 0
M  V30 170 C 17.2221 1.62524 1.61612 0
M  V30 171 C 18.2221 0.498509 1.52877 0
M  V30 172 O 19.4121 0.76431 1.56537 0
M  V30 173 C 16.5441 1.59597 3.01233 0
M  V30 174 H 17.7371 2.59423 1.50465 0
M  V30 175 H 15.2901 1.37047 0.751514 0
M  V30 176 H 16.0251 0.641781 3.17886 0
M  V30 177 H 15.8101 2.41397 3.08982 0
M  V30 178 H 17.3001 1.72646 3.80241 0
M  V30 179 N 17.7372 -0.778329 1.37039 0
M  V30 180 C 18.9652 -1.56734 1.35063 0
M  V30 181 C 19.3802 -1.88686 -0.0655597 0
M  V30 182 O 18.7372 -1.5096 -1.02554 0
M  V30 183 C 18.7882 -2.88163 2.18276 0
M  V30 184 O 18.5092 -2.57583 3.54376 0
M  V30 185 C 20.0102 -3.82422 2.24206 0
M  V30 186 H 17.2302 -0.485778 0.462883 0
M  V30 187 H 19.7742 -0.965185 1.8029 0
M  V30 188 H 17.9292 -3.44818 1.76576 0
M  V30 189 H 18.3432 -3.41699 3.97922 0
M  V30 190 H 19.8172 -4.71667 2.86765 0
M  V30 191 H 20.2942 -4.21078 1.24861 0
M  V30 192 H 20.9002 -3.31697 2.6619 0
M  V30 193 N 19.2153 -1.21501 -1.00376 0
M  V30 194 C 20.6313 -0.972629 -1.26539 0
M  V30 195 C 20.8313 0.340257 -1.98606 0
M  V30 196 O 19.8873 1.06561 -2.28913 0
M  V30 197 C 21.2003 -2.16404 -2.08781 0
M  V30 198 C 22.7483 -2.20643 -2.22004 0
M  V30 199 C 23.2233 -3.39306 -3.07629 0
M  V30 200 N 24.7143 -3.39401 -3.15217 0
M  V30 201 C 25.4493 -4.27867 -3.81729 0
M  V30 202 N 24.9453 -5.26533 -4.5026 0
M  V30 203 N 26.7383 -4.15672 -3.78382 0
M  V30 204 H 18.8893 -2.05929 -0.520281 0
M  V30 205 H 21.1523 -0.901803 -0.292328 0
M  V30 206 H 20.8583 -3.11554 -1.63178 0
M  V30 207 H 20.7323 -2.15567 -3.09533 0
M  V30 208 H 23.1193 -1.26048 -2.66825 0
M  V30 209 H 23.2003 -2.25523 -1.20718 0
M  V30 210 H 22.8443 -4.34195 -2.63509 0
M  V30 211 H 22.7743 -3.31665 -4.09031 0
M  V30 212 H 25.2653 -2.67997 -2.66432 0
M  V30 213 H 25.5783 -5.90337 -4.98721 0
M  V30 214 H 23.9233 -5.30457 -4.49044 0
M  V30 215 H 27.1143 -3.3785 -3.23998 0
M  V30 216 H 27.2873 -4.84825 -4.2994 0
M  V30 217 N 20.6934 1.19889 -1.02296 0
M  V30 218 C 21.9394 1.89701 -0.717033 0
M  V30 219 C 22.2724 1.7905 0.751989 0
M  V30 220 O 21.5474 1.17891 1.547 0
M  V30 221 C 21.8304 3.40858 -1.16136 0
M  V30 222 C 21.6834 3.60411 -2.69117 0
M  V30 223 C 23.0024 4.33876 -0.737549 0
M  V30 224 H 20.1214 0.688874 -0.261957 0
M  V30 225 H 22.7634 1.41154 -1.27183 0
M  V30 226 H 20.9134 3.82335 -0.689342 0
M  V30 227 H 22.5854 3.28145 -3.2422 0
M  V30 228 H 20.8284 3.03665 -3.0979 0
M  V30 229 H 21.4994 4.66396 -2.95261 0
M  V30 230 H 23.9754 4.00081 -1.14344 0
M  V30 231 H 22.8514 5.38242 -1.0764 0
M  V30 232 H 23.1124 4.40628 0.360436 0
M  V30 233 N 22.1715 0.800033 1.35784 0
M  V30 234 C 23.1045 0.151499 2.27697 0
M  V30 235 C 24.0825 -0.678663 1.4776 0
M  V30 236 O 25.2665 -0.647358 1.77035 0
M  V30 237 C 22.3935 -0.790492 3.29346 0
M  V30 238 C 21.4395 -0.0407832 4.26481 0
M  V30 239 S 22.2725 1.29077 5.19711 0
M  V30 240 C 23.4285 0.353055 6.24903 0
M  V30 241 H 23.6615 0.930796 2.82353 0
M  V30 242 H 21.1945 0.594767 1.42485 0
M  V30 243 H 23.1525 -1.3285 3.88409 0
M  V30 244 H 21.8135 -1.54312 2.73581 0
M  V30 245 H 21.0065 -0.755971 4.98298 0
M  V30 246 H 20.6085 0.427063 3.71554 0
M  V30 247 H 22.9005 -0.464147 6.75908 0
M  V30 248 H 23.8435 1.04023 7.00418 0
M  V30 249 H 24.2515 -0.0483344 5.64479 0
M  V30 250 N 23.6496 -1.47581 0.552962 0
M  V30 251 C 24.5796 -2.32762 -0.185451 0
M  V30 252 C 25.5606 -1.43527 -0.912905 0
M  V30 253 O 26.7456 -1.72388 -0.894201 0
M  V30 254 C 23.8756 -3.25219 -1.21859 0
M  V30 255 C 22.8296 -4.23661 -0.607864 0
M  V30 256 C 22.1556 -5.05413 -1.74533 0
M  V30 257 C 23.4556 -5.20481 0.435582 0
M  V30 258 H 25.1496 -2.94749 0.525684 0
M  V30 259 H 22.6956 -1.41738 0.254251 0
M  V30 260 H 24.6486 -3.8365 -1.7433 0
M  V30 261 H 23.3726 -2.61279 -1.95961 0
M  V30 262 H 22.0316 -3.66451 -0.104489 0
M  V30 263 H 21.6796 -4.3788 -2.47529 0
M  V30 264 H 21.3796 -5.72059 -1.34249 0
M  V30 265 H 22.9036 -5.66701 -2.27338 0
M  V30 266 H 24.3176 -5.733 -0.00290157 0
M  V30 267 H 22.7146 -5.95305 0.757067 0
M  V30 268 H 23.7846 -4.66217 1.33303 0
M  V30 269 N 25.1277 -0.289203 -1.54924 0
M  V30 270 C 26.0577 0.58549 -2.2604 0
M  V30 271 C 27.0387 1.14753 -1.25562 0
M  V30 272 O 28.2237 1.17906 -1.54311 0
M  V30 273 C 25.3537 1.76305 -2.99222 0
M  V30 274 C 24.3077 1.33191 -4.06748 0
M  V30 275 C 23.6337 2.5937 -4.6758 0
M  V30 276 C 24.9337 0.471775 -5.20165 0
M  V30 277 H 26.6277 -0.00763532 -2.99399 0
M  V30 278 H 24.1737 -0.00511229 -1.43999 0
M  V30 279 H 26.1267 2.38097 -3.47689 0
M  V30 280 H 24.8507 2.38223 -2.23422 0
M  V30 281 H 23.5097 0.737121 -3.59113 0
M  V30 282 H 23.1577 3.19576 -3.88433 0
M  V30 283 H 22.8577 2.31228 -5.40192 0
M  V30 284 H 24.3817 3.21985 -5.18804 0
M  V30 285 H 25.7957 0.995056 -5.64599 0
M  V30 286 H 24.1927 0.284639 -5.99425 0
M  V30 287 H 25.2627 -0.506041 -4.82252 0
M  V30 288 N 26.6058 1.57591 -0.0167156 0
M  V30 289 C 27.8538 1.90906 0.663285 0
M  V30 290 C 28.1748 0.892509 1.73376 0
M  V30 291 O 27.4448 -0.0677623 1.95783 0
M  V30 292 H 26.0248 0.704637 0.247983 0
M  V30 293 H 28.6868 1.94803 -0.0615909 0
M  V30 294 H 27.7828 2.9116 1.12393 0
M  V30 295 N 28.0839 -0.256276 1.55502 0
M  V30 296 C 29.3089 -1.00766 1.81276 0
M  V30 297 C 29.7339 -1.78524 0.59252 0
M  V30 298 O 29.0919 -1.75413 -0.45827 0
M  V30 299 C 29.1399 -1.92869 3.04687 0
M  V30 300 O 28.2439 -3.019 2.80945 0
M  V30 301 H 27.5849 -0.287224 0.598664 0
M  V30 302 H 30.1149 -0.280109 2.02674 0
M  V30 303 H 30.1249 -2.34511 3.33869 0
M  V30 304 H 28.7999 -1.35689 3.93143 0
M  V30 305 H 27.3769 -2.64454 2.62904 0
M  V30 306 N 29.562 -1.4872 -0.521534 0
M  V30 307 C 30.81 -1.56857 -1.27437 0
M  V30 308 C 31.131 -0.247982 -1.93417 0
M  V30 309 O 30.401 0.731151 -1.81744 0
M  V30 310 H 28.981 -0.577885 -0.473347 0
M  V30 311 H 31.643 -1.85233 -0.606205 0
M  V30 312 H 30.739 -2.35402 -2.0492 0
M  V30 313 N 31.0401 0.771051 -1.3745 0
M  V30 314 C 31.9501 1.91538 -1.35464 0
M  V30 315 C 32.9661 1.72134 -0.254123 0
M  V30 316 O 34.1421 1.95358 -0.489626 0
M  V30 317 C 31.2071 3.26671 -1.16134 0
M  V30 318 C 30.2681 3.58723 -2.35831 0
M  V30 319 C 29.5011 4.87409 -2.17413 0
M  V30 320 O 29.7241 5.58506 -1.15876 0
M  V30 321 O 28.6581 5.18539 -3.05615 0
M  V30 322 H 32.4841 1.96165 -2.31847 0
M  V30 323 H 30.0691 0.9139 -1.18187 0
M  V30 324 H 31.9511 4.07499 -1.07345 0
M  V30 325 H 30.6261 3.22894 -0.228251 0
M  V30 326 H 29.5331 2.78127 -2.50192 0
M  V30 327 H 30.8661 3.67243 -3.27709 0
M  V30 328 N 32.5182 1.22032 0.997298 0
M  V30 329 C 33.4482 1.01065 2.10495 0
M  V30 330 C 34.4292 -0.0669542 1.69968 0
M  V30 331 O 35.6142 0.0943987 1.9397 0
M  V30 332 C 32.7442 0.582874 3.42374 0
M  V30 333 C 31.6982 1.60592 3.96729 0
M  V30 334 C 31.0242 1.03412 5.24605 0
M  V30 335 C 32.3242 2.99478 4.27914 0
M  V30 336 H 34.0182 1.93708 2.28292 0
M  V30 337 H 31.5642 0.932761 1.09707 0
M  V30 338 H 33.5172 0.423332 4.19268 0
M  V30 339 H 32.2412 -0.379213 3.24391 0
M  V30 340 H 30.9002 1.75316 3.21963 0
M  V30 341 H 30.5482 0.063518 5.0296 0
M  V30 342 H 30.2482 1.71754 5.61938 0
M  V30 343 H 31.7722 0.886066 6.04137 0
M  V30 344 H 33.1862 2.88153 4.95622 0
M  V30 345 H 31.5832 3.64903 4.76409 0
M  V30 346 H 32.6532 3.49742 3.3587 0
M  V30 347 N 33.9963 -1.19345 1.0293 0
M  V30 348 C 35.2443 -1.88665 0.724574 0
M  V30 349 C 35.5653 -1.80036 -0.749144 0
M  V30 350 O 34.8353 -1.2111 -1.53978 0
M  V30 351 H 33.4153 -0.698406 0.265025 0
M  V30 352 H 36.0773 -1.44885 1.30362 0
M  V30 353 H 35.1733 -2.94987 1.01926 0
M  V30 354 N 35.4744 -0.807222 -1.35358 0
M  V30 355 C 36.4214 -0.216037 -2.29787 0
M  V30 356 C 37.3914 0.650278 -1.52842 0
M  V30 357 O 38.5764 0.595227 -1.81278 0
M  V30 358 C 35.7164 0.628893 -3.39321 0
M  V30 359 C 34.8294 -0.257927 -4.31229 0
M  V30 360 C 33.9644 0.595069 -5.27856 0
M  V30 361 C 33.0034 -0.292111 -6.11403 0
M  V30 362 N 32.1404 0.520895 -7.00165 0
M  V30 363 H 36.9804 -1.02671 -2.79755 0
M  V30 364 H 34.5174 -0.517839 -1.37684 0
M  V30 365 H 36.4754 1.13393 -4.01494 0
M  V30 366 H 35.1054 1.40482 -2.90628 0
M  V30 367 H 34.1574 -0.881076 -3.70056 0
M  V30 368 H 35.4694 -0.940759 -4.89848 0
M  V30 369 H 34.6234 1.16522 -5.95405 0
M  V30 370 H 33.3624 1.31146 -4.69736 0
M  V30 371 H 32.3674 -0.874525 -5.428 0
M  V30 372 H 33.5924 -1.00638 -6.71602 0
M  V30 373 H 31.5384 1.22125 -6.44532 0
M  V30 374 H 31.4554 -0.103877 -7.55929 0
M  V30 375 H 32.7234 1.0743 -7.72062 0
M  V30 376 N 36.9525 1.47285 -0.560781 0
M  V30 377 C 37.8625 2.33846 0.187954 0
M  V30 378 C 38.8785 1.48412 0.908293 0
M  V30 379 O 40.0545 1.81332 0.876388 0
M  V30 380 C 37.1195 3.25178 1.2025 0
M  V30 381 C 36.1805 4.26504 0.489208 0
M  V30 382 C 35.4135 5.13472 1.45542 0
M  V30 383 O 35.6365 5.02959 2.6905 0
M  V30 384 O 34.5705 5.93902 0.977963 0
M  V30 385 H 38.3965 2.99177 -0.522177 0
M  V30 386 H 35.9815 1.45903 -0.321364 0
M  V30 387 H 37.8635 3.81584 1.78805 0
M  V30 388 H 36.5385 2.6247 1.89449 0
M  V30 389 H 35.4455 3.73847 -0.137627 0
M  V30 390 H 36.7785 4.91935 -0.161399 0
M  V30 391 N 38.4306 0.297415 1.54768 0
M  V30 392 C 39.6766 -0.313376 2.00364 0
M  V30 393 C 40.0096 -1.53815 1.18553 0
M  V30 394 O 39.2846 -1.92739 0.261103 0
M  V30 395 C 39.5676 -0.673525 3.53745 0
M  V30 396 C 39.4206 0.560133 4.46299 0
M  V30 397 C 40.7396 -1.50143 4.13697 0
M  V30 398 H 37.8586 -0.112428 0.728374 0
M  V30 399 H 40.5006 0.4088 1.8555 0
M  V30 400 H 38.6506 -1.28881 3.665 0
M  V30 401 H 40.3226 1.19863 4.45455 0
M  V30 402 H 38.5656 1.19405 4.17043 0
M  V30 403 H 39.2366 0.26405 5.51368 0
M  V30 404 H 41.7126 -0.981588 4.04356 0
M  V30 405 H 40.5886 -1.72221 5.21182 0
M  V30 406 H 40.8496 -2.48952 3.65343 0
M  V30 407 N 39.9087 -1.5758 0.0250728 0
M  V30 408 C 40.8717 -2.08896 -0.943139 0
M  V30 409 C 41.8717 -1.00321 -1.25668 0
M  V30 410 O 43.0617 -1.26495 -1.19769 0
M  V30 411 C 40.1937 -2.55143 -2.26086 0
M  V30 412 H 41.3867 -2.95723 -0.498775 0
M  V30 413 H 38.9397 -1.54703 -0.222888 0
M  V30 414 H 39.6747 -1.71633 -2.75159 0
M  V30 415 H 39.4597 -3.34461 -2.04641 0
M  V30 416 H 40.9497 -2.95083 -2.95492 0
M  V30 417 N 41.3868 0.248026 -1.55636 0
M  V30 418 C 42.6358 0.974134 -1.76617 0
M  V30 419 C 42.9488 1.86528 -0.588796 0
M  V30 420 O 44.1548 2.62805 -0.681594 0
M  V30 421 C 42.6108 1.78213 -3.12679 0
M  V30 422 C 42.2188 0.93843 -4.38061 0
M  V30 423 C 43.9628 2.50104 -3.42999 0
M  V30 424 C 41.8698 1.74225 -5.65155 0
M  V30 425 H 40.7998 0.36745 -0.658405 0
M  V30 426 H 43.4508 0.22884 -1.82067 0
M  V30 427 H 41.8328 2.56933 -3.01333 0
M  V30 428 H 43.0068 0.193635 -4.60393 0
M  V30 429 H 41.3218 0.332905 -4.15067 0
M  V30 430 H 43.9188 3.10694 -4.3517 0
M  V30 431 H 44.2618 3.21662 -2.64271 0
M  V30 432 H 44.7948 1.78395 -3.55556 0
M  V30 433 H 41.5338 1.07043 -6.46701 0
M  V30 434 H 41.0538 2.46235 -5.46926 0
M  V30 435 H 42.7328 2.30967 -6.0437 0
M  V30 436 N 42.8649 1.48995 0.513639 0
M  V30 437 C 43.7749 1.67443 1.64317 0
M  V30 438 C 44.7909 0.556947 1.64846 0
M  V30 439 O 45.9669 0.830082 1.83498 0
M  V30 440 C 43.0319 1.72515 3.00732 0
M  V30 441 C 42.0929 2.96009 3.1093 0
M  V30 442 C 41.3259 3.00829 4.40837 0
M  V30 443 O 41.5489 2.13594 5.28898 0
M  V30 444 O 40.4829 3.93168 4.55744 0
M  V30 445 H 44.3089 2.63106 1.51687 0
M  V30 446 H 41.8939 1.32588 0.688543 0
M  V30 447 H 43.7759 1.78277 3.81831 0
M  V30 448 H 42.4509 0.800278 3.13651 0
M  V30 449 H 41.3579 2.9577 2.29065 0
M  V30 450 H 42.6909 3.87934 3.02933 0
M  V30 451 N 44.343 -0.763751 1.37857 0
M  V30 452 C 45.583 -1.53551 1.34913 0
M  V30 453 C 45.947 -1.91895 -0.0635882 0
M  V30 454 O 47.148 -2.67916 -0.217825 0
M  V30 455 C 45.419 -2.76126 2.26912 0
M  V30 456 S 46.978 -3.66105 2.41893 0
M  V30 457 H 43.796 -0.52559 0.478828 0
M  V30 458 H 46.398 -0.897435 1.73685 0
M  V30 459 H 45.102 -2.4605 3.28463 0
M  V30 460 H 44.633 -3.44887 1.89253 0
M  V30 461 H 46.648 -4.68473 1.63545 0
M  V30 462 N 45.8211 -1.22559 -0.990812 0
M  V30 463 C 46.7531 -0.955325 -2.08342 0
M  V30 464 C 47.7661 0.0668408 -1.62663 0
M  V30 465 O 48.9551 -0.167421 -1.77713 0
M  V30 466 C 46.0551 -0.415566 -3.36342 0
M  V30 467 C 45.2281 -1.49544 -4.11042 0
M  V30 468 C 44.2871 -0.962399 -5.17324 0
M  V30 469 O 43.3131 -1.64907 -5.44788 0
M  V30 470 N 44.5151 0.215134 -5.80101 0
M  V30 471 H 47.2801 -1.89596 -2.32106 0
M  V30 472 H 44.8411 -1.13276 -1.15673 0
M  V30 473 H 46.8331 -0.0442386 -4.04676 0
M  V30 474 H 45.4031 0.430232 -3.09625 0
M  V30 475 H 44.6231 -2.04 -3.37309 0
M  V30 476 H 45.9111 -2.22195 -4.57719 0
M  V30 477 H 45.3091 0.789779 -5.6016 0
M  V30 478 H 43.8661 0.527826 -6.49659 0
M  V30 479 N 47.2992 1.18797 -1.03562 0
M  V30 480 C 48.7152 1.40671 -0.753917 0
M  V30 481 C 48.9152 1.9043 0.658686 0
M  V30 482 O 47.9712 2.08538 1.42366 0
M  V30 483 C 49.2842 2.41192 -1.79574 0
M  V30 484 C 50.8322 2.54928 -1.81606 0
M  V30 485 C 51.3072 3.58709 -2.84766 0
M  V30 486 N 52.7982 3.66212 -2.83625 0
M  V30 487 C 53.5332 4.46225 -3.60098 0
M  V30 488 N 53.0292 5.29888 -4.46308 0
M  V30 489 N 54.8222 4.40939 -3.4861 0
M  V30 490 H 46.9732 0.848221 -1.94728 0
M  V30 491 H 49.2362 0.435081 -0.842264 0
M  V30 492 H 48.9422 2.11669 -2.80872 0
M  V30 493 H 48.8162 3.40467 -1.62365 0
M  V30 494 H 51.2032 2.83771 -0.809817 0
M  V30 495 H 51.2842 1.55784 -2.02891 0
M  V30 496 H 50.9282 3.30607 -3.85566 0
M  V30 497 H 50.8582 4.57519 -2.60737 0
M  V30 498 H 53.3492 3.06466 -2.21105 0
M  V30 499 H 53.6622 5.88078 -5.01382 0
M  V30 500 H 52.0072 5.29326 -4.50377 0
M  V30 501 H 55.1982 3.74624 -2.80668 0
M  V30 502 H 55.3712 5.03056 -4.08459 0
M  V30 503 N 48.7773 0.814389 1.34928 0
M  V30 504 C 49.7073 0.244827 2.32213 0
M  V30 505 C 50.6883 -0.634024 1.57842 0
M  V30 506 O 51.8733 -0.562676 1.8587 0
M  V30 507 C 49.0033 -0.601106 3.42058 0
M  V30 508 C 47.9573 0.179896 4.27622 0
M  V30 509 C 47.2833 -0.788237 5.28858 0
M  V30 510 C 48.5833 1.38329 5.03649 0
M  V30 511 H 50.2773 1.05763 2.80097 0
M  V30 512 H 47.8233 0.510029 1.34665 0
M  V30 513 H 49.7763 -1.00968 4.09125 0
M  V30 514 H 48.5003 -1.44688 2.92802 0
M  V30 515 H 47.1593 0.569739 3.62146 0
M  V30 516 H 46.8073 -1.62973 4.75866 0
M  V30 517 H 46.5073 -0.269942 5.8698 0
M  V30 518 H 48.0313 -1.19485 5.98795 0
M  V30 519 H 49.4453 1.04918 5.63618 0
M  V30 520 H 47.8423 1.83662 5.71304 0
M  V30 521 H 48.9123 2.16592 4.33839 0
M  V30 522 N 50.2554 -1.46986 0.568584 0
M  V30 523 C 51.5034 -2.02041 0.0487022 0
M  V30 524 C 51.8244 -1.44408 -1.31039 0
M  V30 525 O 51.0944 -0.623477 -1.85714 0
M  V30 526 H 49.6744 -0.746849 0.015014 0
M  V30 527 H 52.3364 -1.80257 0.741168 0
M  V30 528 H 51.4324 -3.12085 -0.0308961 0
M  V30 529 N 51.7335 -0.305618 -1.54608 0
M  V30 530 C 52.9795 0.302746 -2.00528 0
M  V30 531 C 53.3125 1.53184 -1.19367 0
M  V30 532 O 52.5875 1.92598 -0.271321 0
M  V30 533 C 52.8705 0.654756 -3.54097 0
M  V30 534 C 52.7235 -0.583793 -4.45995 0
M  V30 535 C 54.0425 1.47947 -4.14487 0
M  V30 536 H 51.1615 0.108564 -0.72896 0
M  V30 537 H 53.8035 -0.418634 -1.85331 0
M  V30 538 H 51.9535 1.26935 -3.67178 0
M  V30 539 H 53.6255 -1.22224 -4.44814 0
M  V30 540 H 51.8685 -1.21615 -4.16404 0
M  V30 541 H 52.5395 -0.293287 -5.5122 0
M  V30 542 H 55.0155 0.96013 -4.04871 0
M  V30 543 H 53.8915 1.69454 -5.22088 0
M  V30 544 H 54.1525 2.47011 -3.66658 0
M  V30 545 N 53.2116 1.57565 -0.0334293 0
M  V30 546 C 54.1216 2.13943 0.962572 0
M  V30 547 C 55.1376 1.09276 1.35406 0
M  V30 548 O 56.3136 1.41355 1.4346 0
M  V30 549 C 53.3786 2.65887 2.22497 0
M  V30 550 C 52.4396 3.85286 1.8935 0
M  V30 551 C 51.6726 4.34743 3.09571 0
M  V30 552 O 51.8956 3.83352 4.22371 0
M  V30 553 O 50.8296 5.26538 2.91618 0
M  V30 554 H 54.6556 2.99333 0.513169 0
M  V30 555 H 52.2406 1.4822 0.18743 0
M  V30 556 H 54.1226 2.99346 2.96598 0
M  V30 557 H 52.7976 1.83578 2.6661 0
M  V30 558 H 51.7046 3.56746 1.1262 0
M  V30 559 H 53.0376 4.68771 1.5005 0
M  V30 560 N 54.6897 -0.239769 1.55765 0
M  V30 561 C 55.9357 -0.968234 1.78194 0
M  V30 562 C 56.2687 -1.84701 0.599938 0
M  V30 563 O 55.5437 -1.9031 -0.401524 0
M  V30 564 C 55.8267 -1.8227 3.10564 0
M  V30 565 C 55.6797 -0.971633 4.3918 0
M  V30 566 C 56.9987 -2.80388 3.39221 0
M  V30 567 H 54.1177 -0.350572 0.648281 0
M  V30 568 H 56.7597 -0.238259 1.885 0
M  V30 569 H 54.9097 -2.44507 3.01908 0
M  V30 570 H 56.5817 -0.367408 4.59835 0
M  V30 571 H 54.8247 -0.276276 4.32919 0
M  V30 572 H 55.4957 -1.60346 5.28198 0
M  V30 573 H 57.9717 -2.28287 3.47885 0
M  V30 574 H 56.8477 -3.3729 4.33044 0
M  V30 575 H 57.1087 -3.57212 2.60484 0
M  V30 576 N 56.1678 -1.49265 -0.50573 0
M  V30 577 C 57.4168 -1.57761 -1.25675 0
M  V30 578 C 57.7298 -0.267371 -1.93764 0
M  V30 579 O 58.9358 -0.230827 -2.70517 0
M  V30 580 C 57.3918 -2.78332 -2.28165 0
M  V30 581 C 56.9998 -4.16096 -1.66037 0
M  V30 582 C 58.7438 -2.96155 -3.04125 0
M  V30 583 C 56.6508 -5.27895 -2.6661 0
M  V30 584 H 55.5808 -0.587391 -0.472745 0
M  V30 585 H 58.2318 -1.75644 -0.53118 0
M  V30 586 H 56.6138 -2.53934 -3.03865 0
M  V30 587 H 57.7878 -4.50612 -0.963622 0
M  V30 588 H 56.1028 -4.03591 -1.02484 0
M  V30 589 H 58.6998 -3.76849 -3.79327 0
M  V30 590 H 59.0428 -2.06534 -3.61455 0
M  V30 591 H 59.5758 -3.2057 -2.35541 0
M  V30 592 H 56.3148 -6.1956 -2.14068 0
M  V30 593 H 55.8348 -4.97839 -3.34539 0
M  V30 594 H 57.5138 -5.57031 -3.29129 0
M  V30 595 N 57.6459 0.756429 -1.3826 0
M  V30 596 C 58.6089 1.85176 -1.35065 0
M  V30 597 C 59.6089 1.58818 -0.251703 0
M  V30 598 O 60.7989 1.66615 -0.508433 0
M  V30 599 C 57.9309 3.22596 -1.10201 0
M  V30 600 H 59.1239 1.89417 -2.3251 0
M  V30 601 H 56.6769 0.95783 -1.23512 0
M  V30 602 H 57.4119 3.24025 -0.133504 0
M  V30 603 H 57.1969 3.43122 -1.89762 0
M  V30 604 H 58.6869 4.02673 -1.10654 0
M  V30 605 N 59.124 1.23083 0.984299 0
M  V30 606 C 60.37 1.06214 1.72761 0
M  V30 607 C 60.703 -0.400584 1.90024 0
M  V30 608 O 59.978 -1.29672 1.44967 0
M  V30 609 C 60.261 1.78375 3.12817 0
M  V30 610 C 60.114 3.32296 3.03149 0
M  V30 611 C 61.433 1.54309 4.12161 0
M  V30 612 H 58.552 0.387251 0.627061 0
M  V30 613 H 61.194 1.51536 1.14616 0
M  V30 614 H 59.344 1.39848 3.62457 0
M  V30 615 H 61.016 3.8032 2.61064 0
M  V30 616 H 59.259 3.6153 2.39747 0
M  V30 617 H 59.93 3.77972 4.02295 0
M  V30 618 H 62.406 1.87791 3.71314 0
M  V30 619 H 61.282 2.07281 5.08258 0
M  V30 620 H 61.543 0.477572 4.39513 0
M  V30 621 N 60.6021 -1.18246 1.0419 0
M  V30 622 C 61.8791 -1.84121 0.660208 0
M  V30 623 C 62.2591 -1.92778 -0.860221 0
M  V30 624 O 61.6071 -1.45464 -1.76217 0
M  V30 625 C 61.8171 -3.22355 1.33747 0
M  V30 626 C 63.1651 -3.98376 1.46906 0
M  V30 627 O 64.1891 -3.31799 1.29568 0
M  V30 628 O 63.0481 -5.17665 1.75171 0
M  V30 629 H 60.1421 -0.794036 0.231161 0
M  V30 630 H 62.6881 -1.25628 1.14087 0
M  V30 631 H 61.4601 -3.10964 2.37522 0
M  V30 632 H 61.0831 -3.88506 0.845515 0
M  V30 633 N 62.0802 -0.821533 -1.34494 0
M  V30 634 C 63.4962 -0.507117 -1.51329 0
M  V30 635 C 63.6962 0.968964 -1.76673 0
M  V30 636 O 62.7522 1.75348 -1.81685 0
M  V30 637 C 64.0652 -1.36544 -2.67911 0
M  V30 638 C 65.6132 -1.36242 -2.81793 0
M  V30 639 C 66.0882 -2.2052 -4.01416 0
M  V30 640 N 67.5792 -2.18136 -4.08621 0
M  V30 641 C 68.3142 -2.80095 -5.00334 0
M  V30 642 N 67.8102 -3.51039 -5.9728 0
M  V30 643 N 69.6032 -2.69656 -4.93196 0
M  V30 644 H 61.7542 -1.77729 -1.16302 0
M  V30 645 H 64.0172 -0.757291 -0.570276 0
M  V30 646 H 63.7232 -2.41361 -2.55808 0
M  V30 647 H 63.5972 -1.02917 -3.62888 0
M  V30 648 H 65.9842 -0.322041 -2.93338 0
M  V30 649 H 66.0652 -1.73866 -1.87628 0
M  V30 650 H 65.7092 -3.24607 -3.90631 0
M  V30 651 H 65.6392 -1.80247 -4.94791 0
M  V30 652 H 68.1302 -1.6653 -3.39229 0
M  V30 653 H 68.4432 -3.95565 -6.63889 0
M  V30 654 H 66.7882 -3.55145 -5.97409 0
M  V30 655 H 69.9792 -2.13808 -4.16418 0
M  V30 656 H 70.1522 -3.1823 -5.64476 0
M  V30 657 N 63.5583 1.46682 -0.576371 0
M  V30 658 C 64.7883 2.06498 -0.0648694 0
M  V30 659 C 65.1963 1.42665 1.24271 0
M  V30 660 O 64.5393 0.523886 1.76071 0
M  V30 661 C 64.6013 3.5904 0.181816 0
M  V30 662 C 64.2653 4.45028 -1.0392 0
M  V30 663 C 65.2623 4.81959 -1.94966 0
M  V30 664 C 62.9473 4.86259 -1.25927 0
M  V30 665 C 64.9413 5.58942 -3.06371 0
M  V30 666 C 62.6283 5.63002 -2.37638 0
M  V30 667 C 63.6263 5.99257 -3.2769 0
M  V30 668 O 63.3143 6.7445 -4.37461 0
M  V30 669 H 63.0463 0.674028 -0.0515987 0
M  V30 670 H 65.6003 1.89393 -0.794951 0
M  V30 671 H 63.8303 3.74429 0.966436 0
M  V30 672 H 65.5193 4.00806 0.641047 0
M  V30 673 H 66.2853 4.50689 -1.79177 0
M  V30 674 H 62.1643 4.57494 -0.567448 0
M  V30 675 H 65.7083 5.87158 -3.76684 0
M  V30 676 H 61.6053 5.93686 -2.53392 0
M  V30 677 H 62.3733 6.92867 -4.35749 0
M  V30 678 N 65.0364 0.313813 1.54444 0
M  V30 679 C 65.9994 -0.54379 2.22656 0
M  V30 680 C 66.9994 -1.05124 1.21678 0
M  V30 681 O 68.1894 -0.945225 1.46325 0
M  V30 682 C 65.3214 -1.75427 2.92298 0
M  V30 683 H 66.5144 0.0523599 2.99854 0
M  V30 684 H 64.0674 0.0647834 1.56166 0
M  V30 685 H 64.8024 -2.38991 2.19211 0
M  V30 686 H 64.5874 -1.39791 3.66334 0
M  V30 687 H 66.0774 -2.36325 3.44297 0
M  V30 688 N 66.5145 -1.57545 0.0417849 0
M  V30 689 C 67.7915 -1.83642 -0.673433 0
M  V30 690 C 68.1715 -0.928298 -1.89594 0
M  V30 691 O 67.5195 0.0129955 -2.28496 0
M  V30 692 C 67.7295 -3.33155 -1.03964 0
M  V30 693 C 69.0775 -3.99941 -1.42592 0
M  V30 694 O 70.1015 -3.37725 -1.13226 0
M  V30 695 O 68.9605 -5.09619 -1.9736 0
M  V30 696 H 66.0545 -0.757638 -0.331533 0
M  V30 697 H 68.6005 -1.69554 0.070433 0
M  V30 698 H 67.3725 -3.9093 -0.170098 0
M  V30 699 H 66.9955 -3.52396 -1.84126 0
M  V30 700 N 67.9926 0.231505 -1.5589 0
M  V30 701 C 68.9556 1.27028 -1.90779 0
M  V30 702 C 69.9556 1.40308 -0.785507 0
M  V30 703 O 71.1456 1.38744 -1.05336 0
M  V30 704 C 68.2776 2.64566 -2.14983 0
M  V30 705 H 69.4706 0.973017 -2.83677 0
M  V30 706 H 67.0236 0.471486 -1.49019 0
M  V30 707 H 67.7586 2.99406 -1.24604 0
M  V30 708 H 67.5436 2.56305 -2.96732 0
M  V30 709 H 69.0336 3.39543 -2.43105 0
M  V30 710 N 69.4707 1.49531 0.497807 0
M  V30 711 C 70.8817 1.52344 1.07927 0
M  V30 712 C 71.2327 0.311469 1.93712 0
M  V30 713 O 70.3577 -0.578405 2.08527 0
M  V30 714 C 70.9527 2.76062 1.96405 0
M  V30 715 C 69.5117 2.81643 2.49709 0
M  V30 716 C 68.6587 2.46299 1.27404 0
M  V30 717 H 71.6097 1.56182 0.281576 0
M  V30 718 H 71.6307 2.56405 2.81135 0
M  V30 719 H 71.1427 3.64254 1.33943 0
M  V30 720 H 69.2437 1.97739 3.15801 0
M  V30 721 H 69.3567 3.83891 2.86643 0
M  V30 722 H 67.7207 1.98148 1.60029 0
M  V30 723 H 68.5037 3.36769 0.66645 0
M  V30 724 N 70.9488 -0.749086 1.3866 0
M  V30 725 C 71.9118 -1.84457 1.36045 0
M  V30 726 C 72.9118 -1.58682 0.260122 0
M  V30 727 O 74.1018 -1.66343 0.517261 0
M  V30 728 C 71.2338 -3.22008 1.11911 0
M  V30 729 H 72.4268 -1.88182 2.33512 0
M  V30 730 H 69.9798 -0.951266 1.24019 0
M  V30 731 H 70.7148 -3.2395 0.150686 0
M  V30 732 H 70.4998 -3.42111 1.91579 0
M  V30 733 H 71.9898 -4.0208 1.12788 0
M  V30 734 N 72.4269 -1.23603 -0.977757 0
M  V30 735 C 73.3599 -0.962772 -2.06896 0
M  V30 736 C 74.3379 0.0998743 -1.62293 0
M  V30 737 O 75.5219 -0.0349421 -1.88468 0
M  V30 738 C 72.6489 -0.45095 -3.35685 0
M  V30 739 C 71.6949 -1.50061 -3.99229 0
M  V30 740 S 72.5279 -3.07884 -4.38142 0
M  V30 741 C 73.6839 -2.58378 -5.7008 0
M  V30 742 H 73.9169 -1.88677 -2.29757 0
M  V30 743 H 71.4499 -1.06876 -1.11431 0
M  V30 744 H 73.4079 -0.162261 -4.10179 0
M  V30 745 H 72.0689 0.452179 -3.10828 0
M  V30 746 H 71.2619 -1.09269 -4.92013 0
M  V30 747 H 70.8639 -1.73878 -3.31123 0
M  V30 748 H 73.1559 -2.00563 -6.47133 0
M  V30 749 H 74.0989 -3.49711 -6.15717 0
M  V30 750 H 74.5069 -1.99143 -5.28207 0
M  V30 751 N 73.905 1.17692 -1.04816 0
M  V30 752 C 74.855 2.1952 -0.616042 0
M  V30 753 C 75.839 1.57147 0.345485 0
M  V30 754 O 77.031 1.76245 0.163325 0
M  V30 755 C 74.16 3.43298 0.0116917 0
M  V30 756 C 73.246 4.12777 -0.973435 0
M  V30 757 N 73.637 4.5814 -2.14339 0
M  V30 758 C 71.935 4.38747 -0.80108 0
M  V30 759 C 72.636 5.11713 -2.7663 0
M  V30 760 N 71.612 5.03686 -2.04453 0
M  V30 761 H 75.414 2.52293 -1.5075 0
M  V30 762 H 72.928 1.3398 -0.917776 0
M  V30 763 H 74.925 4.15519 0.339006 0
M  V30 764 H 73.585 3.12018 0.898593 0
M  V30 765 H 74.596 4.52349 -2.52191 0
M  V30 766 H 71.273 4.17485 0.0350934 0
M  V30 767 H 72.663 5.56962 -3.75823 0
M  V30 768 N 75.3831 0.828654 1.34056 0
M  V30 769 C 76.6291 0.42008 1.98402 0
M  V30 770 C 76.9621 -1.01564 1.65525 0
M  V30 771 O 76.2371 -1.70834 0.929831 0
M  V30 772 C 76.5201 0.62927 3.54559 0
M  V30 773 C 76.3731 2.11152 3.97159 0
M  V30 774 C 77.6921 0.0688756 4.40046 0
M  V30 775 H 74.8111 0.154104 0.720709 0
M  V30 776 H 77.4531 1.04228 1.5886 0
M  V30 777 H 75.6031 0.0996418 3.88372 0
M  V30 778 H 77.2751 2.70522 3.73651 0
M  V30 779 H 75.5181 2.59985 3.47261 0
M  V30 780 H 76.1891 2.20868 5.05887 0
M  V30 781 H 78.6651 0.521458 4.1282 0
M  V30 782 H 77.5411 0.245006 5.48353 0
M  V30 783 H 77.8021 -1.0266 4.30015 0
M  V30 784 N 76.8612 -1.46375 0.584142 0
M  V30 785 C 77.8242 -2.28784 -0.138108 0
M  V30 786 C 78.8242 -1.38471 -0.817462 0
M  V30 787 O 80.0142 -1.60833 -0.669199 0
M  V30 788 C 77.1462 -3.18892 -1.20503 0
M  V30 789 H 78.3392 -2.94117 0.586127 0
M  V30 790 H 75.8922 -1.52509 0.342171 0
M  V30 791 H 76.6272 -2.58309 -1.96079 0
M  V30 792 H 76.4122 -3.85388 -0.722384 0
M  V30 793 H 77.9022 -3.80914 -1.71155 0
M  V30 794 N 78.3393 -0.321999 -1.54275 0
M  V30 795 C 79.2893 0.560185 -2.21011 0
M  V30 796 C 80.2733 1.08283 -1.19011 0
M  V30 797 O 81.4653 1.02011 -1.44647 0
M  V30 798 C 78.5943 1.72137 -2.97025 0
M  V30 799 C 77.6803 1.21369 -4.06363 0
M  V30 800 N 78.0713 0.425566 -5.04007 0
M  V30 801 C 76.3693 1.49255 -4.20284 0
M  V30 802 C 77.0703 0.152601 -5.815 0
M  V30 803 N 76.0463 0.738294 -5.38563 0
M  V30 804 H 79.8483 -0.049265 -2.93859 0
M  V30 805 H 77.3623 -0.127779 -1.61897 0
M  V30 806 H 79.3593 2.36512 -3.43319 0
M  V30 807 H 78.0193 2.33431 -2.25699 0
M  V30 808 H 79.0303 0.068551 -5.17855 0
M  V30 809 H 75.7073 2.11145 -3.60172 0
M  V30 810 H 77.0973 -0.481764 -6.70171 0
M  V30 811 N 79.8174 1.5752 -0.0501392 0
M  V30 812 C 81.2334 1.56631 0.306402 0
M  V30 813 C 81.4334 1.0577 1.71508 0
M  V30 814 O 80.4894 0.713837 2.422 0
M  V30 815 C 81.8024 3.00393 0.135811 0
M  V30 816 C 83.3504 3.12315 0.206993 0
M  V30 817 C 83.8254 4.57954 0.064944 0
M  V30 818 N 85.3164 4.63041 0.121254 0
M  V30 819 C 86.0514 5.73389 0.0354381 0
M  V30 820 N 85.5474 6.92724 -0.102666 0
M  V30 821 N 87.3404 5.62026 0.090946 0
M  V30 822 H 79.4914 1.88903 -0.971046 0
M  V30 823 H 81.7544 0.869876 -0.376855 0
M  V30 824 H 81.4604 3.41635 -0.835384 0
M  V30 825 H 81.3344 3.66373 0.897275 0
M  V30 826 H 83.7214 2.70973 1.16866 0
M  V30 827 H 83.8024 2.49016 -0.585208 0
M  V30 828 H 83.4464 4.99981 -0.893394 0
M  V30 829 H 83.3764 5.19258 0.876277 0
M  V30 830 H 85.8674 3.77216 0.227284 0
M  V30 831 H 86.1804 7.72633 -0.160882 0
M  V30 832 H 84.5254 6.94864 -0.137737 0
M  V30 833 H 87.7164 4.67684 0.197388 0
M  V30 834 H 87.8894 6.47997 0.0206089 0
M  V30 835 N 81.2955 -0.223234 1.56011 0
M  V30 836 C 82.5205 -0.968978 1.83373 0
M  V30 837 C 82.9455 -1.77227 0.630254 0
M  V30 838 O 82.3035 -1.76345 -0.420959 0
M  V30 839 C 82.3515 -1.86363 3.08709 0
M  V30 840 O 81.4555 -2.95873 2.87285 0
M  V30 841 H 80.7965 -0.274461 0.604622 0
M  V30 842 H 83.3265 -0.237056 2.03222 0
M  V30 843 H 83.3365 -2.27376 3.38768 0
M  V30 844 H 82.0115 -1.27319 3.95933 0
M  V30 845 H 80.5885 -2.58818 2.68454 0
M  V30 846 N 82.7736 -1.49793 -0.48987 0
M  V30 847 C 83.7236 -1.63673 -1.5873 0
M  V30 848 C 84.7076 -0.491956 -1.53195 0
M  V30 849 O 85.8996 -0.745461 -1.60536 0
M  V30 850 C 83.0286 -1.71689 -2.97284 0
M  V30 851 C 82.1146 -2.91781 -3.07774 0
M  V30 852 N 82.5056 -4.15714 -2.88124 0
M  V30 853 C 80.8036 -2.89949 -3.38889 0
M  V30 854 C 81.5046 -4.965 -3.03088 0
M  V30 855 N 80.4806 -4.30083 -3.3246 0
M  V30 856 H 84.2826 -2.57204 -1.42208 0
M  V30 857 H 81.7966 -1.46719 -0.69623 0
M  V30 858 H 83.7936 -1.79732 -3.76168 0
M  V30 859 H 82.4536 -0.793024 -3.14867 0
M  V30 860 H 83.4646 -4.45515 -2.64077 0
M  V30 861 H 80.1416 -2.06987 -3.62578 0
M  V30 862 H 81.5316 -6.04991 -2.92294 0
M  V30 863 N 84.2517 0.741722 -1.39055 0
M  V30 864 C 85.4977 1.50336 -1.36113 0
M  V30 865 C 85.8307 1.94148 0.0450796 0
M  V30 866 O 85.1057 1.66301 1.00868 0
M  V30 867 C 85.3887 2.74773 -2.32749 0
M  V30 868 C 85.2417 2.37023 -3.82283 0
M  V30 869 C 86.5607 3.76846 -2.27322 0
M  V30 870 H 83.6797 0.545351 -0.495743 0
M  V30 871 H 86.3217 0.848624 -1.69995 0
M  V30 872 H 84.4717 3.30639 -2.03986 0
M  V30 873 H 86.1437 1.8684 -4.21768 0
M  V30 874 H 84.3867 1.69334 -3.99385 0
M  V30 875 H 85.0577 3.26104 -4.45376 0
M  V30 876 H 87.5337 3.30548 -2.5274 0
M  V30 877 H 86.4097 4.6159 -2.97028 0
M  V30 878 H 86.6707 4.23286 -1.27599 0
M  V30 879 N 85.7298 1.2412 0.971189 0
M  V30 880 C 86.9788 1.07284 1.70801 0
M  V30 881 C 87.2918 -0.388902 1.91695 0
M  V30 882 O 88.4978 -0.677379 2.62914 0
M  V30 883 C 86.9538 1.87145 3.07416 0
M  V30 884 C 86.5618 3.37707 2.94377 0
M  V30 885 C 88.3058 1.78828 3.84995 0
M  V30 886 C 86.2128 4.09925 4.26281 0
M  V30 887 H 85.1428 0.397854 0.64049 0
M  V30 888 H 87.7938 1.4817 1.0825 0
M  V30 889 H 86.1758 1.39071 3.70777 0
M  V30 890 H 87.3498 3.93335 2.4005 0
M  V30 891 H 85.6648 3.46938 2.30267 0
M  V30 892 H 88.2618 2.30089 4.82662 0
M  V30 893 H 88.6048 0.75284 4.09436 0
M  V30 894 H 89.1378 2.24563 3.28354 0
M  V30 895 H 85.8768 5.13813 4.07033 0
M  V30 896 H 85.3968 3.59083 4.80437 0
M  V30 897 H 87.0758 4.1673 4.94919 0
M  V30 898 N 87.2079 -1.17134 1.05439 0
M  V30 899 C 88.1559 -2.23289 0.651511 0
M  V30 900 C 89.1499 -1.66186 -0.328411 0
M  V30 901 O 90.3559 -1.78949 -0.194206 0
M  V30 902 H 86.7309 -0.726938 0.192523 0
M  V30 903 H 88.7019 -2.54565 1.55689 0
M  V30 904 C 87.4509 -3.47671 0.0448436 0
M  V30 905 H 86.7739 -3.91918 0.78996 0
M  V30 906 H 88.2139 -4.2353 -0.19964 0
M  V30 907 C 86.6729 -3.14453 -1.20918 0
M  V30 908 O 87.2029 -3.29459 -2.29825 0
M  V30 909 N 85.4089 -2.68657 -1.10779 0
M  V30 910 H 84.9559 -2.56646 -0.221526 0
M  V30 911 H 84.9139 -2.46804 -1.9477 0
M  V30 912 N 88.686 -0.835752 -1.33615 0
M  V30 913 C 89.619 -0.211815 -2.27215 0
M  V30 914 C 90.597 0.639249 -1.49507 0
M  V30 915 O 91.781 0.600193 -1.78689 0
M  V30 916 C 88.908 0.702893 -3.31326 0
M  V30 917 C 87.954 -0.0723049 -4.26439 0
M  V30 918 S 88.787 -1.42811 -5.16106 0
M  V30 919 C 89.943 -0.518613 -6.23748 0
M  V30 920 H 90.176 -1.00533 -2.79786 0
M  V30 921 H 87.709 -0.632336 -1.40858 0
M  V30 922 H 89.667 1.22505 -3.91794 0
M  V30 923 H 88.328 1.47004 -2.77576 0
M  V30 924 H 87.521 0.62359 -5.00127 0
M  V30 925 H 87.123 -0.525424 -3.70291 0
M  V30 926 H 89.415 0.284778 -6.76901 0
M  V30 927 H 90.358 -1.22556 -6.97413 0
M  V30 928 H 90.766 -0.101344 -5.64409 0
M  V30 929 N 90.1641 1.46063 -0.591896 0
M  V30 930 C 91.0941 2.33172 0.123673 0
M  V30 931 C 92.0751 1.45897 0.87453 0
M  V30 932 O 93.2601 1.74698 0.848181 0
M  V30 933 C 90.3901 3.28336 1.13194 0
M  V30 934 C 89.3441 4.25124 0.495324 0
M  V30 935 C 88.6701 5.09863 1.61071 0
M  V30 936 C 89.9701 5.19143 -0.573425 0
M  V30 937 H 91.6641 2.93252 -0.603646 0
M  V30 938 H 89.2101 1.41014 -0.291741 0
M  V30 939 H 91.1631 3.88137 1.64097 0
M  V30 940 H 89.8871 2.66383 1.88965 0
M  V30 941 H 88.5461 3.66599 0.00729452 0
M  V30 942 H 88.1941 4.44288 2.35832 0
M  V30 943 H 87.8941 5.75417 1.19035 0
M  V30 944 H 89.4181 5.72529 2.12233 0
M  V30 945 H 90.8321 5.73106 -0.1491 0
M  V30 946 H 89.2291 5.93089 -0.914636 0
M  V30 947 H 90.2991 4.62519 -1.45617 0
M  V30 948 N 91.6422 0.330177 1.54103 0
M  V30 949 C 92.9192 -0.325007 1.92881 0
M  V30 950 C 93.2992 -1.6934 1.26045 0
M  V30 951 O 92.6472 -2.24855 0.406526 0
M  V30 952 C 92.8572 -0.410634 3.46576 0
M  V30 953 C 94.2052 -0.667801 4.19316 0
M  V30 954 O 95.2292 -0.49329 3.52768 0
M  V30 955 O 94.0882 -1.00491 5.37181 0
M  V30 956 H 91.1822 -0.186873 0.80561 0
M  V30 957 H 93.7282 0.380376 1.65382 0
M  V30 958 H 92.5002 0.550164 3.87413 0
M  V30 959 H 92.1232 -1.16333 3.802 0
M  V30 960 N 93.1203 -1.57491 0.0584922 0
M  V30 961 C 94.3683 -1.92597 -0.612436 0
M  V30 962 C 94.6893 -0.938162 -1.70949 0
M  V30 963 O 93.9593 0.0158301 -1.95894 0
M  V30 964 H 92.5393 -0.710964 -0.229214 0
M  V30 965 H 95.2013 -1.94571 0.113218 0
M  V30 966 H 94.2973 -2.94038 -1.04633 0
M  V30 967 N 94.5984 0.214957 -1.56127 0
M  V30 968 C 95.8754 0.963093 -1.70247 0
M  V30 969 C 96.2554 2.02166 -0.60764 0
M  V30 970 O 95.6034 2.25244 0.384385 0
M  V30 971 C 95.8134 1.56756 -3.11815 0
M  V30 972 C 97.1614 2.0573 -3.7143 0
M  V30 973 O 98.1854 1.66637 -3.14818 0
M  V30 974 O 97.0444 2.77603 -4.70743 0
M  V30 975 H 94.1384 0.450321 -0.693643 0
M  V30 976 H 96.6844 0.206219 -1.68442 0
M  V30 977 H 95.4564 0.803533 -3.82961 0
M  V30 978 H 95.0794 2.3898 -3.17765 0
M  V30 979 N 96.0765 1.50051 0.48192 0
M  V30 980 C 97.0395 1.67584 1.5636 0
M  V30 981 C 98.0395 0.546894 1.51214 0
M  V30 982 O 99.2295 0.813725 1.54026 0
M  V30 983 C 96.3615 1.691 2.96003 0
M  V30 984 H 97.5545 2.64078 1.42136 0
M  V30 985 H 95.1075 1.39369 0.707533 0
M  V30 986 H 95.8425 0.742589 3.15684 0
M  V30 987 H 95.6275 2.51105 3.01146 0
M  V30 988 H 97.1175 1.84656 3.74556 0
M  V30 989 N 97.5546 -0.734337 1.39446 0
M  V30 990 C 98.4846 -1.86155 1.40955 0
M  V30 991 C 99.4656 -1.67898 0.272827 0
M  V30 992 O 100.651 -1.88207 0.478743 0
M  V30 993 C 97.7806 -3.23912 1.25294 0
M  V30 994 C 96.7346 -3.56808 2.36373 0
M  V30 995 C 96.0606 -4.93508 2.058 0
M  V30 996 C 97.3606 -3.59713 3.78687 0
M  V30 997 H 99.0546 -1.8515 2.35287 0
M  V30 998 H 96.6006 -0.889367 1.13253 0
M  V30 999 H 98.5536 -4.02443 1.2497 0
M  V30 1000 H 97.2776 -3.25446 0.274308 0
M  V30 1001 H 95.9366 -2.80606 2.35914 0
M  V30 1002 H 95.5846 -4.91623 1.06374 0
M  V30 1003 H 95.2846 -5.16486 2.80208 0
M  V30 1004 H 96.8086 -5.74396 2.07128 0
M  V30 1005 H 98.2226 -4.2832 3.81071 0
M  V30 1006 H 96.6196 -3.94209 4.52459 0
M  V30 1007 H 97.6896 -2.59504 4.09617 0
M  V30 1008 N 99.0327 -1.24633 -0.964593 0
M  V30 1009 C 100.449 -1.01239 -1.2338 0
M  V30 1010 C 100.649 0.2769 -1.99588 0
M  V30 1011 O 99.7047 0.992241 -2.32187 0
M  V30 1012 C 101.018 -2.22937 -2.01791 0
M  V30 1013 C 102.566 -2.27594 -2.14872 0
M  V30 1014 C 103.041 -3.48921 -2.96678 0
M  V30 1015 N 104.532 -3.49257 -3.04259 0
M  V30 1016 C 105.267 -4.39795 -3.67924 0
M  V30 1017 N 104.763 -5.40591 -4.33281 0
M  V30 1018 N 106.556 -4.275 -3.64966 0
M  V30 1019 H 98.7067 -2.0748 -0.454502 0
M  V30 1020 H 100.97 -0.910647 -0.26349 0
M  V30 1021 H 100.676 -3.16587 -1.53184 0
M  V30 1022 H 100.55 -2.25306 -3.02518 0
M  V30 1023 H 102.937 -1.34473 -2.6268 0
M  V30 1024 H 103.018 -2.2925 -1.13482 0
M  V30 1025 H 102.662 -4.42359 -2.49562 0
M  V30 1026 H 102.592 -3.4451 -3.98272 0
M  V30 1027 H 105.083 -2.76337 -2.57771 0
M  V30 1028 H 105.396 -6.05904 -4.79687 0
M  V30 1029 H 103.741 -5.44475 -4.3194 0
M  V30 1030 H 106.932 -3.47987 -3.13086 0
M  V30 1031 H 107.105 -4.98258 -4.14298 0
M  V30 1032 N 100.511 1.16574 -1.06058 0
M  V30 1033 C 101.927 1.3904 -0.783585 0
M  V30 1034 C 102.127 1.91784 0.618145 0
M  V30 1035 O 101.183 2.11511 1.37911 0
M  V30 1036 C 102.496 2.37329 -1.84649 0
M  V30 1037 C 104.044 2.51018 -1.86973 0
M  V30 1038 C 104.519 3.52588 -2.92311 0
M  V30 1039 N 106.01 3.60113 -2.91329 0
M  V30 1040 C 106.745 4.38486 -3.69482 0
M  V30 1041 N 106.241 5.20302 -4.57447 0
M  V30 1042 N 108.034 4.33446 -3.57885 0
M  V30 1043 H 100.185 0.806725 -1.96483 0
M  V30 1044 H 102.448 0.417117 -0.851303 0
M  V30 1045 H 102.154 2.05663 -2.85299 0
M  V30 1046 H 102.028 3.36946 -1.6955 0
M  V30 1047 H 104.415 2.81989 -0.869827 0
M  V30 1048 H 104.496 1.51445 -2.0615 0
M  V30 1049 H 104.14 3.22354 -3.92492 0
M  V30 1050 H 104.07 4.51886 -2.70383 0
M  V30 1051 H 106.561 3.01707 -2.27555 0
M  V30 1052 H 106.874 5.77311 -5.13743 0
M  V30 1053 H 105.219 5.19653 -4.61503 0
M  V30 1054 H 108.41 3.68586 -2.88551 0
M  V30 1055 H 108.583 4.94279 -4.19037 0
M  V30 1056 N 101.989 0.842826 1.3317 0
M  V30 1057 C 103.235 0.441099 1.97945 0
M  V30 1058 C 103.568 -0.998024 1.66593 0
M  V30 1059 O 102.843 -1.69839 0.947898 0
M  V30 1060 C 103.126 0.666841 3.53872 0
M  V30 1061 C 102.979 2.15352 3.94897 0
M  V30 1062 C 104.298 0.115544 4.39948 0
M  V30 1063 H 101.417 0.161739 0.719034 0
M  V30 1064 H 104.059 1.05907 1.57746 0
M  V30 1065 H 102.209 0.140828 3.88245 0
M  V30 1066 H 103.881 2.7447 3.70761 0
M  V30 1067 H 102.124 2.63653 3.44484 0
M  V30 1068 H 102.795 2.26221 5.03516 0
M  V30 1069 H 105.271 0.565213 4.12243 0
M  V30 1070 H 104.147 0.303152 5.48062 0
M  V30 1071 H 104.408 -0.980935 4.3108 0
M  V30 1072 N 103.467 -1.45747 0.599634 0
M  V30 1073 C 104.713 -2.02592 0.0918643 0
M  V30 1074 C 105.046 -1.46806 -1.27128 0
M  V30 1075 O 104.321 -0.639658 -1.83681 0
M  V30 1076 C 104.604 -3.60073 0.0443398 0
M  V30 1077 C 104.457 -4.26208 1.43759 0
M  V30 1078 C 105.776 -4.35309 -0.647608 0
M  V30 1079 H 102.895 -0.736175 0.034857 0
M  V30 1080 H 105.537 -1.73694 0.770081 0
M  V30 1081 H 103.687 -3.84823 -0.533224 0
M  V30 1082 H 105.359 -4.12668 2.06162 0
M  V30 1083 H 103.602 -3.84916 2.00056 0
M  V30 1084 H 104.273 -5.35069 1.35665 0
M  V30 1085 H 106.749 -4.15805 -0.156776 0
M  V30 1086 H 105.625 -5.45038 -0.649942 0
M  V30 1087 H 105.886 -4.07598 -1.71219 0
M  V30 1088 N 104.945 -0.338344 -1.53925 0
M  V30 1089 C 105.855 0.529421 -2.28548 0
M  V30 1090 C 106.871 1.11645 -1.3346 0
M  V30 1091 O 108.047 1.13325 -1.66492 0
M  V30 1092 C 105.112 1.66713 -3.03987 0
M  V30 1093 C 104.173 1.11041 -4.14691 0
M  V30 1094 C 103.406 2.19389 -4.86522 0
M  V30 1095 O 103.629 3.40013 -4.57982 0
M  V30 1096 O 102.563 1.83976 -5.73094 0
M  V30 1097 H 106.389 -0.0770399 -3.03602 0
M  V30 1098 H 103.974 -0.103555 -1.49041 0
M  V30 1099 H 105.856 2.32918 -3.5118 0
M  V30 1100 H 104.531 2.25949 -2.31794 0
M  V30 1101 H 103.438 0.413024 -3.71813 0
M  V30 1102 H 104.771 0.562975 -4.8897 0
M  V30 1103 N 106.423 1.57458 -0.0668435 0
M  V30 1104 C 107.353 2.15468 0.899764 0
M  V30 1105 C 108.334 1.08042 1.31381 0
M  V30 1106 O 109.519 1.36054 1.38574 0
M  V30 1107 C 106.649 2.71232 2.16911 0
M  V30 1108 C 105.603 3.83781 1.89463 0
M  V30 1109 C 104.929 4.26127 3.22986 0
M  V30 1110 C 106.229 5.08238 1.20381 0
M  V30 1111 H 107.923 2.96488 0.416529 0
M  V30 1112 H 105.469 1.4262 0.198908 0
M  V30 1113 H 107.422 3.10458 2.84945 0
M  V30 1114 H 106.146 1.87426 2.67468 0
M  V30 1115 H 104.805 3.45051 1.23836 0
M  V30 1116 H 104.453 3.39249 3.71374 0
M  V30 1117 H 104.153 5.01993 3.05413 0
M  V30 1118 H 105.677 4.67966 3.92225 0
M  V30 1119 H 107.091 5.44811 1.78475 0
M  V30 1120 H 105.488 5.89349 1.13083 0
M  V30 1121 H 106.558 4.84558 0.182153 0
M  V30 1122 N 107.901 -0.206675 1.56239 0
M  V30 1123 C 108.811 -1.27686 1.96808 0
M  V30 1124 C 109.827 -1.50455 0.874035 0
M  V30 1125 O 111.003 -1.63295 1.17884 0
M  V30 1126 C 108.068 -2.60358 2.28942 0
M  V30 1127 C 107.129 -2.45762 3.51994 0
M  V30 1128 C 106.362 -3.72108 3.82585 0
M  V30 1129 O 106.585 -4.75776 3.14631 0
M  V30 1130 O 105.519 -3.6833 4.76043 0
M  V30 1131 H 109.345 -0.962593 2.88041 0
M  V30 1132 H 106.93 -0.410746 1.43643 0
M  V30 1133 H 108.812 -3.38687 2.50737 0
M  V30 1134 H 107.487 -2.91435 1.4088 0
M  V30 1135 H 106.394 -1.65584 3.35459 0
M  V30 1136 H 107.727 -2.19621 4.40486 0
M  V30 1137 N 109.379 -1.50304 -0.473955 0
M  V30 1138 C 110.326 -1.68959 -1.57231 0
M  V30 1139 C 111.296 -0.530899 -1.57387 0
M  V30 1140 O 112.481 -0.761133 -1.74961 0
M  V30 1141 C 109.621 -1.7871 -2.95223 0
M  V30 1142 C 108.734 -3.06061 -3.04878 0
M  V30 1143 C 107.869 -3.06626 -4.33767 0
M  V30 1144 C 106.908 -4.28443 -4.37154 0
M  V30 1145 N 106.045 -4.26763 -5.5751 0
M  V30 1146 H 110.885 -2.6273 -1.40631 0
M  V30 1147 H 108.422 -1.30241 -0.683789 0
M  V30 1148 H 110.38 -1.82344 -3.75242 0
M  V30 1149 H 109.01 -0.883806 -3.10465 0
M  V30 1150 H 108.062 -3.11911 -2.17751 0
M  V30 1151 H 109.374 -3.96039 -3.0324 0
M  V30 1152 H 108.528 -3.08973 -5.22131 0
M  V30 1153 H 107.267 -2.14473 -4.3801 0
M  V30 1154 H 106.272 -4.2631 -3.47188 0
M  V30 1155 H 107.497 -5.2182 -4.34605 0
M  V30 1156 H 105.443 -3.37462 -5.62544 0
M  V30 1157 H 105.36 -5.10507 -5.57601 0
M  V30 1158 H 106.628 -4.33253 -6.48006 0
M  V30 1159 N 110.857 0.726932 -1.39834 0
M  V30 1160 C 112.268 1.30558 -1.3346 0
M  V30 1161 C 112.619 1.962 -0.00273003 0
M  V30 1162 O 111.744 1.96826 0.899371 0
M  V30 1163 C 112.339 2.37404 -2.41713 0
M  V30 1164 C 110.898 2.90921 -2.38835 0
M  V30 1165 C 110.045 1.64578 -2.2318 0
M  V30 1166 H 112.996 0.523862 -1.49804 0
M  V30 1167 H 113.017 3.17984 -2.08966 0
M  V30 1168 H 112.529 1.89599 -3.38635 0
M  V30 1169 H 110.63 3.42985 -1.45575 0
M  V30 1170 H 110.743 3.43487 -3.33997 0
M  V30 1171 H 109.107 1.89219 -1.70494 0
M  V30 1172 H 109.89 1.18814 -3.22084 0
M  V30 1173 N 112.336 1.25143 0.95797 0
M  V30 1174 C 113.286 1.01924 2.0395 0
M  V30 1175 C 114.27 -0.0427175 1.60843 0
M  V30 1176 O 115.462 0.17221 1.7616 0
M  V30 1177 C 112.591 0.636373 3.3735 0
M  V30 1178 C 111.677 1.73492 3.8699 0
M  V30 1179 N 112.068 2.96945 4.0946 0
M  V30 1180 C 110.366 1.61467 4.15746 0
M  V30 1181 C 111.067 3.68228 4.50315 0
M  V30 1182 N 110.043 2.95833 4.56053 0
M  V30 1183 H 113.845 1.95653 2.19311 0
M  V30 1184 H 111.359 1.15413 1.14253 0
M  V30 1185 H 113.356 0.451233 4.14451 0
M  V30 1186 H 112.016 -0.293621 3.2337 0
M  V30 1187 H 113.027 3.33025 3.96629 0
M  V30 1188 H 109.704 0.753394 4.10646 0
M  V30 1189 H 111.094 4.74178 4.76031 0
M  V30 1190 N 113.814 -1.1601 1.06675 0
M  V30 1191 C 115.044 -1.90251 0.805497 0
M  V30 1192 C 115.452 -1.77891 -0.64431 0
M  V30 1193 O 114.795 -1.12383 -1.45313 0
M  V30 1194 C 114.857 -3.41419 1.12576 0
M  V30 1195 C 114.521 -3.77564 2.57477 0
M  V30 1196 C 115.518 -3.79161 3.55715 0
M  V30 1197 C 113.203 -4.08079 2.92877 0
M  V30 1198 C 115.197 -4.10767 4.8739 0
M  V30 1199 C 112.884 -4.39351 4.24751 0
M  V30 1200 C 113.882 -4.40675 5.21818 0
M  V30 1201 O 113.57 -4.71202 6.51325 0
M  V30 1202 H 113.302 -0.610018 0.291297 0
M  V30 1203 H 115.856 -1.47958 1.4247 0
M  V30 1204 H 114.086 -3.84079 0.449503 0
M  V30 1205 H 115.775 -3.9694 0.84814 0
M  V30 1206 H 116.541 -3.55693 3.29708 0
M  V30 1207 H 112.42 -4.06211 2.17976 0
M  V30 1208 H 115.964 -4.11715 5.63148 0
M  V30 1209 H 111.861 -4.62285 4.50514 0
M  V30 1210 H 112.629 -4.88996 6.56373 0
M  V30 1211 N 115.292 -0.849877 -1.32721 0
M  V30 1212 C 116.541 -0.447175 -1.96681 0
M  V30 1213 C 116.854 1.00135 -1.68025 0
M  V30 1214 O 118.06 1.50926 -2.25685 0
M  V30 1215 C 116.516 -0.7487 -3.52026 0
M  V30 1216 C 116.124 -2.21264 -3.89546 0
M  V30 1217 C 117.868 -0.413487 -4.22481 0
M  V30 1218 C 115.775 -2.45763 -5.37917 0
M  V30 1219 H 114.705 -0.163486 -0.736063 0
M  V30 1220 H 117.356 -1.03999 -1.51183 0
M  V30 1221 H 115.738 -0.0853727 -3.95908 0
M  V30 1222 H 116.912 -2.91736 -3.56689 0
M  V30 1223 H 115.227 -2.5119 -3.32103 0
M  V30 1224 H 117.824 -0.574017 -5.3161 0
M  V30 1225 H 118.167 0.644492 -4.11281 0
M  V30 1226 H 118.7 -1.03251 -3.84167 0
M  V30 1227 H 115.439 -3.50168 -5.54132 0
M  V30 1228 H 114.959 -1.79864 -5.72197 0
M  V30 1229 H 116.638 -2.29471 -6.0494 0
M  V30 1230 N 116.77 1.45427 -0.607355 0
M  V30 1231 C 118.016 2.0254 -0.102607 0
M  V30 1232 C 118.349 1.47478 1.26348 0
M  V30 1233 O 117.624 0.64939 1.83339 0
M  V30 1234 C 117.907 3.60044 -0.0634347 0
M  V30 1235 C 117.76 4.2544 -1.46017 0
M  V30 1236 C 119.079 4.35646 0.624514 0
M  V30 1237 H 116.198 0.73598 -0.0387607 0
M  V30 1238 H 118.84 1.73284 -0.779282 0
M  V30 1239 H 116.99 3.85101 0.512808 0
M  V30 1240 H 118.662 4.11569 -2.08347 0
M  V30 1241 H 116.905 3.83849 -2.02094 0
M  V30 1242 H 117.576 5.34342 -1.385 0
M  V30 1243 H 120.052 4.15882 0.134723 0
M  V30 1244 H 118.928 5.45376 0.621028 0
M  V30 1245 H 119.189 4.08501 1.69055 0
M  V30 1246 N 118.248 0.346503 1.53744 0
M  V30 1247 C 119.659 -0.136779 1.86198 0
M  V30 1248 C 120.01 -1.49749 1.26766 0
M  V30 1249 O 119.135 -2.08417 0.582355 0
M  V30 1250 C 119.73 -0.254966 3.37839 0
M  V30 1251 C 118.289 -0.682482 3.70161 0
M  V30 1252 C 117.436 0.181981 2.76702 0
M  V30 1253 H 120.387 0.565994 1.48264 0
M  V30 1254 H 120.408 -1.08195 3.64793 0
M  V30 1255 H 119.92 0.735526 3.81066 0
M  V30 1256 H 118.021 -1.68189 3.3248 0
M  V30 1257 H 118.134 -0.470326 4.76786 0
M  V30 1258 H 116.498 -0.34615 2.52337 0
M  V30 1259 H 117.281 1.16966 3.2276 0
M  V30 1260 N 119.726 -1.57421 0.075193 0
M  V30 1261 C 120.636 -2.1642 -0.905511 0
M  V30 1262 C 121.652 -1.12828 -1.32461 0
M  V30 1263 O 122.828 -1.45109 -1.39661 0
M  V30 1264 C 119.893 -2.71693 -2.15369 0
M  V30 1265 C 118.954 -3.90171 -1.79068 0
M  V30 1266 C 118.187 -4.42798 -2.97936 0
M  V30 1267 O 118.41 -3.94416 -4.12058 0
M  V30 1268 O 117.344 -5.34085 -2.77555 0
M  V30 1269 H 121.17 -3.00588 -0.433626 0
M  V30 1270 H 118.755 -1.48664 -0.148067 0
M  V30 1271 H 120.637 -3.07104 -2.88557 0
M  V30 1272 H 119.312 -1.90582 -2.61649 0
M  V30 1273 H 118.219 -3.59606 -1.03122 0
M  V30 1274 H 119.552 -4.72584 -1.37569 0
M  V30 1275 N 121.204 0.198386 -1.56346 0
M  V30 1276 C 122.453 0.917451 -1.79627 0
M  V30 1277 C 122.766 1.8456 -0.64784 0
M  V30 1278 O 123.972 2.60504 -0.764859 0
M  V30 1279 C 122.428 1.68175 -3.18191 0
M  V30 1280 C 122.036 0.798589 -4.40825 0
M  V30 1281 C 123.78 2.39065 -3.50782 0
M  V30 1282 C 121.687 1.56157 -5.70411 0
M  V30 1283 H 120.617 0.346317 -0.669762 0
M  V30 1284 H 123.268 0.170801 -1.82703 0
M  V30 1285 H 121.65 2.47216 -3.09354 0
M  V30 1286 H 122.824 0.0470665 -4.60776 0
M  V30 1287 H 121.139 0.200686 -4.15916 0
M  V30 1288 H 123.736 2.96692 -4.44835 0
M  V30 1289 H 124.079 3.13091 -2.74371 0
M  V30 1290 H 124.612 1.66993 -3.61052 0
M  V30 1291 H 121.351 0.864142 -6.49779 0
M  V30 1292 H 120.871 2.2871 -5.54483 0
M  V30 1293 H 122.55 2.11622 -6.11412 0
M  V30 1294 N 122.682 1.50554 0.465978 0
M  V30 1295 C 123.592 1.72585 1.58907 0
M  V30 1296 C 124.608 0.60911 1.6299 0
M  V30 1297 O 125.784 0.88804 1.80765 0
M  V30 1298 C 122.849 1.81995 2.95091 0
M  V30 1299 C 121.91 3.05751 3.01355 0
M  V30 1300 C 121.143 3.14702 4.31043 0
M  V30 1301 O 121.366 2.30313 5.21835 0
M  V30 1302 O 120.3 4.07468 4.43005 0
M  V30 1303 H 124.126 2.67799 1.43239 0
M  V30 1304 H 121.711 1.34711 0.646013 0
M  V30 1305 H 123.593 1.90335 3.75966 0
M  V30 1306 H 122.268 0.899659 3.10947 0
M  V30 1307 H 121.175 3.02908 2.19539 0
M  V30 1308 H 122.508 3.97375 2.90437 0
M  V30 1309 N 124.16 -0.719506 1.40217 0
M  V30 1310 C 125.123 -1.8153 1.39927 0
M  V30 1311 C 126.123 -1.58095 0.293723 0
M  V30 1312 O 127.313 -1.65209 0.552429 0
M  V30 1313 C 124.445 -3.19561 1.18716 0
M  V30 1314 H 125.638 -1.83186 2.37451 0
M  V30 1315 H 123.191 -0.924746 1.26008 0
M  V30 1316 H 123.926 -3.23557 0.219366 0
M  V30 1317 H 123.711 -3.3797 1.98793 0
M  V30 1318 H 125.201 -3.99598 1.21291 0
M  V30 1319 N 125.638 -1.25649 -0.95132 0
M  V30 1320 C 126.887 -1.09988 -1.69073 0
M  V30 1321 C 127.2 0.358355 -1.92289 0
M  V30 1322 O 128.406 0.635466 -2.63958 0
M  V30 1323 C 126.862 -1.92012 -3.044 0
M  V30 1324 C 126.47 -3.42347 -2.88968 0
M  V30 1325 C 128.214 -1.8493 -3.82101 0
M  V30 1326 C 126.121 -4.16655 -4.19705 0
M  V30 1327 H 125.051 -0.407993 -0.63408 0
M  V30 1328 H 127.702 -1.49873 -1.05879 0
M  V30 1329 H 126.084 -1.44952 -3.68517 0
M  V30 1330 H 127.258 -3.97104 -2.33762 0
M  V30 1331 H 125.573 -3.50557 -2.24719 0
M  V30 1332 H 128.17 -2.37739 -4.78941 0
M  V30 1333 H 128.513 -0.817883 -4.08187 0
M  V30 1334 H 129.046 -2.29758 -3.2474 0
M  V30 1335 H 125.785 -5.20224 -3.98807 0
M  V30 1336 H 125.305 -3.66681 -4.74663 0
M  V30 1337 H 126.984 -4.24551 -4.88227 0
M  V30 1338 N 127.117 1.15442 -1.07289 0
M  V30 1339 C 128.08 2.18358 -0.696591 0
M  V30 1340 C 129.08 1.58637 0.262837 0
M  V30 1341 O 130.27 1.74145 0.0438809 0
M  V30 1342 C 127.402 3.4089 -0.0266151 0
M  V30 1343 H 128.595 2.53162 -1.60776 0
M  V30 1344 H 126.148 1.29893 -0.869342 0
M  V30 1345 H 126.883 3.11653 0.896822 0
M  V30 1346 H 126.668 3.85495 -0.716657 0
M  V30 1347 H 128.158 4.17009 0.222028 0
M  V30 1348 N 128.595 0.856903 1.32268 0
M  V30 1349 C 129.823 0.475439 2.01363 0
M  V30 1350 C 130.238 -0.928486 1.64392 0
M  V30 1351 O 129.595 -1.60624 0.866387 0
M  V30 1352 C 129.646 0.607545 3.56358 0
M  V30 1353 O 129.367 1.95617 3.92002 0
M  V30 1354 C 130.868 0.225382 4.42727 0
M  V30 1355 H 128.088 0.186636 0.644521 0
M  V30 1356 H 130.632 1.15446 1.68797 0
M  V30 1357 H 128.787 -0.0237719 3.87393 0
M  V30 1358 H 129.201 1.95455 4.86721 0
M  V30 1359 H 130.675 0.368813 5.50767 0
M  V30 1360 H 131.152 -0.834369 4.31202 0
M  V30 1361 H 131.758 0.831864 4.17085 0
M  V30 1362 N 130.073 -1.45103 0.615059 0
M  V30 1363 C 131.35 -1.95549 0.0448276 0
M  V30 1364 C 131.73 -1.55737 -1.4251 0
M  V30 1365 O 131.078 -0.823556 -2.13143 0
M  V30 1366 C 131.288 -3.48098 0.250785 0
M  V30 1367 C 132.636 -4.24384 0.135509 0
M  V30 1368 O 133.66 -3.55738 0.181299 0
M  V30 1369 O 132.519 -5.46493 0.0268878 0
M  V30 1370 H 129.613 -0.8264 -0.0314845 0
M  V30 1371 H 132.159 -1.55232 0.685642 0
M  V30 1372 H 130.931 -3.7007 1.27139 0
M  V30 1373 H 130.554 -3.95323 -0.424937 0
M  V30 1374 N 131.551 -0.354651 -1.53558 0
M  V30 1375 C 132.484 0.540273 -2.21712 0
M  V30 1376 C 133.462 1.09161 -1.2051 0
M  V30 1377 O 134.646 1.14979 -1.49372 0
M  V30 1378 C 131.773 1.74435 -2.90328 0
M  V30 1379 C 130.819 1.32146 -4.05512 0
M  V30 1380 S 131.652 0.331924 -5.3447 0
M  V30 1381 C 132.808 1.54258 -6.06593 0
M  V30 1382 H 133.041 -0.0385776 -2.97275 0
M  V30 1383 H 130.574 -0.138736 -1.53775 0
M  V30 1384 H 132.532 2.43507 -3.30476 0
M  V30 1385 H 131.193 2.29444 -2.1451 0
M  V30 1386 H 130.386 2.21952 -4.52497 0
M  V30 1387 H 129.988 0.710091 -3.67197 0
M  V30 1388 H 132.28 2.47534 -6.30661 0
M  V30 1389 H 133.223 1.11431 -6.99277 0
M  V30 1390 H 133.631 1.74367 -5.36895 0
M  V30 1391 N 133.029 1.57378 -0.0835403 0
M  V30 1392 C 133.959 2.1641 0.87686 0
M  V30 1393 C 134.94 1.09429 1.30228 0
M  V30 1394 O 136.125 1.37516 1.37124 0
M  V30 1395 C 133.255 2.73517 2.14022 0
M  V30 1396 C 132.209 3.85769 1.85381 0
M  V30 1397 C 131.535 4.29529 3.18448 0
M  V30 1398 C 132.835 5.09486 1.14984 0
M  V30 1399 H 134.529 2.96914 0.385059 0
M  V30 1400 H 132.075 1.42823 0.18377 0
M  V30 1401 H 134.028 3.13463 2.81636 0
M  V30 1402 H 132.752 1.90252 2.65465 0
M  V30 1403 H 131.411 3.46345 1.20169 0
M  V30 1404 H 131.059 3.43169 3.67755 0
M  V30 1405 H 130.759 5.05204 3.00071 0
M  V30 1406 H 132.283 4.72099 3.8724 0
M  V30 1407 H 133.697 5.46674 1.72687 0
M  V30 1408 H 132.094 5.90515 1.06826 0
M  V30 1409 H 133.164 4.84724 0.130749 0
M  V30 1410 N 134.507 -0.190092 1.56449 0
M  V30 1411 C 135.756 -0.907912 1.80111 0
M  V30 1412 C 136.069 -1.84214 0.657619 0
M  V30 1413 O 137.275 -2.60094 0.778663 0
M  V30 1414 C 135.731 -1.66485 3.19078 0
M  V30 1415 C 135.339 -0.7752 4.41242 0
M  V30 1416 C 137.083 -2.37201 3.52045 0
M  V30 1417 C 134.99 -1.53129 5.71231 0
M  V30 1418 H 133.92 -0.34276 0.671589 0
M  V30 1419 H 136.571 -0.161109 1.82791 0
M  V30 1420 H 134.953 -2.45572 3.10661 0
M  V30 1421 H 136.127 -0.0226298 4.60794 0
M  V30 1422 H 134.442 -0.178627 4.16017 0
M  V30 1423 H 137.039 -2.94329 4.46402 0
M  V30 1424 H 137.382 -3.11632 2.76028 0
M  V30 1425 H 137.915 -1.65075 3.61932 0
M  V30 1426 H 134.654 -0.82967 6.50228 0
M  V30 1427 H 134.174 -2.25767 5.55688 0
M  V30 1428 H 135.853 -2.08377 6.12526 0
M  V30 1429 N 135.985 -1.50799 -0.457987 0
M  V30 1430 C 136.917 -1.66786 -1.57211 0
M  V30 1431 C 137.93 -0.548962 -1.53265 0
M  V30 1432 O 139.119 -0.8226 -1.58416 0
M  V30 1433 C 136.219 -1.64834 -2.96113 0
M  V30 1434 C 135.392 -2.92971 -3.24787 0
M  V30 1435 C 134.451 -2.83485 -4.43309 0
M  V30 1436 O 133.477 -3.5744 -4.42973 0
M  V30 1437 N 134.679 -1.97929 -5.45714 0
M  V30 1438 H 137.444 -2.62889 -1.43909 0
M  V30 1439 H 135.005 -1.48427 -0.646617 0
M  V30 1440 H 136.997 -1.56084 -3.7339 0
M  V30 1441 H 135.567 -0.764118 -3.03117 0
M  V30 1442 H 134.787 -3.15749 -2.36 0
M  V30 1443 H 136.075 -3.77834 -3.40762 0
M  V30 1444 H 135.473 -1.37182 -5.48815 0
M  V30 1445 H 134.03 -1.95073 -6.21924 0
M  V30 1446 N 137.463 0.71206 -1.40597 0
M  V30 1447 C 138.393 1.83889 -1.43899 0
M  V30 1448 C 139.374 1.67442 -0.299504 0
M  V30 1449 O 140.559 1.87421 -0.508624 0
M  V30 1450 C 137.689 3.21877 -1.30431 0
M  V30 1451 C 136.643 3.53002 -2.42019 0
M  V30 1452 C 135.969 4.90172 -2.13626 0
M  V30 1453 C 137.269 3.53643 -3.84362 0
M  V30 1454 H 138.963 1.81383 -2.38203 0
M  V30 1455 H 136.509 0.871237 -1.14654 0
M  V30 1456 H 138.462 4.00404 -1.31357 0
M  V30 1457 H 137.186 3.24968 -0.326049 0
M  V30 1458 H 135.845 2.76818 -2.40349 0
M  V30 1459 H 135.493 4.89869 -1.14182 0
M  V30 1460 H 135.193 5.11962 -2.88389 0
M  V30 1461 H 136.717 5.71028 -2.1624 0
M  V30 1462 H 138.131 4.22203 -3.87837 0
M  V30 1463 H 136.528 3.86961 -4.58673 0
M  V30 1464 H 137.598 2.52954 -4.13693 0
M  V30 1465 N 138.941 1.26152 0.944643 0
M  V30 1466 C 139.851 1.09176 2.07648 0
M  V30 1467 C 140.867 0.0261935 1.7398 0
M  V30 1468 O 142.043 0.229208 2.00091 0
M  V30 1469 C 139.108 0.722915 3.39079 0
M  V30 1470 C 138.169 1.86752 3.86552 0
M  V30 1471 C 137.402 1.51617 5.11711 0
M  V30 1472 O 137.625 0.416331 5.68879 0
M  V30 1473 O 136.559 2.34975 5.54139 0
M  V30 1474 H 140.385 2.0412 2.24875 0
M  V30 1475 H 137.97 1.05182 1.061 0
M  V30 1476 H 139.852 0.529787 4.18056 0
M  V30 1477 H 138.527 -0.197159 3.23099 0
M  V30 1478 H 137.434 2.11558 3.08535 0
M  V30 1479 H 138.767 2.76719 4.07047 0
M  V30 1480 N 140.419 -1.14872 1.07899 0
M  V30 1481 C 141.329 -2.2341 0.715915 0
M  V30 1482 C 142.345 -1.71808 -0.275306 0
M  V30 1483 O 143.521 -2.01039 -0.120545 0
M  V30 1484 C 140.586 -3.46474 0.125168 0
M  V30 1485 C 139.647 -4.13039 1.17034 0
M  V30 1486 C 138.88 -5.30229 0.607688 0
M  V30 1487 O 139.103 -5.675 -0.574497 0
M  V30 1488 O 138.037 -5.86444 1.35526 0
M  V30 1489 H 141.863 -2.56808 1.62121 0
M  V30 1490 H 139.448 -1.22702 0.852322 0
M  V30 1491 H 141.33 -4.20917 -0.201729 0
M  V30 1492 H 140.005 -3.14811 -0.753364 0
M  V30 1493 H 138.912 -3.40493 1.54968 0
M  V30 1494 H 140.245 -4.48796 2.02097 0
M  V30 1495 N 141.898 -0.863906 -1.31812 0
M  V30 1496 C 142.808 -0.318461 -2.32428 0
M  V30 1497 C 143.824 0.568496 -1.64451 0
M  V30 1498 O 145 0.46666 -1.95919 0
M  V30 1499 C 142.065 0.476355 -3.43412 0
M  V30 1500 C 141.126 -0.43784 -4.27061 0
M  V30 1501 C 140.359 0.319138 -5.32745 0
M  V30 1502 O 140.582 1.54799 -5.48993 0
M  V30 1503 O 139.516 -0.319861 -6.01049 0
M  V30 1504 H 143.342 -1.15229 -2.80991 0
M  V30 1505 H 140.927 -0.627103 -1.35602 0
M  V30 1506 H 142.809 0.927156 -4.11074 0
M  V30 1507 H 141.484 1.28683 -2.97022 0
M  V30 1508 H 140.391 -0.937013 -3.62175 0
M  V30 1509 H 141.724 -1.21375 -4.77 0
M  V30 1510 N 143.376 1.44774 -0.622745 0
M  V30 1511 C 144.624 2.01721 -0.123655 0
M  V30 1512 C 144.945 1.49172 1.25589 0
M  V30 1513 O 144.215 0.691974 1.83272 0
M  V30 1514 H 142.795 0.745777 -0.0427225 0
M  V30 1515 H 145.457 1.77382 -0.807559 0
M  V30 1516 H 144.553 3.11984 -0.0849534 0
M  V30 1517 N 144.854 0.36279 1.53368 0
M  V30 1518 C 145.784 -0.476976 2.28576 0
M  V30 1519 C 146.765 -1.08631 1.30894 0
M  V30 1520 O 147.95 -1.10409 1.59761 0
M  V30 1521 C 145.08 -1.61828 3.07293 0
M  V30 1522 C 144.034 -1.13633 4.1264 0
M  V30 1523 C 143.36 -2.36766 4.79423 0
M  V30 1524 C 144.66 -0.223061 5.21823 0
M  V30 1525 H 146.354 0.150474 2.99022 0
M  V30 1526 H 143.9 0.0738103 1.43811 0
M  V30 1527 H 145.853 -2.21237 3.58653 0
M  V30 1528 H 144.577 -2.27292 2.34533 0
M  V30 1529 H 143.236 -0.564945 3.62221 0
M  V30 1530 H 142.884 -3.0068 4.03238 0
M  V30 1531 H 142.584 -2.05192 5.50609 0
M  V30 1532 H 144.108 -2.96865 5.33576 0
M  V30 1533 H 145.522 -0.724545 5.68703 0
M  V30 1534 H 143.919 0.001678 6.001 0
M  V30 1535 H 144.989 0.735553 4.79289 0
M  V30 1536 N 146.332 -1.57332 0.0918853 0
M  V30 1537 C 147.28 -2.15075 -0.885747 0
M  V30 1538 C 148.274 -1.09277 -1.29441 0
M  V30 1539 O 149.48 -1.27627 -1.26931 0
M  V30 1540 H 145.855 -0.687966 -0.303656 0
M  V30 1541 H 147.826 -2.96047 -0.373995 0
M  V30 1542 C 146.575 -2.74325 -2.13638 0
M  V30 1543 H 145.898 -3.55418 -1.8308 0
M  V30 1544 H 147.338 -3.183 -2.80109 0
M  V30 1545 C 145.797 -1.70062 -2.90827 0
M  V30 1546 O 146.327 -1.13763 -3.85254 0
M  V30 1547 N 144.533 -1.40628 -2.54307 0
M  V30 1548 H 144.08 -1.866 -1.7759 0
M  V30 1549 H 144.038 -0.711043 -3.06254 0
M  V30 1550 N 147.81 0.181792 -1.56548 0
M  V30 1551 C 149.056 0.901431 -1.81665 0
M  V30 1552 C 149.389 1.82347 -0.668075 0
M  V30 1553 O 148.664 1.91669 0.330615 0
M  V30 1554 C 148.947 1.70618 -3.17115 0
M  V30 1555 C 148.8 0.807964 -4.42484 0
M  V30 1556 C 150.119 2.67605 -3.49393 0
M  V30 1557 H 147.238 0.32627 -0.660846 0
M  V30 1558 H 149.88 0.168134 -1.89255 0
M  V30 1559 H 148.03 2.33133 -3.10775 0
M  V30 1560 H 149.702 0.19649 -4.60881 0
M  V30 1561 H 147.945 0.115411 -4.33646 0
M  V30 1562 H 148.616 1.40632 -5.33785 0
M  V30 1563 H 151.092 2.15218 -3.56118 0
M  V30 1564 H 149.968 3.20985 -4.45264 0
M  V30 1565 H 150.229 3.47298 -2.73563 0
M  V30 1566 N 149.288 1.51039 0.449983 0
M  V30 1567 C 150.534 1.63322 1.20223 0
M  V30 1568 C 150.867 0.34241 1.91158 0
M  V30 1569 O 150.142 -0.657344 1.83055 0
M  V30 1570 C 150.425 2.82801 2.22925 0
M  V30 1571 C 150.278 4.21823 1.56157 0
M  V30 1572 C 151.597 2.97807 3.24035 0
M  V30 1573 H 148.716 0.594407 0.435718 0
M  V30 1574 H 151.358 1.83489 0.493136 0
M  V30 1575 H 149.508 2.65738 2.834 0
M  V30 1576 H 151.18 4.50526 0.991162 0
M  V30 1577 H 149.423 4.25105 0.864172 0
M  V30 1578 H 150.094 5.01391 2.30891 0
M  V30 1579 H 152.57 3.13497 2.73603 0
M  V30 1580 H 151.446 3.82992 3.93202 0
M  V30 1581 H 151.707 2.09328 3.89402 0
M  V30 1582 N 150.766 -0.704594 1.40972 0
M  V30 1583 C 152.177 -1.28418 1.3552 0
M  V30 1584 C 152.528 -1.96171 0.0339434 0
M  V30 1585 O 151.653 -1.98231 -0.867944 0
M  V30 1586 C 152.248 -2.33528 2.45459 0
M  V30 1587 C 150.807 -2.87085 2.43433 0
M  V30 1588 C 149.954 -1.61007 2.2577 0
M  V30 1589 H 152.905 -0.499963 1.50619 0
M  V30 1590 H 152.926 -3.14619 2.13998 0
M  V30 1591 H 152.438 -1.84187 3.41609 0
M  V30 1592 H 150.539 -3.40626 1.51013 0
M  V30 1593 H 150.652 -3.3813 3.39419 0
M  V30 1594 H 149.016 -1.86482 1.73483 0
M  V30 1595 H 149.799 -1.13675 3.23933 0
M  V30 1596 N 152.244 -1.26651 -0.937939 0
M  V30 1597 C 153.484 -1.13611 -1.69917 0
M  V30 1598 C 153.848 0.314687 -1.89404 0
M  V30 1599 O 155.049 0.567285 -2.62746 0
M  V30 1600 C 153.32 -1.88742 -3.03498 0
M  V30 1601 S 154.879 -1.91794 -3.94665 0
M  V30 1602 H 151.697 -0.405767 -0.583844 0
M  V30 1603 H 154.299 -1.60416 -1.11745 0
M  V30 1604 H 153.003 -2.9336 -2.86999 0
M  V30 1605 H 152.534 -1.42391 -3.66727 0
M  V30 1606 H 154.549 -1.00698 -4.85875 0
M  V30 1607 N 153.722 1.14298 -1.08507 0
M  V30 1608 C 154.685 2.17607 -0.719711 0
M  V30 1609 C 155.685 1.58907 0.245997 0
M  V30 1610 O 156.875 1.74181 0.0254081 0
M  V30 1611 C 154.007 3.40842 -0.0627695 0
M  V30 1612 H 155.2 2.51443 -1.63452 0
M  V30 1613 H 152.753 1.28963 -0.88307 0
M  V30 1614 H 153.488 3.12587 0.863716 0
M  V30 1615 H 153.273 3.84713 -0.757504 0
M  V30 1616 H 154.763 4.17221 0.177786 0
M  V30 1617 N 155.201 0.870884 1.31352 0
M  V30 1618 C 156.617 0.562932 1.49343 0
M  V30 1619 C 156.817 -0.902725 1.80148 0
M  V30 1620 O 155.873 -1.68484 1.88067 0
M  V30 1621 C 157.186 1.46393 2.62659 0
M  V30 1622 C 158.734 1.46607 2.76542 0
M  V30 1623 C 159.209 2.35266 3.92955 0
M  V30 1624 N 160.7 2.33151 4.00243 0
M  V30 1625 C 161.435 2.98471 4.89594 0
M  V30 1626 N 160.931 3.72964 5.8384 0
M  V30 1627 N 162.724 2.87775 4.82848 0
M  V30 1628 H 154.875 1.81923 1.09626 0
M  V30 1629 H 157.138 0.777934 0.541777 0
M  V30 1630 H 156.844 2.50689 2.46674 0
M  V30 1631 H 156.718 1.16314 3.58819 0
M  V30 1632 H 159.105 0.43069 2.9194 0
M  V30 1633 H 159.186 1.8071 1.81046 0
M  V30 1634 H 158.83 3.38881 3.78315 0
M  V30 1635 H 158.76 1.98487 4.87761 0
M  V30 1636 H 161.251 1.79006 3.32814 0
M  V30 1637 H 161.564 4.19932 6.4875 0
M  V30 1638 H 159.909 3.77073 5.83816 0
M  V30 1639 H 163.1 2.29116 4.08195 0
M  V30 1640 H 163.273 3.38961 5.52277 0
M  V30 1641 N 156.679 -1.44442 0.630414 0
M  V30 1642 C 157.642 -2.29107 -0.0652523 0
M  V30 1643 C 158.642 -1.41002 -0.772995 0
M  V30 1644 O 159.832 -1.62881 -0.617692 0
M  V30 1645 C 156.964 -3.22564 -1.10296 0
M  V30 1646 H 158.157 -2.92103 0.679401 0
M  V30 1647 H 155.71 -1.51343 0.390517 0
M  V30 1648 H 156.445 -2.64416 -1.87762 0
M  V30 1649 H 156.23 -3.87491 -0.59941 0
M  V30 1650 H 157.72 -3.86167 -1.5895 0
M  V30 1651 N 158.157 -0.370918 -1.53173 0
M  V30 1652 C 159.385 0.217704 -2.05751 0
M  V30 1653 C 159.8 1.42018 -1.24404 0
M  V30 1654 O 159.157 1.80245 -0.286033 0
M  V30 1655 C 159.208 0.605954 -3.56385 0
M  V30 1656 O 158.929 -0.548734 -4.3465 0
M  V30 1657 C 160.43 1.2524 -4.25241 0
M  V30 1658 H 157.65 0.0371659 -0.66997 0
M  V30 1659 H 160.194 -0.530832 -1.9749 0
M  V30 1660 H 158.349 1.3044 -3.6478 0
M  V30 1661 H 158.763 -0.23376 -5.23979 0
M  V30 1662 H 160.237 1.47458 -5.3194 0
M  V30 1663 H 160.714 2.2143 -3.79296 0
M  V30 1664 H 161.32 0.595233 -4.21114 0
M  V30 1665 N 159.635 1.57281 -0.100228 0
M  V30 1666 C 160.582 2.14305 0.856858 0
M  V30 1667 C 161.552 1.06296 1.27634 0
M  V30 1668 O 162.737 1.34109 1.35718 0
M  V30 1669 C 159.877 2.73184 2.10866 0
M  V30 1670 C 158.99 3.95442 1.73925 0
M  V30 1671 C 158.125 4.42468 2.93931 0
M  V30 1672 C 157.164 5.57303 2.5314 0
M  V30 1673 N 156.301 5.99158 3.65997 0
M  V30 1674 H 161.141 2.95772 0.363726 0
M  V30 1675 H 158.678 1.46139 0.167858 0
M  V30 1676 H 160.636 3.05442 2.84185 0
M  V30 1677 H 159.266 1.94437 2.57671 0
M  V30 1678 H 158.318 3.69464 0.905554 0
M  V30 1679 H 159.63 4.78769 1.39935 0
M  V30 1680 H 158.784 4.76537 3.75496 0
M  V30 1681 H 157.523 3.58052 3.31134 0
M  V30 1682 H 156.528 5.22857 1.70003 0
M  V30 1683 H 157.753 6.43471 2.17075 0
M  V30 1684 H 155.699 5.17687 4.02909 0
M  V30 1685 H 155.616 6.77295 3.35869 0
M  V30 1686 H 156.884 6.3786 4.48057 0
M  V30 1687 N 161.113 -0.173488 1.56642 0
M  V30 1688 C 162.043 -1.2171 1.99271 0
M  V30 1689 C 163.024 -1.46289 0.867959 0
M  V30 1690 O 164.209 -1.5766 1.13388 0
M  V30 1691 C 161.339 -2.55651 2.35074 0
M  V30 1692 C 160.293 -2.45645 3.50489 0
M  V30 1693 C 159.619 -3.84056 3.72028 0
M  V30 1694 C 160.919 -1.96302 4.84007 0
M  V30 1695 H 162.613 -0.86275 2.867 0
M  V30 1696 H 160.159 -0.413571 1.37933 0
M  V30 1697 H 162.112 -3.2886 2.63494 0
M  V30 1698 H 160.836 -2.92869 1.44552 0
M  V30 1699 H 159.495 -1.7489 3.22194 0
M  V30 1700 H 159.143 -4.18664 2.788 0
M  V30 1701 H 158.843 -3.7823 4.49684 0
M  V30 1702 H 160.367 -4.58854 4.02846 0
M  V30 1703 H 161.781 -2.59284 5.11317 0
M  V30 1704 H 160.178 -2.01429 5.65284 0
M  V30 1705 H 161.248 -0.917226 4.76146 0
M  V30 1706 N 162.591 -1.51276 -0.441967 0
M  V30 1707 C 163.819 -1.67516 -1.21434 0
M  V30 1708 C 164.234 -0.37055 -1.85128 0
M  V30 1709 O 163.591 0.650498 -1.70513 0
M  V30 1710 C 163.642 -2.78748 -2.30177 0
M  V30 1711 O 163.363 -4.04154 -1.69089 0
M  V30 1712 C 164.864 -3.06217 -3.20541 0
M  V30 1713 H 162.084 -0.562276 -0.366178 0
M  V30 1714 H 164.628 -1.97666 -0.524244 0
M  V30 1715 H 162.783 -2.5121 -2.94911 0
M  V30 1716 H 163.197 -4.65894 -2.40922 0
M  V30 1717 H 164.671 -3.8764 -3.92987 0
M  V30 1718 H 165.148 -2.18439 -3.81026 0
M  V30 1719 H 165.754 -3.35397 -2.61513 0
M  V30 1720 N 164.069 0.697108 -1.41344 0
M  V30 1721 C 165.002 1.82134 -1.37486 0
M  V30 1722 C 165.98 1.60784 -0.242351 0
M  V30 1723 O 167.164 1.83553 -0.429012 0
M  V30 1724 C 164.291 3.18788 -1.14421 0
M  V30 1725 C 163.337 3.58932 -2.3037 0
M  V30 1726 S 164.17 3.63916 -3.92843 0
M  V30 1727 C 165.326 5.03298 -3.72078 0
M  V30 1728 H 165.559 1.85129 -2.32625 0
M  V30 1729 H 163.092 0.865671 -1.2785 0
M  V30 1730 H 165.05 3.97677 -1.018 0
M  V30 1731 H 163.711 3.13404 -0.20905 0
M  V30 1732 H 162.904 4.58202 -2.09922 0
M  V30 1733 H 162.506 2.87347 -2.39391 0
M  V30 1734 H 164.798 5.90753 -3.31688 0
M  V30 1735 H 165.741 5.28788 -4.70945 0
M  V30 1736 H 166.149 4.74764 -3.05384 0
M  V30 1737 N 165.547 1.27147 0.931209 0
M  V30 1738 C 166.495 1.09398 2.05268 0
M  V30 1739 C 167.489 0.0180591 1.6939 0
M  V30 1740 O 168.695 0.17551 1.79142 0
M  V30 1741 H 165.07 0.336986 0.672268 0
M  V30 1742 H 167.041 2.04416 2.17386 0
M  V30 1743 C 165.79 0.75424 3.39421 0
M  V30 1744 H 165.113 1.57404 3.67511 0
M  V30 1745 H 166.553 0.669903 4.18674 0
M  V30 1746 C 165.012 -0.541197 3.32525 0
M  V30 1747 O 165.542 -1.57664 3.69466 0
M  V30 1748 N 163.748 -0.535517 2.85623 0
M  V30 1749 H 163.295 0.307511 2.55758 0
M  V30 1750 H 163.253 -1.40236 2.81392 0
M  V30 1751 N 167.025 -1.13721 1.09112 0
M  V30 1752 C 168.441 -1.36914 0.820174 0
M  V30 1753 C 168.641 -1.93356 -0.567079 0
M  V30 1754 O 167.697 -2.15093 -1.32255 0
M  V30 1755 C 169.01 -2.3235 1.90877 0
M  V30 1756 C 170.558 -2.45973 1.93562 0
M  V30 1757 C 171.033 -3.44714 3.01556 0
M  V30 1758 N 172.524 -3.52263 3.00775 0
M  V30 1759 C 173.259 -4.28536 3.80978 0
M  V30 1760 N 172.755 -5.07991 4.71081 0
M  V30 1761 N 174.548 -4.23804 3.69251 0
M  V30 1762 H 166.699 -0.754348 1.98553 0
M  V30 1763 H 168.962 -0.3944 0.862063 0
M  V30 1764 H 168.668 -1.98027 2.90651 0
M  V30 1765 H 168.542 -3.32332 1.78424 0
M  V30 1766 H 170.929 -2.79584 0.944286 0
M  V30 1767 H 171.01 -1.45926 2.10093 0
M  V30 1768 H 170.654 -3.11835 4.00901 0
M  V30 1769 H 170.584 -4.44558 2.82269 0
M  V30 1770 H 173.075 -2.95567 2.35475 0
M  V30 1771 H 173.388 -5.63487 5.28869 0
M  V30 1772 H 171.733 -5.07235 4.75119 0
M  V30 1773 H 174.924 -3.60806 2.98222 0
M  V30 1774 H 175.097 -4.82995 4.31995 0
M  V30 1775 N 168.503 -0.877838 -1.30888 0
M  V30 1776 C 169.413 -0.343096 -2.32078 0
M  V30 1777 C 170.429 0.551022 -1.65045 0
M  V30 1778 O 171.605 0.445854 -1.96403 0
M  V30 1779 C 168.67 0.439905 -3.43898 0
M  V30 1780 C 167.731 -0.483111 -4.26573 0
M  V30 1781 C 166.964 0.262616 -5.33053 0
M  V30 1782 O 167.187 1.48967 -5.50604 0
M  V30 1783 O 166.121 -0.383593 -6.00676 0
M  V30 1784 H 169.947 -1.18203 -2.79753 0
M  V30 1785 H 167.532 -0.64145 -1.34929 0
M  V30 1786 H 169.414 0.883504 -4.12034 0
M  V30 1787 H 168.089 1.25526 -2.98371 0
M  V30 1788 H 166.996 -0.975374 -3.61161 0
M  V30 1789 H 168.329 -1.26427 -4.75686 0
M  V30 1790 N 169.982 1.44106 -0.638065 0
M  V30 1791 C 171.23 2.01579 -0.145043 0
M  V30 1792 C 171.551 1.50496 1.24 0
M  V30 1793 O 170.821 0.711374 1.82527 0
M  V30 1794 H 169.401 0.745282 -0.05063 0
M  V30 1795 H 172.063 1.76516 -0.826327 0
M  V30 1796 H 171.159 3.11877 -0.118039 0
M  V30 1797 N 171.46 0.379036 1.52974 0
M  V30 1798 C 172.709 -0.207612 2.00629 0
M  V30 1799 C 173.022 -1.48758 1.27006 0
M  V30 1800 O 174.228 -2.15365 1.65318 0
M  V30 1801 C 172.684 -0.42053 3.57435 0
M  V30 1802 C 172.292 0.845587 4.39948 0
M  V30 1803 C 174.036 -0.964102 4.13407 0
M  V30 1804 C 171.943 0.601513 5.88333 0
M  V30 1805 H 170.873 -0.0813591 0.749598 0
M  V30 1806 H 173.524 0.499853 1.76561 0
M  V30 1807 H 171.906 -1.18959 3.7771 0
M  V30 1808 H 173.08 1.61848 4.31442 0
M  V30 1809 H 171.395 1.31336 3.95145 0
M  V30 1810 H 173.992 -1.16225 5.21916 0
M  V30 1811 H 174.335 -1.93019 3.68849 0
M  V30 1812 H 174.868 -0.25487 3.96983 0
M  V30 1813 H 171.607 1.53831 6.37194 0
M  V30 1814 H 171.127 -0.132628 5.99653 0
M  V30 1815 H 172.806 0.232134 6.46583 0
M  V30 1816 N 172.938 -1.57226 0.108567 0
M  V30 1817 C 174.354 -1.5766 -0.248058 0
M  V30 1818 C 174.554 -1.12063 -1.67464 0
M  V30 1819 O 173.61 -0.803236 -2.39383 0
M  V30 1820 C 174.923 -3.0069 -0.0242287 0
M  V30 1821 C 176.471 -3.12868 -0.0909372 0
M  V30 1822 C 176.946 -4.57879 0.105067 0
M  V30 1823 N 178.437 -4.63172 0.0506846 0
M  V30 1824 C 179.172 -5.73126 0.177396 0
M  V30 1825 N 178.668 -6.91866 0.359696 0
M  V30 1826 N 180.461 -5.61977 0.117709 0
M  V30 1827 H 172.612 -1.85169 1.04049 0
M  V30 1828 H 174.875 -0.85529 0.40888 0
M  V30 1829 H 174.581 -3.38299 0.961604 0
M  V30 1830 H 174.455 -3.6945 -0.76068 0
M  V30 1831 H 176.842 -2.75124 -1.06729 0
M  V30 1832 H 176.923 -2.46672 0.677225 0
M  V30 1833 H 176.567 -4.96321 1.07834 0
M  V30 1834 H 176.497 -5.22153 -0.682954 0
M  V30 1835 H 178.988 -3.778 -0.0871266 0
M  V30 1836 H 179.301 -7.71503 0.447529 0
M  V30 1837 H 177.646 -6.93874 0.395536 0
M  V30 1838 H 180.837 -4.68094 -0.0236741 0
M  V30 1839 H 181.01 -6.47627 0.219905 0
M  V30 1840 N 174.416 0.165178 -1.56732 0
M  V30 1841 C 175.832 0.517174 -1.50988 0
M  V30 1842 C 176.032 1.84331 -0.813894 0
M  V30 1843 O 175.088 2.49672 -0.37682 0
M  V30 1844 C 176.401 0.544261 -2.95733 0
M  V30 1845 C 177.949 0.631039 -3.06573 0
M  V30 1846 C 178.424 0.68896 -4.52788 0
M  V30 1847 N 179.915 0.751683 -4.5706 0
M  V30 1848 C 180.65 0.817177 -5.67547 0
M  V30 1849 N 180.146 0.843129 -6.8765 0
M  V30 1850 N 181.939 0.856668 -5.55534 0
M  V30 1851 H 174.09 -0.704318 -2.00382 0
M  V30 1852 H 176.353 -0.254687 -0.913148 0
M  V30 1853 H 176.059 -0.361607 -3.49836 0
M  V30 1854 H 175.933 1.3886 -3.5071 0
M  V30 1855 H 178.32 1.52733 -2.52501 0
M  V30 1856 H 178.401 -0.240095 -2.54671 0
M  V30 1857 H 178.045 -0.2031 -5.07494 0
M  V30 1858 H 177.975 1.57633 -5.02454 0
M  V30 1859 H 180.466 0.739661 -3.70591 0
M  V30 1860 H 180.779 0.894448 -7.67606 0
M  V30 1861 H 179.124 0.811304 -6.90248 0
M  V30 1862 H 182.315 0.833437 -4.60621 0
M  V30 1863 H 182.488 0.904247 -6.4166 0
M  V30 1864 N 175.894 1.51508 0.433938 0
M  V30 1865 C 176.824 1.76016 1.53429 0
M  V30 1866 C 177.805 0.610112 1.58782 0
M  V30 1867 O 178.99 0.853177 1.74455 0
M  V30 1868 C 176.12 1.88831 2.9148 0
M  V30 1869 C 175.074 3.04288 3.00987 0
M  V30 1870 C 174.4 3.0229 4.4105 0
M  V30 1871 C 175.7 4.44193 2.74754 0
M  V30 1872 H 177.394 2.68152 1.33171 0
M  V30 1873 H 174.94 1.29035 0.639214 0
M  V30 1874 H 176.893 2.04559 3.6842 0
M  V30 1875 H 175.617 0.933455 3.12976 0
M  V30 1876 H 174.276 2.8827 2.26486 0
M  V30 1877 H 173.924 2.04576 4.59519 0
M  V30 1878 H 173.624 3.79822 4.4834 0
M  V30 1879 H 175.148 3.20116 5.1996 0
M  V30 1880 H 176.562 4.60544 3.41426 0
M  V30 1881 H 174.959 5.23457 2.9345 0
M  V30 1882 H 176.029 4.53996 1.70339 0
M  V30 1883 N 177.372 -0.689602 1.41712 0
M  V30 1884 C 178.335 -1.78521 1.43746 0
M  V30 1885 C 179.335 -1.57436 0.327191 0
M  V30 1886 O 180.525 -1.64 0.587348 0
M  V30 1887 C 177.657 -3.16971 1.25467 0
M  V30 1888 H 178.85 -1.78108 2.41283 0
M  V30 1889 H 176.403 -0.89781 1.27942 0
M  V30 1890 H 177.138 -3.23019 0.287948 0
M  V30 1891 H 176.923 -3.33678 2.05917 0
M  V30 1892 H 178.413 -3.96935 1.2974 0
M  V30 1893 N 178.85 -1.27639 -0.924453 0
M  V30 1894 C 179.813 -1.10681 -2.00705 0
M  V30 1895 C 180.813 -0.0497823 -1.60723 0
M  V30 1896 O 182.003 -0.294654 -1.7169 0
M  V30 1897 C 179.135 -0.687164 -3.33902 0
M  V30 1898 H 180.328 -2.06817 -2.17179 0
M  V30 1899 H 177.881 -1.10473 -1.10569 0
M  V30 1900 H 178.616 0.275439 -3.23128 0
M  V30 1901 H 178.401 -1.45061 -3.6428 0
M  V30 1902 H 179.891 -0.590853 -4.13399 0
M  V30 1903 N 180.328 1.1314 -1.09713 0
M  V30 1904 C 181.238 2.22242 -0.751367 0
M  V30 1905 C 182.254 1.72224 0.247938 0
M  V30 1906 O 183.43 2.01205 0.0885463 0
M  V30 1907 C 180.495 3.46231 -0.180274 0
M  V30 1908 C 179.556 4.11125 -1.2359 0
M  V30 1909 C 178.789 5.29195 -0.691966 0
M  V30 1910 O 179.012 5.68342 0.48414 0
M  V30 1911 O 177.946 5.84214 -1.44838 0
M  V30 1912 H 181.772 2.54197 -1.66186 0
M  V30 1913 H 179.357 1.21331 -0.871735 0
M  V30 1914 H 181.239 4.21185 0.134739 0
M  V30 1915 H 179.914 3.1597 0.703185 0
M  V30 1916 H 178.821 3.37985 -1.60366 0
M  V30 1917 H 180.154 4.45524 -2.09211 0
M  V30 1918 N 181.806 0.884767 1.30421 0
M  V30 1919 C 182.716 0.355398 2.31892 0
M  V30 1920 C 183.732 -0.542261 1.65335 0
M  V30 1921 O 184.908 -0.435432 1.96637 0
M  V30 1922 C 181.973 -0.421661 3.44126 0
M  V30 1923 C 181.034 0.505727 4.26311 0
M  V30 1924 C 180.267 -0.234343 5.33185 0
M  V30 1925 O 180.49 -1.46045 5.51386 0
M  V30 1926 O 179.424 0.415443 6.00465 0
M  V30 1927 H 183.25 1.19685 2.79122 0
M  V30 1928 H 180.835 0.648596 1.34587 0
M  V30 1929 H 182.717 -0.861641 4.12497 0
M  V30 1930 H 181.392 -1.23942 2.99032 0
M  V30 1931 H 180.299 0.994513 3.60639 0
M  V30 1932 H 181.632 1.28948 4.75009 0
M  V30 1933 N 183.284 -1.43765 0.645699 0
M  V30 1934 C 184.214 -2.33471 -0.0370477 0
M  V30 1935 C 185.195 -1.49042 -0.819779 0
M  V30 1936 O 186.38 -1.77726 -0.782758 0
M  V30 1937 C 183.51 -3.32311 -1.0093 0
M  V30 1938 C 182.464 -4.2667 -0.337201 0
M  V30 1939 C 181.79 -5.1549 -1.42037 0
M  V30 1940 C 183.09 -5.16657 0.765706 0
M  V30 1941 H 184.784 -2.90809 0.712069 0
M  V30 1942 H 182.33 -1.39834 0.343876 0
M  V30 1943 H 184.283 -3.9396 -1.49578 0
M  V30 1944 H 183.007 -2.73213 -1.78948 0
M  V30 1945 H 181.666 -3.66374 0.128771 0
M  V30 1946 H 181.314 -4.52735 -2.1918 0
M  V30 1947 H 181.014 -5.79438 -0.975966 0
M  V30 1948 H 182.538 -5.80012 -1.90838 0
M  V30 1949 H 183.952 -5.72158 0.361702 0
M  V30 1950 H 182.349 -5.89286 1.13413 0
M  V30 1951 H 183.419 -4.56796 1.62683 0
M  V30 1952 N 184.763 -0.387143 -1.52771 0
M  V30 1953 C 185.695 0.484089 -2.2403 0
M  V30 1954 C 186.708 1.02849 -1.26198 0
M  V30 1955 O 187.897 0.931186 -1.52286 0
M  V30 1956 C 184.997 1.68337 -2.94136 0
M  V30 1957 C 184.17 1.26672 -4.18656 0
M  V30 1958 C 183.229 2.33045 -4.7178 0
M  V30 1959 O 182.255 1.94541 -5.34923 0
M  V30 1960 N 183.457 3.64929 -4.5145 0
M  V30 1961 H 186.222 -0.126404 -2.99433 0
M  V30 1962 H 183.783 -0.213392 -1.60488 0
M  V30 1963 H 185.775 2.39019 -3.26577 0
M  V30 1964 H 184.345 2.20025 -2.22053 0
M  V30 1965 H 183.565 0.388878 -3.92277 0
M  V30 1966 H 184.853 0.964964 -4.99566 0
M  V30 1967 H 184.251 3.98974 -4.01044 0
M  V30 1968 H 182.808 4.31651 -4.88386 0
M  V30 1969 N 186.241 1.57166 -0.116904 0
M  V30 1970 C 187.171 2.18222 0.830759 0
M  V30 1971 C 188.152 1.12167 1.27877 0
M  V30 1972 O 189.337 1.40394 1.34176 0
M  V30 1973 C 186.467 2.77996 2.08172 0
M  V30 1974 C 185.421 3.89614 1.77157 0
M  V30 1975 C 184.747 4.36187 3.09265 0
M  V30 1976 C 186.047 5.1181 1.04151 0
M  V30 1977 H 187.741 2.97664 0.321992 0
M  V30 1978 H 185.287 1.4318 0.153434 0
M  V30 1979 H 187.24 3.19366 2.74924 0
M  V30 1980 H 185.964 1.9584 2.6137 0
M  V30 1981 H 184.623 3.48816 1.12796 0
M  V30 1982 H 184.271 3.50893 3.60393 0
M  V30 1983 H 183.971 5.11455 2.89288 0
M  V30 1984 H 185.495 4.80207 3.77139 0
M  V30 1985 H 186.909 5.50214 1.61052 0
M  V30 1986 H 185.306 5.92648 0.942762 0
M  V30 1987 H 186.376 4.84892 0.0279022 0
M  V30 1988 N 187.719 -0.156864 1.56817 0
M  V30 1989 C 189.13 -0.717916 1.72345 0
M  V30 1990 C 189.481 -1.82124 0.729747 0
M  V30 1991 O 188.606 -2.16141 -0.105781 0
M  V30 1992 C 189.201 -1.30904 3.12489 0
M  V30 1993 C 187.76 -1.81676 3.29653 0
M  V30 1994 C 186.907 -0.701349 2.68284 0
M  V30 1995 H 189.858 0.0686989 1.58551 0
M  V30 1996 H 189.879 -2.17882 3.11942 0
M  V30 1997 H 189.391 -0.505796 3.8479 0
M  V30 1998 H 187.492 -2.64598 2.62333 0
M  V30 1999 H 187.605 -1.95226 4.3752 0
M  V30 2000 H 185.969 -1.12548 2.28484 0
M  V30 2001 H 186.752 0.0902846 3.43181 0
M  V30 2002 N 189.197 -1.51736 -0.425897 0
M  V30 2003 C 190.425 -1.68794 -1.1965 0
M  V30 2004 C 190.84 -0.390164 -1.84725 0
M  V30 2005 O 190.197 0.632376 -1.71194 0
M  V30 2006 C 190.248 -2.81174 -2.27208 0
M  V30 2007 O 189.969 -4.05925 -1.64793 0
M  V30 2008 C 191.47 -3.09599 -3.17275 0
M  V30 2009 H 188.69 -0.566128 -0.360194 0
M  V30 2010 H 191.234 -1.98211 -0.503249 0
M  V30 2011 H 189.389 -2.54324 -2.9223 0
M  V30 2012 H 189.803 -4.68423 -2.35967 0
M  V30 2013 H 191.277 -3.91786 -3.88854 0
M  V30 2014 H 191.754 -2.22468 -3.78688 0
M  V30 2015 H 192.36 -3.38151 -2.57941 0
M  V30 2016 N 190.675 0.682077 -1.42076 0
M  V30 2017 C 191.9 1.47558 -1.45744 0
M  V30 2018 C 192.325 1.87977 -0.0680981 0
M  V30 2019 O 191.683 1.55522 0.9318 0
M  V30 2020 C 191.731 2.70575 -2.38373 0
M  V30 2021 O 190.835 3.68573 -1.85007 0
M  V30 2022 H 190.176 0.443585 -0.494093 0
M  V30 2023 H 192.706 0.837238 -1.86686 0
M  V30 2024 H 192.716 3.18729 -2.54707 0
M  V30 2025 H 191.391 2.40495 -3.39315 0
M  V30 2026 H 189.968 3.2757 -1.78192 0
M  V30 2027 N 192.153 1.28127 0.917671 0
M  V30 2028 C 193.381 1.17892 1.70026 0
M  V30 2029 C 193.796 -0.262958 1.8696 0
M  V30 2030 O 193.153 -1.17811 1.3938 0
M  V30 2031 C 193.204 1.86872 3.09453 0
M  V30 2032 O 192.925 3.25428 2.93306 0
M  V30 2033 C 194.426 1.8289 4.03815 0
M  V30 2034 H 191.646 0.40942 0.531617 0
M  V30 2035 H 194.19 1.69181 1.14883 0
M  V30 2036 H 192.345 1.39464 3.61426 0
M  V30 2037 H 192.759 3.59918 3.81523 0
M  V30 2038 H 194.233 2.35751 4.99125 0
M  V30 2039 H 194.71 0.800412 4.31845 0
M  V30 2040 H 195.316 2.29959 3.57769 0
M  V30 2041 N 193.631 -1.12557 1.10312 0
M  V30 2042 C 194.861 -1.87592 0.865617 0
M  V30 2043 C 195.269 -1.79851 -0.587389 0
M  V30 2044 O 194.612 -1.16949 -1.41664 0
M  V30 2045 C 194.674 -3.37665 1.23381 0
M  V30 2046 C 194.338 -3.69181 2.69359 0
M  V30 2047 C 195.335 -3.67652 3.67597 0
M  V30 2048 C 193.02 -3.98555 3.05711 0
M  V30 2049 C 195.014 -3.95053 5.00212 0
M  V30 2050 C 192.701 -4.25616 4.38514 0
M  V30 2051 C 193.699 -4.23851 5.35574 0
M  V30 2052 O 193.387 -4.50242 6.65986 0
M  V30 2053 H 193.119 -0.600442 0.310557 0
M  V30 2054 H 195.673 -1.4335 1.47105 0
M  V30 2055 H 193.903 -3.82454 0.571467 0
M  V30 2056 H 195.592 -3.94041 0.973994 0
M  V30 2057 H 196.358 -3.45024 3.40857 0
M  V30 2058 H 192.237 -3.99071 2.30789 0
M  V30 2059 H 195.781 -3.93591 5.75962 0
M  V30 2060 H 191.678 -4.47718 4.64994 0
M  V30 2061 H 192.446 -4.67867 6.71597 0
M  V30 2062 N 195.109 -0.891671 -1.2995 0
M  V30 2063 C 196.525 -0.58662 -1.48428 0
M  V30 2064 C 196.725 0.873951 -1.81561 0
M  V30 2065 O 195.781 1.65471 -1.90724 0
M  V30 2066 C 197.094 -1.50553 -2.60296 0
M  V30 2067 C 198.642 -1.50988 -2.74175 0
M  V30 2068 C 199.117 -2.41488 -3.89163 0
M  V30 2069 N 200.608 -2.39489 -3.96483 0
M  V30 2070 C 201.343 -3.06223 -4.84784 0
M  V30 2071 N 200.839 -3.82206 -5.77833 0
M  V30 2072 N 202.632 -2.95421 -4.78208 0
M  V30 2073 H 194.783 -1.83644 -1.06718 0
M  V30 2074 H 197.046 -0.786455 -0.529332 0
M  V30 2075 H 196.752 -2.54581 -2.42654 0
M  V30 2076 H 196.626 -1.22008 -3.56923 0
M  V30 2077 H 199.013 -0.47708 -2.91218 0
M  V30 2078 H 199.094 -1.83567 -1.78148 0
M  V30 2079 H 198.738 -3.44857 -3.72876 0
M  V30 2080 H 198.668 -2.06222 -4.84541 0
M  V30 2081 H 201.159 -1.84278 -3.29924 0
M  V30 2082 H 201.472 -4.302 -6.41988 0
M  V30 2083 H 199.817 -3.86313 -5.77743 0
M  V30 2084 H 203.008 -2.35581 -4.04499 0
M  V30 2085 H 203.181 -3.47704 -5.46814 0
M  V30 2086 N 196.587 1.43421 -0.653314 0
M  V30 2087 C 197.834 2.01812 -0.166745 0
M  V30 2088 C 198.162 1.51535 1.21931 0
M  V30 2089 O 197.417 0.698975 1.82792 0
M  V30 2090 C 197.716 3.57176 -0.126623 0
M  V30 2091 C 197.382 4.26798 -1.45444 0
M  V30 2092 C 196.044 4.45534 -1.81805 0
M  V30 2093 C 198.396 4.66225 -2.32989 0
M  V30 2094 C 195.724 5.00961 -3.05377 0
M  V30 2095 C 198.076 5.23021 -3.55853 0
M  V30 2096 C 196.74 5.39973 -3.9241 0
M  V30 2097 H 196.01 0.738484 -0.0610162 0
M  V30 2098 H 198.657 1.71896 -0.84404 0
M  V30 2099 H 196.962 3.86634 0.634123 0
M  V30 2100 H 198.659 4.00112 0.266723 0
M  V30 2101 H 195.249 4.12561 -1.16153 0
M  V30 2102 H 199.433 4.51443 -2.06187 0
M  V30 2103 H 194.689 5.12271 -3.3375 0
M  V30 2104 H 198.863 5.52518 -4.23907 0
M  V30 2105 H 196.49 5.82687 -4.88242 0
M  V30 2106 N 198.065 0.39524 1.52563 0
M  V30 2107 C 199.028 -0.425001 2.25225 0
M  V30 2108 C 200.028 -0.985266 1.27079 0
M  V30 2109 O 201.218 -0.866332 1.5113 0
M  V30 2110 C 198.35 -1.59686 3.01186 0
M  V30 2111 H 199.543 0.211233 2.99155 0
M  V30 2112 H 197.096 0.147472 1.55603 0
M  V30 2113 H 197.831 -2.27035 2.31572 0
M  V30 2114 H 197.616 -1.20176 3.73229 0
M  V30 2115 H 199.106 -2.17743 3.5634 0
M  V30 2116 N 199.544 -1.57102 0.125237 0
M  V30 2117 C 200.821 -1.86953 -0.575142 0
M  V30 2118 C 201.201 -1.02749 -1.84407 0
M  V30 2119 O 200.549 -0.108144 -2.28244 0
M  V30 2120 C 200.759 -3.38198 -0.861583 0
M  V30 2121 C 202.107 -4.06937 -1.21192 0
M  V30 2122 O 203.131 -3.43252 -0.951645 0
M  V30 2123 O 201.99 -5.19364 -1.70068 0
M  V30 2124 H 199.084 -0.774147 -0.290906 0
M  V30 2125 H 201.63 -1.68942 0.160211 0
M  V30 2126 H 200.402 -3.91282 0.0373647 0
M  V30 2127 H 200.025 -3.61661 -1.65188 0
M  V30 2128 N 201.022 0.148545 -1.56898 0
M  V30 2129 C 202.247 0.880385 -1.87787 0
M  V30 2130 C 202.672 1.74018 -0.714093 0
M  V30 2131 O 202.03 1.78153 0.336343 0
M  V30 2132 C 202.078 1.71422 -3.17249 0
M  V30 2133 O 201.182 2.8183 -3.01074 0
M  V30 2134 H 200.523 0.245301 -0.617028 0
M  V30 2135 H 203.053 0.139826 -2.04122 0
M  V30 2136 H 203.063 2.10954 -3.49231 0
M  V30 2137 H 201.738 1.08284 -4.01556 0
M  V30 2138 H 200.315 2.45715 -2.80497 0
M  V30 2139 N 202.5 1.5196 0.417844 0
M  V30 2140 C 203.41 1.77554 1.53336 0
M  V30 2141 C 204.426 0.660655 1.6097 0
M  V30 2142 O 205.602 0.945099 1.77848 0
M  V30 2143 C 202.667 1.91291 2.89152 0
M  V30 2144 C 201.728 3.15183 2.91475 0
M  V30 2145 C 200.961 3.28256 4.20813 0
M  V30 2146 O 201.184 2.46798 5.14244 0
M  V30 2147 O 200.118 4.21356 4.29817 0
M  V30 2148 H 203.944 2.7222 1.34647 0
M  V30 2149 H 201.529 1.36698 0.602828 0
M  V30 2150 H 203.411 2.02199 3.69721 0
M  V30 2151 H 202.086 0.998129 3.07927 0
M  V30 2152 H 200.993 3.09739 2.09791 0
M  V30 2153 H 202.326 4.06414 2.77648 0
M  V30 2154 N 203.978 -0.674533 1.42435 0
M  V30 2155 C 205.203 -1.46784 1.46524 0
M  V30 2156 C 205.628 -1.87938 0.078066 0
M  V30 2157 O 204.986 -1.56014 -0.92354 0
M  V30 2158 C 205.034 -2.69307 2.39805 0
M  V30 2159 O 204.138 -3.67587 1.86959 0
M  V30 2160 H 203.479 -0.440959 0.496439 0
M  V30 2161 H 206.009 -0.827326 1.87127 0
M  V30 2162 H 206.019 -3.17374 2.56393 0
M  V30 2163 H 204.694 -2.38692 3.40586 0
M  V30 2164 H 203.271 -3.2662 1.79927 0
M  V30 2165 N 205.456 -1.28612 -0.910864 0
M  V30 2166 C 206.386 -1.15326 -2.03032 0
M  V30 2167 C 207.367 -0.0502924 -1.70026 0
M  V30 2168 O 208.552 -0.227797 -1.92859 0
M  V30 2169 C 205.682 -0.817343 -3.37545 0
M  V30 2170 C 204.636 -1.8754 -3.84724 0
M  V30 2171 C 203.962 -1.39305 -5.16235 0
M  V30 2172 C 205.262 -3.28244 -4.06267 0
M  V30 2173 H 206.956 -2.08975 -2.14406 0
M  V30 2174 H 204.502 -1.00612 -1.03021 0
M  V30 2175 H 206.455 -0.711151 -4.15356 0
M  V30 2176 H 205.179 0.154846 -3.26233 0
M  V30 2177 H 203.838 -1.97079 -3.09121 0
M  V30 2178 H 203.486 -0.409846 -5.01328 0
M  V30 2179 H 203.186 -2.10057 -5.48771 0
M  V30 2180 H 204.71 -1.30014 -5.96598 0
M  V30 2181 H 206.124 -3.21611 -4.74594 0
M  V30 2182 H 204.521 -3.96855 -4.5014 0
M  V30 2183 H 205.591 -3.72048 -3.10979 0
M  V30 2184 N 206.934 1.1197 -1.10907 0
M  V30 2185 C 208.181 1.83588 -0.854507 0
M  V30 2186 C 208.509 1.84357 0.6199 0
M  V30 2187 O 207.764 1.28809 1.47332 0
M  V30 2188 C 208.063 3.30749 -1.35425 0
M  V30 2189 C 207.729 3.50146 -2.84093 0
M  V30 2190 C 206.391 3.55148 -3.2469 0
M  V30 2191 C 208.743 3.56857 -3.79872 0
M  V30 2192 C 206.071 3.6441 -4.59806 0
M  V30 2193 C 208.423 3.6765 -5.14797 0
M  V30 2194 C 207.087 3.7091 -5.54961 0
M  V30 2195 H 206.357 0.671795 -0.312686 0
M  V30 2196 H 209.004 1.32091 -1.38652 0
M  V30 2197 H 207.309 3.84703 -0.742361 0
M  V30 2198 H 209.006 3.8464 -1.1337 0
M  V30 2199 H 205.596 3.46919 -2.51685 0
M  V30 2200 H 209.78 3.52258 -3.49611 0
M  V30 2201 H 205.036 3.65208 -4.9034 0
M  V30 2202 H 209.21 3.71786 -5.88853 0
M  V30 2203 H 206.837 3.7784 -6.59652 0
M  V30 2204 N 208.412 0.89855 1.29475 0
M  V30 2205 C 209.828 0.594483 1.48115 0
M  V30 2206 C 210.028 -0.86431 1.82022 0
M  V30 2207 O 209.084 -1.64457 1.91599 0
M  V30 2208 C 210.397 1.51932 2.59494 0
M  V30 2209 C 211.945 1.5244 2.7337 0
M  V30 2210 C 212.42 2.43548 3.87877 0
M  V30 2211 N 213.911 2.41589 3.95208 0
M  V30 2212 C 214.646 3.08789 4.83153 0
M  V30 2213 N 214.142 3.85265 5.75798 0
M  V30 2214 N 215.935 2.97952 4.76635 0
M  V30 2215 H 208.086 1.84207 1.05742 0
M  V30 2216 H 210.349 0.789251 0.525154 0
M  V30 2217 H 210.055 2.55865 2.41301 0
M  V30 2218 H 209.929 1.23899 3.56271 0
M  V30 2219 H 212.316 0.492518 2.90961 0
M  V30 2220 H 212.397 1.8451 1.77172 0
M  V30 2221 H 212.041 3.46829 3.71041 0
M  V30 2222 H 211.971 2.08788 4.83441 0
M  V30 2223 H 214.462 1.86025 3.28943 0
M  V30 2224 H 214.775 4.33598 6.39697 0
M  V30 2225 H 213.12 3.89371 5.75687 0
M  V30 2226 H 216.311 2.37723 4.03244 0
M  V30 2227 H 216.484 3.50599 5.44962 0
M  V30 2228 N 209.89 -1.43072 0.660911 0
M  V30 2229 C 210.8 -2.34585 -0.0264163 0
M  V30 2230 C 211.816 -1.54316 -0.803898 0
M  V30 2231 O 212.992 -1.86939 -0.749391 0
M  V30 2232 C 210.057 -3.32689 -0.975639 0
M  V30 2233 C 209.118 -4.2886 -0.194236 0
M  V30 2234 C 208.351 -5.22278 -1.09825 0
M  V30 2235 O 208.574 -5.20299 -2.33763 0
M  V30 2236 O 207.508 -5.99228 -0.566513 0
M  V30 2237 H 211.334 -2.94869 0.727034 0
M  V30 2238 H 208.919 -1.43342 0.42111 0
M  V30 2239 H 210.801 -3.92995 -1.52094 0
M  V30 2240 H 209.476 -2.74898 -1.70918 0
M  V30 2241 H 208.383 -3.72011 0.394835 0
M  V30 2242 H 209.716 -4.89655 0.499899 0
M  V30 2243 N 211.368 -0.403325 -1.52352 0
M  V30 2244 C 212.331 0.413051 -2.25447 0
M  V30 2245 C 213.331 0.978513 -1.276 0
M  V30 2246 O 214.521 0.858305 -1.51587 0
M  V30 2247 C 211.653 1.58087 -3.02029 0
M  V30 2248 H 212.846 -0.227094 -2.99039 0
M  V30 2249 H 210.399 -0.155722 -1.55522 0
M  V30 2250 H 211.134 2.25804 -2.32772 0
M  V30 2251 H 210.919 1.18195 -3.73861 0
M  V30 2252 H 212.409 2.1585 -3.57489 0
M  V30 2253 N 212.846 1.57033 -0.133567 0
M  V30 2254 C 214.092 1.95976 0.521649 0
M  V30 2255 C 214.425 1.01779 1.65393 0
M  V30 2256 O 213.7 0.0576581 1.94415 0
M  V30 2257 C 213.983 3.44738 1.04057 0
M  V30 2258 C 213.836 4.49711 -0.0892897 0
M  V30 2259 C 215.155 3.95682 1.92675 0
M  V30 2260 H 212.274 0.712579 0.188149 0
M  V30 2261 H 214.916 1.88813 -0.212076 0
M  V30 2262 H 213.066 3.50973 1.66583 0
M  V30 2263 H 214.738 4.55565 -0.725152 0
M  V30 2264 H 212.981 4.27261 -0.750378 0
M  V30 2265 H 213.652 5.51099 0.315284 0
M  V30 2266 H 216.128 3.91841 1.39998 0
M  V30 2267 H 215.004 5.00262 2.25897 0
M  V30 2268 H 215.265 3.37239 2.85872 0
M  V30 2269 N 214.325 -0.140222 1.56975 0
M  V30 2270 C 215.288 -1.15689 1.97861 0
M  V30 2271 C 216.288 -1.3549 0.865974 0
M  V30 2272 O 217.478 -1.32367 1.13246 0
M  V30 2273 C 214.61 -2.51582 2.30042 0
M  V30 2274 H 215.803 -0.805971 2.88867 0
M  V30 2275 H 213.356 -0.383801 1.51515 0
M  V30 2276 H 214.091 -2.91632 1.41849 0
M  V30 2277 H 213.876 -2.38569 3.11171 0
M  V30 2278 H 215.366 -3.24792 2.62488 0
M  V30 2279 N 215.803 -1.52179 -0.40978 0
M  V30 2280 C 217.08 -1.56769 -1.16974 0
M  V30 2281 C 217.46 -0.348322 -2.08206 0
M  V30 2282 O 216.808 0.664862 -2.18613 0
M  V30 2283 C 217.018 -2.89603 -1.9476 0
M  V30 2284 C 218.366 -3.42579 -2.50849 0
M  V30 2285 O 219.39 -2.91338 -2.04941 0
M  V30 2286 O 218.249 -4.32054 -3.34652 0
M  V30 2287 H 215.343 -0.631439 -0.534054 0
M  V30 2288 H 217.889 -1.64507 -0.416613 0
M  V30 2289 H 216.661 -3.698 -1.27921 0
M  V30 2290 H 216.284 -2.85155 -2.77079 0
M  V30 2291 N 217.281 0.66697 -1.42791 0
M  V30 2292 C 218.53 1.42278 -1.42968 0
M  V30 2293 C 218.843 1.9553 -0.0524489 0
M  V30 2294 O 220.049 2.71414 0.068363 0
M  V30 2295 C 218.505 2.57418 -2.51524 0
M  V30 2296 C 218.113 2.10832 -3.9529 0
M  V30 2297 C 219.857 3.34878 -2.60877 0
M  V30 2298 C 217.764 3.23101 -4.95338 0
M  V30 2299 H 216.694 0.534533 -0.531781 0
M  V30 2300 H 219.345 0.721302 -1.68729 0
M  V30 2301 H 217.727 3.29971 -2.18941 0
M  V30 2302 H 218.901 1.4538 -4.37266 0
M  V30 2303 H 217.216 1.46289 -3.89857 0
M  V30 2304 H 219.813 4.18505 -3.32802 0
M  V30 2305 H 220.156 3.81993 -1.6549 0
M  V30 2306 H 220.689 2.69398 -2.92693 0
M  V30 2307 H 217.428 2.80969 -5.9223 0
M  V30 2308 H 216.948 3.87309 -4.57987 0
M  V30 2309 H 218.627 3.88447 -5.17415 0
M  V30 2310 N 218.759 1.29093 0.90403 0
M  V30 2311 C 220.007 1.16583 1.65085 0
M  V30 2312 C 220.328 -0.283933 1.92922 0
M  V30 2313 O 219.598 -1.19509 1.55224 0
M  V30 2314 H 218.178 0.428467 0.611903 0
M  V30 2315 H 220.84 1.61959 1.08422 0
M  V30 2316 H 219.936 1.71266 2.6091 0
M  V30 2317 N 220.237 -1.11381 1.11499 0
M  V30 2318 C 221.467 -1.86663 0.885464 0
M  V30 2319 C 221.875 -1.80464 -0.568281 0
M  V30 2320 O 221.218 -1.18445 -1.40415 0
M  V30 2321 C 221.28 -3.36337 1.26956 0
M  V30 2322 C 220.944 -3.66304 2.73259 0
M  V30 2323 C 221.941 -3.63733 3.71476 0
M  V30 2324 C 219.626 -3.9529 3.09921 0
M  V30 2325 C 221.62 -3.89725 5.04374 0
M  V30 2326 C 219.307 -4.20941 4.43004 0
M  V30 2327 C 220.305 -4.18147 5.40039 0
M  V30 2328 O 219.993 -4.43153 6.70724 0
M  V30 2329 H 219.725 -0.597114 0.316908 0
M  V30 2330 H 222.279 -1.41782 1.48617 0
M  V30 2331 H 220.509 -3.81826 0.611999 0
M  V30 2332 H 222.198 -3.92986 1.01573 0
M  V30 2333 H 222.964 -3.41389 3.44498 0
M  V30 2334 H 218.843 -3.966 2.35009 0
M  V30 2335 H 222.387 -3.8746 5.80104 0
M  V30 2336 H 218.284 -4.42761 4.69716 0
M  V30 2337 H 219.052 -4.60717 6.76522 0
M  V30 2338 N 221.715 -0.905404 -1.28997 0
M  V30 2339 C 223.126 -0.581953 -1.77398 0
M  V30 2340 C 223.477 0.902552 -1.74208 0
M  V30 2341 O 222.602 1.70584 -1.33154 0
M  V30 2342 C 223.197 -1.04961 -3.22131 0
M  V30 2343 C 221.756 -0.777229 -3.68288 0
M  V30 2344 C 220.903 -1.22109 -2.48967 0
M  V30 2345 H 223.854 -1.08754 -1.15578 0
M  V30 2346 H 223.875 -0.387387 -3.78523 0
M  V30 2347 H 223.387 -2.13008 -3.24421 0
M  V30 2348 H 221.488 0.290383 -3.71467 0
M  V30 2349 H 221.601 -1.37911 -4.58822 0
M  V30 2350 H 219.965 -0.639971 -2.46529 0
M  V30 2351 H 220.748 -2.30972 -2.53982 0
M  V30 2352 N 223.193 1.4272 -0.668489 0
M  V30 2353 C 224.433 2.03497 -0.19194 0
M  V30 2354 C 224.797 1.51684 1.17712 0
M  V30 2355 O 225.998 2.04205 1.74796 0
M  V30 2356 C 224.269 3.56734 -0.218032 0
M  V30 2357 S 225.828 4.38395 0.188438 0
M  V30 2358 H 222.646 0.706542 -0.0794959 0
M  V30 2359 H 225.248 1.74563 -0.880235 0
M  V30 2360 H 223.952 3.91943 -1.2169 0
M  V30 2361 H 223.483 3.90333 0.490303 0
M  V30 2362 H 225.498 4.75345 1.42345 0
M  V30 2363 N 224.671 0.411399 1.52136 0
M  V30 2364 C 225.92 -0.165009 2.01024 0
M  V30 2365 C 226.233 -1.4603 1.30133 0
M  V30 2366 O 227.439 -2.1181 1.69849 0
M  V30 2367 C 225.895 -0.344618 3.58246 0
M  V30 2368 C 225.503 0.938716 4.38055 0
M  V30 2369 C 227.247 -0.876195 4.15359 0
M  V30 2370 C 225.154 0.726172 5.86925 0
M  V30 2371 H 224.084 -0.0654407 0.751155 0
M  V30 2372 H 226.735 0.537192 1.75461 0
M  V30 2373 H 225.117 -1.10921 3.80148 0
M  V30 2374 H 226.291 1.70963 4.27912 0
M  V30 2375 H 224.606 1.39688 3.92271 0
M  V30 2376 H 227.203 -1.05128 5.24263 0
M  V30 2377 H 227.546 -1.85152 3.7286 0
M  V30 2378 H 228.079 -0.170607 3.97434 0
M  V30 2379 H 224.818 1.67312 6.33788 0
M  V30 2380 H 224.338 -0.00540283 5.998 0
M  V30 2381 H 226.017 0.369231 6.45946 0
M  V30 2382 N 226.149 -1.5696 0.141893 0
M  V30 2383 C 227.395 -1.9625 -0.511248 0
M  V30 2384 C 227.728 -1.02654 -1.64851 0
M  V30 2385 O 227.003 -0.0679676 -1.94381 0
M  V30 2386 C 227.286 -3.45285 -1.02227 0
M  V30 2387 C 227.139 -4.49658 0.113138 0
M  V30 2388 C 228.458 -3.96698 -1.90574 0
M  V30 2389 H 225.577 -0.713567 -0.184367 0
M  V30 2390 H 228.219 -1.88698 0.222087 0
M  V30 2391 H 226.369 -3.51852 -1.64719 0
M  V30 2392 H 228.041 -4.55174 0.749302 0
M  V30 2393 H 226.284 -4.26857 0.773026 0
M  V30 2394 H 226.955 -5.51258 -0.286053 0
M  V30 2395 H 229.431 -3.92578 -1.37918 0
M  V30 2396 H 228.307 -5.01453 -2.2324 0
M  V30 2397 H 228.568 -3.3875 -2.84079 0
M  V30 2398 N 227.627 0.131896 -1.57047 0
M  V30 2399 C 228.574 1.16236 -1.99393 0
M  V30 2400 C 229.544 1.41863 -0.863943 0
M  V30 2401 O 230.729 1.53946 -1.12718 0
M  V30 2402 C 227.869 2.48708 -2.39245 0
M  V30 2403 C 226.982 2.30127 -3.65603 0
M  V30 2404 C 226.117 3.55738 -3.94492 0
M  V30 2405 C 225.156 3.32259 -5.14073 0
M  V30 2406 N 224.293 4.50039 -5.38896 0
M  V30 2407 H 229.133 0.794251 -2.87221 0
M  V30 2408 H 226.67 0.380707 -1.42088 0
M  V30 2409 H 228.628 3.25969 -2.60384 0
M  V30 2410 H 227.258 2.83437 -1.54478 0
M  V30 2411 H 226.31 1.43845 -3.52154 0
M  V30 2412 H 227.622 2.08746 -4.5302 0
M  V30 2413 H 226.776 4.41423 -4.1621 0
M  V30 2414 H 225.515 3.80138 -3.05526 0
M  V30 2415 H 224.52 2.44963 -4.92212 0
M  V30 2416 H 225.745 3.09242 -6.04604 0
M  V30 2417 H 223.691 4.74584 -4.52886 0
M  V30 2418 H 223.608 4.31716 -6.2061 0
M  V30 2419 H 224.876 5.36895 -5.65123 0
M  V30 2420 N 229.106 1.52395 0.401703 0
M  V30 2421 C 230.517 1.58899 0.980202 0
M  V30 2422 C 230.868 0.434032 1.91339 0
M  V30 2423 O 229.993 -0.444619 2.11783 0
M  V30 2424 C 230.588 2.87994 1.78451 0
M  V30 2425 C 229.147 2.96953 2.31292 0
M  V30 2426 C 228.294 2.53903 1.11483 0
M  V30 2427 H 231.245 1.57657 0.18168 0
M  V30 2428 H 231.266 2.73765 2.64259 0
M  V30 2429 H 230.778 3.72035 1.10506 0
M  V30 2430 H 228.879 2.17422 3.02586 0
M  V30 2431 H 228.992 4.01344 2.61649 0
M  V30 2432 H 227.356 2.07925 1.47104 0
M  V30 2433 H 228.139 3.40326 0.450928 0
M  V30 2434 N 230.584 -0.659388 1.43143 0
M  V30 2435 C 231.83 -1.42145 1.44647 0
M  V30 2436 C 232.163 -1.9408 0.0681907 0
M  V30 2437 O 231.438 -1.71899 -0.910007 0
M  V30 2438 C 231.721 -2.60735 2.48373 0
M  V30 2439 C 231.574 -2.14332 3.95451 0
M  V30 2440 C 232.893 -3.62951 2.48906 0
M  V30 2441 H 230.012 -0.51552 0.526696 0
M  V30 2442 H 232.654 -0.748069 1.74654 0
M  V30 2443 H 230.804 -3.18184 2.22916 0
M  V30 2444 H 232.476 -1.61932 4.31944 0
M  V30 2445 H 230.719 -1.4576 4.08578 0
M  V30 2446 H 231.39 -2.99583 4.63631 0
M  V30 2447 H 233.866 -3.1525 2.71582 0
M  V30 2448 H 232.742 -4.43487 3.23435 0
M  V30 2449 H 233.003 -4.15126 1.52061 0
M  V30 2450 N 232.062 -1.29571 -0.897171 0
M  V30 2451 C 232.995 -1.0924 -2.00354 0
M  V30 2452 C 233.973 -0.00354011 -1.626 0
M  V30 2453 O 235.157 -0.15473 -1.87864 0
M  V30 2454 C 232.284 -0.66352 -3.32137 0
M  V30 2455 C 231.33 -1.75146 -3.88878 0
M  V30 2456 S 232.163 -3.35124 -4.17674 0
M  V30 2457 C 233.319 -2.9411 -5.52494 0
M  V30 2458 H 233.552 -2.02907 -2.17292 0
M  V30 2459 H 231.085 -1.13746 -1.04408 0
M  V30 2460 H 233.043 -0.422791 -4.08317 0
M  V30 2461 H 231.704 0.253588 -3.13075 0
M  V30 2462 H 230.897 -1.40337 -4.84068 0
M  V30 2463 H 230.499 -1.94584 -3.19395 0
M  V30 2464 H 232.791 -2.41312 -6.33068 0
M  V30 2465 H 233.734 -3.88161 -5.9223 0
M  V30 2466 H 234.142 -2.32332 -5.14473 0
M  V30 2467 N 233.54 1.10788 -1.12088 0
M  V30 2468 C 234.765 1.87002 -0.896949 0
M  V30 2469 C 235.19 1.79933 0.548261 0
M  V30 2470 O 234.548 1.16662 1.38779 0
M  V30 2471 C 234.596 3.3349 -1.37174 0
M  V30 2472 O 233.7 4.08745 -0.547831 0
M  V30 2473 H 233.041 0.580397 -0.322545 0
M  V30 2474 H 235.571 1.39996 -1.49206 0
M  V30 2475 H 235.581 3.84339 -1.36922 0
M  V30 2476 H 234.256 3.37951 -2.42408 0
M  V30 2477 H 232.833 3.6776 -0.617034 0
M  V30 2478 N 235.018 0.912232 1.28515 0
M  V30 2479 C 236.243 0.559774 1.99703 0
M  V30 2480 C 236.668 -0.851393 1.67729 0
M  V30 2481 O 236.026 -1.56875 0.908834 0
M  V30 2482 C 236.074 0.773874 3.52198 0
M  V30 2483 O 235.178 -0.167842 4.12058 0
M  V30 2484 H 234.519 0.21723 0.627461 0
M  V30 2485 H 237.049 1.22725 1.63706 0
M  V30 2486 H 237.059 0.683386 4.02236 0
M  V30 2487 H 235.734 1.80261 3.74805 0
M  V30 2488 H 234.311 -0.0287509 3.72889 0
M  V30 2489 N 236.496 -1.42363 0.676048 0
M  V30 2490 C 237.721 -2.06377 0.205705 0
M  V30 2491 C 238.146 -1.50463 -1.12883 0
M  V30 2492 O 237.504 -0.623619 -1.70237 0
M  V30 2493 C 237.552 -3.60277 0.152655 0
M  V30 2494 O 236.656 -4.02935 -0.87845 0
M  V30 2495 H 235.997 -0.655588 0.105359 0
M  V30 2496 H 238.527 -1.82475 0.925412 0
M  V30 2497 H 238.537 -4.07993 -0.0230675 0
M  V30 2498 H 237.212 -4.00346 1.12675 0
M  V30 2499 H 235.789 -3.66764 -0.673668 0
M  V30 2500 N 237.974 -0.419461 -1.51915 0
M  V30 2501 C 239.222 0.152637 -2.01523 0
M  V30 2502 C 239.543 1.44762 -1.30649 0
M  V30 2503 O 238.813 1.90997 -0.435535 0
M  V30 2504 H 237.393 0.0593966 -0.744635 0
M  V30 2505 H 240.055 -0.558073 -1.86739 0
M  V30 2506 H 239.151 0.341369 -3.10227 0
M  V30 2507 N 239.452 1.56882 -0.150215 0
M  V30 2508 C 240.399 2.16922 0.788244 0
M  V30 2509 C 241.369 1.10303 1.24187 0
M  V30 2510 O 242.554 1.38359 1.31383 0
M  V30 2511 C 239.694 2.79754 2.02068 0
M  V30 2512 C 238.807 4.00775 1.61257 0
M  V30 2513 C 237.942 4.51595 2.79705 0
M  V30 2514 C 236.981 5.65074 2.35282 0
M  V30 2515 N 236.118 6.10499 3.4675 0
M  V30 2516 H 240.958 2.96779 0.269444 0
M  V30 2517 H 238.495 1.46599 0.12128 0
M  V30 2518 H 240.453 3.14329 2.74323 0
M  V30 2519 H 239.083 2.02536 2.51354 0
M  V30 2520 H 238.135 3.72158 0.787553 0
M  V30 2521 H 239.447 4.82978 1.24633 0
M  V30 2522 H 238.601 4.88242 3.60145 0
M  V30 2523 H 237.34 3.68406 3.19576 0
M  V30 2524 H 236.345 5.28 1.53283 0
M  V30 2525 H 237.57 6.50052 1.96493 0
M  V30 2526 H 235.516 5.30243 3.86236 0
M  V30 2527 H 235.433 6.87637 3.14152 0
M  V30 2528 H 236.701 6.51791 4.27537 0
M  V30 2529 N 240.93 -0.123565 1.57115 0
M  V30 2530 C 242.178 -0.83051 1.84247 0
M  V30 2531 C 242.499 -1.80629 0.73471 0
M  V30 2532 O 241.769 -1.94403 -0.241688 0
M  V30 2533 H 240.349 -0.309694 0.679778 0
M  V30 2534 H 243.011 -0.111976 1.94578 0
M  V30 2535 H 242.107 -1.37852 2.80006 0
M  V30 2536 N 242.408 -1.52605 -0.393616 0
M  V30 2537 C 243.34 -1.73303 -1.49995 0
M  V30 2538 C 244.353 -0.613473 -1.50799 0
M  V30 2539 O 245.542 -0.889049 -1.54784 0
M  V30 2540 C 242.642 -1.77245 -2.88855 0
M  V30 2541 C 241.815 -3.06483 -3.12069 0
M  V30 2542 C 240.874 -3.02033 -4.30886 0
M  V30 2543 O 239.9 -3.75907 -4.27414 0
M  V30 2544 N 241.102 -2.20897 -5.36828 0
M  V30 2545 H 243.867 -2.68756 -1.32629 0
M  V30 2546 H 241.428 -1.51036 -0.583083 0
M  V30 2547 H 243.42 -1.7178 -3.66434 0
M  V30 2548 H 241.99 -0.891993 -2.99603 0
M  V30 2549 H 241.21 -3.25474 -2.22396 0
M  V30 2550 H 242.498 -3.91947 -3.2443 0
M  V30 2551 H 241.896 -1.60336 -5.42502 0
M  V30 2552 H 240.453 -2.21275 -6.13091 0
M  V30 2553 N 243.887 0.651787 -1.4349 0
M  V30 2554 C 245.115 1.43937 -1.48626 0
M  V30 2555 C 245.53 1.8851 -0.104587 0
M  V30 2556 O 244.887 1.5958 0.885464 0
M  V30 2557 C 244.938 2.6734 -2.43334 0
M  V30 2558 O 244.659 2.24631 -3.76128 0
M  V30 2559 C 246.16 3.60683 -2.57726 0
M  V30 2560 H 243.38 0.44213 -0.504739 0
M  V30 2561 H 245.924 0.798944 -1.88248 0
M  V30 2562 H 244.079 3.2752 -2.06904 0
M  V30 2563 H 244.493 3.04485 -4.2707 0
M  V30 2564 H 245.967 4.43933 -3.28067 0
M  V30 2565 H 246.444 4.08126 -1.62265 0
M  V30 2566 H 247.05 3.06384 -2.94973 0
M  V30 2567 N 245.365 1.30045 0.890287 0
M  V30 2568 C 246.612 1.18561 1.64163 0
M  V30 2569 C 246.94 -0.260852 1.92743 0
M  V30 2570 O 246.195 -1.20376 1.54299 0
M  V30 2571 C 246.494 1.95409 2.99249 0
M  V30 2572 C 246.16 3.45066 2.90242 0
M  V30 2573 C 244.822 3.85878 2.87492 0
M  V30 2574 C 247.174 4.4039 2.78758 0
M  V30 2575 C 244.502 5.20314 2.7109 0
M  V30 2576 C 246.854 5.74928 2.63894 0
M  V30 2577 C 245.518 6.14986 2.59516 0
M  V30 2578 H 244.788 0.433846 0.600715 0
M  V30 2579 H 247.435 1.61088 1.03552 0
M  V30 2580 H 245.74 1.45501 3.63781 0
M  V30 2581 H 247.437 1.8392 3.56334 0
M  V30 2582 H 244.027 3.12631 2.93189 0
M  V30 2583 H 248.211 4.09806 2.79952 0
M  V30 2584 H 243.467 5.50449 2.66112 0
M  V30 2585 H 247.641 6.48434 2.53981 0
M  V30 2586 H 245.268 7.19104 2.46565 0
M  V30 2587 N 246.843 -1.10192 1.12674 0
M  V30 2588 C 248.092 -1.81573 0.8783 0
M  V30 2589 C 248.405 -1.86249 -0.597557 0
M  V30 2590 O 249.611 -2.5386 -0.962681 0
M  V30 2591 C 248.067 -3.26149 1.52167 0
M  V30 2592 C 247.675 -3.29763 3.03249 0
M  V30 2593 C 249.419 -4.0234 1.3536 0
M  V30 2594 C 247.326 -4.68815 3.60508 0
M  V30 2595 H 246.256 -0.680394 0.324931 0
M  V30 2596 H 248.907 -1.23902 1.35353 0
M  V30 2597 H 247.289 -3.83832 0.974104 0
M  V30 2598 H 248.463 -2.8189 3.6452 0
M  V30 2599 H 246.778 -2.67059 3.19481 0
M  V30 2600 H 249.375 -5.05058 1.75559 0
M  V30 2601 H 249.718 -4.15235 0.297554 0
M  V30 2602 H 250.251 -3.51079 1.87052 0
M  V30 2603 H 246.99 -4.61121 4.65884 0
M  V30 2604 H 246.51 -5.17045 3.04014 0
M  V30 2605 H 248.189 -5.37785 3.59717 0
M  V30 2606 N 248.321 -0.919034 -1.28029 0
M  V30 2607 C 249.737 -0.617972 -1.4715 0
M  V30 2608 C 249.937 0.835242 -1.83374 0
M  V30 2609 O 248.993 1.61388 -1.94191 0
M  V30 2610 C 250.306 -1.56041 -2.57044 0
M  V30 2611 C 251.854 -1.56769 -2.7091 0
M  V30 2612 C 252.329 -2.49688 -3.83953 0
M  V30 2613 N 253.82 -2.47845 -3.91314 0
M  V30 2614 C 254.555 -3.16437 -4.78179 0
M  V30 2615 N 254.051 -3.94376 -5.69596 0
M  V30 2616 N 255.844 -3.05498 -4.71834 0
M  V30 2617 H 247.995 -1.85866 -1.02798 0
M  V30 2618 H 250.258 -0.797506 -0.512531 0
M  V30 2619 H 249.964 -2.59671 -2.372 0
M  V30 2620 H 249.838 -1.29551 -3.54255 0
M  V30 2621 H 252.225 -0.538745 -2.90141 0
M  V30 2622 H 252.306 -1.87305 -1.74214 0
M  V30 2623 H 251.95 -3.52688 -3.65477 0
M  V30 2624 H 251.88 -2.16453 -4.80058 0
M  V30 2625 H 254.371 -1.91234 -3.25941 0
M  V30 2626 H 254.684 -4.43721 -6.32718 0
M  V30 2627 H 253.029 -3.98481 -5.69419 0
M  V30 2628 H 256.22 -2.44108 -3.99411 0
M  V30 2629 H 256.393 -3.59225 -5.39316 0
M  V30 2630 N 249.799 1.42003 -0.683588 0
M  V30 2631 C 251.024 2.06265 -0.216647 0
M  V30 2632 C 251.449 1.51059 1.12083 0
M  V30 2633 O 250.807 0.632638 1.69904 0
M  V30 2634 C 250.855 3.60191 -0.171759 0
M  V30 2635 O 249.959 4.03396 0.857069 0
M  V30 2636 H 249.3 0.65502 -0.108834 0
M  V30 2637 H 251.83 1.81982 -0.935077 0
M  V30 2638 H 251.84 4.08 0.0014303 0
M  V30 2639 H 250.515 3.99743 -1.14796 0
M  V30 2640 H 249.092 3.67117 0.654208 0
M  V30 2641 N 251.277 0.427512 1.51691 0
M  V30 2642 C 252.24 -0.377132 2.26076 0
M  V30 2643 C 253.24 -0.958089 1.29141 0
M  V30 2644 O 254.43 -0.83408 1.52934 0
M  V30 2645 C 251.562 -1.53262 3.04506 0
M  V30 2646 H 252.755 0.27464 2.9864 0
M  V30 2647 H 250.308 0.180445 1.55255 0
M  V30 2648 H 251.043 -2.22072 2.36335 0
M  V30 2649 H 250.828 -1.12232 3.75694 0
M  V30 2650 H 252.318 -2.10135 3.60878 0
M  V30 2651 N 252.755 -1.56801 0.158532 0
M  V30 2652 C 253.665 -2.20916 -0.789518 0
M  V30 2653 C 254.681 -1.1969 -1.26294 0
M  V30 2654 O 255.857 -1.52308 -1.31773 0
M  V30 2655 C 252.922 -2.82727 -2.00665 0
M  V30 2656 C 251.983 -3.99114 -1.58134 0
M  V30 2657 C 251.216 -4.57968 -2.74045 0
M  V30 2658 O 251.439 -4.15704 -3.90572 0
M  V30 2659 O 250.373 -5.48047 -2.48855 0
M  V30 2660 H 254.199 -3.02464 -0.273681 0
M  V30 2661 H 251.784 -1.4924 -0.0690548 0
M  V30 2662 H 253.666 -3.21968 -2.71872 0
M  V30 2663 H 252.341 -2.04184 -2.51179 0
M  V30 2664 H 251.248 -3.64567 -0.839155 0
M  V30 2665 H 252.581 -4.79212 -1.12325 0
M  V30 2666 N 254.233 0.115231 -1.57178 0
M  V30 2667 C 255.165 1.16694 -1.97269 0
M  V30 2668 C 256.178 1.37445 -0.872502 0
M  V30 2669 O 257.367 1.36454 -1.15077 0
M  V30 2670 C 254.467 2.52627 -2.25905 0
M  V30 2671 C 253.64 2.52427 -3.57211 0
M  V30 2672 C 252.699 3.70134 -3.74016 0
M  V30 2673 O 251.725 3.53546 -4.46087 0
M  V30 2674 N 252.927 4.88844 -3.13068 0
M  V30 2675 H 255.692 0.82588 -2.88096 0
M  V30 2676 H 253.253 0.304461 -1.59011 0
M  V30 2677 H 255.245 3.29937 -2.34359 0
M  V30 2678 H 253.815 2.789 -1.41186 0
M  V30 2679 H 253.035 1.60805 -3.5991 0
M  V30 2680 H 254.323 2.49353 -4.43509 0
M  V30 2681 H 253.721 5.05225 -2.54489 0
M  V30 2682 H 252.278 5.63817 -3.27037 0
M  V30 2683 N 255.711 1.52812 0.385517 0
M  V30 2684 C 256.641 1.80808 1.47752 0
M  V30 2685 C 257.622 0.660318 1.5676 0
M  V30 2686 O 258.807 0.908246 1.71652 0
M  V30 2687 C 255.937 1.98008 2.85324 0
M  V30 2688 C 254.891 3.13709 2.91154 0
M  V30 2689 C 254.217 3.16169 4.31209 0
M  V30 2690 C 255.517 4.52709 2.60483 0
M  V30 2691 H 257.211 2.72253 1.24573 0
M  V30 2692 H 254.757 1.31003 0.597839 0
M  V30 2693 H 256.71 2.16176 3.61726 0
M  V30 2694 H 255.434 1.03255 3.09848 0
M  V30 2695 H 254.093 2.95329 2.17201 0
M  V30 2696 H 253.741 2.19092 4.52778 0
M  V30 2697 H 253.441 3.93894 4.36029 0
M  V30 2698 H 254.965 3.36496 5.09512 0
M  V30 2699 H 256.379 4.71173 3.26602 0
M  V30 2700 H 254.776 5.32528 2.76648 0
M  V30 2701 H 255.846 4.59186 1.55809 0
M  V30 2702 N 257.189 -0.644168 1.43834 0
M  V30 2703 C 258.152 -1.73857 1.49353 0
M  V30 2704 C 259.152 -1.56315 0.377112 0
M  V30 2705 O 260.342 -1.62048 0.639226 0
M  V30 2706 C 257.474 -3.12819 1.35488 0
M  V30 2707 H 258.667 -1.70342 2.46827 0
M  V30 2708 H 256.22 -0.856652 1.30733 0
M  V30 2709 H 256.955 -3.2194 0.390569 0
M  V30 2710 H 256.74 -3.26958 2.16428 0
M  V30 2711 H 258.23 -3.92606 1.42302 0
M  V30 2712 N 258.668 -1.30515 -0.883378 0
M  V30 2713 C 259.6 -1.12846 -1.99496 0
M  V30 2714 C 260.613 -0.0712571 -1.62644 0
M  V30 2715 O 261.802 -0.317432 -1.75655 0
M  V30 2716 C 258.902 -0.699123 -3.3161 0
M  V30 2717 C 258.075 -1.83842 -3.96889 0
M  V30 2718 C 257.134 -1.39737 -5.07307 0
M  V30 2719 O 256.16 -2.10485 -5.28852 0
M  V30 2720 N 257.362 -0.277279 -5.79837 0
M  V30 2721 H 260.127 -2.08585 -2.15203 0
M  V30 2722 H 257.688 -1.22672 -1.05656 0
M  V30 2723 H 259.68 -0.387044 -4.02845 0
M  V30 2724 H 258.25 0.166276 -3.12157 0
M  V30 2725 H 257.47 -2.31853 -3.18807 0
M  V30 2726 H 258.758 -2.60187 -4.37241 0
M  V30 2727 H 258.156 0.3122 -5.64838 0
M  V30 2728 H 256.713 -0.0246623 -6.51795 0
M  V30 2729 N 260.146 1.09593 -1.13257 0
M  V30 2730 C 261.109 2.14359 -0.811358 0
M  V30 2731 C 262.109 1.59808 0.178377 0
M  V30 2732 O 263.299 1.74132 -0.0484911 0
M  V30 2733 C 260.431 3.40269 -0.207276 0
M  V30 2734 H 261.624 2.44284 -1.73969 0
M  V30 2735 H 259.177 1.25102 -0.936973 0
M  V30 2736 H 259.912 3.15969 0.73036 0
M  V30 2737 H 259.697 3.81154 -0.919992 0
M  V30 2738 H 261.187 4.176 0.000667944 0
M  V30 2739 N 261.624 0.925811 1.2754 0
M  V30 2740 C 262.87 0.575575 1.95086 0
M  V30 2741 C 263.225 -0.873246 1.71441 0
M  V30 2742 O 262.518 -1.61443 1.03183 0
M  V30 2743 C 262.712 0.835296 3.47502 0
M  V30 2744 C 262.541 2.30781 3.85967 0
M  V30 2745 C 261.311 2.96017 4.09514 0
M  V30 2746 C 263.509 3.28519 3.95702 0
M  V30 2747 N 261.491 4.3344 4.34744 0
M  V30 2748 C 262.862 4.51146 4.25285 0
M  V30 2749 C 264.917 3.23753 3.7827 0
M  V30 2750 C 263.62 5.69606 4.39251 0
M  V30 2751 C 265.646 4.41523 3.9346 0
M  V30 2752 C 265.008 5.62928 4.23428 0
M  V30 2753 H 261.107 0.260711 0.737261 0
M  V30 2754 H 263.691 1.19204 1.53943 0
M  V30 2755 H 261.862 0.248005 3.87607 0
M  V30 2756 H 263.594 0.447878 4.02214 0
M  V30 2757 H 260.349 2.46695 4.04275 0
M  V30 2758 H 260.773 5.04528 4.5142 0
M  V30 2759 H 265.415 2.3096 3.54143 0
M  V30 2760 H 263.133 6.62866 4.62205 0
M  V30 2761 H 266.719 4.39351 3.81394 0
M  V30 2762 H 265.599 6.52538 4.34929 0
M  V30 2763 N 263.102 -1.41638 0.69111 0
M  V30 2764 C 264.049 -2.30789 0.0229705 0
M  V30 2765 C 265.019 -1.46863 -0.775911 0
M  V30 2766 O 266.204 -1.75661 -0.74485 0
M  V30 2767 C 263.344 -3.32868 -0.910666 0
M  V30 2768 C 262.457 -4.31875 -0.103874 0
M  V30 2769 C 261.592 -5.21024 -1.03475 0
M  V30 2770 C 260.631 -6.11702 -0.220598 0
M  V30 2771 N 259.768 -6.93349 -1.10504 0
M  V30 2772 H 264.608 -2.87366 0.788978 0
M  V30 2773 H 262.145 -1.41535 0.400794 0
M  V30 2774 H 264.103 -3.90596 -1.46597 0
M  V30 2775 H 262.733 -2.77851 -1.64312 0
M  V30 2776 H 261.785 -3.76131 0.568285 0
M  V30 2777 H 263.097 -4.96003 0.527504 0
M  V30 2778 H 262.251 -5.83565 -1.65943 0
M  V30 2779 H 260.99 -4.57112 -1.69999 0
M  V30 2780 H 259.995 -5.48215 0.417187 0
M  V30 2781 H 261.22 -6.77668 0.440784 0
M  V30 2782 H 259.166 -6.3205 -1.75638 0
M  V30 2783 H 259.083 -7.54146 -0.529125 0
M  V30 2784 H 260.351 -7.60362 -1.71667 0
M  V30 2785 N 264.58 -0.43555 -1.51462 0
M  V30 2786 C 265.81 0.130053 -2.0619 0
M  V30 2787 C 266.218 1.37164 -1.30317 0
M  V30 2788 O 265.561 1.80225 -0.355598 0
M  V30 2789 C 265.623 0.519418 -3.55728 0
M  V30 2790 C 265.287 -0.615119 -4.52841 0
M  V30 2791 C 266.284 -1.48671 -4.9819 0
M  V30 2792 C 263.969 -0.795341 -4.95963 0
M  V30 2793 C 265.963 -2.52324 -5.8533 0
M  V30 2794 C 263.65 -1.83514 -5.82894 0
M  V30 2795 C 264.648 -2.69748 -6.27475 0
M  V30 2796 O 264.336 -3.71944 -7.1268 0
M  V30 2797 H 264.068 0.0121612 -0.675891 0
M  V30 2798 H 266.622 -0.6129 -1.96043 0
M  V30 2799 H 264.852 1.31505 -3.63653 0
M  V30 2800 H 266.541 1.01597 -3.92979 0
M  V30 2801 H 267.307 -1.359 -4.65571 0
M  V30 2802 H 263.186 -0.133713 -4.60806 0
M  V30 2803 H 266.73 -3.19665 -6.20048 0
M  V30 2804 H 262.627 -1.96306 -6.14926 0
M  V30 2805 H 263.395 -3.68503 -7.30854 0
M  V30 2806 N 266.058 1.56714 -0.166846 0
M  V30 2807 C 267.021 2.16539 0.751232 0
M  V30 2808 C 268.021 1.11228 1.16125 0
M  V30 2809 O 269.211 1.36765 1.07894 0
M  V30 2810 C 266.343 2.74462 2.02196 0
M  V30 2811 H 267.536 2.99013 0.230499 0
M  V30 2812 H 265.089 1.56081 0.0826982 0
M  V30 2813 H 265.824 1.95709 2.58589 0
M  V30 2814 H 265.609 3.51527 1.73698 0
M  V30 2815 H 267.099 3.20489 2.67725 0
M  V30 2816 N 267.536 -0.106894 1.57237 0
M  V30 2817 C 268.468 -1.15646 1.97885 0
M  V30 2818 C 269.481 -1.36981 0.879779 0
M  V30 2819 O 270.67 -1.35841 1.15799 0
M  V30 2820 C 267.77 -2.51425 2.27241 0
M  V30 2821 C 266.943 -2.50529 3.58545 0
M  V30 2822 C 266.002 -3.68145 3.75973 0
M  V30 2823 O 265.028 -3.51176 4.47956 0
M  V30 2824 N 266.23 -4.87177 3.15656 0
M  V30 2825 H 268.995 -0.81059 2.8853 0
M  V30 2826 H 266.556 -0.296024 1.59171 0
M  V30 2827 H 268.548 -3.28689 2.36105 0
M  V30 2828 H 267.118 -2.78147 1.42663 0
M  V30 2829 H 266.338 -1.58894 3.60758 0
M  V30 2830 H 267.626 -2.46997 4.44826 0
M  V30 2831 H 267.024 -5.03868 2.57165 0
M  V30 2832 H 265.581 -5.62075 3.30023 0
M  V30 2833 N 269.014 -1.53014 -0.377408 0
M  V30 2834 C 269.946 -1.74884 -1.48149 0
M  V30 2835 C 270.959 -0.629433 -1.5014 0
M  V30 2836 O 272.148 -0.905416 -1.53833 0
M  V30 2837 C 269.248 -1.80299 -2.86959 0
M  V30 2838 C 268.421 -3.09776 -3.08801 0
M  V30 2839 C 267.48 -3.06586 -4.27658 0
M  V30 2840 O 266.506 -3.80419 -4.23403 0
M  V30 2841 N 267.708 -2.26578 -5.34455 0
M  V30 2842 H 270.473 -2.70147 -1.29771 0
M  V30 2843 H 268.034 -1.51646 -0.56703 0
M  V30 2844 H 270.026 -1.75657 -3.64591 0
M  V30 2845 H 268.596 -0.92372 -2.98641 0
M  V30 2846 H 267.816 -3.27815 -2.18931 0
M  V30 2847 H 269.104 -3.95366 -3.20255 0
M  V30 2848 H 268.502 -1.66081 -5.40771 0
M  V30 2849 H 267.059 -2.27766 -6.10709 0
M  V30 2850 N 270.492 0.636531 -1.44174 0
M  V30 2851 C 271.74 1.39343 -1.46383 0
M  V30 2852 C 272.061 1.94766 -0.0955715 0
M  V30 2853 O 271.331 1.75452 0.871395 0
M  V30 2854 H 269.911 0.517199 -0.538994 0
M  V30 2855 H 272.573 0.74957 -1.7991 0
M  V30 2856 H 271.669 2.22746 -2.18611 0
M  V30 2857 N 271.97 1.30982 0.876444 0
M  V30 2858 C 273.218 1.20058 1.62575 0
M  V30 2859 C 273.539 -0.242947 1.93481 0
M  V30 2860 O 272.809 -1.1619 1.57724 0
M  V30 2861 H 271.389 0.44135 0.602677 0
M  V30 2862 H 274.051 1.64222 1.04962 0
M  V30 2863 H 273.147 1.76762 2.57219 0
M  V30 2864 N 273.449 -1.08991 1.13837 0
M  V30 2865 C 274.865 -1.33312 0.877506 0
M  V30 2866 C 275.065 -1.95587 -0.48456 0
M  V30 2867 O 274.121 -2.20509 -1.23013 0
M  V30 2868 C 275.434 -2.24045 2.0056 0
M  V30 2869 C 276.982 -2.37542 2.03821 0
M  V30 2870 C 277.457 -3.31614 3.15905 0
M  V30 2871 N 278.948 -3.39189 3.15445 0
M  V30 2872 C 279.683 -4.11992 3.98811 0
M  V30 2873 N 279.179 -4.87553 4.92203 0
M  V30 2874 N 280.972 -4.07762 3.86894 0
M  V30 2875 H 273.123 -0.669456 2.01574 0
M  V30 2876 H 275.386 -0.357482 0.878015 0
M  V30 2877 H 275.092 -1.85521 2.98789 0
M  V30 2878 H 274.966 -3.24466 1.92359 0
M  V30 2879 H 277.353 -2.75327 1.06202 0
M  V30 2880 H 277.434 -1.36884 2.16093 0
M  V30 2881 H 277.078 -2.94551 4.13766 0
M  V30 2882 H 277.008 -4.32186 3.0087 0
M  V30 2883 H 279.499 -2.85314 2.47799 0
M  V30 2884 H 279.812 -5.40549 5.52292 0
M  V30 2885 H 278.157 -4.86627 4.96205 0
M  V30 2886 H 281.348 -3.47833 3.13257 0
M  V30 2887 H 281.521 -4.64238 4.52092 0
M  V30 2888 N 274.927 -0.932562 -1.27047 0
M  V30 2889 C 275.89 -0.440064 -2.24936 0
M  V30 2890 C 276.89 0.444071 -1.54547 0
M  V30 2891 O 278.08 0.244465 -1.72476 0
M  V30 2892 C 275.212 0.36678 -3.38921 0
M  V30 2893 H 276.405 -1.305 -2.70018 0
M  V30 2894 H 273.958 -0.713707 -1.39054 0
M  V30 2895 H 274.693 1.25033 -2.99228 0
M  V30 2896 H 274.478 -0.267204 -3.91188 0
M  V30 2897 H 275.968 0.701567 -4.11665 0
M  V30 2898 N 276.405 1.4127 -0.698611 0
M  V30 2899 C 277.653 2.00782 -0.230409 0
M  V30 2900 C 277.974 1.5562 1.17505 0
M  V30 2901 O 277.244 0.78815 1.79346 0
M  V30 2902 H 275.824 0.742464 -0.0821944 0
M  V30 2903 H 278.486 1.72852 -0.90045 0
M  V30 2904 H 277.582 3.11095 -0.25021 0
M  V30 2905 N 277.883 0.443576 1.51229 0
M  V30 2906 C 278.846 -0.353132 2.26463 0
M  V30 2907 C 279.846 -0.944338 1.3015 0
M  V30 2908 O 281.036 -0.817813 1.5381 0
M  V30 2909 C 278.168 -1.50023 3.06114 0
M  V30 2910 H 279.361 0.3063 2.98332 0
M  V30 2911 H 276.914 0.196902 1.55055 0
M  V30 2912 H 277.649 -2.19553 2.38677 0
M  V30 2913 H 277.434 -1.08241 3.76864 0
M  V30 2914 H 278.924 -2.06296 3.63087 0
M  V30 2915 N 279.361 -1.56624 0.175154 0
M  V30 2916 C 280.609 -1.96609 -0.467885 0
M  V30 2917 C 280.93 -1.06238 -1.63519 0
M  V30 2918 O 280.2 -0.129523 -1.95471 0
M  V30 2919 H 278.78 -0.726008 -0.175845 0
M  V30 2920 H 281.442 -1.93195 0.257234 0
M  V30 2921 H 280.538 -3.00989 -0.825342 0
M  V30 2922 N 280.839 0.0985539 -1.57292 0
M  V30 2923 C 282.255 0.45267 -1.53046 0
M  V30 2924 C 282.455 1.80713 -0.891342 0
M  V30 2925 O 281.511 2.4785 -0.482375 0
M  V30 2926 C 282.824 0.418341 -2.97776 0
M  V30 2927 C 284.372 0.500443 -3.08973 0
M  V30 2928 C 284.847 0.496297 -4.55303 0
M  V30 2929 N 286.338 0.557151 -4.59837 0
M  V30 2930 C 287.073 0.575726 -5.70502 0
M  V30 2931 N 286.569 0.550714 -6.90608 0
M  V30 2932 N 288.362 0.620277 -5.58667 0
M  V30 2933 H 280.513 -0.788673 -1.97215 0
M  V30 2934 H 282.776 -0.293188 -0.901524 0
M  V30 2935 H 282.482 -0.509659 -3.47988 0
M  V30 2936 H 282.356 1.2386 -3.56284 0
M  V30 2937 H 284.743 1.41886 -2.58751 0
M  V30 2938 H 284.824 -0.347894 -2.53423 0
M  V30 2939 H 284.468 -0.418162 -5.06176 0
M  V30 2940 H 284.398 1.3618 -5.08687 0
M  V30 2941 H 286.889 0.581816 -3.73394 0
M  V30 2942 H 287.202 0.568075 -7.70709 0
M  V30 2943 H 285.547 0.517816 -6.93068 0
M  V30 2944 H 288.738 0.637322 -4.63741 0
M  V30 2945 H 288.911 0.631283 -6.44918 0
M  V30 2946 N 282.317 1.53212 0.369288 0
M  V30 2947 C 283.563 1.69466 1.11397 0
M  V30 2948 C 283.896 0.443257 1.89074 0
M  V30 2949 O 283.171 -0.559386 1.86282 0
M  V30 2950 C 283.454 2.9422 2.07621 0
M  V30 2951 C 283.307 4.29508 1.33577 0
M  V30 2952 C 284.626 3.14565 3.07794 0
M  V30 2953 H 281.745 0.616667 0.403597 0
M  V30 2954 H 284.387 1.85845 0.395179 0
M  V30 2955 H 282.537 2.80387 2.68916 0
M  V30 2956 H 284.209 4.55147 0.750955 0
M  V30 2957 H 282.452 4.29088 0.637618 0
M  V30 2958 H 283.123 5.12926 2.03989 0
M  V30 2959 H 285.599 3.2756 2.56601 0
M  V30 2960 H 284.475 4.03297 3.72348 0
M  V30 2961 H 284.736 2.29675 3.77759 0
M  V30 2962 N 283.795 -0.628877 1.44509 0
M  V30 2963 C 285.044 -1.38437 1.4669 0
M  V30 2964 C 285.357 -1.95322 0.104272 0
M  V30 2965 O 286.563 -2.715 0.00362163 0
M  V30 2966 C 285.019 -2.50659 2.5826 0
M  V30 2967 C 284.627 -2.00277 4.0074 0
M  V30 2968 C 286.371 -3.27844 2.69664 0
M  V30 2969 C 284.278 -3.09854 5.0373 0
M  V30 2970 H 283.208 -0.520245 0.545766 0
M  V30 2971 H 285.859 -0.676313 1.70582 0
M  V30 2972 H 284.241 -3.2405 2.27612 0
M  V30 2973 H 285.415 -1.33736 4.40966 0
M  V30 2974 H 283.73 -1.35901 3.93599 0
M  V30 2975 H 286.327 -4.09534 3.43781 0
M  V30 2976 H 286.67 -3.77471 1.75559 0
M  V30 2977 H 287.203 -2.61543 2.99733 0
M  V30 2978 H 283.942 -2.65168 5.99472 0
M  V30 2979 H 283.462 -3.7503 4.68095 0
M  V30 2980 H 285.141 -3.74592 5.27532 0
M  V30 2981 N 285.273 -1.31445 -0.869486 0
M  V30 2982 C 286.519 -1.21337 -1.62496 0
M  V30 2983 C 286.852 0.227872 -1.92858 0
M  V30 2984 O 286.127 1.16094 -1.56053 0
M  V30 2985 C 286.41 -2.05814 -2.95487 0
M  V30 2986 C 286.263 -3.5824 -2.72 0
M  V30 2987 C 287.582 -1.9079 -3.96594 0
M  V30 2988 H 284.701 -0.442135 -0.589649 0
M  V30 2989 H 287.343 -1.6124 -1.00507 0
M  V30 2990 H 285.493 -1.71913 -3.48394 0
M  V30 2991 H 287.165 -4.0228 -2.25762 0
M  V30 2992 H 285.408 -3.81647 -2.06224 0
M  V30 2993 H 286.079 -4.12657 -3.66631 0
M  V30 2994 H 288.555 -2.20459 -3.52898 0
M  V30 2995 H 287.431 -2.52199 -4.87531 0
M  V30 2996 H 287.692 -0.871341 -4.33428 0
M  V30 2997 N 286.751 1.08385 -1.14413 0
M  V30 2998 C 287.661 2.18856 -0.844951 0
M  V30 2999 C 288.677 1.73121 0.174668 0
M  V30 3000 O 289.853 2.014 0.00312857 0
M  V30 3001 C 286.918 3.45155 -0.32696 0
M  V30 3002 C 285.979 4.05513 -1.40916 0
M  V30 3003 C 285.212 5.25784 -0.915793 0
M  V30 3004 O 285.435 5.69884 0.242651 0
M  V30 3005 O 284.369 5.77545 -1.69487 0
M  V30 3006 H 288.195 2.46919 -1.76818 0
M  V30 3007 H 285.78 1.17524 -0.922411 0
M  V30 3008 H 287.662 4.21377 -0.0440211 0
M  V30 3009 H 286.337 3.18668 0.568539 0
M  V30 3010 H 285.244 3.30879 -1.74556 0
M  V30 3011 H 286.577 4.3625 -2.27919 0
M  V30 3012 N 288.23 0.939286 1.26551 0
M  V30 3013 C 289.478 0.58469 1.93457 0
M  V30 3014 C 289.799 -0.878774 1.74076 0
M  V30 3015 O 289.069 -1.62421 1.09528 0
M  V30 3016 H 287.649 0.21325 0.715914 0
M  V30 3017 H 290.311 1.1942 1.54029 0
M  V30 3018 H 289.407 0.800849 3.0165 0
M  V30 3019 N 289.708 -1.40897 0.706093 0
M  V30 3020 C 290.954 -2.01352 0.241889 0
M  V30 3021 C 291.287 -1.55832 -1.15888 0
M  V30 3022 O 290.562 -0.774145 -1.7843 0
M  V30 3023 C 290.845 -3.58752 0.311311 0
M  V30 3024 C 290.698 -4.1437 1.74978 0
M  V30 3025 C 292.017 -4.38914 -0.322922 0
M  V30 3026 H 289.136 -0.731562 0.0893687 0
M  V30 3027 H 291.778 -1.67504 0.896802 0
M  V30 3028 H 289.928 -3.87718 -0.246302 0
M  V30 3029 H 291.6 -3.96239 2.36205 0
M  V30 3030 H 289.843 -3.69016 2.28057 0
M  V30 3031 H 290.514 -5.23532 1.74981 0
M  V30 3032 H 292.99 -4.15822 0.152089 0
M  V30 3033 H 291.866 -5.48358 -0.243855 0
M  V30 3034 H 292.127 -4.19176 -1.40513 0
M  V30 3035 N 291.186 -0.45159 -1.50991 0
M  V30 3036 C 292.432 0.110237 -2.025 0
M  V30 3037 C 292.765 1.41109 -1.33424 0
M  V30 3038 O 292.04 1.89135 -0.453659 0
M  V30 3039 C 292.323 0.314271 -3.58726 0
M  V30 3040 C 292.176 -1.00623 -4.38401 0
M  V30 3041 C 293.495 1.07767 -4.26702 0
M  V30 3042 H 290.614 0.0385897 -0.735989 0
M  V30 3043 H 293.256 -0.593374 -1.80497 0
M  V30 3044 H 291.406 0.913601 -3.77605 0
M  V30 3045 H 293.078 -1.64064 -4.31139 0
M  V30 3046 H 291.321 -1.6075 -4.02917 0
M  V30 3047 H 291.992 -0.817341 -5.45915 0
M  V30 3048 H 294.468 0.56986 -4.12179 0
M  V30 3049 H 293.344 1.18921 -5.35863 0
M  V30 3050 H 293.605 2.10939 -3.88532 0
M  V30 3051 N 292.664 1.56529 -0.183458 0
M  V30 3052 C 293.611 2.18546 0.742055 0
M  V30 3053 C 294.581 1.12912 1.2182 0
M  V30 3054 O 295.766 1.41115 1.28418 0
M  V30 3055 C 292.906 2.83977 1.96089 0
M  V30 3056 C 292.019 4.04105 1.52719 0
M  V30 3057 C 291.154 4.57427 2.70063 0
M  V30 3058 C 290.193 5.69938 2.23243 0
M  V30 3059 N 289.33 6.17717 3.33722 0
M  V30 3060 H 294.17 2.97284 0.206432 0
M  V30 3061 H 291.707 1.46823 0.0901571 0
M  V30 3062 H 293.665 3.20077 2.67594 0
M  V30 3063 H 292.295 2.07822 2.47002 0
M  V30 3064 H 291.347 3.73745 0.708436 0
M  V30 3065 H 292.659 4.85513 1.1436 0
M  V30 3066 H 291.813 4.95772 3.49708 0
M  V30 3067 H 290.552 3.75101 3.11689 0
M  V30 3068 H 289.557 5.31133 1.42048 0
M  V30 3069 H 290.782 6.54073 1.82661 0
M  V30 3070 H 288.728 5.38317 3.74902 0
M  V30 3071 H 288.645 6.94146 2.99495 0
M  V30 3072 H 289.913 6.60713 4.13616 0
M  V30 3073 N 294.142 -0.090211 1.57342 0
M  V30 3074 C 295.389 -0.792807 1.86335 0
M  V30 3075 C 295.717 -1.78494 0.772662 0
M  V30 3076 O 294.972 -1.94305 -0.233258 0
M  V30 3077 C 295.271 -1.55222 3.21933 0
M  V30 3078 C 294.937 -0.701765 4.45406 0
M  V30 3079 C 293.599 -0.467334 4.78925 0
M  V30 3080 C 295.951 -0.11086 5.21082 0
M  V30 3081 C 293.279 0.367785 5.85546 0
M  V30 3082 C 295.631 0.711609 6.28585 0
M  V30 3083 C 294.295 0.956086 6.60617 0
M  V30 3084 H 293.565 -0.290109 0.681849 0
M  V30 3085 H 296.212 -0.0541332 1.91423 0
M  V30 3086 H 294.517 -2.3626 3.12551 0
M  V30 3087 H 296.214 -2.10032 3.41595 0
M  V30 3088 H 292.804 -0.894598 4.1916 0
M  V30 3089 H 296.988 -0.279129 4.95514 0
M  V30 3090 H 292.244 0.566128 6.08773 0
M  V30 3091 H 296.418 1.17632 6.86393 0
M  V30 3092 H 294.045 1.60499 7.43064 0
M  V30 3093 N 295.62 -1.53406 -0.361157 0
M  V30 3094 C 296.897 -1.60411 -1.11927 0
M  V30 3095 C 297.277 -0.414385 -2.06993 0
M  V30 3096 O 296.625 0.594976 -2.20618 0
M  V30 3097 C 296.835 -2.95652 -1.85448 0
M  V30 3098 C 298.183 -3.50386 -2.39823 0
M  V30 3099 O 299.207 -2.97711 -1.95568 0
M  V30 3100 O 298.066 -4.42482 -3.20737 0
M  V30 3101 H 295.16 -0.64811 -0.513695 0
M  V30 3102 H 297.706 -1.65749 -0.364065 0
M  V30 3103 H 296.478 -3.73682 -1.16091 0
M  V30 3104 H 296.101 -2.93825 -2.67866 0
M  V30 3105 N 297.098 0.621204 -1.44841 0
M  V30 3106 C 298.345 1.38055 -1.48145 0
M  V30 3107 C 298.673 1.94143 -0.117867 0
M  V30 3108 O 297.928 1.74713 0.881694 0
M  V30 3109 C 298.227 2.55675 -2.4973 0
M  V30 3110 C 297.893 2.17817 -3.94799 0
M  V30 3111 C 296.555 2.07205 -4.34303 0
M  V30 3112 C 298.907 1.88065 -4.86087 0
M  V30 3113 C 296.235 1.65045 -5.63007 0
M  V30 3114 C 298.587 1.47394 -6.15189 0
M  V30 3115 C 297.251 1.35331 -6.53637 0
M  V30 3116 H 296.521 0.505181 -0.542101 0
M  V30 3117 H 299.168 0.703477 -1.78111 0
M  V30 3118 H 297.473 3.2866 -2.13284 0
M  V30 3119 H 299.17 3.13904 -2.4953 0
M  V30 3120 H 295.76 2.26998 -3.63552 0
M  V30 3121 H 299.944 1.95168 -4.56315 0
M  V30 3122 H 295.2 1.54317 -5.91605 0
M  V30 3123 H 299.374 1.23415 -6.85377 0
M  V30 3124 H 297.001 1.02435 -7.53267 0
M  V30 3125 N 298.576 1.31904 0.862503 0
M  V30 3126 C 299.486 1.22161 2.00285 0
M  V30 3127 C 300.502 0.136785 1.73462 0
M  V30 3128 O 301.678 0.355994 1.98229 0
M  V30 3129 C 298.743 0.937093 3.33796 0
M  V30 3130 C 297.804 2.10957 3.73893 0
M  V30 3131 C 297.037 1.83853 5.01033 0
M  V30 3132 O 297.26 0.777274 5.65079 0
M  V30 3133 O 296.194 2.69741 5.38074 0
M  V30 3134 H 300.02 2.18008 2.11439 0
M  V30 3135 H 297.605 1.11716 0.991957 0
M  V30 3136 H 299.487 0.794583 4.13841 0
M  V30 3137 H 298.162 0.00871894 3.23699 0
M  V30 3138 H 297.069 2.30752 2.94456 0
M  V30 3139 H 298.402 3.02046 3.88625 0
M  V30 3140 N 300.054 -1.07777 1.14986 0
M  V30 3141 C 301.303 -1.79669 0.916617 0
M  V30 3142 C 301.616 -1.87474 -0.557917 0
M  V30 3143 O 302.822 -2.55845 -0.908617 0
M  V30 3144 C 301.278 -3.22848 1.59051 0
M  V30 3145 C 300.886 -3.23257 3.10176 0
M  V30 3146 C 302.63 -3.99379 1.43864 0
M  V30 3147 C 300.537 -4.61063 3.70372 0
M  V30 3148 H 299.467 -0.673349 0.33929 0
M  V30 3149 H 302.118 -1.21003 1.37951 0
M  V30 3150 H 300.5 -3.8168 1.0553 0
M  V30 3151 H 301.674 -2.74095 3.70417 0
M  V30 3152 H 299.989 -2.60222 3.25074 0
M  V30 3153 H 302.586 -5.0122 1.86232 0
M  V30 3154 H 302.929 -4.14511 0.385564 0
M  V30 3155 H 303.462 -3.47032 1.94457 0
M  V30 3156 H 300.201 -4.51135 4.7556 0
M  V30 3157 H 299.721 -5.1048 3.14913 0
M  V30 3158 H 301.4 -5.30034 3.71043 0
M  V30 3159 N 301.532 -0.945985 -1.26051 0
M  V30 3160 C 302.76 -0.613025 -1.9761 0
M  V30 3161 C 303.175 0.813035 -1.70397 0
M  V30 3162 O 302.532 1.54274 -0.974979 0
M  V30 3163 C 302.583 -0.85159 -3.51326 0
M  V30 3164 O 302.304 -2.22157 -3.77595 0
M  V30 3165 C 303.805 -0.529831 -4.40122 0
M  V30 3166 H 301.025 -0.230593 -0.630133 0
M  V30 3167 H 303.569 -1.268 -1.60443 0
M  V30 3168 H 301.724 -0.243151 -3.86636 0
M  V30 3169 H 302.138 -2.2852 -4.721 0
M  V30 3170 H 303.612 -0.747348 -5.46917 0
M  V30 3171 H 304.089 0.535341 -4.35925 0
M  V30 3172 H 304.695 -1.11721 -4.10364 0
M  V30 3173 N 303.011 1.40521 -0.713556 0
M  V30 3174 C 303.941 2.33381 -0.0743864 0
M  V30 3175 C 304.922 1.52784 0.747735 0
M  V30 3176 O 306.107 1.81258 0.697071 0
M  V30 3177 C 303.237 3.36748 0.849598 0
M  V30 3178 C 302.191 4.27793 0.133247 0
M  V30 3179 C 301.517 5.21679 1.17281 0
M  V30 3180 C 302.817 5.12415 -1.01134 0
M  V30 3181 H 304.511 2.87081 -0.850007 0
M  V30 3182 H 302.057 1.38034 -0.410201 0
M  V30 3183 H 304.01 4.00648 1.30612 0
M  V30 3184 H 302.734 2.81439 1.65709 0
M  V30 3185 H 301.393 3.65342 -0.303426 0
M  V30 3186 H 301.041 4.62677 1.9733 0
M  V30 3187 H 300.741 5.83435 0.698397 0
M  V30 3188 H 302.265 5.88456 1.62947 0
M  V30 3189 H 303.679 5.69781 -0.634274 0
M  V30 3190 H 302.076 5.83203 -1.41399 0
M  V30 3191 H 303.146 4.48514 -1.84292 0
M  V30 3192 N 304.489 0.459591 1.5075 0
M  V30 3193 C 305.419 -0.330644 2.31147 0
M  V30 3194 C 306.4 -1.00087 1.37538 0
M  V30 3195 O 307.585 -1.00025 1.66459 0
M  V30 3196 C 304.715 -1.41958 3.16962 0
M  V30 3197 C 303.669 -0.871608 4.19031 0
M  V30 3198 C 302.995 -2.05797 4.9351 0
M  V30 3199 C 304.295 0.109251 5.22186 0
M  V30 3200 H 305.989 0.340336 2.97459 0
M  V30 3201 H 303.535 0.165119 1.4305 0
M  V30 3202 H 305.488 -1.9798 3.71997 0
M  V30 3203 H 304.212 -2.11917 2.48513 0
M  V30 3204 H 302.871 -0.333442 3.6508 0
M  V30 3205 H 302.519 -2.74427 4.21544 0
M  V30 3206 H 302.219 -1.6976 5.62544 0
M  V30 3207 H 303.743 -2.62331 5.51375 0
M  V30 3208 H 305.157 -0.361405 5.7216 0
M  V30 3209 H 303.554 0.383316 5.98875 0
M  V30 3210 H 304.624 1.03887 4.73641 0
M  V30 3211 N 305.967 -1.56429 0.191757 0
M  V30 3212 C 307.195 -2.01867 -0.453586 0
M  V30 3213 C 307.61 -1.07191 -1.5542 0
M  V30 3214 O 306.967 -0.0762108 -1.82341 0
M  V30 3215 C 307.018 -3.47017 -1.013 0
M  V30 3216 O 306.739 -4.38078 0.0437005 0
M  V30 3217 C 308.24 -4.07956 -1.73456 0
M  V30 3218 H 305.46 -0.661211 -0.114199 0
M  V30 3219 H 308.004 -2.02295 0.299483 0
M  V30 3220 H 306.159 -3.47298 -1.71647 0
M  V30 3221 H 306.573 -5.23178 -0.372212 0
M  V30 3222 H 308.047 -5.1138 -2.07833 0
M  V30 3223 H 308.524 -3.51222 -2.63704 0
M  V30 3224 H 309.13 -4.11437 -1.07702 0
M  V30 3225 N 307.445 0.0818655 -1.57387 0
M  V30 3226 C 308.691 0.784074 -1.8703 0
M  V30 3227 C 309.024 1.77729 -0.782689 0
M  V30 3228 O 308.299 1.93384 0.208051 0
M  V30 3229 C 308.582 1.50105 -3.27323 0
M  V30 3230 C 308.435 0.524925 -4.46727 0
M  V30 3231 C 309.754 2.44843 -3.65705 0
M  V30 3232 H 306.873 0.283582 -0.680257 0
M  V30 3233 H 309.515 0.0474352 -1.89941 0
M  V30 3234 H 307.665 2.12897 -3.24972 0
M  V30 3235 H 309.337 -0.0970111 -4.61198 0
M  V30 3236 H 307.58 -0.160606 -4.33503 0
M  V30 3237 H 308.251 1.064 -5.41648 0
M  V30 3238 H 310.727 1.92135 -3.69085 0
M  V30 3239 H 309.603 2.92018 -4.64776 0
M  V30 3240 H 309.864 3.29197 -2.95096 0
M  V30 3241 N 308.923 1.53595 0.353017 0
M  V30 3242 C 310.148 1.7462 1.11904 0
M  V30 3243 C 310.573 0.479721 1.8188 0
M  V30 3244 O 309.931 -0.567066 1.72204 0
M  V30 3245 C 309.979 2.92029 2.11545 0
M  V30 3246 O 309.083 2.61516 3.18878 0
M  V30 3247 H 308.424 0.579531 0.324099 0
M  V30 3248 H 310.954 2.00525 0.406301 0
M  V30 3249 H 310.964 3.18551 2.5493 0
M  V30 3250 H 309.639 3.83888 1.60008 0
M  V30 3251 H 308.216 2.45852 2.80377 0
M  V30 3252 N 310.401 -0.613514 1.45168 0
M  V30 3253 C 311.364 -1.7065 1.53007 0
M  V30 3254 C 312.364 -1.5548 0.410184 0
M  V30 3255 O 313.554 -1.60656 0.673455 0
M  V30 3256 C 310.686 -3.09875 1.42093 0
M  V30 3257 H 311.879 -1.65068 2.50385 0
M  V30 3258 H 309.432 -0.828728 1.32521 0
M  V30 3259 H 310.167 -3.21039 0.458769 0
M  V30 3260 H 309.952 -3.22293 2.23315 0
M  V30 3261 H 311.442 -3.895 1.50598 0
M  V30 3262 N 311.879 -1.3236 -0.855495 0
M  V30 3263 C 313.125 -1.23054 -1.612 0
M  V30 3264 C 313.458 0.207404 -1.93089 0
M  V30 3265 O 312.733 1.14432 -1.57275 0
M  V30 3266 C 313.016 -2.08937 -2.93287 0
M  V30 3267 C 312.869 -3.61105 -2.68185 0
M  V30 3268 C 314.188 -1.94986 -3.94549 0
M  V30 3269 H 311.307 -0.448364 -0.584926 0
M  V30 3270 H 313.949 -1.62297 -0.987917 0
M  V30 3271 H 312.099 -1.75599 -3.46551 0
M  V30 3272 H 313.771 -4.04652 -2.21483 0
M  V30 3273 H 312.014 -3.83813 -2.02164 0
M  V30 3274 H 312.685 -4.16522 -3.62234 0
M  V30 3275 H 315.161 -2.24189 -3.5054 0
M  V30 3276 H 314.037 -2.57356 -4.84829 0
M  V30 3277 H 314.298 -0.917263 -4.3248 0
M  V30 3278 N 313.357 1.07166 -1.15556 0
M  V30 3279 C 314.634 1.76546 -0.842069 0
M  V30 3280 C 315.014 2.00453 0.661939 0
M  V30 3281 O 314.362 1.62452 1.60691 0
M  V30 3282 C 314.572 3.07266 -1.65495 0
M  V30 3283 C 315.92 3.81578 -1.86234 0
M  V30 3284 O 316.944 3.17083 -1.62287 0
M  V30 3285 O 315.803 4.97419 -2.26355 0
M  V30 3286 H 312.897 0.766756 -0.309862 0
M  V30 3287 H 315.443 1.13514 -1.26145 0
M  V30 3288 H 314.215 2.85494 -2.67598 0
M  V30 3289 H 313.838 3.7803 -1.23203 0
M  V30 3290 N 314.835 0.952656 1.25548 0
M  V30 3291 C 316.083 0.605176 1.92826 0
M  V30 3292 C 316.404 -0.860261 1.74999 0
M  V30 3293 O 315.674 -1.6125 1.11244 0
M  V30 3294 H 314.254 0.220832 0.713612 0
M  V30 3295 H 316.916 1.21047 1.52754 0
M  V30 3296 H 316.012 0.832798 3.00784 0
M  V30 3297 N 316.313 -1.40141 0.720998 0
M  V30 3298 C 317.559 -2.01084 0.263231 0
M  V30 3299 C 317.892 -1.57052 -1.14229 0
M  V30 3300 O 317.167 -0.793027 -1.77599 0
M  V30 3301 C 317.45 -3.58401 0.349344 0
M  V30 3302 C 317.303 -4.12491 1.79363 0
M  V30 3303 C 318.622 -4.39231 -0.276351 0
M  V30 3304 H 315.741 -0.730572 0.0971228 0
M  V30 3305 H 318.383 -1.66543 0.914518 0
M  V30 3306 H 316.533 -3.87958 -0.205165 0
M  V30 3307 H 318.205 -3.93711 2.40394 0
M  V30 3308 H 316.448 -3.66576 2.31958 0
M  V30 3309 H 317.119 -5.21646 1.80524 0
M  V30 3310 H 319.595 -4.15637 0.196184 0
M  V30 3311 H 318.471 -5.48586 -0.185681 0
M  V30 3312 H 318.732 -4.20643 -1.36059 0
M  V30 3313 N 317.792 -0.46758 -1.50504 0
M  V30 3314 C 318.742 0.34698 -2.25344 0
M  V30 3315 C 319.726 0.964469 -1.2879 0
M  V30 3316 O 320.918 0.8776 -1.53711 0
M  V30 3317 C 318.047 1.43042 -3.1208 0
M  V30 3318 C 317.133 0.82084 -4.16081 0
M  V30 3319 N 317.524 -0.0567602 -5.05768 0
M  V30 3320 C 315.822 1.08517 -4.32597 0
M  V30 3321 C 316.523 -0.402343 -5.80307 0
M  V30 3322 N 315.499 0.221607 -5.43148 0
M  V30 3323 H 319.301 -0.329129 -2.92051 0
M  V30 3324 H 316.815 -0.281508 -1.59942 0
M  V30 3325 H 318.812 2.02712 -3.64299 0
M  V30 3326 H 317.472 2.10856 -2.46921 0
M  V30 3327 H 318.483 -0.425349 -5.1615 0
M  V30 3328 H 315.16 1.75855 -3.78657 0
M  V30 3329 H 316.55 -1.11834 -6.62528 0
M  V30 3330 N 319.27 1.56325 -0.20005 0
M  V30 3331 C 320.517 1.97719 0.437411 0
M  V30 3332 C 320.845 1.08709 1.61284 0
M  V30 3333 O 320.1 0.127261 1.95286 0
M  V30 3334 C 320.399 3.4495 0.935103 0
M  V30 3335 C 320.065 4.5072 -0.12749 0
M  V30 3336 C 318.727 4.79368 -0.419451 0
M  V30 3337 C 321.079 5.14268 -0.847231 0
M  V30 3338 C 318.407 5.68854 -1.43604 0
M  V30 3339 C 320.759 6.04852 -1.85301 0
M  V30 3340 C 319.423 6.31855 -2.15211 0
M  V30 3341 H 318.693 0.723507 0.16006 0
M  V30 3342 H 321.34 1.89166 -0.298056 0
M  V30 3343 H 319.645 3.50599 1.74894 0
M  V30 3344 H 321.342 3.74337 1.43781 0
M  V30 3345 H 317.932 4.28458 0.11023 0
M  V30 3346 H 322.116 4.92222 -0.634901 0
M  V30 3347 H 317.372 5.88047 -1.67364 0
M  V30 3348 H 321.546 6.53152 -2.41591 0
M  V30 3349 H 319.173 7.00994 -2.94129 0
M  V30 3350 N 320.748 -0.0735177 1.57428 0
M  V30 3351 C 321.988 -0.778363 1.89 0
M  V30 3352 C 322.352 -1.7483 0.793634 0
M  V30 3353 O 323.553 -2.49811 0.992367 0
M  V30 3354 C 321.824 -1.46929 3.25802 0
M  V30 3355 S 323.383 -2.20943 3.79117 0
M  V30 3356 H 320.201 -0.258874 0.662197 0
M  V30 3357 H 322.803 -0.0345338 1.95469 0
M  V30 3358 H 321.507 -0.749532 4.03497 0
M  V30 3359 H 321.038 -2.25258 3.22525 0
M  V30 3360 H 323.053 -3.47435 3.54265 0
M  V30 3361 N 322.226 -1.5378 -0.344866 0
M  V30 3362 C 323.189 -1.80981 -1.40637 0
M  V30 3363 C 324.189 -0.680816 -1.45676 0
M  V30 3364 O 325.379 -0.949095 -1.46075 0
M  V30 3365 C 322.511 -1.95063 -2.79577 0
M  V30 3366 H 323.704 -2.75803 -1.17783 0
M  V30 3367 H 321.257 -1.45173 -0.579181 0
M  V30 3368 H 321.992 -1.02379 -3.07716 0
M  V30 3369 H 321.777 -2.77198 -2.77315 0
M  V30 3370 H 323.267 -2.17629 -3.56409 0
M  V30 3371 N 323.704 0.605807 -1.45491 0
M  V30 3372 C 325.115 1.18777 -1.44045 0
M  V30 3373 C 325.466 1.95471 -0.169001 0
M  V30 3374 O 324.591 2.0374 0.729324 0
M  V30 3375 C 325.186 2.16064 -2.60963 0
M  V30 3376 C 323.745 2.69633 -2.62631 0
M  V30 3377 C 322.892 1.45072 -2.36325 0
M  V30 3378 H 325.843 0.395017 -1.53705 0
M  V30 3379 H 325.864 2.9913 -2.35163 0
M  V30 3380 H 325.376 1.60217 -3.53486 0
M  V30 3381 H 323.477 3.29414 -1.74119 0
M  V30 3382 H 323.59 3.13944 -3.61906 0
M  V30 3383 H 321.954 1.74089 -1.85917 0
M  V30 3384 H 322.737 0.910899 -3.30995 0
M  V30 3385 N 325.182 1.32811 0.848464 0
M  V30 3386 C 326.428 1.23907 1.60546 0
M  V30 3387 C 326.761 -0.197161 1.93197 0
M  V30 3388 O 326.036 -1.13596 1.5788 0
M  V30 3389 C 326.319 2.10489 2.92175 0
M  V30 3390 C 326.172 3.62522 2.66266 0
M  V30 3391 C 327.491 1.97075 3.93509 0
M  V30 3392 H 324.61 0.451459 0.58254 0
M  V30 3393 H 327.252 1.62818 0.979296 0
M  V30 3394 H 325.402 1.77434 3.45614 0
M  V30 3395 H 327.074 4.05821 2.19334 0
M  V30 3396 H 325.317 3.84879 2.00126 0
M  V30 3397 H 325.988 4.18437 3.6002 0
M  V30 3398 H 328.464 2.26045 3.49346 0
M  V30 3399 H 327.34 2.59923 4.83457 0
M  V30 3400 H 327.601 0.940186 4.31987 0
M  V30 3401 N 326.66 -1.06551 1.16123 0
M  V30 3402 C 327.908 -1.78947 0.939267 0
M  V30 3403 C 328.229 -1.87532 -0.534476 0
M  V30 3404 O 327.499 -1.38211 -1.38833 0
M  V30 3405 H 326.079 -0.662807 0.344523 0
M  V30 3406 H 328.741 -1.28725 1.46342 0
M  V30 3407 H 327.837 -2.81117 1.35572 0
M  V30 3408 N 328.138 -0.959301 -1.25041 0
M  V30 3409 C 329.088 -0.453888 -2.23436 0
M  V30 3410 C 330.072 0.459461 -1.542 0
M  V30 3411 O 331.264 0.291752 -1.74579 0
M  V30 3412 C 328.393 0.262667 -3.42294 0
M  V30 3413 C 327.479 -0.669022 -4.1879 0
M  V30 3414 N 327.87 -1.80267 -4.72586 0
M  V30 3415 C 326.168 -0.47814 -4.4343 0
M  V30 3416 C 326.869 -2.38475 -5.3057 0
M  V30 3417 N 325.845 -1.67078 -5.17287 0
M  V30 3418 H 329.647 -1.319 -2.6264 0
M  V30 3419 H 327.161 -0.817358 -1.40332 0
M  V30 3420 H 329.158 0.641911 -4.11929 0
M  V30 3421 H 327.818 1.12432 -3.04613 0
M  V30 3422 H 328.829 -2.18442 -4.69578 0
M  V30 3423 H 325.506 0.340249 -4.16111 0
M  V30 3424 H 326.896 -3.34094 -5.8295 0
M  V30 3425 N 329.616 1.39756 -0.72842 0
M  V30 3426 C 331.032 1.5442 -0.403308 0
M  V30 3427 C 331.232 1.69694 1.08656 0
M  V30 3428 O 330.288 1.69373 1.87267 0
M  V30 3429 C 331.601 2.76555 -1.18058 0
M  V30 3430 C 333.149 2.90384 -1.16815 0
M  V30 3431 C 333.624 4.15449 -1.92785 0
M  V30 3432 N 335.115 4.22475 -1.89918 0
M  V30 3433 C 335.85 5.1818 -2.45514 0
M  V30 3434 N 335.346 6.19714 -3.09719 0
M  V30 3435 N 337.139 5.1035 -2.35584 0
M  V30 3436 H 329.29 1.28089 -1.69431 0
M  V30 3437 H 331.553 0.620327 -0.716867 0
M  V30 3438 H 331.259 2.7159 -2.23455 0
M  V30 3439 H 331.133 3.69033 -0.780662 0
M  V30 3440 H 333.52 2.94846 -0.12234 0
M  V30 3441 H 333.601 1.98988 -1.6074 0
M  V30 3442 H 333.245 4.11749 -2.97364 0
M  V30 3443 H 333.175 5.05877 -1.46272 0
M  V30 3444 H 335.666 3.49743 -1.43138 0
M  V30 3445 H 335.979 6.8919 -3.49625 0
M  V30 3446 H 334.324 6.20121 -3.13807 0
M  V30 3447 H 337.515 4.2996 -1.85072 0
M  V30 3448 H 337.688 5.84761 -2.79211 0
M  V30 3449 N 331.094 0.475555 1.50254 0
M  V30 3450 C 332.026 -0.352649 2.26471 0
M  V30 3451 C 333.039 -0.953165 1.3198 0
M  V30 3452 O 334.228 -0.840815 1.57457 0
M  V30 3453 C 331.328 -1.50902 3.0345 0
M  V30 3454 C 330.501 -1.02047 4.25329 0
M  V30 3455 C 329.56 -2.05142 4.84565 0
M  V30 3456 O 328.586 -1.63023 5.45355 0
M  V30 3457 N 329.788 -3.37987 4.71959 0
M  V30 3458 H 332.553 0.300767 2.98187 0
M  V30 3459 H 330.114 0.306598 1.5897 0
M  V30 3460 H 332.106 -2.19572 3.39956 0
M  V30 3461 H 330.676 -2.06705 2.34504 0
M  V30 3462 H 329.896 -0.159507 3.93877 0
M  V30 3463 H 331.184 -0.672061 5.04342 0
M  V30 3464 H 330.582 -3.74913 4.23623 0
M  V30 3465 H 329.139 -4.02443 5.12721 0
M  V30 3466 N 332.573 -1.56217 0.208337 0
M  V30 3467 C 333.483 -2.23316 -0.718836 0
M  V30 3468 C 334.499 -1.23648 -1.22422 0
M  V30 3469 O 335.675 -1.56423 -1.26861 0
M  V30 3470 C 332.74 -2.88968 -1.91568 0
M  V30 3471 C 331.801 -4.03943 -1.45357 0
M  V30 3472 C 331.034 -4.66455 -2.59337 0
M  V30 3473 O 331.257 -4.27919 -3.77149 0
M  V30 3474 O 330.191 -5.55686 -2.31293 0
M  V30 3475 H 334.017 -3.03182 -0.177315 0
M  V30 3476 H 331.602 -1.49384 -0.0215402 0
M  V30 3477 H 333.484 -3.30455 -2.61491 0
M  V30 3478 H 332.159 -2.12071 -2.44556 0
M  V30 3479 H 331.066 -3.67052 -0.722746 0
M  V30 3480 H 332.399 -4.82543 -0.970219 0
M  V30 3481 N 334.051 0.0651679 -1.57465 0
M  V30 3482 C 335.328 0.79644 -1.78651 0
M  V30 3483 C 335.708 1.95454 -0.797566 0
M  V30 3484 O 335.056 2.27882 0.167946 0
M  V30 3485 C 335.266 1.26322 -3.25337 0
M  V30 3486 C 336.614 1.6939 -3.89348 0
M  V30 3487 O 337.638 1.35872 -3.29268 0
M  V30 3488 O 336.497 2.31471 -4.95059 0
M  V30 3489 H 333.591 0.382157 -0.733407 0
M  V30 3490 H 336.137 0.0447311 -1.69641 0
M  V30 3491 H 334.909 0.434859 -3.88876 0
M  V30 3492 H 334.532 2.07604 -3.39096 0
M  V30 3493 N 335.529 1.53961 0.336706 0
M  V30 3494 C 336.777 1.71197 1.07405 0
M  V30 3495 C 337.098 0.481475 1.88962 0
M  V30 3496 O 336.368 -0.504585 1.8929 0
M  V30 3497 H 334.948 0.631185 0.399517 0
M  V30 3498 H 337.61 1.91232 0.376323 0
M  V30 3499 H 336.706 2.58587 1.74755 0
M  V30 3500 N 337.007 -0.598083 1.45811 0
M  V30 3501 C 338.284 -1.35777 1.40797 0
M  V30 3502 C 338.664 -2.10935 0.083462 0
M  V30 3503 O 338.012 -2.08505 -0.934763 0
M  V30 3504 C 338.222 -2.29666 2.62783 0
M  V30 3505 C 339.57 -2.91977 3.08277 0
M  V30 3506 O 340.594 -2.39984 2.63223 0
M  V30 3507 O 339.453 -3.86376 3.86491 0
M  V30 3508 H 336.547 -0.609291 0.55919 0
M  V30 3509 H 339.093 -0.620379 1.57954 0
M  V30 3510 H 337.865 -1.73454 3.50756 0
M  V30 3511 H 337.488 -3.1077 2.48008 0
M  V30 3512 N 338.485 -1.33259 -0.841409 0
M  V30 3513 C 339.715 -1.2742 -1.62628 0
M  V30 3514 C 340.123 0.157604 -1.88542 0
M  V30 3515 O 339.466 1.10938 -1.46419 0
M  V30 3516 C 339.528 -1.97797 -3.00194 0
M  V30 3517 C 339.192 -3.47109 -2.97261 0
M  V30 3518 C 340.189 -4.42358 -2.73159 0
M  V30 3519 C 337.874 -3.89247 -3.17478 0
M  V30 3520 C 339.868 -5.77718 -2.69296 0
M  V30 3521 C 337.555 -5.24713 -3.13241 0
M  V30 3522 C 338.553 -6.1876 -2.89181 0
M  V30 3523 O 338.241 -7.51745 -2.84843 0
M  V30 3524 H 337.973 -0.440436 -0.512827 0
M  V30 3525 H 340.527 -1.76153 -1.05638 0
M  V30 3526 H 338.757 -1.43652 -3.59028 0
M  V30 3527 H 340.446 -1.8549 -3.61038 0
M  V30 3528 H 341.212 -4.11127 -2.57294 0
M  V30 3529 H 337.091 -3.16456 -3.35226 0
M  V30 3530 H 340.635 -6.51097 -2.50436 0
M  V30 3531 H 336.532 -5.55569 -3.28654 0
M  V30 3532 H 337.3 -7.61262 -3.00702 0
M  V30 3533 N 339.963 1.05934 -1.16686 0
M  V30 3534 C 341.379 1.30938 -0.912542 0
M  V30 3535 C 341.579 1.96803 0.432533 0
M  V30 3536 O 340.635 2.23693 1.17123 0
M  V30 3537 C 341.948 2.18649 -2.06429 0
M  V30 3538 C 343.496 2.32055 -2.10047 0
M  V30 3539 C 343.971 3.23122 -3.24586 0
M  V30 3540 N 345.462 3.30706 -3.24327 0
M  V30 3541 C 346.197 4.01273 -4.09594 0
M  V30 3542 N 345.693 4.74332 -5.04956 0
M  V30 3543 N 347.486 3.97361 -3.97569 0
M  V30 3544 H 339.637 0.615777 -2.03278 0
M  V30 3545 H 341.9 0.334077 -0.887185 0
M  V30 3546 H 341.606 1.77534 -3.03603 0
M  V30 3547 H 341.48 3.19252 -2.00894 0
M  V30 3548 H 343.867 2.72415 -1.13464 0
M  V30 3549 H 343.948 1.31107 -2.19647 0
M  V30 3550 H 343.592 2.83477 -4.2143 0
M  V30 3551 H 343.522 4.24057 -3.12223 0
M  V30 3552 H 346.013 2.78644 -2.55276 0
M  V30 3553 H 346.326 5.25716 -5.6643 0
M  V30 3554 H 344.671 4.733 -5.08933 0
M  V30 3555 H 347.862 3.39405 -3.22369 0
M  V30 3556 H 348.035 4.52089 -4.64241 0
M  V30 3557 N 341.441 0.965919 1.2453 0
M  V30 3558 C 342.351 0.502154 2.29163 0
M  V30 3559 C 343.367 -0.436017 1.68448 0
M  V30 3560 O 344.543 -0.309497 1.99008 0
M  V30 3561 C 341.608 -0.201956 3.46111 0
M  V30 3562 C 340.669 0.775821 4.22232 0
M  V30 3563 C 339.902 0.105217 5.33596 0
M  V30 3564 O 340.125 -1.10683 5.59558 0
M  V30 3565 O 339.059 0.796475 5.96607 0
M  V30 3566 H 342.885 1.37194 2.70946 0
M  V30 3567 H 340.47 0.732875 1.30189 0
M  V30 3568 H 342.352 -0.597564 4.17142 0
M  V30 3569 H 341.027 -1.04673 3.06309 0
M  V30 3570 H 339.934 1.22185 3.53584 0
M  V30 3571 H 341.267 1.58896 4.65846 0
M  V30 3572 N 342.919 -1.39368 0.735821 0
M  V30 3573 C 344.144 -2.05319 0.293052 0
M  V30 3574 C 344.569 -1.55115 -1.064 0
M  V30 3575 O 343.927 -0.695261 -1.67439 0
M  V30 3576 C 343.975 -3.59305 0.305323 0
M  V30 3577 O 343.079 -4.06299 -0.706761 0
M  V30 3578 H 342.42 -0.650529 0.13307 0
M  V30 3579 H 344.95 -1.78386 1.00197 0
M  V30 3580 H 344.96 -4.07724 0.149997 0
M  V30 3581 H 343.635 -3.95207 1.29553 0
M  V30 3582 H 342.212 -3.69292 -0.517504 0
M  V30 3583 N 344.397 -0.483516 -1.5 0
M  V30 3584 C 345.643 0.0593261 -2.03313 0
M  V30 3585 C 345.998 1.36288 -1.35806 0
M  V30 3586 O 345.291 1.85519 -0.478897 0
M  V30 3587 C 345.485 0.286226 -3.56252 0
M  V30 3588 C 345.314 -0.993788 -4.38582 0
M  V30 3589 C 344.084 -1.54064 -4.81241 0
M  V30 3590 C 346.282 -1.89249 -4.78215 0
M  V30 3591 N 344.264 -2.76838 -5.47936 0
M  V30 3592 C 345.635 -2.96606 -5.44449 0
M  V30 3593 C 347.69 -1.90138 -4.60165 0
M  V30 3594 C 346.393 -4.04857 -5.94544 0
M  V30 3595 C 348.419 -2.97353 -5.1121 0
M  V30 3596 C 347.781 -4.03429 -5.77429 0
M  V30 3597 H 343.88 -0.0186322 -0.781778 0
M  V30 3598 H 346.464 -0.654489 -1.8337 0
M  V30 3599 H 344.635 0.969086 -3.76116 0
M  V30 3600 H 346.367 0.824515 -3.96212 0
M  V30 3601 H 343.122 -1.08813 -4.6093 0
M  V30 3602 H 343.546 -3.39221 -5.85882 0
M  V30 3603 H 348.188 -1.09441 -4.0839 0
M  V30 3604 H 345.906 -4.86363 -6.4535 0
M  V30 3605 H 349.492 -2.99039 -4.99066 0
M  V30 3606 H 348.372 -4.85025 -6.16214 0
M  V30 3607 N 345.875 1.56104 -0.216619 0
M  V30 3608 C 346.807 2.17339 0.72776 0
M  V30 3609 C 347.82 1.14109 1.16116 0
M  V30 3610 O 349.009 1.4111 1.09317 0
M  V30 3611 C 346.109 2.73818 1.99693 0
M  V30 3612 C 345.282 4.02168 1.71988 0
M  V30 3613 C 344.341 4.43259 2.83562 0
M  V30 3614 O 343.367 5.10257 2.52244 0
M  V30 3615 N 344.569 4.08535 4.12407 0
M  V30 3616 H 347.334 2.99005 0.203983 0
M  V30 3617 H 344.895 1.61861 -0.0354289 0
M  V30 3618 H 346.887 2.9828 2.73516 0
M  V30 3619 H 345.457 1.96483 2.43132 0
M  V30 3620 H 344.677 3.85612 0.818337 0
M  V30 3621 H 345.965 4.85907 1.50903 0
M  V30 3622 H 345.363 3.54687 4.40696 0
M  V30 3623 H 343.92 4.37901 4.8279 0
M  V30 3624 N 347.353 -0.0568162 1.57498 0
M  V30 3625 C 348.764 -0.606858 1.76562 0
M  V30 3626 C 349.115 -1.77114 0.844094 0
M  V30 3627 O 348.24 -2.16376 0.0318911 0
M  V30 3628 C 348.835 -1.10766 3.20182 0
M  V30 3629 C 347.394 -1.60344 3.40539 0
M  V30 3630 C 346.541 -0.529311 2.72201 0
M  V30 3631 H 349.492 0.169393 1.57793 0
M  V30 3632 H 349.513 -1.97602 3.25167 0
M  V30 3633 H 349.025 -0.26006 3.87228 0
M  V30 3634 H 347.126 -2.47379 2.78629 0
M  V30 3635 H 347.239 -1.67006 4.4905 0
M  V30 3636 H 345.603 -0.977893 2.35179 0
M  V30 3637 H 346.386 0.308352 3.41912 0
M  V30 3638 N 348.832 -1.54138 -0.328536 0
M  V30 3639 C 349.764 -1.79509 -1.4251 0
M  V30 3640 C 350.777 -0.67688 -1.48061 0
M  V30 3641 O 351.966 -0.953898 -1.50874 0
M  V30 3642 C 349.066 -1.89337 -2.81078 0
M  V30 3643 C 348.239 -3.19443 -2.98789 0
M  V30 3644 C 347.298 -3.20036 -4.17688 0
M  V30 3645 O 346.324 -3.93697 -4.11086 0
M  V30 3646 N 347.526 -2.43467 -5.26976 0
M  V30 3647 H 350.291 -2.74139 -1.21111 0
M  V30 3648 H 347.852 -1.53373 -0.518499 0
M  V30 3649 H 349.844 -1.87167 -3.58818 0
M  V30 3650 H 348.414 -1.01826 -2.95551 0
M  V30 3651 H 347.634 -3.34614 -2.08391 0
M  V30 3652 H 348.922 -4.05354 -3.07515 0
M  V30 3653 H 348.32 -1.83201 -5.35214 0
M  V30 3654 H 346.877 -2.4708 -6.03154 0
M  V30 3655 N 350.31 0.590341 -1.46126 0
M  V30 3656 C 351.242 1.71427 -1.52136 0
M  V30 3657 C 352.255 1.57542 -0.41042 0
M  V30 3658 O 353.444 1.65106 -0.678389 0
M  V30 3659 C 350.544 3.09605 -1.37834 0
M  V30 3660 C 349.717 3.49566 -2.62912 0
M  V30 3661 C 348.776 4.66773 -2.42918 0
M  V30 3662 O 347.802 4.73019 -3.1661 0
M  V30 3663 N 349.004 5.61161 -1.4859 0
M  V30 3664 H 351.769 1.66728 -2.49042 0
M  V30 3665 H 349.33 0.776113 -1.42085 0
M  V30 3666 H 351.322 3.85796 -1.22243 0
M  V30 3667 H 349.892 3.08714 -0.491393 0
M  V30 3668 H 349.112 2.63158 -2.93499 0
M  V30 3669 H 350.4 3.73028 -3.46017 0
M  V30 3670 H 349.798 5.58844 -0.87808 0
M  V30 3671 H 348.355 6.36814 -1.38965 0
M  V30 3672 N 351.788 1.33704 0.83433 0
M  V30 3673 C 352.721 1.18675 1.94914 0
M  V30 3674 C 353.699 0.0811145 1.62398 0
M  V30 3675 O 354.883 0.244186 1.86912 0
M  V30 3676 C 352.01 0.821231 3.28593 0
M  V30 3677 C 351.056 1.93501 3.80079 0
M  V30 3678 S 351.889 3.54671 4.01209 0
M  V30 3679 C 353.045 3.20136 5.37833 0
M  V30 3680 H 353.278 2.13043 2.07364 0
M  V30 3681 H 350.811 1.18598 0.988624 0
M  V30 3682 H 352.769 0.617123 4.05835 0
M  V30 3683 H 351.43 -0.103927 3.13928 0
M  V30 3684 H 350.623 1.63273 4.76821 0
M  V30 3685 H 350.225 2.09601 3.09747 0
M  V30 3686 H 352.517 2.71242 6.20833 0
M  V30 3687 H 353.46 4.15975 5.73036 0
M  V30 3688 H 353.868 2.56613 5.02802 0
M  V30 3689 N 353.266 -1.05314 1.17247 0
M  V30 3690 C 354.491 -1.82509 0.985148 0
M  V30 3691 C 354.916 -1.82343 -0.461788 0
M  V30 3692 O 354.274 -1.23151 -1.33055 0
M  V30 3693 C 354.322 -3.26566 1.52929 0
M  V30 3694 O 353.426 -4.05666 0.742225 0
M  V30 3695 H 352.767 -0.564347 0.349869 0
M  V30 3696 H 355.297 -1.32718 1.55715 0
M  V30 3697 H 355.307 -3.77369 1.55103 0
M  V30 3698 H 353.982 -3.26001 2.58256 0
M  V30 3699 H 352.559 -3.64397 0.791794 0
M  V30 3700 N 354.744 -0.972509 -1.24016 0
M  V30 3701 C 356.155 -0.67517 -1.74064 0
M  V30 3702 C 356.506 0.808939 -1.78747 0
M  V30 3703 O 355.631 1.63286 -1.42009 0
M  V30 3704 C 356.226 -1.21889 -3.16115 0
M  V30 3705 C 354.785 -0.971358 -3.6365 0
M  V30 3706 C 353.932 -1.35134 -2.42145 0
M  V30 3707 H 356.883 -1.14727 -1.09651 0
M  V30 3708 H 356.904 -0.587489 -3.75937 0
M  V30 3709 H 356.416 -2.29906 -3.12674 0
M  V30 3710 H 354.517 0.0930686 -3.72484 0
M  V30 3711 H 354.63 -1.62039 -4.50866 0
M  V30 3712 H 352.994 -0.769751 -2.4279 0
M  V30 3713 H 353.777 -2.4411 -2.41381 0
M  V30 3714 N 356.222 1.38976 -0.743202 0
M  V30 3715 C 357.152 2.33171 -0.123873 0
M  V30 3716 C 358.133 1.54336 0.71516 0
M  V30 3717 O 359.318 1.82696 0.658467 0
M  V30 3718 C 356.448 3.38474 0.777978 0
M  V30 3719 C 355.402 4.27979 0.0424758 0
M  V30 3720 C 354.728 5.2405 1.06189 0
M  V30 3721 C 356.028 5.10155 -1.1198 0
M  V30 3722 H 357.722 2.85213 -0.910709 0
M  V30 3723 H 355.268 1.37133 -0.439388 0
M  V30 3724 H 357.221 4.03328 1.22084 0
M  V30 3725 H 355.945 2.84891 1.59702 0
M  V30 3726 H 354.604 3.64616 -0.380853 0
M  V30 3727 H 354.252 4.66758 1.87472 0
M  V30 3728 H 353.952 5.84785 0.574485 0
M  V30 3729 H 355.476 5.9178 1.50428 0
M  V30 3730 H 356.89 5.68307 -0.75499 0
M  V30 3731 H 355.287 5.80073 -1.53738 0
M  V30 3732 H 356.357 4.44504 -1.93764 0
M  V30 3733 N 357.7 0.491464 1.49741 0
M  V30 3734 C 358.663 -0.280906 2.27472 0
M  V30 3735 C 359.663 -0.902454 1.33088 0
M  V30 3736 O 360.853 -0.768465 1.56334 0
M  V30 3737 C 357.985 -1.40209 3.10732 0
M  V30 3738 H 359.178 0.401056 2.97206 0
M  V30 3739 H 356.731 0.246131 1.5435 0
M  V30 3740 H 357.466 -2.11849 2.45541 0
M  V30 3741 H 357.251 -0.961969 3.80117 0
M  V30 3742 H 358.741 -1.9464 3.69466 0
M  V30 3743 N 359.178 -1.55987 0.224894 0
M  V30 3744 C 360.108 -2.23426 -0.678457 0
M  V30 3745 C 361.089 -1.20709 -1.19847 0
M  V30 3746 O 362.274 -1.49304 -1.24186 0
M  V30 3747 C 359.404 -2.91676 -1.88527 0
M  V30 3748 C 358.358 -4.00893 -1.49896 0
M  V30 3749 C 357.684 -4.56455 -2.78483 0
M  V30 3750 C 358.984 -5.17769 -0.686461 0
M  V30 3751 H 360.678 -2.99175 -0.116173 0
M  V30 3752 H 358.224 -1.43897 -0.054436 0
M  V30 3753 H 360.177 -3.37547 -2.5227 0
M  V30 3754 H 358.901 -2.1338 -2.47258 0
M  V30 3755 H 357.56 -3.55758 -0.884985 0
M  V30 3756 H 357.208 -3.74886 -3.35365 0
M  V30 3757 H 356.908 -5.30169 -2.53368 0
M  V30 3758 H 358.432 -5.05047 -3.43162 0
M  V30 3759 H 359.846 -5.60001 -1.22767 0
M  V30 3760 H 358.243 -5.97735 -0.532259 0
M  V30 3761 H 359.313 -4.83932 0.306196 0
M  V30 3762 N 360.656 0.0484629 -1.57525 0
M  V30 3763 C 361.566 1.07241 -2.08654 0
M  V30 3764 C 362.582 1.409 -1.02095 0
M  V30 3765 O 363.758 1.50609 -1.33712 0
M  V30 3766 C 360.823 2.36008 -2.5397 0
M  V30 3767 C 359.884 2.09108 -3.7493 0
M  V30 3768 C 359.117 3.31736 -4.18075 0
M  V30 3769 O 359.34 4.41714 -3.60895 0
M  V30 3770 O 358.274 3.18576 -5.10679 0
M  V30 3771 H 362.1 0.667965 -2.96263 0
M  V30 3772 H 359.685 0.26417 -1.47046 0
M  V30 3773 H 361.567 3.11747 -2.83535 0
M  V30 3774 H 360.242 2.75786 -1.69481 0
M  V30 3775 H 359.149 1.31 -3.50414 0
M  V30 3776 H 360.482 1.74198 -4.60343 0
M  V30 3777 N 362.134 1.5431 0.320358 0
M  V30 3778 C 363.55 1.45091 0.664889 0
M  V30 3779 C 363.75 0.626382 1.91517 0
M  V30 3780 O 362.806 0.126443 2.52183 0
M  V30 3781 C 364.119 2.88848 0.83591 0
M  V30 3782 C 365.667 2.9877 0.933046 0
M  V30 3783 C 366.142 4.43683 1.13621 0
M  V30 3784 N 367.633 4.47309 1.20287 0
M  V30 3785 C 368.368 5.56595 1.37801 0
M  V30 3786 N 367.864 6.75844 1.52338 0
M  V30 3787 N 369.657 5.44248 1.40535 0
M  V30 3788 H 361.808 2.06398 -0.501374 0
M  V30 3789 H 364.071 0.933963 -0.162534 0
M  V30 3790 H 363.777 3.51698 -0.0116092 0
M  V30 3791 H 363.651 3.35148 1.73078 0
M  V30 3792 H 366.038 2.36045 1.77107 0
M  V30 3793 H 366.119 2.55796 0.0145782 0
M  V30 3794 H 365.763 5.06995 0.303032 0
M  V30 3795 H 365.693 4.84269 2.0686 0
M  V30 3796 H 368.184 3.61388 1.10485 0
M  V30 3797 H 368.497 7.54892 1.65403 0
M  V30 3798 H 366.842 6.78746 1.4943 0
M  V30 3799 H 370.033 4.50038 1.28777 0
M  V30 3800 H 370.206 6.29473 1.53842 0
M  V30 3801 N 363.613 -0.582584 1.46437 0
M  V30 3802 C 364.576 -1.67366 1.56592 0
M  V30 3803 C 365.576 -1.54575 0.443072 0
M  V30 3804 O 366.766 -1.59191 0.707381 0
M  V30 3805 C 363.898 -3.06791 1.48634 0
M  V30 3806 H 365.091 -1.5972 2.5383 0
M  V30 3807 H 362.644 -0.800432 1.34249 0
M  V30 3808 H 363.379 -3.19993 0.526763 0
M  V30 3809 H 363.164 -3.17484 2.30101 0
M  V30 3810 H 364.654 -3.86218 1.58826 0
M  V30 3811 N 365.091 -1.34144 -0.827227 0
M  V30 3812 C 366.023 -1.21206 -1.9453 0
M  V30 3813 C 367.036 -0.140176 -1.62195 0
M  V30 3814 O 368.225 -0.391647 -1.7415 0
M  V30 3815 C 365.325 -0.839141 -3.28347 0
M  V30 3816 C 364.498 -2.0051 -3.88734 0
M  V30 3817 C 363.557 -1.61128 -5.00923 0
M  V30 3818 O 362.583 -2.32726 -5.19449 0
M  V30 3819 N 363.785 -0.522958 -5.7814 0
M  V30 3820 H 366.55 -2.17525 -2.06162 0
M  V30 3821 H 364.111 -1.27043 -1.00358 0
M  V30 3822 H 366.103 -0.557556 -4.00841 0
M  V30 3823 H 364.673 0.0337293 -3.12582 0
M  V30 3824 H 363.893 -2.45166 -3.08686 0
M  V30 3825 H 365.181 -2.78498 -4.25812 0
M  V30 3826 H 364.579 0.0723518 -5.65654 0
M  V30 3827 H 363.136 -0.301089 -6.51104 0
M  V30 3828 N 366.569 1.04691 -1.17803 0
M  V30 3829 C 367.479 2.16057 -0.914151 0
M  V30 3830 C 368.495 1.73589 0.119503 0
M  V30 3831 O 369.671 2.01308 -0.0609468 0
M  V30 3832 C 366.736 3.4394 -0.436603 0
M  V30 3833 C 365.797 4.00825 -1.53746 0
M  V30 3834 C 365.03 5.22604 -1.0826 0
M  V30 3835 O 365.253 5.70367 0.0612244 0
M  V30 3836 O 364.187 5.7186 -1.87775 0
M  V30 3837 H 368.013 2.41169 -1.84584 0
M  V30 3838 H 365.598 1.1453 -0.959334 0
M  V30 3839 H 367.48 4.21024 -0.178057 0
M  V30 3840 H 366.155 3.20316 0.466869 0
M  V30 3841 H 365.062 3.25158 -1.84995 0
M  V30 3842 H 366.395 4.28778 -2.41683 0
M  V30 3843 N 368.047 0.979072 1.23499 0
M  V30 3844 C 369.296 0.642751 1.91185 0
M  V30 3845 C 369.609 -0.827253 1.77245 0
M  V30 3846 O 370.815 -1.27458 2.39722 0
M  V30 3847 C 369.271 1.09901 3.42709 0
M  V30 3848 C 368.879 2.59327 3.65313 0
M  V30 3849 C 370.623 0.836371 4.16179 0
M  V30 3850 C 368.53 2.98627 5.10467 0
M  V30 3851 H 367.46 0.236698 0.715884 0
M  V30 3852 H 370.111 1.1868 1.39955 0
M  V30 3853 H 368.493 0.48319 3.93041 0
M  V30 3854 H 369.667 3.26136 3.25533 0
M  V30 3855 H 367.982 2.83323 3.05151 0
M  V30 3856 H 370.579 1.10586 5.23139 0
M  V30 3857 H 370.922 -0.227509 4.15678 0
M  V30 3858 H 371.455 1.41371 3.71832 0
M  V30 3859 H 368.194 4.04133 5.16098 0
M  V30 3860 H 367.714 2.3651 5.51201 0
M  V30 3861 H 369.393 2.89159 5.78788 0
M  V30 3862 N 369.525 -1.3858 0.750561 0
M  V30 3863 C 370.488 -2.28836 0.129152 0
M  V30 3864 C 371.488 -1.47045 -0.650714 0
M  V30 3865 O 372.678 -1.6753 -0.477428 0
M  V30 3866 C 369.81 -3.30751 -0.825622 0
M  V30 3867 H 371.003 -2.85294 0.924516 0
M  V30 3868 H 368.556 -1.47489 0.517376 0
M  V30 3869 H 369.291 -2.79378 -1.64677 0
M  V30 3870 H 369.076 -3.91177 -0.268852 0
M  V30 3871 H 370.566 -3.98249 -1.2565 0
M  V30 3872 N 371.003 -0.499398 -1.49478 0
M  V30 3873 C 372.419 -0.155261 -1.58843 0
M  V30 3874 C 372.619 1.34008 -1.50479 0
M  V30 3875 O 371.675 2.11589 -1.37791 0
M  V30 3876 C 372.988 -0.730636 -2.91689 0
M  V30 3877 C 374.536 -0.696599 -3.0515 0
M  V30 3878 C 375.011 -1.25001 -4.40612 0
M  V30 3879 N 376.502 -1.21064 -4.47099 0
M  V30 3880 C 377.237 -1.60905 -5.50361 0
M  V30 3881 N 376.733 -2.08331 -6.60735 0
M  V30 3882 N 378.526 -1.52331 -5.41065 0
M  V30 3883 H 370.677 -1.47162 -1.53158 0
M  V30 3884 H 372.94 -0.610309 -0.725415 0
M  V30 3885 H 372.646 -1.77928 -3.03372 0
M  V30 3886 H 372.52 -0.190161 -3.7672 0
M  V30 3887 H 374.907 0.343204 -2.93097 0
M  V30 3888 H 374.988 -1.2742 -2.21806 0
M  V30 3889 H 374.632 -2.28859 -4.53416 0
M  V30 3890 H 374.562 -0.64836 -5.22593 0
M  V30 3891 H 377.053 -0.863128 -3.67911 0
M  V30 3892 H 377.366 -2.36805 -7.35624 0
M  V30 3893 H 375.711 -2.12304 -6.6178 0
M  V30 3894 H 378.902 -1.151 -4.53729 0
M  V30 3895 H 379.075 -1.83704 -6.21415 0
M  V30 3896 N 372.481 1.55866 -0.233164 0
M  V30 3897 C 373.428 2.20796 0.67215 0
M  V30 3898 C 374.398 1.16731 1.18166 0
M  V30 3899 O 375.583 1.45129 1.23864 0
M  V30 3900 C 372.723 2.90072 1.86955 0
M  V30 3901 C 371.836 4.08759 1.39786 0
M  V30 3902 C 370.971 4.65787 2.55374 0
M  V30 3903 C 370.01 5.76752 2.04998 0
M  V30 3904 N 369.147 6.28021 3.13901 0
M  V30 3905 H 373.987 2.9779 0.111749 0
M  V30 3906 H 371.524 1.47036 0.0434007 0
M  V30 3907 H 373.482 3.28428 2.57276 0
M  V30 3908 H 372.112 2.15575 2.40265 0
M  V30 3909 H 371.164 3.7581 0.589173 0
M  V30 3910 H 372.476 4.88906 0.98856 0
M  V30 3911 H 371.63 5.06646 3.33758 0
M  V30 3912 H 370.369 3.84828 2.99598 0
M  V30 3913 H 369.374 5.35383 1.25079 0
M  V30 3914 H 370.599 6.59553 1.61759 0
M  V30 3915 H 368.545 5.49971 3.57586 0
M  V30 3916 H 368.462 7.03323 2.7726 0
M  V30 3917 H 369.73 6.73538 3.92386 0
M  V30 3918 N 373.959 -0.0401083 1.57549 0
M  V30 3919 C 375.205 -0.734211 1.89043 0
M  V30 3920 C 375.538 -1.75591 0.829535 0
M  V30 3921 O 374.813 -1.93868 -0.156706 0
M  V30 3922 C 375.096 -1.41374 3.31188 0
M  V30 3923 C 374.949 -0.406299 4.47961 0
M  V30 3924 C 376.268 -2.35061 3.72068 0
M  V30 3925 H 373.387 -0.265447 0.687537 0
M  V30 3926 H 376.029 0.00294087 1.9 0
M  V30 3927 H 374.179 -2.04206 3.30503 0
M  V30 3928 H 375.851 0.219255 4.60779 0
M  V30 3929 H 374.094 0.275485 4.32924 0
M  V30 3930 H 374.765 -0.920022 5.44279 0
M  V30 3931 H 377.241 -1.82282 3.74049 0
M  V30 3932 H 376.117 -2.79593 4.72355 0
M  V30 3933 H 376.378 -3.21258 3.0372 0
M  V30 3934 N 375.437 -1.54477 -0.31217 0
M  V30 3935 C 376.683 -1.73483 -1.0503 0
M  V30 3936 C 377.016 -0.513125 -1.87298 0
M  V30 3937 O 376.291 0.489864 -1.8823 0
M  V30 3938 C 376.574 -3.01723 -1.96558 0
M  V30 3939 C 376.427 -4.3417 -1.17545 0
M  V30 3940 C 377.746 -3.25772 -2.95907 0
M  V30 3941 H 374.865 -0.631222 -0.380432 0
M  V30 3942 H 377.507 -1.87184 -0.325932 0
M  V30 3943 H 375.657 -2.90174 -2.58324 0
M  V30 3944 H 377.329 -4.5762 -0.581513 0
M  V30 3945 H 375.572 -4.31159 -0.477925 0
M  V30 3946 H 376.243 -5.20143 -1.84811 0
M  V30 3947 H 378.719 -3.36857 -2.44267 0
M  V30 3948 H 377.595 -4.16838 -3.57123 0
M  V30 3949 H 377.856 -2.43537 -3.68974 0
M  V30 3950 N 376.915 0.57481 -1.46744 0
M  V30 3951 C 377.845 1.69337 -1.60771 0
M  V30 3952 C 378.826 1.63825 -0.457736 0
M  V30 3953 O 380.011 1.8172 -0.684947 0
M  V30 3954 C 377.141 3.0798 -1.60517 0
M  V30 3955 C 376.095 3.28327 -2.74564 0
M  V30 3956 C 375.421 4.67578 -2.59373 0
M  V30 3957 C 376.721 3.15398 -4.16319 0
M  V30 3958 H 378.415 1.57853 -2.54407 0
M  V30 3959 H 375.961 0.75799 -1.22436 0
M  V30 3960 H 377.914 3.86061 -1.68923 0
M  V30 3961 H 376.638 3.20381 -0.634305 0
M  V30 3962 H 375.297 2.52649 -2.65639 0
M  V30 3963 H 374.945 4.76755 -1.60353 0
M  V30 3964 H 374.645 4.82144 -3.35873 0
M  V30 3965 H 376.169 5.47817 -2.69682 0
M  V30 3966 H 377.583 3.83315 -4.26313 0
M  V30 3967 H 375.98 3.41482 -4.93468 0
M  V30 3968 H 377.05 2.12372 -4.3592 0
M  V30 3969 N 378.394 1.34581 0.820102 0
M  V30 3970 C 379.357 1.2628 1.91275 0
M  V30 3971 C 380.357 0.177344 1.59819 0
M  V30 3972 O 381.547 0.430156 1.68806 0
M  V30 3973 C 378.679 0.950327 3.27386 0
M  V30 3974 H 379.872 2.23421 2.00057 0
M  V30 3975 H 377.425 1.1891 1.0144 0
M  V30 3976 H 378.16 -0.0177938 3.24295 0
M  V30 3977 H 377.945 1.73549 3.51601 0
M  V30 3978 H 379.435 0.917492 4.07396 0
M  V30 3979 N 379.872 -1.04064 1.18357 0
M  V30 3980 C 380.802 -2.14001 0.934113 0
M  V30 3981 C 381.783 -1.69616 -0.128186 0
M  V30 3982 O 382.968 -1.94185 0.0244093 0
M  V30 3983 C 380.098 -3.44253 0.459066 0
M  V30 3984 C 379.052 -4.02261 1.46185 0
M  V30 3985 C 378.378 -5.27992 0.844322 0
M  V30 3986 C 379.678 -4.38432 2.83856 0
M  V30 3987 H 381.372 -2.35127 1.85352 0
M  V30 3988 H 378.918 -1.12998 0.892604 0
M  V30 3989 H 380.871 -4.20522 0.271907 0
M  V30 3990 H 379.595 -3.22813 -0.495912 0
M  V30 3991 H 378.254 -3.28074 1.63595 0
M  V30 3992 H 377.902 -5.02862 -0.117845 0
M  V30 3993 H 377.602 -5.67765 1.51384 0
M  V30 3994 H 379.126 -6.06938 0.667693 0
M  V30 3995 H 380.54 -5.05688 2.70098 0
M  V30 3996 H 378.937 -4.89254 3.47491 0
M  V30 3997 H 380.007 -3.4826 3.37406 0
M  V30 3998 N 381.35 -0.985608 -1.22978 0
M  V30 3999 C 382.598 -0.656087 -1.91154 0
M  V30 4000 C 382.919 0.813561 -1.77218 0
M  V30 4001 O 382.189 1.58244 -1.1548 0
M  V30 4002 H 380.769 -0.239674 -0.707506 0
M  V30 4003 H 383.431 -1.25054 -1.49491 0
M  V30 4004 H 382.527 -0.912253 -2.9847 0
M  V30 4005 N 382.828 1.3818 -0.7579 0
M  V30 4006 C 384.076 1.99624 -0.315361 0
M  V30 4007 C 384.397 1.60464 1.10799 0
M  V30 4008 O 383.667 0.863507 1.75842 0
M  V30 4009 H 382.247 0.73831 -0.113611 0
M  V30 4010 H 384.909 1.68878 -0.972952 0
M  V30 4011 H 384.005 3.09754 -0.381931 0
M  V30 4012 N 384.306 0.507319 1.49211 0
M  V30 4013 C 385.536 -0.0315292 2.06576 0
M  V30 4014 C 385.944 -1.30791 1.36713 0
M  V30 4015 O 385.287 -1.78324 0.441181 0
M  V30 4016 C 385.349 -0.349104 3.57801 0
M  V30 4017 C 385.013 0.830475 4.49391 0
M  V30 4018 C 386.01 1.72271 4.90529 0
M  V30 4019 C 383.695 1.03107 4.91604 0
M  V30 4020 C 385.689 2.79964 5.72625 0
M  V30 4021 C 383.376 2.11116 5.73475 0
M  V30 4022 C 384.374 2.99379 6.1389 0
M  V30 4023 O 384.062 4.05523 6.94123 0
M  V30 4024 H 383.794 0.0201002 0.675701 0
M  V30 4025 H 386.348 0.705737 1.92895 0
M  V30 4026 H 384.578 -1.14005 3.69513 0
M  V30 4027 H 386.267 -0.827319 3.97379 0
M  V30 4028 H 387.033 1.57958 4.58557 0
M  V30 4029 H 382.912 0.353417 4.59643 0
M  V30 4030 H 386.456 3.48884 6.04091 0
M  V30 4031 H 382.353 2.25421 6.0486 0
M  V30 4032 H 383.121 4.02953 7.1244 0
M  V30 4033 N 385.784 -1.5574 0.241426 0
M  V30 4034 C 387.032 -1.98417 -0.384075 0
M  V30 4035 C 387.353 -1.13078 -1.58866 0
M  V30 4036 O 386.623 -0.212312 -1.94746 0
M  V30 4037 H 385.203 -0.732813 -0.144894 0
M  V30 4038 H 387.865 -1.9193 0.338943 0
M  V30 4039 H 386.961 -3.04219 -0.696939 0
M  V30 4040 N 387.262 0.0317525 -1.57568 0
M  V30 4041 C 388.192 1.03274 -2.0942 0
M  V30 4042 C 389.173 1.3788 -0.996143 0
M  V30 4043 O 390.358 1.46811 -1.27122 0
M  V30 4044 C 387.488 2.33448 -2.57137 0
M  V30 4045 C 386.442 2.13091 -3.71182 0
M  V30 4046 C 385.768 3.49001 -4.05095 0
M  V30 4047 C 387.068 1.51928 -4.99715 0
M  V30 4048 H 388.762 0.60112 -2.93303 0
M  V30 4049 H 386.308 0.287705 -1.41097 0
M  V30 4050 H 388.261 3.03802 -2.92032 0
M  V30 4051 H 386.985 2.78665 -1.70333 0
M  V30 4052 H 385.644 1.45171 -3.36632 0
M  V30 4053 H 385.292 3.91862 -3.15362 0
M  V30 4054 H 384.992 3.36207 -4.81911 0
M  V30 4055 H 386.516 4.20721 -4.42522 0
M  V30 4056 H 387.93 2.12196 -5.32584 0
M  V30 4057 H 386.327 1.49716 -5.81124 0
M  V30 4058 H 387.397 0.484811 -4.8247 0
M  V30 4059 N 388.74 1.54641 0.303973 0
M  V30 4060 C 389.987 1.7378 1.03955 0
M  V30 4061 C 390.315 0.521986 1.87365 0
M  V30 4062 O 389.57 -0.496099 1.89308 0
M  V30 4063 C 389.869 2.97753 1.97681 0
M  V30 4064 C 389.535 4.31671 1.30271 0
M  V30 4065 C 388.197 4.68075 1.11619 0
M  V30 4066 C 390.549 5.147 0.82055 0
M  V30 4067 C 387.877 5.8509 0.434304 0
M  V30 4068 C 390.229 6.32416 0.152395 0
M  V30 4069 C 388.893 6.67484 -0.0461067 0
M  V30 4070 H 388.163 0.635908 0.380398 0
M  V30 4071 H 390.81 1.88896 0.314718 0
M  V30 4072 H 389.115 2.77406 2.76682 0
M  V30 4073 H 390.812 3.09756 2.54661 0
M  V30 4074 H 387.402 4.03041 1.45795 0
M  V30 4075 H 391.586 4.87077 0.952374 0
M  V30 4076 H 386.842 6.10806 0.269495 0
M  V30 4077 H 391.016 6.96023 -0.229126 0
M  V30 4078 H 388.643 7.58011 -0.576494 0
M  V30 4079 N 390.218 -0.567019 1.47046 0
M  V30 4080 C 391.466 -1.322 1.52864 0
M  V30 4081 C 391.787 -1.94088 0.188388 0
M  V30 4082 O 391.057 -1.7941 -0.786693 0
M  V30 4083 H 389.637 -0.490894 0.563056 0
M  V30 4084 H 392.299 -0.662879 1.83281 0
M  V30 4085 H 391.395 -2.12062 2.2899 0
M  V30 4086 N 391.696 -1.35014 -0.812953 0
M  V30 4087 C 392.942 -1.2812 -1.57204 0
M  V30 4088 C 393.275 0.145869 -1.93651 0
M  V30 4089 O 392.55 1.0937 -1.60836 0
M  V30 4090 C 392.833 -2.18162 -2.86492 0
M  V30 4091 C 392.686 -3.69454 -2.56561 0
M  V30 4092 C 394.005 -2.07439 -3.88145 0
M  V30 4093 H 391.124 -0.466746 -0.570366 0
M  V30 4094 H 393.766 -1.65357 -0.935783 0
M  V30 4095 H 391.916 -1.86535 -3.40789 0
M  V30 4096 H 393.588 -4.11493 -2.08497 0
M  V30 4097 H 391.831 -3.9005 -1.89851 0
M  V30 4098 H 392.502 -4.27835 -3.48799 0
M  V30 4099 H 394.978 -2.35228 -3.4323 0
M  V30 4100 H 393.854 -2.7265 -4.76396 0
M  V30 4101 H 394.115 -1.05439 -4.29343 0
M  V30 4102 N 393.175 1.03435 -1.18907 0
M  V30 4103 C 394.085 2.15075 -0.937015 0
M  V30 4104 C 395.101 1.73706 0.101085 0
M  V30 4105 O 396.277 2.01232 -0.0822948 0
M  V30 4106 C 393.342 3.43458 -0.473057 0
M  V30 4107 C 392.403 3.99172 -1.57989 0
M  V30 4108 C 391.636 5.21427 -1.13797 0
M  V30 4109 O 391.859 5.704 0.000725941 0
M  V30 4110 O 390.793 5.69837 -1.9383 0
M  V30 4111 H 394.619 2.39198 -1.87131 0
M  V30 4112 H 392.204 1.13506 -0.971427 0
M  V30 4113 H 394.086 4.20811 -0.222702 0
M  V30 4114 H 392.761 3.20793 0.432869 0
M  V30 4115 H 391.668 3.23178 -1.88433 0
M  V30 4116 H 393.001 4.2619 -2.46217 0
M  V30 4117 N 394.653 0.992116 1.22453 0
M  V30 4118 C 395.583 0.561677 2.26644 0
M  V30 4119 C 396.564 -0.411055 1.65059 0
M  V30 4120 O 397.749 -0.301861 1.9184 0
M  V30 4121 C 394.879 -0.125247 3.47074 0
M  V30 4122 C 393.833 0.765948 4.21091 0
M  V30 4123 C 393.159 -0.0538484 5.34673 0
M  V30 4124 C 394.459 2.06242 4.79856 0
M  V30 4125 H 396.153 1.43259 2.62902 0
M  V30 4126 H 393.699 0.690283 1.26377 0
M  V30 4127 H 395.652 -0.437764 4.1912 0
M  V30 4128 H 394.376 -1.03069 3.0991 0
M  V30 4129 H 393.035 1.0621 3.50878 0
M  V30 4130 H 392.683 -0.960188 4.9375 0
M  V30 4131 H 392.383 0.539415 5.85119 0
M  V30 4132 H 393.907 -0.360477 6.09535 0
M  V30 4133 H 395.321 1.8139 5.43848 0
M  V30 4134 H 393.718 2.60444 5.40638 0
M  V30 4135 H 394.788 2.74167 3.99951 0
M  V30 4136 N 396.131 -1.37776 0.765217 0
M  V30 4137 C 397.378 -1.99849 0.326588 0
M  V30 4138 C 397.706 -1.60746 -1.09504 0
M  V30 4139 O 396.961 -0.84202 -1.76659 0
M  V30 4140 C 397.26 -3.5504 0.410053 0
M  V30 4141 C 396.926 -4.13891 1.78899 0
M  V30 4142 C 395.588 -4.29678 2.16635 0
M  V30 4143 C 397.94 -4.46236 2.69301 0
M  V30 4144 C 395.268 -4.7511 3.44221 0
M  V30 4145 C 397.62 -4.93089 3.9629 0
M  V30 4146 C 396.284 -5.07082 4.34078 0
M  V30 4147 H 395.554 -0.7313 0.119507 0
M  V30 4148 H 398.201 -1.64645 0.977968 0
M  V30 4149 H 396.506 -3.90451 -0.324878 0
M  V30 4150 H 398.203 -4.00966 0.0520699 0
M  V30 4151 H 394.793 -4.02026 1.48569 0
M  V30 4152 H 398.977 -4.3363 2.41409 0
M  V30 4153 H 394.233 -4.84129 3.73402 0
M  V30 4154 H 398.407 -5.17084 4.66472 0
M  V30 4155 H 396.034 -5.42046 5.33001 0
M  V30 4156 N 397.609 -0.515225 -1.4894 0
M  V30 4157 C 398.855 0.0242508 -2.02785 0
M  V30 4158 C 399.188 1.35323 -1.39289 0
M  V30 4159 O 398.463 1.87041 -0.533469 0
M  V30 4160 C 398.746 0.16184 -3.59736 0
M  V30 4161 C 398.599 -1.19127 -4.33738 0
M  V30 4162 C 399.918 0.895719 -4.30888 0
M  V30 4163 H 397.037 0.00733914 -0.736963 0
M  V30 4164 H 399.679 -0.669395 -1.77818 0
M  V30 4165 H 397.829 0.752624 -3.8114 0
M  V30 4166 H 399.501 -1.82202 -4.23792 0
M  V30 4167 H 397.744 -1.77695 -3.95736 0
M  V30 4168 H 398.415 -1.04815 -5.41957 0
M  V30 4169 H 400.891 0.394528 -4.14225 0
M  V30 4170 H 399.767 0.960859 -5.40425 0
M  V30 4171 H 400.028 1.9427 -3.97129 0
M  V30 4172 N 399.087 1.5561 -0.249682 0
M  V30 4173 C 400.327 2.00916 0.37579 0
M  V30 4174 C 400.691 1.13409 1.54927 0
M  V30 4175 O 401.892 1.48183 2.24266 0
M  V30 4176 C 400.163 3.48949 0.772633 0
M  V30 4177 S 401.722 4.16261 1.38824 0
M  V30 4178 H 398.54 0.70112 0.118117 0
M  V30 4179 H 401.142 1.92052 -0.365567 0
M  V30 4180 H 399.846 4.103 -0.090683 0
M  V30 4181 H 399.377 3.61745 1.5461 0
M  V30 4182 H 401.392 4.17778 2.67724 0
M  V30 4183 N 400.565 -0.0233959 1.57583 0
M  V30 4184 C 401.813 -0.711654 1.89156 0
M  V30 4185 C 402.134 -1.75591 0.848096 0
M  V30 4186 O 401.404 -1.95547 -0.117566 0
M  V30 4187 H 399.984 -0.265835 0.698098 0
M  V30 4188 H 402.646 0.0119948 1.94896 0
M  V30 4189 H 401.742 -1.19766 2.88206 0
M  V30 4190 N 402.043 -1.548 -0.295768 0
M  V30 4191 C 403.32 -1.65014 -1.05023 0
M  V30 4192 C 403.7 -0.501805 -2.05049 0
M  V30 4193 O 403.048 0.500869 -2.22943 0
M  V30 4194 C 403.258 -3.03252 -1.72741 0
M  V30 4195 C 404.606 -3.60242 -2.24746 0
M  V30 4196 O 405.63 -3.05737 -1.82765 0
M  V30 4197 O 404.489 -4.55687 -3.01681 0
M  V30 4198 H 401.583 -0.669314 -0.485744 0
M  V30 4199 H 404.129 -1.67144 -0.293438 0
M  V30 4200 H 402.901 -3.7827 -1.00138 0
M  V30 4201 H 402.524 -3.04922 -2.55163 0
M  V30 4202 N 403.521 0.559213 -1.47345 0
M  V30 4203 C 404.431 1.69388 -1.62311 0
M  V30 4204 C 405.447 1.6648 -0.505993 0
M  V30 4205 O 406.623 1.85964 -0.773262 0
M  V30 4206 C 403.688 3.05894 -1.63185 0
M  V30 4207 C 402.749 3.19885 -2.86307 0
M  V30 4208 C 401.982 4.49879 -2.87131 0
M  V30 4209 O 402.205 5.35217 -1.97229 0
M  V30 4210 O 401.139 4.67618 -3.78968 0
M  V30 4211 H 404.965 1.59706 -2.58317 0
M  V30 4212 H 402.55 0.728989 -1.30407 0
M  V30 4213 H 404.432 3.87133 -1.66451 0
M  V30 4214 H 403.107 3.15964 -0.70345 0
M  V30 4215 H 402.014 2.38052 -2.88587 0
M  V30 4216 H 403.347 3.14718 -3.78435 0
M  V30 4217 N 404.999 1.35443 0.805782 0
M  V30 4218 C 406.245 1.28952 1.56522 0
M  V30 4219 C 406.578 -0.135597 1.93726 0
M  V30 4220 O 405.853 -1.08516 1.61414 0
M  V30 4221 C 406.136 2.19678 2.85331 0
M  V30 4222 C 405.989 3.7081 2.54598 0
M  V30 4223 C 407.308 2.09495 3.8704 0
M  V30 4224 H 404.427 0.469764 0.567883 0
M  V30 4225 H 407.069 1.65851 0.927001 0
M  V30 4226 H 405.219 1.8834 3.39795 0
M  V30 4227 H 406.891 4.12593 2.06312 0
M  V30 4228 H 405.134 3.91051 1.8778 0
M  V30 4229 H 405.805 4.29679 3.46525 0
M  V30 4230 H 408.281 2.37045 3.41978 0
M  V30 4231 H 407.157 2.75173 4.74943 0
M  V30 4232 H 407.418 1.07714 4.28777 0
M  V30 4233 N 406.477 -1.02803 1.19454 0
M  V30 4234 C 407.726 -1.7562 0.991996 0
M  V30 4235 C 408.039 -1.89672 -0.477901 0
M  V30 4236 O 409.245 -2.59468 -0.799287 0
M  V30 4237 C 407.701 -3.15812 1.72601 0
M  V30 4238 C 407.309 -3.0981 3.23607 0
M  V30 4239 C 409.053 -3.92918 1.60674 0
M  V30 4240 C 406.96 -4.44939 3.89594 0
M  V30 4241 H 405.89 -0.658352 0.367543 0
M  V30 4242 H 408.541 -1.15044 1.42959 0
M  V30 4243 H 406.923 -3.7686 1.21624 0
M  V30 4244 H 408.097 -2.58138 3.81709 0
M  V30 4245 H 406.412 -2.46201 3.35819 0
M  V30 4246 H 409.009 -4.9287 2.07323 0
M  V30 4247 H 409.352 -4.12502 0.561025 0
M  V30 4248 H 409.885 -3.38472 2.09001 0
M  V30 4249 H 406.624 -4.30559 4.94267 0
M  V30 4250 H 406.144 -4.96664 3.36281 0
M  V30 4251 H 407.823 -5.1382 3.93189 0
M  V30 4252 N 407.956 -0.998596 -1.21925 0
M  V30 4253 C 409.203 -0.677663 -1.90824 0
M  V30 4254 C 409.531 0.790905 -1.77693 0
M  V30 4255 O 408.786 1.58817 -1.14349 0
M  V30 4256 C 409.085 -1.03648 -3.42041 0
M  V30 4257 C 408.751 -2.49825 -3.75364 0
M  V30 4258 C 407.413 -2.8977 -3.8417 0
M  V30 4259 C 409.765 -3.44545 -3.91073 0
M  V30 4260 C 407.093 -4.23412 -4.06127 0
M  V30 4261 C 409.445 -4.77853 -4.14535 0
M  V30 4262 C 408.109 -5.17531 -4.21566 0
M  V30 4263 H 407.379 -0.247975 -0.698276 0
M  V30 4264 H 410.026 -1.25584 -1.44571 0
M  V30 4265 H 408.331 -0.376457 -3.89987 0
M  V30 4266 H 410.028 -0.766113 -3.93614 0
M  V30 4267 H 406.618 -2.17866 -3.69097 0
M  V30 4268 H 410.802 -3.14853 -3.83642 0
M  V30 4269 H 406.058 -4.53734 -4.09799 0
M  V30 4270 H 410.232 -5.51189 -4.25633 0
M  V30 4271 H 407.859 -6.21102 -4.38333 0
M  V30 4272 N 409.434 1.37368 -0.772513 0
M  V30 4273 C 410.659 2.0447 -0.347386 0
M  V30 4274 C 411.084 1.57882 1.0225 0
M  V30 4275 O 410.442 0.73941 1.65537 0
M  V30 4276 C 410.49 3.58369 -0.400479 0
M  V30 4277 O 409.594 4.0803 0.598789 0
M  V30 4278 H 408.935 0.646773 -0.15027 0
M  V30 4279 H 411.465 1.75667 -1.04892 0
M  V30 4280 H 411.475 4.07183 -0.258045 0
M  V30 4281 H 410.15 3.91633 -1.39986 0
M  V30 4282 H 408.727 3.70534 0.419411 0
M  V30 4283 N 410.912 0.523116 1.48665 0
M  V30 4284 C 411.822 -0.247406 2.33292 0
M  V30 4285 C 412.838 -0.945769 1.46052 0
M  V30 4286 O 414.014 -0.922253 1.79043 0
M  V30 4287 C 411.079 -1.28487 3.22012 0
M  V30 4288 C 410.14 -0.597592 4.2512 0
M  V30 4289 C 409.373 -1.58563 5.09601 0
M  V30 4290 O 409.596 -2.81763 4.95949 0
M  V30 4291 O 408.53 -1.12879 5.91221 0
M  V30 4292 H 412.356 0.445869 3.00409 0
M  V30 4293 H 409.941 0.284128 1.46673 0
M  V30 4294 H 411.823 -1.88459 3.7691 0
M  V30 4295 H 410.498 -1.96068 2.57564 0
M  V30 4296 H 409.405 0.0424407 3.74076 0
M  V30 4297 H 410.738 0.0361517 4.92187 0
M  V30 4298 N 412.39 -1.55475 0.257931 0
M  V30 4299 C 413.636 -1.99502 -0.364266 0
M  V30 4300 C 413.969 -1.146 -1.56782 0
M  V30 4301 O 413.244 -0.211968 -1.93342 0
M  V30 4302 C 413.527 -3.51917 -0.763333 0
M  V30 4303 C 413.38 -4.4758 0.446371 0
M  V30 4304 C 414.699 -4.09742 -1.60623 0
M  V30 4305 H 411.818 -0.725277 -0.130929 0
M  V30 4306 H 414.46 -1.8653 0.361446 0
M  V30 4307 H 412.61 -3.63101 -1.38166 0
M  V30 4308 H 414.282 -4.48362 1.08487 0
M  V30 4309 H 412.525 -4.19947 1.08753 0
M  V30 4310 H 413.196 -5.51862 0.123645 0
M  V30 4311 H 415.672 -4.01727 -1.08418 0
M  V30 4312 H 414.548 -5.16631 -1.85429 0
M  V30 4313 H 414.809 -3.58889 -2.58169 0
M  V30 4314 N 413.868 0.0150385 -1.57593 0
M  V30 4315 C 415.093 0.718067 -1.94573 0
M  V30 4316 C 415.518 1.6734 -0.859005 0
M  V30 4317 O 414.876 1.80362 0.184147 0
M  V30 4318 C 414.924 1.43918 -3.30636 0
M  V30 4319 O 414.028 2.55299 -3.23876 0
M  V30 4320 H 413.369 0.192125 -0.635597 0
M  V30 4321 H 415.899 -0.0336708 -2.04572 0
M  V30 4322 H 415.909 1.80598 -3.65853 0
M  V30 4323 H 414.584 0.738619 -4.09289 0
M  V30 4324 H 413.161 2.21058 -3.00312 0
M  V30 4325 N 415.346 1.54954 0.287554 0
M  V30 4326 C 416.757 1.65732 0.859634 0
M  V30 4327 C 417.108 0.574767 1.87592 0
M  V30 4328 O 416.233 -0.286299 2.14498 0
M  V30 4329 C 416.828 3.00438 1.56597 0
M  V30 4330 C 415.387 3.13292 2.08627 0
M  V30 4331 C 414.534 2.61473 0.923416 0
M  V30 4332 H 417.485 1.5857 0.0642338 0
M  V30 4333 H 417.506 2.92613 2.43224 0
M  V30 4334 H 417.018 3.79207 0.826053 0
M  V30 4335 H 415.119 2.39268 2.85625 0
M  V30 4336 H 415.232 4.19647 2.31157 0
M  V30 4337 H 413.596 2.18264 1.31275 0
M  V30 4338 H 414.379 3.42733 0.197241 0
M  V30 4339 N 416.824 -0.551391 1.4764 0
M  V30 4340 C 418.24 -0.877887 1.33287 0
M  V30 4341 C 418.44 -1.98817 0.327721 0
M  V30 4342 O 417.496 -2.51171 -0.258695 0
M  V30 4343 C 418.809 -1.26563 2.72768 0
M  V30 4344 C 420.357 -1.37673 2.81097 0
M  V30 4345 C 420.832 -1.79799 4.21232 0
M  V30 4346 N 422.323 -1.8694 4.23802 0
M  V30 4347 C 423.058 -2.20876 5.29151 0
M  V30 4348 N 422.554 -2.53386 6.448 0
M  V30 4349 N 424.347 -2.217 5.16532 0
M  V30 4350 H 416.498 0.18153 2.11623 0
M  V30 4351 H 418.761 0.0185514 0.947818 0
M  V30 4352 H 418.467 -0.523591 3.47781 0
M  V30 4353 H 418.341 -2.22052 3.04915 0
M  V30 4354 H 420.728 -2.10956 2.06353 0
M  V30 4355 H 420.809 -0.40357 2.52596 0
M  V30 4356 H 420.453 -1.07083 4.96483 0
M  V30 4357 H 420.383 -2.78128 4.4716 0
M  V30 4358 H 422.874 -1.64179 3.40373 0
M  V30 4359 H 423.187 -2.78325 7.20941 0
M  V30 4360 H 421.532 -2.50953 6.48111 0
M  V30 4361 H 424.723 -1.95745 4.25207 0
M  V30 4362 H 424.896 -2.47818 5.98741 0
M  V30 4363 N 418.302 -1.35869 -0.798587 0
M  V30 4364 C 419.713 -1.26498 -1.37314 0
M  V30 4365 C 420.064 0.0991899 -1.95949 0
M  V30 4366 O 419.189 1.0004 -1.91888 0
M  V30 4367 C 419.784 -2.29054 -2.49639 0
M  V30 4368 C 418.343 -2.234 -3.02935 0
M  V30 4369 C 417.49 -2.14329 -1.75949 0
M  V30 4370 H 420.441 -1.46881 -0.600971 0
M  V30 4371 H 420.462 -1.92166 -3.28409 0
M  V30 4372 H 419.974 -3.2833 -2.06933 0
M  V30 4373 H 418.075 -1.27562 -3.50084 0
M  V30 4374 H 418.188 -3.15703 -3.60372 0
M  V30 4375 H 416.552 -1.60435 -1.9782 0
M  V30 4376 H 417.335 -3.15477 -1.35384 0
M  V30 4377 N 419.78 1.02168 -1.19998 0
M  V30 4378 C 420.73 2.08969 -0.911921 0
M  V30 4379 C 421.714 1.60404 0.12621 0
M  V30 4380 O 422.906 1.76817 -0.0804706 0
M  V30 4381 C 420.035 3.402 -0.460277 0
M  V30 4382 C 419.121 3.9548 -1.53155 0
M  V30 4383 N 419.512 4.24332 -2.75275 0
M  V30 4384 C 417.81 4.23572 -1.39653 0
M  V30 4385 C 418.511 4.68834 -3.44339 0
M  V30 4386 N 417.487 4.70804 -2.71744 0
M  V30 4387 H 421.289 2.29178 -1.83997 0
M  V30 4388 H 418.803 1.20094 -1.09322 0
M  V30 4389 H 420.8 4.16235 -0.235337 0
M  V30 4390 H 419.46 3.21408 0.4612 0
M  V30 4391 H 420.471 4.13393 -3.11973 0
M  V30 4392 H 417.148 4.14005 -0.539067 0
M  V30 4393 H 418.538 5.00019 -4.4881 0
M  V30 4394 N 421.258 1.00505 1.21394 0
M  V30 4395 C 422.535 0.603277 1.86064 0
M  V30 4396 C 422.915 -0.919095 1.90042 0
M  V30 4397 O 422.263 -1.80607 1.39977 0
M  V30 4398 C 422.473 1.23772 3.26315 0
M  V30 4399 C 423.821 1.34586 4.02705 0
M  V30 4400 O 424.845 1.19304 3.35626 0
M  V30 4401 O 423.704 1.59169 5.22807 0
M  V30 4402 H 420.798 0.206634 0.800769 0
M  V30 4403 H 423.344 1.1017 1.29076 0
M  V30 4404 H 422.116 2.27848 3.18121 0
M  V30 4405 H 421.739 0.725648 3.90922 0
M  V30 4406 N 422.737 -1.36956 0.779787 0
M  V30 4407 C 423.965 -2.03755 0.359398 0
M  V30 4408 C 424.38 -1.58807 -1.02106 0
M  V30 4409 O 423.737 -0.773024 -1.6532 0
M  V30 4410 C 423.788 -3.59251 0.402568 0
M  V30 4411 O 423.509 -4.02557 1.72858 0
M  V30 4412 C 425.01 -4.43291 -0.0284068 0
M  V30 4413 H 422.23 -0.654148 0.149437 0
M  V30 4414 H 424.774 -1.75128 1.05595 0
M  V30 4415 H 422.929 -3.86621 -0.245478 0
M  V30 4416 H 423.343 -4.97111 1.67275 0
M  V30 4417 H 424.817 -5.51975 0.0529466 0
M  V30 4418 H 425.294 -4.25719 -1.07982 0
M  V30 4419 H 425.9 -4.21163 0.591758 0
M  V30 4420 N 424.215 -0.530993 -1.48385 0
M  V30 4421 C 425.463 0.00273189 -2.021 0
M  V30 4422 C 425.784 1.34672 -1.41027 0
M  V30 4423 O 425.054 1.8724 -0.576012 0
M  V30 4424 H 423.634 0.00399774 -0.746989 0
M  V30 4425 H 426.296 -0.695054 -1.82085 0
M  V30 4426 H 425.392 0.11031 -3.11905 0
M  V30 4427 N 425.693 1.55336 -0.266172 0
M  V30 4428 C 426.626 2.18256 0.666296 0
M  V30 4429 C 427.604 1.14064 1.1588 0
M  V30 4430 O 428.788 1.42546 1.23341 0
M  V30 4431 C 425.915 2.79867 1.90768 0
M  V30 4432 C 424.961 3.97283 1.55141 0
M  V30 4433 S 425.794 5.31694 0.637313 0
M  V30 4434 C 426.95 5.96769 1.88727 0
M  V30 4435 H 427.183 2.97008 0.131647 0
M  V30 4436 H 424.716 1.54317 -0.0504869 0
M  V30 4437 H 426.674 3.15996 2.62025 0
M  V30 4438 H 425.335 2.01025 2.41346 0
M  V30 4439 H 424.528 4.3905 2.4749 0
M  V30 4440 H 424.13 3.6253 0.919113 0
M  V30 4441 H 426.422 6.15458 2.83227 0
M  V30 4442 H 427.365 6.91752 1.51276 0
M  V30 4443 H 427.773 5.26034 2.04814 0
M  V30 4444 N 427.171 -0.0066808 1.57599 0
M  V30 4445 C 428.417 -0.693947 1.90558 0
M  V30 4446 C 428.75 -1.73792 0.866594 0
M  V30 4447 O 428.025 -1.94156 -0.115548 0
M  V30 4448 C 428.308 -1.34317 3.34112 0
M  V30 4449 C 428.161 -0.311189 4.48722 0
M  V30 4450 C 429.48 -2.27116 3.7697 0
M  V30 4451 H 426.599 -0.250803 0.693013 0
M  V30 4452 H 429.241 0.043242 1.89951 0
M  V30 4453 H 427.391 -1.9715 3.3476 0
M  V30 4454 H 429.063 0.316944 4.6021 0
M  V30 4455 H 427.306 0.367253 4.32243 0
M  V30 4456 H 427.977 -0.804366 5.46108 0
M  V30 4457 H 430.453 -1.74306 3.77831 0
M  V30 4458 H 429.329 -2.69511 4.78179 0
M  V30 4459 H 429.59 -3.14743 3.10466 0
M  V30 4460 N 428.649 -1.55105 -0.279332 0
M  V30 4461 C 429.877 -1.7943 -1.03017 0
M  V30 4462 C 430.292 -0.564456 -1.80165 0
M  V30 4463 O 429.649 0.466326 -1.76442 0
M  V30 4464 C 429.7 -3.0155 -1.99374 0
M  V30 4465 O 429.421 -4.19784 -1.25352 0
M  V30 4466 C 430.922 -3.3843 -2.86321 0
M  V30 4467 H 428.142 -0.597882 -0.304594 0
M  V30 4468 H 430.686 -2.02105 -0.312035 0
M  V30 4469 H 428.841 -2.81019 -2.66659 0
M  V30 4470 H 429.255 -4.88781 -1.90246 0
M  V30 4471 H 430.729 -4.27066 -3.49741 0
M  V30 4472 H 431.206 -2.57549 -3.5576 0
M  V30 4473 H 431.812 -3.61197 -2.24536 0
M  V30 4474 N 430.127 0.543554 -1.4793 0
M  V30 4475 C 431.057 1.65888 -1.64327 0
M  V30 4476 C 432.038 1.62818 -0.492383 0
M  V30 4477 O 433.223 1.80226 -0.723338 0
M  V30 4478 C 430.353 3.04506 -1.67013 0
M  V30 4479 C 429.307 3.2243 -2.81466 0
M  V30 4480 C 428.633 4.61972 -2.69233 0
M  V30 4481 C 429.933 3.06496 -4.22915 0
M  V30 4482 H 431.627 1.52421 -2.57698 0
M  V30 4483 H 429.173 0.731849 -1.24016 0
M  V30 4484 H 431.126 3.82391 -1.77074 0
M  V30 4485 H 429.85 3.18964 -0.70212 0
M  V30 4486 H 428.509 2.46957 -2.70938 0
M  V30 4487 H 428.157 4.73247 -1.7043 0
M  V30 4488 H 427.857 4.74911 -3.46025 0
M  V30 4489 H 429.381 5.41974 -2.81242 0
M  V30 4490 H 430.795 3.74186 -4.34348 0
M  V30 4491 H 429.192 3.30938 -5.006 0
M  V30 4492 H 430.262 2.03077 -4.40327 0
M  V30 4493 N 431.605 1.3629 0.791371 0
M  V30 4494 C 432.854 1.29742 1.54434 0
M  V30 4495 C 433.167 -0.121729 1.95221 0
M  V30 4496 O 434.373 -0.309579 2.69729 0
M  V30 4497 C 432.829 2.27623 2.78776 0
M  V30 4498 C 432.437 3.74963 2.45166 0
M  V30 4499 C 434.181 2.30047 3.56761 0
M  V30 4500 C 432.088 4.64626 3.65891 0
M  V30 4501 H 431.018 0.482113 0.579727 0
M  V30 4502 H 433.669 1.61642 0.868565 0
M  V30 4503 H 432.051 1.88714 3.48142 0
M  V30 4504 H 433.225 4.22596 1.83709 0
M  V30 4505 H 431.54 3.75295 1.80396 0
M  V30 4506 H 434.137 2.94247 4.46456 0
M  V30 4507 H 434.48 1.30846 3.95203 0
M  V30 4508 H 435.013 2.67563 2.94372 0
M  V30 4509 H 431.752 5.64883 3.32547 0
M  V30 4510 H 431.272 4.2171 4.26521 0
M  V30 4511 H 432.951 4.80801 4.32943 0
M  V30 4512 N 433.083 -1.0153 1.20538 0
M  V30 4513 C 434.308 -1.79283 1.04271 0
M  V30 4514 C 434.733 -1.8372 -0.403544 0
M  V30 4515 O 434.091 -1.27321 -1.2907 0
M  V30 4516 C 434.139 -3.21535 1.63241 0
M  V30 4517 O 433.243 -4.03099 0.870908 0
M  V30 4518 H 432.584 -0.55293 0.367647 0
M  V30 4519 H 435.114 -1.27696 1.59859 0
M  V30 4520 H 435.124 -3.72243 1.6703 0
M  V30 4521 H 433.799 -3.1762 2.68497 0
M  V30 4522 H 432.376 -3.61693 0.907323 0
M  V30 4523 N 434.561 -1.01147 -1.20859 0
M  V30 4524 C 435.493 -0.535546 -2.22855 0
M  V30 4525 C 436.506 0.379323 -1.58319 0
M  V30 4526 O 437.695 0.178489 -1.77605 0
M  V30 4527 C 434.795 0.240962 -3.38042 0
M  V30 4528 C 433.968 -0.674562 -4.32167 0
M  V30 4529 C 433.027 0.053467 -5.26173 0
M  V30 4530 O 432.053 -0.567339 -5.66366 0
M  V30 4531 N 433.255 1.32997 -5.65059 0
M  V30 4532 H 436.02 -1.41268 -2.64317 0
M  V30 4533 H 433.581 -0.888386 -1.35349 0
M  V30 4534 H 435.573 0.737115 -3.97931 0
M  V30 4535 H 434.143 1.01935 -2.95513 0
M  V30 4536 H 433.363 -1.35111 -3.70322 0
M  V30 4537 H 434.651 -1.2974 -4.91981 0
M  V30 4538 H 434.049 1.85536 -5.34409 0
M  V30 4539 H 432.606 1.77095 -6.2728 0
M  V30 4540 N 436.039 1.36541 -0.78704 0
M  V30 4541 C 437.316 1.9355 -0.282424 0
M  V30 4542 C 437.696 1.71919 1.22503 0
M  V30 4543 O 437.044 1.07677 2.01539 0
M  V30 4544 C 437.254 3.4246 -0.672462 0
M  V30 4545 C 438.602 4.19582 -0.650863 0
M  V30 4546 O 439.626 3.50889 -0.612789 0
M  V30 4547 O 438.485 5.42106 -0.691623 0
M  V30 4548 H 435.579 0.824091 -0.0693 0
M  V30 4549 H 438.125 1.45736 -0.869423 0
M  V30 4550 H 436.897 3.51851 -1.71221 0
M  V30 4551 H 436.52 3.97556 -0.0592211 0
M  V30 4552 N 437.518 0.538854 1.48102 0
M  V30 4553 C 438.448 -0.207654 2.32575 0
M  V30 4554 C 439.429 -0.926559 1.4265 0
M  V30 4555 O 440.614 -0.91061 1.71527 0
M  V30 4556 C 437.744 -1.24957 3.24042 0
M  V30 4557 C 436.698 -0.648263 4.23062 0
M  V30 4558 C 436.024 -1.79348 5.03725 0
M  V30 4559 C 437.324 0.385897 5.20872 0
M  V30 4560 H 439.018 0.497534 2.95237 0
M  V30 4561 H 436.564 0.240715 1.41974 0
M  V30 4562 H 438.517 -1.77983 3.81969 0
M  V30 4563 H 437.241 -1.98446 2.59397 0
M  V30 4564 H 435.9 -0.139452 3.66335 0
M  V30 4565 H 435.548 -2.51696 4.35498 0
M  V30 4566 H 435.248 -1.39702 5.70751 0
M  V30 4567 H 436.772 -2.32735 5.64506 0
M  V30 4568 H 438.186 -0.057607 5.73271 0
M  V30 4569 H 436.583 0.700227 5.96001 0
M  V30 4570 H 437.653 1.28848 4.67468 0
M  V30 4571 N 438.996 -1.55193 0.274407 0
M  V30 4572 C 440.221 -2.04446 -0.348824 0
M  V30 4573 C 440.646 -1.15149 -1.48735 0
M  V30 4574 O 440.004 -0.149952 -1.80679 0
M  V30 4575 C 440.052 -3.51431 -0.808009 0
M  V30 4576 O 439.156 -3.65225 -1.91531 0
M  V30 4577 H 438.497 -0.66006 -0.0722276 0
M  V30 4578 H 441.027 -2.00481 0.408498 0
M  V30 4579 H 441.037 -3.92781 -1.10395 0
M  V30 4580 H 439.712 -4.15892 0.0249865 0
M  V30 4581 H 438.289 -3.35778 -1.62196 0
M  V30 4582 N 440.474 -0.00167713 -1.576 0
M  V30 4583 C 441.384 1.00548 -2.1196 0
M  V30 4584 C 442.4 1.3758 -1.06526 0
M  V30 4585 O 443.576 1.46278 -1.38436 0
M  V30 4586 C 440.641 2.27809 -2.6135 0
M  V30 4587 C 439.702 1.97074 -3.81393 0
M  V30 4588 C 438.935 3.18267 -4.28417 0
M  V30 4589 O 439.158 4.30009 -3.74765 0
M  V30 4590 O 438.092 3.02167 -5.20556 0
M  V30 4591 H 441.918 0.573373 -2.98238 0
M  V30 4592 H 439.503 0.217255 -1.47812 0
M  V30 4593 H 441.385 3.02568 -2.93309 0
M  V30 4594 H 440.06 2.70254 -1.78169 0
M  V30 4595 H 438.967 1.19785 -3.54404 0
M  V30 4596 H 440.3 1.59464 -4.65652 0
M  V30 4597 N 441.952 1.55251 0.271103 0
M  V30 4598 C 443.199 1.75946 1.00245 0
M  V30 4599 C 443.527 0.561611 1.86215 0
M  V30 4600 O 442.782 -0.455832 1.90317 0
M  V30 4601 C 443.081 3.01879 1.91321 0
M  V30 4602 C 442.747 4.34337 1.21086 0
M  V30 4603 C 441.409 4.70338 1.01666 0
M  V30 4604 C 443.761 5.16325 0.71119 0
M  V30 4605 C 441.089 5.8588 0.310099 0
M  V30 4606 C 443.441 6.32597 0.0182157 0
M  V30 4607 C 442.105 6.67236 -0.18768 0
M  V30 4608 H 441.375 0.643833 0.366824 0
M  V30 4609 H 444.022 1.89521 0.27458 0
M  V30 4610 H 442.327 2.83212 2.70736 0
M  V30 4611 H 444.024 3.15088 2.48033 0
M  V30 4612 H 440.614 4.06043 1.37213 0
M  V30 4613 H 444.798 4.88987 0.848844 0
M  V30 4614 H 440.054 6.1124 0.139873 0
M  V30 4615 H 444.228 6.9538 -0.376711 0
M  V30 4616 H 441.855 7.56618 -0.73715 0
M  V30 4617 N 443.43 -0.535701 1.48216 0
M  V30 4618 C 444.393 -1.623 1.61838 0
M  V30 4619 C 445.393 -1.53087 0.492024 0
M  V30 4620 O 446.583 -1.5686 0.757668 0
M  V30 4621 C 443.715 -3.01907 1.58319 0
M  V30 4622 H 444.908 -1.51564 2.58783 0
M  V30 4623 H 442.461 -0.757317 1.36727 0
M  V30 4624 H 443.196 -3.18155 0.628299 0
M  V30 4625 H 442.981 -3.10003 2.40085 0
M  V30 4626 H 444.471 -3.80969 1.71033 0
M  V30 4627 N 444.908 -1.36708 -0.784132 0
M  V30 4628 C 445.838 -1.34153 -1.91116 0
M  V30 4629 C 446.819 -0.212121 -1.68772 0
M  V30 4630 O 448.004 -0.410581 -1.8981 0
M  V30 4631 C 445.134 -1.13535 -3.28218 0
M  V30 4632 C 444.088 -2.23356 -3.65097 0
M  V30 4633 C 443.414 -1.87875 -5.00607 0
M  V30 4634 C 444.714 -3.65473 -3.73131 0
M  V30 4635 H 446.408 -2.28459 -1.93512 0
M  V30 4636 H 443.954 -1.09973 -0.929618 0
M  V30 4637 H 445.907 -1.10381 -4.06687 0
M  V30 4638 H 444.631 -0.156804 -3.26223 0
M  V30 4639 H 443.29 -2.25645 -2.88929 0
M  V30 4640 H 442.938 -0.885814 -4.95139 0
M  V30 4641 H 442.638 -2.61406 -5.26252 0
M  V30 4642 H 444.162 -1.86286 -5.81489 0
M  V30 4643 H 445.576 -3.65382 -4.41779 0
M  V30 4644 H 443.973 -4.37953 -4.10265 0
M  V30 4645 H 445.043 -3.99995 -2.74102 0
M  V30 4646 N 446.386 1.0089 -1.21074 0
M  V30 4647 C 447.336 2.0799 -0.934034 0
M  V30 4648 C 448.32 1.60529 0.10919 0
M  V30 4649 O 449.512 1.76722 -0.0992198 0
M  V30 4650 C 446.641 3.39693 -0.496334 0
M  V30 4651 C 445.727 3.93833 -1.57341 0
M  V30 4652 N 446.118 4.21388 -2.7976 0
M  V30 4653 C 444.416 4.22067 -1.44137 0
M  V30 4654 C 445.117 4.65156 -3.49292 0
M  V30 4655 N 444.093 4.67895 -2.76722 0
M  V30 4656 H 447.895 2.27213 -1.86417 0
M  V30 4657 H 445.409 1.18927 -1.10589 0
M  V30 4658 H 447.406 4.15962 -0.279471 0
M  V30 4659 H 446.066 3.21879 0.427084 0
M  V30 4660 H 447.077 4.10061 -3.1634 0
M  V30 4661 H 443.754 4.1341 -0.582947 0
M  V30 4662 H 445.144 4.95231 -4.54088 0
M  V30 4663 N 447.864 1.01787 1.20321 0
M  V30 4664 C 449.11 0.708985 1.90003 0
M  V30 4665 C 449.443 -0.759572 1.78729 0
M  V30 4666 O 448.718 -1.55198 1.17234 0
M  V30 4667 C 449.001 1.1469 3.41348 0
M  V30 4668 C 448.854 2.67586 3.61549 0
M  V30 4669 C 450.173 0.71915 4.34185 0
M  V30 4670 H 447.292 0.259034 0.689978 0
M  V30 4671 H 449.934 1.26584 1.41692 0
M  V30 4672 H 448.084 0.673128 3.82624 0
M  V30 4673 H 449.756 3.22826 3.29517 0
M  V30 4674 H 447.999 3.085 3.04976 0
M  V30 4675 H 448.67 2.93281 4.67643 0
M  V30 4676 H 451.146 1.12647 4.00562 0
M  V30 4677 H 450.022 1.05358 5.38694 0
M  V30 4678 H 450.283 -0.379111 4.40472 0
M  V30 4679 N 449.342 -1.36122 0.79427 0
M  V30 4680 C 450.758 -1.5232 0.476525 0
M  V30 4681 C 450.958 -1.74685 -1.00436 0
M  V30 4682 O 450.014 -1.78115 -1.78973 0
M  V30 4683 C 451.327 -2.70607 1.31119 0
M  V30 4684 C 452.875 -2.8448 1.30537 0
M  V30 4685 C 453.35 -4.05778 2.12387 0
M  V30 4686 N 454.841 -4.12933 2.09859 0
M  V30 4687 C 455.576 -5.05876 2.69957 0
M  V30 4688 N 455.072 -6.04232 3.38934 0
M  V30 4689 N 456.865 -4.98528 2.59665 0
M  V30 4690 H 449.016 -1.1986 1.75349 0
M  V30 4691 H 451.279 -0.585418 0.745647 0
M  V30 4692 H 450.985 -2.60619 2.36158 0
M  V30 4693 H 450.859 -3.64888 0.955843 0
M  V30 4694 H 453.246 -2.93927 0.262876 0
M  V30 4695 H 453.327 -1.91093 1.70051 0
M  V30 4696 H 452.971 -3.97092 3.1667 0
M  V30 4697 H 452.901 -4.98323 1.70242 0
M  V30 4698 H 455.392 -3.42515 1.59662 0
M  V30 4699 H 455.705 -6.71724 3.82109 0
M  V30 4700 H 454.05 -6.04443 3.43036 0
M  V30 4701 H 457.241 -4.20641 2.05375 0
M  V30 4702 H 457.414 -5.70773 3.06793 0
M  V30 4703 N 450.82 -0.546701 -1.47814 0
M  V30 4704 C 451.783 0.196287 -2.28358 0
M  V30 4705 C 452.783 0.852437 -1.36346 0
M  V30 4706 O 453.973 0.709913 -1.59078 0
M  V30 4707 C 451.105 1.28579 -3.15722 0
M  V30 4708 H 452.298 -0.511086 -2.95513 0
M  V30 4709 H 449.851 -0.303248 -1.5333 0
M  V30 4710 H 450.586 2.0259 -2.53235 0
M  V30 4711 H 450.371 0.820229 -3.83425 0
M  V30 4712 H 451.861 1.80793 -3.76435 0
M  V30 4713 N 452.299 1.55045 -0.282633 0
M  V30 4714 C 453.546 1.9976 0.33199 0
M  V30 4715 C 453.874 1.17105 1.55295 0
M  V30 4716 O 453.129 0.230599 1.94337 0
M  V30 4717 C 453.428 3.49422 0.750938 0
M  V30 4718 C 453.094 4.4941 -0.366228 0
M  V30 4719 C 451.756 4.76471 -0.672964 0
M  V30 4720 C 454.108 5.09054 -1.11864 0
M  V30 4721 C 451.436 5.60442 -1.73556 0
M  V30 4722 C 453.788 5.9418 -2.17102 0
M  V30 4723 C 452.452 6.19558 -2.48402 0
M  V30 4724 H 451.722 0.730974 0.121484 0
M  V30 4725 H 454.369 1.8732 -0.39791 0
M  V30 4726 H 452.674 3.59377 1.56063 0
M  V30 4727 H 454.371 3.81432 1.23736 0
M  V30 4728 H 450.961 4.2844 -0.117041 0
M  V30 4729 H 455.145 4.88165 -0.894925 0
M  V30 4730 H 450.401 5.78349 -1.983 0
M  V30 4731 H 454.575 6.39427 -2.75873 0
M  V30 4732 H 452.202 6.84417 -3.30874 0
M  V30 4733 N 453.777 0.010035 1.57597 0
M  V30 4734 C 454.707 -0.976857 2.12084 0
M  V30 4735 C 455.688 -1.35191 1.03235 0
M  V30 4736 O 456.873 -1.43389 1.3097 0
M  V30 4737 C 454.003 -2.26548 2.63236 0
M  V30 4738 C 452.957 -2.03175 3.76701 0
M  V30 4739 C 452.283 -3.38138 4.14206 0
M  V30 4740 C 453.583 -1.38625 5.03568 0
M  V30 4741 H 455.277 -0.523145 2.94794 0
M  V30 4742 H 452.823 -0.250195 1.4181 0
M  V30 4743 H 454.776 -2.95952 2.99984 0
M  V30 4744 H 453.5 -2.74051 1.77661 0
M  V30 4745 H 452.159 -1.36195 3.40362 0
M  V30 4746 H 451.807 -3.83363 3.25641 0
M  V30 4747 H 451.507 -3.23312 4.90656 0
M  V30 4748 H 453.031 -4.08841 4.53521 0
M  V30 4749 H 454.445 -1.98 5.38023 0
M  V30 4750 H 452.842 -1.34256 5.84889 0
M  V30 4751 H 453.912 -0.356722 4.83586 0
M  V30 4752 N 455.255 -1.55392 -0.262866 0
M  V30 4753 C 456.503 -1.76127 -0.991147 0
M  V30 4754 C 456.824 -0.571083 -1.8645 0
M  V30 4755 O 456.094 0.413698 -1.91482 0
M  V30 4756 H 454.674 -0.649528 -0.368948 0
M  V30 4757 H 457.336 -1.9281 -0.284655 0
M  V30 4758 H 456.432 -2.6663 -1.62219 0
M  V30 4759 N 456.733 0.527833 -1.48498 0
M  V30 4760 C 457.663 1.64136 -1.66077 0
M  V30 4761 C 458.644 1.62286 -0.509625 0
M  V30 4762 O 459.829 1.79449 -0.742413 0
M  V30 4763 C 456.959 3.02717 -1.70234 0
M  V30 4764 C 455.913 3.19426 -2.8487 0
M  V30 4765 C 455.239 4.5909 -2.74118 0
M  V30 4766 C 456.539 3.01993 -4.26142 0
M  V30 4767 H 458.233 1.4968 -2.593 0
M  V30 4768 H 455.779 0.718654 -1.24785 0
M  V30 4769 H 457.732 3.80491 -1.8112 0
M  V30 4770 H 456.456 3.18201 -0.735911 0
M  V30 4771 H 455.115 2.4407 -2.73542 0
M  V30 4772 H 454.763 4.71413 -1.7544 0
M  V30 4773 H 454.463 4.71214 -3.51042 0
M  V30 4774 H 455.987 5.3896 -2.86974 0
M  V30 4775 H 457.401 3.69558 -4.38292 0
M  V30 4776 H 455.798 3.2561 -5.04082 0
M  V30 4777 H 456.868 1.98396 -4.42456 0
M  V30 4778 N 458.211 1.37122 0.776871 0
M  V30 4779 C 459.622 1.28667 1.35284 0
M  V30 4780 C 459.973 -0.0680035 1.96082 0
M  V30 4781 O 459.098 -0.969743 1.93455 0
M  V30 4782 C 459.693 2.32997 2.45963 0
M  V30 4783 C 458.252 2.28191 2.99342 0
M  V30 4784 C 457.399 2.17101 1.72517 0
M  V30 4785 H 460.35 1.47819 0.577527 0
M  V30 4786 H 460.371 1.97366 3.2531 0
M  V30 4787 H 459.883 3.3158 2.01684 0
M  V30 4788 H 457.984 1.33115 3.4801 0
M  V30 4789 H 458.097 3.21397 3.55304 0
M  V30 4790 H 456.461 1.63562 1.95242 0
M  V30 4791 H 457.244 3.17591 1.30348 0
M  V30 4792 N 459.689 -1.00246 1.21608 0
M  V30 4793 C 460.935 -1.74319 1.03638 0
M  V30 4794 C 461.268 -1.89408 -0.428749 0
M  V30 4795 O 460.543 -1.43026 -1.3181 0
M  V30 4796 C 460.826 -3.15431 1.73711 0
M  V30 4797 C 460.679 -3.08049 3.27759 0
M  V30 4798 C 461.998 -4.14407 1.48173 0
M  V30 4799 H 459.117 -0.632741 0.377899 0
M  V30 4800 H 461.759 -1.16853 1.49818 0
M  V30 4801 H 459.909 -3.64493 1.34452 0
M  V30 4802 H 461.581 -2.66681 3.76403 0
M  V30 4803 H 459.824 -2.45088 3.57931 0
M  V30 4804 H 460.495 -4.07862 3.71958 0
M  V30 4805 H 462.971 -3.74061 1.82258 0
M  V30 4806 H 461.847 -5.11279 1.99713 0
M  V30 4807 H 462.108 -4.40174 0.412273 0
M  V30 4808 N 461.167 -1.02423 -1.1978 0
M  V30 4809 C 462.415 -0.716569 -1.8897 0
M  V30 4810 C 462.736 0.756769 -1.79716 0
M  V30 4811 O 462.006 1.5449 -1.20456 0
M  V30 4812 H 460.586 -0.262062 -0.699523 0
M  V30 4813 H 463.248 -1.29747 -1.45436 0
M  V30 4814 H 462.344 -1.00675 -2.95417 0
M  V30 4815 N 462.645 1.35699 -0.801477 0
M  V30 4816 C 463.893 1.9852 -0.37871 0
M  V30 4817 C 464.214 1.63907 1.05638 0
M  V30 4818 O 463.484 0.919013 1.73006 0
M  V30 4819 H 462.064 0.734322 -0.137042 0
M  V30 4820 H 464.726 1.65697 -1.02619 0
M  V30 4821 H 463.822 3.08382 -0.480284 0
M  V30 4822 N 464.123 0.554532 1.47522 0
M  V30 4823 C 465.372 0.0273458 2.01681 0
M  V30 4824 C 465.685 -1.32962 1.43459 0
M  V30 4825 O 466.891 -1.94657 1.89265 0
M  V30 4826 C 465.347 -0.00159057 3.599 0
M  V30 4827 C 464.955 1.35197 4.27113 0
M  V30 4828 C 466.699 -0.476311 4.21819 0
M  V30 4829 C 464.606 1.28229 5.77331 0
M  V30 4830 H 463.536 0.00645269 0.753972 0
M  V30 4831 H 466.187 0.701985 1.69542 0
M  V30 4832 H 464.569 -0.741821 3.8899 0
M  V30 4833 H 465.743 2.1097 4.09668 0
M  V30 4834 H 464.058 1.76441 3.77171 0
M  V30 4835 H 466.655 -0.5468 5.31897 0
M  V30 4836 H 466.998 -1.4877 3.8881 0
M  V30 4837 H 467.531 0.20898 3.97251 0
M  V30 4838 H 464.27 2.26959 6.14955 0
M  V30 4839 H 463.79 0.566314 5.97121 0
M  V30 4840 H 465.469 0.983226 6.39485 0
M  V30 4841 N 465.601 -1.54893 0.290851 0
M  V30 4842 C 467.017 -1.59476 -0.0628432 0
M  V30 4843 C 467.217 -1.30795 -1.5328 0
M  V30 4844 O 466.273 -1.07644 -2.28406 0
M  V30 4845 C 467.586 -2.98928 0.325962 0
M  V30 4846 C 469.134 -3.11799 0.273882 0
M  V30 4847 C 469.609 -4.53544 0.637359 0
M  V30 4848 N 471.1 -4.59433 0.589507 0
M  V30 4849 C 471.835 -5.67164 0.84335 0
M  V30 4850 N 471.331 -6.82975 1.16263 0
M  V30 4851 N 473.124 -5.56786 0.771091 0
M  V30 4852 H 465.275 -1.71798 1.24896 0
M  V30 4853 H 467.538 -0.801879 0.505663 0
M  V30 4854 H 467.244 -3.24805 1.34887 0
M  V30 4855 H 467.118 -3.75793 -0.325441 0
M  V30 4856 H 469.505 -2.85677 -0.739765 0
M  V30 4857 H 469.586 -2.37112 0.959766 0
M  V30 4858 H 469.23 -4.80394 1.64877 0
M  V30 4859 H 469.16 -5.26553 -0.0704866 0
M  V30 4860 H 471.651 -3.76245 0.353252 0
M  V30 4861 H 471.964 -7.61048 1.34257 0
M  V30 4862 H 470.309 -6.84552 1.20057 0
M  V30 4863 H 473.5 -4.65187 0.521383 0
M  V30 4864 H 473.673 -6.40664 0.972295 0
M  V30 4865 N 467.08 -0.0183926 -1.57589 0
M  V30 4866 C 468.012 0.995557 -2.06449 0
M  V30 4867 C 469.025 1.29556 -0.985849 0
M  V30 4868 O 470.214 1.2621 -1.26227 0
M  V30 4869 C 467.314 2.32572 -2.46502 0
M  V30 4870 C 466.487 2.21245 -3.77319 0
M  V30 4871 C 465.546 3.37104 -4.04039 0
M  V30 4872 O 464.572 3.14468 -4.74445 0
M  V30 4873 N 465.774 4.60553 -3.53372 0
M  V30 4874 H 468.539 0.578746 -2.94059 0
M  V30 4875 H 466.1 0.168603 -1.6102 0
M  V30 4876 H 468.092 3.08887 -2.61478 0
M  V30 4877 H 466.662 2.65931 -1.64315 0
M  V30 4878 H 465.882 1.29723 -3.72244 0
M  V30 4879 H 467.17 2.10868 -4.63047 0
M  V30 4880 H 466.568 4.81839 -2.96391 0
M  V30 4881 H 465.125 5.34072 -3.73644 0
M  V30 4882 N 468.558 1.5553 0.254621 0
M  V30 4883 C 469.788 1.80784 1.00004 0
M  V30 4884 C 470.196 0.59071 1.79742 0
M  V30 4885 O 469.539 -0.449988 1.78103 0
M  V30 4886 C 469.601 2.99268 1.99196 0
M  V30 4887 C 469.265 4.35595 1.38224 0
M  V30 4888 C 470.262 5.13884 0.788611 0
M  V30 4889 C 467.947 4.82281 1.40393 0
M  V30 4890 C 469.941 6.37004 0.224783 0
M  V30 4891 C 467.628 6.05351 0.836243 0
M  V30 4892 C 468.626 6.82551 0.24769 0
M  V30 4893 O 468.314 8.03297 -0.311249 0
M  V30 4894 H 468.046 0.60565 0.300274 0
M  V30 4895 H 470.6 2.03411 0.285143 0
M  V30 4896 H 468.83 2.72377 2.74496 0
M  V30 4897 H 470.519 3.11682 2.60018 0
M  V30 4898 H 471.285 4.78938 0.764423 0
M  V30 4899 H 467.164 4.22189 1.85142 0
M  V30 4900 H 470.708 6.97203 -0.235235 0
M  V30 4901 H 466.605 6.39776 0.857733 0
M  V30 4902 H 467.373 8.1825 -0.20237 0
M  V30 4903 N 470.036 -0.519951 1.48776 0
M  V30 4904 C 471.284 -1.2727 1.56993 0
M  V30 4905 C 471.605 -1.9339 0.25004 0
M  V30 4906 O 470.875 -1.81822 -0.729216 0
M  V30 4907 H 469.455 -0.472732 0.578389 0
M  V30 4908 H 472.117 -0.604234 1.85297 0
M  V30 4909 H 471.213 -2.04669 2.3562 0
M  V30 4910 N 471.514 -1.37532 -0.769588 0
M  V30 4911 C 472.925 -1.29382 -1.346 0
M  V30 4912 C 473.276 0.0576039 -1.96115 0
M  V30 4913 O 472.401 0.95947 -1.93967 0
M  V30 4914 C 472.996 -2.34298 -2.44724 0
M  V30 4915 C 471.555 -2.29776 -2.98128 0
M  V30 4916 C 470.702 -2.18013 -1.71364 0
M  V30 4917 H 473.653 -1.48123 -0.56968 0
M  V30 4918 H 473.674 -1.99089 -3.24259 0
M  V30 4919 H 473.186 -3.32645 -1.99922 0
M  V30 4920 H 471.287 -1.34959 -3.47299 0
M  V30 4921 H 471.4 -3.23276 -3.53595 0
M  V30 4922 H 469.764 -1.64595 -1.94372 0
M  V30 4923 H 470.547 -3.18278 -1.28662 0
M  V30 4924 N 472.992 0.995999 -1.22138 0
M  V30 4925 C 473.955 2.06711 -0.990109 0
M  V30 4926 C 474.955 1.60744 0.0422978 0
M  V30 4927 O 476.145 1.73095 -0.195895 0
M  V30 4928 C 473.277 3.37288 -0.49491 0
M  V30 4929 H 474.47 2.28661 -1.94047 0
M  V30 4930 H 472.023 1.16711 -1.03963 0
M  V30 4931 H 472.758 3.21022 0.459948 0
M  V30 4932 H 472.543 3.71986 -1.23971 0
M  V30 4933 H 474.033 4.16103 -0.353253 0
M  V30 4934 N 474.47 1.03057 1.19235 0
M  V30 4935 C 475.433 0.617418 2.20727 0
M  V30 4936 C 476.433 -0.319856 1.57587 0
M  V30 4937 O 477.623 -0.106633 1.73873 0
M  V30 4938 C 474.755 -0.096296 3.40764 0
M  V30 4939 H 475.948 1.51544 2.58794 0
M  V30 4940 H 473.501 0.821949 1.32942 0
M  V30 4941 H 474.236 -1.00859 3.08217 0
M  V30 4942 H 474.021 0.577217 3.87828 0
M  V30 4943 H 475.511 -0.372219 4.15938 0
M  V30 4944 N 475.948 -1.35272 0.808662 0
M  V30 4945 C 477.173 -2.03477 0.401475 0
M  V30 4946 C 477.598 -1.60537 -0.980279 0
M  V30 4947 O 476.956 -0.78304 -1.63518 0
M  V30 4948 C 477.004 -3.57181 0.495354 0
M  V30 4949 O 476.108 -4.09474 -0.490397 0
M  V30 4950 H 475.449 -0.642561 0.167366 0
M  V30 4951 H 477.979 -1.72824 1.09512 0
M  V30 4952 H 477.989 -4.06356 0.365912 0
M  V30 4953 H 476.664 -3.87784 1.5032 0
M  V30 4954 H 475.241 -3.71516 -0.321023 0
M  V30 4955 N 477.426 -0.562348 -1.47226 0
M  V30 4956 C 478.389 0.172056 -2.28553 0
M  V30 4957 C 479.389 0.837928 -1.37242 0
M  V30 4958 O 480.579 0.693001 -1.59822 0
M  V30 4959 C 477.711 1.25223 -3.17068 0
M  V30 4960 H 478.904 -0.542401 -2.94954 0
M  V30 4961 H 476.457 -0.319493 -1.53 0
M  V30 4962 H 477.192 1.99892 -2.55369 0
M  V30 4963 H 476.977 0.779515 -3.84273 0
M  V30 4964 H 478.467 1.76791 -3.78332 0
M  V30 4965 N 478.904 1.54736 -0.299062 0
M  V30 4966 C 480.15 2.00397 0.311244 0
M  V30 4967 C 480.483 1.18716 1.53688 0
M  V30 4968 O 479.758 0.263154 1.92712 0
M  V30 4969 C 480.041 3.53817 0.669761 0
M  V30 4970 C 479.894 4.46239 -0.564882 0
M  V30 4971 C 481.213 4.13856 1.49702 0
M  V30 4972 H 478.332 0.728493 0.111653 0
M  V30 4973 H 480.974 1.85506 -0.410774 0
M  V30 4974 H 479.124 3.66637 1.28491 0
M  V30 4975 H 480.796 4.45328 -1.20337 0
M  V30 4976 H 479.039 4.16916 -1.19849 0
M  V30 4977 H 479.71 5.5134 -0.269918 0
M  V30 4978 H 482.186 4.04461 0.977284 0
M  V30 4979 H 481.062 5.21365 1.71666 0
M  V30 4980 H 481.323 3.65608 2.48563 0
M  V30 4981 N 480.382 0.0267497 1.57577 0
M  V30 4982 C 481.631 -0.651736 1.9088 0
M  V30 4983 C 481.944 -1.73427 0.904576 0
M  V30 4984 O 483.15 -2.46923 1.12877 0
M  V30 4985 C 481.606 -1.21048 3.38933 0
M  V30 4986 C 481.214 -0.161362 4.47709 0
M  V30 4987 C 482.958 -1.86562 3.81307 0
M  V30 4988 C 480.865 -0.731611 5.86857 0
M  V30 4989 H 479.795 -0.247198 0.712326 0
M  V30 4990 H 482.446 0.0916641 1.83271 0
M  V30 4991 H 480.828 -2.00542 3.41466 0
M  V30 4992 H 482.002 0.61094 4.56732 0
M  V30 4993 H 480.317 0.394877 4.14523 0
M  V30 4994 H 482.914 -2.30178 4.8262 0
M  V30 4995 H 483.257 -2.70735 3.16241 0
M  V30 4996 H 483.79 -1.13762 3.81186 0
M  V30 4997 H 480.529 0.0719329 6.55461 0
M  V30 4998 H 480.049 -1.47245 5.81445 0
M  V30 4999 H 481.728 -1.22208 6.35354 0
M  V30 5000 N 481.861 -1.55662 -0.24637 0
M  V30 5001 C 482.791 -1.93377 -1.30873 0
M  V30 5002 C 483.772 -0.798773 -1.50179 0
M  V30 5003 O 484.957 -1.0591 -1.62778 0
M  V30 5004 C 482.087 -2.22893 -2.66338 0
M  V30 5005 C 481.041 -3.38649 -2.61727 0
M  V30 5006 C 480.367 -3.53708 -4.00992 0
M  V30 5007 C 481.667 -4.74323 -2.18666 0
M  V30 5008 H 483.361 -2.82363 -0.995552 0
M  V30 5009 H 480.907 -1.35854 -0.477464 0
M  V30 5010 H 482.86 -2.47866 -3.40794 0
M  V30 5011 H 481.584 -1.30733 -2.99293 0
M  V30 5012 H 480.243 -3.13685 -1.89729 0
M  V30 5013 H 479.891 -2.58967 -4.31214 0
M  V30 5014 H 479.591 -4.31551 -3.98795 0
M  V30 5015 H 481.115 -3.81003 -4.77147 0
M  V30 5016 H 482.529 -4.98665 -2.82854 0
M  V30 5017 H 480.926 -5.55273 -2.27579 0
M  V30 5018 H 481.996 -4.71349 -1.13834 0
M  V30 5019 N 483.339 0.512053 -1.4905 0
M  V30 5020 C 484.75 1.09376 -1.51307 0
M  V30 5021 C 485.101 1.94 -0.292971 0
M  V30 5022 O 484.226 2.07965 0.598277 0
M  V30 5023 C 484.821 1.99031 -2.74176 0
M  V30 5024 C 483.38 2.52385 -2.79247 0
M  V30 5025 C 482.527 1.29749 -2.45073 0
M  V30 5026 H 485.478 0.296467 -1.55906 0
M  V30 5027 H 485.499 2.83569 -2.53711 0
M  V30 5028 H 485.011 1.37412 -3.62959 0
M  V30 5029 H 483.112 3.17673 -1.94716 0
M  V30 5030 H 483.225 2.90293 -3.81139 0
M  V30 5031 H 481.589 1.61912 -1.96612 0
M  V30 5032 H 482.372 0.698555 -3.36118 0
M  V30 5033 N 484.817 1.37938 0.762283 0
M  V30 5034 C 485.749 1.30349 1.88525 0
M  V30 5035 C 486.762 0.217402 1.61342 0
M  V30 5036 O 487.951 0.474291 1.72084 0
M  V30 5037 C 485.051 0.994844 3.23969 0
M  V30 5038 C 484.224 2.18829 3.78725 0
M  V30 5039 C 483.283 1.84844 4.92665 0
M  V30 5040 O 482.309 2.57244 5.07754 0
M  V30 5041 N 483.511 0.798201 5.74986 0
M  V30 5042 H 486.276 2.27114 1.95549 0
M  V30 5043 H 483.837 1.31686 0.941825 0
M  V30 5044 H 485.829 0.748168 3.97724 0
M  V30 5045 H 484.399 0.115446 3.12387 0
M  V30 5046 H 483.619 2.59615 2.96637 0
M  V30 5047 H 484.907 2.98497 4.1204 0
M  V30 5048 H 484.305 0.197611 5.65355 0
M  V30 5049 H 482.862 0.611396 6.48926 0
M  V30 5050 N 486.295 -0.989507 1.22664 0
M  V30 5051 C 487.225 -2.09847 1.02404 0
M  V30 5052 C 488.206 -1.70007 -0.0561303 0
M  V30 5053 O 489.391 -1.93906 0.106748 0
M  V30 5054 C 486.521 -3.41996 0.604663 0
M  V30 5055 C 485.475 -3.95699 1.63115 0
M  V30 5056 C 484.801 -5.23936 1.0675 0
M  V30 5057 C 486.101 -4.25999 3.02196 0
M  V30 5058 H 487.795 -2.27054 1.95158 0
M  V30 5059 H 485.341 -1.09111 0.939727 0
M  V30 5060 H 487.294 -4.1899 0.45002 0
M  V30 5061 H 486.018 -3.24626 -0.35855 0
M  V30 5062 H 484.677 -3.2084 1.77362 0
M  V30 5063 H 484.325 -5.02909 0.0955422 0
M  V30 5064 H 484.025 -5.60833 1.75328 0
M  V30 5065 H 485.549 -6.0356 0.924516 0
M  V30 5066 H 486.963 -4.93777 2.91303 0
M  V30 5067 H 485.36 -4.74076 3.67929 0
M  V30 5068 H 486.43 -3.33636 3.51873 0
M  V30 5069 N 487.773 -1.03688 -1.18687 0
M  V30 5070 C 489.001 -0.757918 -1.92518 0
M  V30 5071 C 489.416 0.684398 -1.75959 0
M  V30 5072 O 488.773 1.46617 -1.08673 0
M  V30 5073 C 488.824 -1.10985 -3.44042 0
M  V30 5074 O 488.545 -2.49554 -3.60076 0
M  V30 5075 C 490.046 -0.854844 -4.3498 0
M  V30 5076 H 487.266 -0.276699 -0.611293 0
M  V30 5077 H 489.81 -1.38352 -1.50595 0
M  V30 5078 H 487.965 -0.529279 -3.83767 0
M  V30 5079 H 488.379 -2.6291 -4.53849 0
M  V30 5080 H 489.853 -1.15098 -5.39867 0
M  V30 5081 H 490.33 0.210507 -4.38695 0
M  V30 5082 H 490.936 -1.41853 -4.00946 0
M  V30 5083 N 489.251 1.34841 -0.815825 0
M  V30 5084 C 490.476 2.03261 -0.41226 0
M  V30 5085 C 490.901 1.61055 0.971751 0
M  V30 5086 O 490.259 0.7917 1.63101 0
M  V30 5087 C 490.307 3.56914 -0.514289 0
M  V30 5088 O 489.411 4.09728 0.468675 0
M  V30 5089 H 488.752 0.641664 -0.170771 0
M  V30 5090 H 491.282 1.72241 -1.10427 0
M  V30 5091 H 491.292 4.06156 -0.387457 0
M  V30 5092 H 489.967 3.86982 -1.52375 0
M  V30 5093 H 488.544 3.71681 0.301316 0
M  V30 5094 N 490.729 0.570148 1.46925 0
M  V30 5095 C 491.661 -0.207909 2.28255 0
M  V30 5096 C 492.674 -0.867301 1.37774 0
M  V30 5097 O 493.863 -0.738976 1.62485 0
M  V30 5098 C 490.963 -1.31298 3.12433 0
M  V30 5099 C 490.136 -0.747915 4.30958 0
M  V30 5100 C 489.195 -1.7391 4.9663 0
M  V30 5101 O 488.221 -1.2801 5.54619 0
M  V30 5102 N 489.423 -3.07288 4.92498 0
M  V30 5103 H 492.188 0.489794 2.95671 0
M  V30 5104 H 489.749 0.407076 1.56699 0
M  V30 5105 H 491.741 -1.97507 3.53232 0
M  V30 5106 H 490.311 -1.91373 2.47175 0
M  V30 5107 H 489.531 0.0913066 3.94094 0
M  V30 5108 H 490.819 -0.349958 5.07595 0
M  V30 5109 H 490.217 -3.47213 4.46609 0
M  V30 5110 H 488.774 -3.69021 5.37277 0
M  V30 5111 N 492.207 -1.54576 0.307264 0
M  V30 5112 C 493.155 -2.25208 -0.581723 0
M  V30 5113 C 494.149 -1.26031 -1.13192 0
M  V30 5114 O 495.355 -1.43862 -1.08184 0
M  V30 5115 H 491.73 -0.723173 -0.206214 0
M  V30 5116 H 493.701 -2.98378 0.0364663 0
M  V30 5117 C 492.45 -3.01086 -1.73904 0
M  V30 5118 H 491.773 -3.77208 -1.32491 0
M  V30 5119 H 493.213 -3.5378 -2.33701 0
M  V30 5120 C 491.672 -2.08422 -2.64692 0
M  V30 5121 O 492.202 -1.65636 -3.65961 0
M  V30 5122 N 490.408 -1.74247 -2.32564 0
M  V30 5123 H 489.955 -2.09238 -1.50257 0
M  V30 5124 H 489.913 -1.12524 -2.93574 0
M  V30 5125 N 493.685 -0.035106 -1.57561 0
M  V30 5126 C 494.931 0.64318 -1.92331 0
M  V30 5127 C 495.264 1.71434 -0.912368 0
M  V30 5128 O 494.539 1.94395 0.0640303 0
M  V30 5129 C 494.822 1.25411 -3.37556 0
M  V30 5130 C 494.675 0.192109 -4.4939 0
M  V30 5131 C 495.994 2.17041 -3.82859 0
M  V30 5132 H 493.113 0.232341 -0.699419 0
M  V30 5133 H 495.755 -0.0935889 -1.89769 0
M  V30 5134 H 493.905 1.88205 -3.39869 0
M  V30 5135 H 495.577 -0.438849 -4.59208 0
M  V30 5136 H 493.82 -0.481725 -4.31117 0
M  V30 5137 H 494.491 0.659292 -5.48049 0
M  V30 5138 H 496.967 1.64228 -3.8232 0
M  V30 5139 H 495.843 2.56738 -4.85157 0
M  V30 5140 H 496.104 3.06401 -3.18702 0
M  V30 5141 N 495.163 1.55791 0.238111 0
M  V30 5142 C 496.391 1.82098 0.982233 0
M  V30 5143 C 496.806 0.612025 1.78605 0
M  V30 5144 O 496.163 -0.419381 1.77616 0
M  V30 5145 C 496.214 3.0673 1.91309 0
M  V30 5146 O 495.935 4.2296 1.14179 0
M  V30 5147 C 497.436 3.45903 2.77248 0
M  V30 5148 H 494.656 0.605748 0.288635 0
M  V30 5149 H 497.2 2.02862 0.258341 0
M  V30 5150 H 495.355 2.87991 2.59114 0
M  V30 5151 H 495.769 4.93653 1.7722 0
M  V30 5152 H 497.243 4.36189 3.38295 0
M  V30 5153 H 497.72 2.66891 3.48806 0
M  V30 5154 H 498.326 3.67024 2.14881 0
M  V30 5155 N 496.642 -0.504142 1.49319 0
M  V30 5156 C 497.889 -1.25846 1.58647 0
M  V30 5157 C 498.217 -1.92592 0.27177 0
M  V30 5158 O 497.472 -1.81167 -0.74007 0
M  V30 5159 C 497.771 -2.35021 2.69258 0
M  V30 5160 C 497.437 -1.85755 4.1086 0
M  V30 5161 C 496.099 -1.72038 4.49395 0
M  V30 5162 C 498.451 -1.48844 4.99495 0
M  V30 5163 C 495.779 -1.19783 5.74342 0
M  V30 5164 C 498.131 -0.980422 6.24956 0
M  V30 5165 C 496.795 -0.829622 6.62324 0
M  V30 5166 H 496.065 -0.460505 0.580531 0
M  V30 5167 H 498.712 -0.559716 1.83138 0
M  V30 5168 H 497.017 -3.10672 2.38726 0
M  V30 5169 H 498.714 -2.93083 2.73685 0
M  V30 5170 H 495.304 -1.9739 3.80441 0
M  V30 5171 H 499.488 -1.5829 4.70381 0
M  V30 5172 H 494.744 -1.06817 6.01997 0
M  V30 5173 H 498.918 -0.685608 6.93017 0
M  V30 5174 H 496.545 -0.42253 7.59025 0
M  V30 5175 N 498.12 -1.38341 -0.754957 0
M  V30 5176 C 499.397 -1.24995 -1.50451 0
M  V30 5177 C 499.777 0.149244 -2.10572 0
M  V30 5178 O 499.125 1.15861 -1.96948 0
M  V30 5179 C 499.335 -2.35904 -2.57197 0
M  V30 5180 C 500.683 -2.74262 -3.24138 0
M  V30 5181 O 501.707 -2.35205 -2.67501 0
M  V30 5182 O 500.566 -3.4161 -4.26574 0
M  V30 5183 H 497.66 -0.48872 -0.667144 0
M  V30 5184 H 500.206 -1.50165 -0.790486 0
M  V30 5185 H 498.978 -3.2953 -2.11011 0
M  V30 5186 H 498.601 -2.12291 -3.36182 0
M  V30 5187 N 499.598 0.982988 -1.23187 0
M  V30 5188 C 500.546 2.09616 -1.00817 0
M  V30 5189 C 501.54 1.6932 0.0519995 0
M  V30 5190 O 502.746 1.79715 -0.101284 0
M  V30 5191 H 499.121 0.685628 -0.308899 0
M  V30 5192 H 501.092 2.25652 -1.95253 0
M  V30 5193 C 499.841 3.42249 -0.613243 0
M  V30 5194 H 499.164 3.73705 -1.42073 0
M  V30 5195 H 500.604 4.21086 -0.496208 0
M  V30 5196 C 499.063 3.30002 0.678233 0
M  V30 5197 O 499.593 3.6263 1.72807 0
M  V30 5198 N 497.799 2.83164 0.653165 0
M  V30 5199 H 497.346 2.56811 -0.201492 0
M  V30 5200 H 497.304 2.75352 1.51752 0
M  V30 5201 N 501.076 1.04316 1.18135 0
M  V30 5202 C 502.322 0.749128 1.88457 0
M  V30 5203 C 502.655 -0.72149 1.803 0
M  V30 5204 O 501.93 -1.52676 1.205 0
M  V30 5205 C 502.213 1.21905 3.38838 0
M  V30 5206 C 502.066 2.75195 3.55792 0
M  V30 5207 C 503.385 0.811085 4.32561 0
M  V30 5208 H 500.504 0.273611 0.684329 0
M  V30 5209 H 503.146 1.29561 1.38975 0
M  V30 5210 H 501.296 0.754137 3.8111 0
M  V30 5211 H 502.968 3.29743 3.22595 0
M  V30 5212 H 501.211 3.14899 2.98364 0
M  V30 5213 H 501.882 3.03135 4.61317 0
M  V30 5214 H 504.358 1.21118 3.98082 0
M  V30 5215 H 503.234 1.16761 5.36338 0
M  V30 5216 H 503.495 -0.285596 4.41177 0
M  V30 5217 N 502.554 -1.34406 0.822964 0
M  V30 5218 C 503.486 -2.28305 0.202375 0
M  V30 5219 C 504.499 -1.5103 -0.60777 0
M  V30 5220 O 505.688 -1.73057 -0.437444 0
M  V30 5221 C 502.788 -3.30836 -0.734911 0
M  V30 5222 C 501.961 -4.37388 0.0324177 0
M  V30 5223 C 501.02 -5.1968 -0.825803 0
M  V30 5224 O 500.046 -5.68556 -0.270771 0
M  V30 5225 N 501.248 -5.39393 -2.14558 0
M  V30 5226 H 504.013 -2.82201 1.00909 0
M  V30 5227 H 501.574 -1.4693 0.67993 0
M  V30 5228 H 503.566 -3.82786 -1.31365 0
M  V30 5229 H 502.136 -2.77334 -1.44238 0
M  V30 5230 H 501.356 -3.86152 0.792469 0
M  V30 5231 H 502.644 -5.05702 0.560633 0
M  V30 5232 H 502.042 -5.01357 -2.62025 0
M  V30 5233 H 500.599 -5.94461 -2.67318 0
M  V30 5234 N 504.032 -0.577932 -1.46621 0
M  V30 5235 C 504.98 0.170882 -2.31971 0
M  V30 5236 C 505.974 0.889086 -1.44193 0
M  V30 5237 O 507.18 0.808017 -1.60845 0
M  V30 5238 H 503.555 0.0739763 -0.748353 0
M  V30 5239 H 505.526 -0.567856 -2.92947 0
M  V30 5240 C 504.275 1.17438 -3.27267 0
M  V30 5241 H 503.598 0.63116 -3.94787 0
M  V30 5242 H 505.038 1.66882 -3.89778 0
M  V30 5243 C 503.497 2.23292 -2.52274 0
M  V30 5244 O 504.027 3.30567 -2.28229 0
M  V30 5245 N 502.233 1.97772 -2.12919 0
M  V30 5246 H 501.78 1.10545 -2.32675 0
M  V30 5247 H 501.738 2.68809 -1.63062 0
M  V30 5248 N 505.51 1.54411 -0.315457 0
M  V30 5249 C 506.473 2.22713 0.54142 0
M  V30 5250 C 507.473 1.2179 1.04995 0
M  V30 5251 O 508.663 1.46426 0.943667 0
M  V30 5252 C 505.795 2.92485 1.75116 0
M  V30 5253 H 506.988 2.99849 -0.0555508 0
M  V30 5254 H 504.541 1.56159 -0.0664453 0
M  V30 5255 H 505.276 2.19466 2.38758 0
M  V30 5256 H 505.061 3.66483 1.39401 0
M  V30 5257 H 506.551 3.44548 2.35959 0
M  V30 5258 N 506.988 0.0434614 1.5754 0
M  V30 5259 C 508.234 -0.632971 1.92669 0
M  V30 5260 C 508.567 -1.70947 0.921446 0
M  V30 5261 O 507.842 -1.94426 -0.0537202 0
M  V30 5262 C 508.125 -1.23619 3.38216 0
M  V30 5263 C 507.978 -0.168274 4.49485 0
M  V30 5264 C 509.297 -2.15008 3.84005 0
M  V30 5265 H 506.416 -0.228629 0.700641 0
M  V30 5266 H 509.058 0.103651 1.89717 0
M  V30 5267 H 507.208 -1.864 3.40863 0
M  V30 5268 H 508.88 0.463196 4.58969 0
M  V30 5269 H 507.123 0.504581 4.30855 0
M  V30 5270 H 507.794 -0.630218 5.48391 0
M  V30 5271 H 510.27 -1.62198 3.83185 0
M  V30 5272 H 509.146 -2.54161 4.86511 0
M  V30 5273 H 509.407 -3.04707 3.20322 0
M  V30 5274 N 508.466 -1.55915 -0.229846 0
M  V30 5275 C 509.714 -1.7819 -0.953565 0
M  V30 5276 C 510.035 -0.610504 -1.85197 0
M  V30 5277 O 509.305 0.372988 -1.92316 0
M  V30 5278 H 507.885 -0.657208 -0.355087 0
M  V30 5279 H 510.547 -1.9337 -0.243693 0
M  V30 5280 H 509.643 -2.70011 -1.56527 0
M  V30 5281 N 509.944 0.496216 -1.49584 0
M  V30 5282 C 510.907 1.57952 -1.66084 0
M  V30 5283 C 511.907 1.51729 -0.53244 0
M  V30 5284 O 513.097 1.54796 -0.79899 0
M  V30 5285 C 510.229 2.97604 -1.66268 0
M  V30 5286 H 511.422 1.44649 -2.6271 0
M  V30 5287 H 508.975 0.7208 -1.38687 0
M  V30 5288 H 509.71 3.16378 -0.712432 0
M  V30 5289 H 509.495 3.03528 -2.4822 0
M  V30 5290 H 510.985 3.76301 -1.81073 0
M  V30 5291 N 511.423 1.38739 0.74761 0
M  V30 5292 C 512.7 1.25791 1.49786 0
M  V30 5293 C 513.08 -0.138075 2.10648 0
M  V30 5294 O 512.428 -1.14815 1.9756 0
M  V30 5295 C 512.638 2.37265 2.55942 0
M  V30 5296 C 513.986 2.75978 3.22679 0
M  V30 5297 O 515.01 2.36621 2.6625 0
M  V30 5298 O 513.869 3.43867 4.24756 0
M  V30 5299 H 510.963 0.492251 0.664543 0
M  V30 5300 H 513.509 1.50582 0.782511 0
M  V30 5301 H 512.281 3.30644 2.0926 0
M  V30 5302 H 511.904 2.14071 3.35051 0
M  V30 5303 N 512.901 -0.976442 1.23707 0
M  V30 5304 C 513.831 -2.08749 1.04624 0
M  V30 5305 C 514.812 -1.70057 -0.0380956 0
M  V30 5306 O 515.997 -1.93782 0.127308 0
M  V30 5307 C 513.127 -3.41335 0.640902 0
M  V30 5308 C 512.081 -3.93947 1.67302 0
M  V30 5309 C 511.407 -5.22774 1.12301 0
M  V30 5310 C 512.707 -4.22769 3.06697 0
M  V30 5311 H 514.401 -2.24972 1.97555 0
M  V30 5312 H 511.947 -1.08108 0.951247 0
M  V30 5313 H 513.9 -4.18489 0.494434 0
M  V30 5314 H 512.624 -3.24988 -0.324099 0
M  V30 5315 H 511.283 -3.18941 1.80755 0
M  V30 5316 H 510.931 -5.0278 0.148877 0
M  V30 5317 H 510.631 -5.58942 1.81267 0
M  V30 5318 H 512.155 -6.02546 0.988479 0
M  V30 5319 H 513.569 -4.90659 2.96524 0
M  V30 5320 H 511.966 -4.70147 3.72937 0
M  V30 5321 H 513.036 -3.29885 3.55392 0
M  V30 5322 N 514.379 -1.04941 -1.1758 0
M  V30 5323 C 515.311 -0.606174 -2.21039 0
M  V30 5324 C 516.324 0.328763 -1.59446 0
M  V30 5325 O 517.513 0.121895 -1.78083 0
M  V30 5326 C 514.613 0.133294 -3.38638 0
M  V30 5327 C 513.786 -0.811711 -4.29802 0
M  V30 5328 C 512.845 -0.113958 -5.26077 0
M  V30 5329 O 511.871 -0.747237 -5.64274 0
M  V30 5330 N 513.073 1.14953 -5.69004 0
M  V30 5331 H 515.838 -1.49606 -2.59689 0
M  V30 5332 H 513.399 -0.930997 -1.32454 0
M  V30 5333 H 515.391 0.610144 -4.00074 0
M  V30 5334 H 513.961 0.924816 -2.98607 0
M  V30 5335 H 513.181 -1.46824 -3.65837 0
M  V30 5336 H 514.469 -1.45326 -4.87604 0
M  V30 5337 H 513.867 1.68441 -5.40041 0
M  V30 5338 H 512.424 1.57049 -6.32597 0
M  V30 5339 N 515.857 1.33968 -0.830081 0
M  V30 5340 C 517.106 1.97323 -0.417928 0
M  V30 5341 C 517.419 1.6652 1.02618 0
M  V30 5342 O 518.625 2.2342 1.54259 0
M  V30 5343 C 517.081 3.53099 -0.696359 0
M  V30 5344 C 516.689 3.92788 -2.15457 0
M  V30 5345 C 518.433 4.23049 -0.350724 0
M  V30 5346 C 516.34 5.41506 -2.37751 0
M  V30 5347 H 515.27 0.738409 -0.152541 0
M  V30 5348 H 517.921 1.52711 -1.01744 0
M  V30 5349 H 516.303 3.95991 -0.0265904 0
M  V30 5350 H 517.477 3.6098 -2.86408 0
M  V30 5351 H 515.792 3.35795 -2.46232 0
M  V30 5352 H 518.389 5.32403 -0.495036 0
M  V30 5353 H 518.732 4.10279 0.705476 0
M  V30 5354 H 519.265 3.85657 -0.975362 0
M  V30 5355 H 516.004 5.5927 -3.41903 0
M  V30 5356 H 515.524 5.74804 -1.7135 0
M  V30 5357 H 517.203 6.0828 -2.20465 0
M  V30 5358 N 517.335 0.585699 1.46312 0
M  V30 5359 C 518.751 0.247607 1.57668 0
M  V30 5360 C 518.951 -1.25007 1.58037 0
M  V30 5361 O 518.007 -2.03196 1.49893 0
M  V30 5362 C 519.32 0.899456 2.86933 0
M  V30 5363 C 520.868 0.873326 3.00569 0
M  V30 5364 C 521.343 1.50477 4.32574 0
M  V30 5365 N 522.834 1.46925 4.3928 0
M  V30 5366 C 523.569 1.92719 5.40044 0
M  V30 5367 N 523.065 2.46499 6.47464 0
M  V30 5368 N 524.858 1.83617 5.31264 0
M  V30 5369 H 517.009 1.55841 1.44317 0
M  V30 5370 H 519.272 0.651564 0.688599 0
M  V30 5371 H 518.978 1.95313 2.92482 0
M  V30 5372 H 518.852 0.409476 3.74971 0
M  V30 5373 H 521.239 -0.171736 2.946 0
M  V30 5374 H 521.32 1.40136 2.13999 0
M  V30 5375 H 520.964 2.54905 4.39302 0
M  V30 5376 H 520.894 0.951944 5.17924 0
M  V30 5377 H 523.385 1.07616 3.62253 0
M  V30 5378 H 523.698 2.79291 7.20567 0
M  V30 5379 H 522.043 2.50526 6.48276 0
M  V30 5380 H 525.234 1.41358 4.46246 0
M  V30 5381 H 525.407 2.19622 6.09648 0
M  V30 5382 N 518.813 -1.54241 0.323641 0
M  V30 5383 C 519.743 -2.27289 -0.534993 0
M  V30 5384 C 520.724 -1.28087 -1.11927 0
M  V30 5385 O 521.909 -1.56899 -1.14439 0
M  V30 5386 C 519.039 -3.03075 -1.69596 0
M  V30 5387 C 517.993 -4.09614 -1.24098 0
M  V30 5388 C 517.319 -4.73242 -2.4889 0
M  V30 5389 C 518.619 -5.21087 -0.355789 0
M  V30 5390 H 520.313 -2.99308 0.0743257 0
M  V30 5391 H 517.859 -1.43952 0.0371874 0
M  V30 5392 H 519.812 -3.52907 -2.30293 0
M  V30 5393 H 518.536 -2.28673 -2.33187 0
M  V30 5394 H 517.195 -3.60666 -0.656945 0
M  V30 5395 H 516.843 -3.95455 -3.10845 0
M  V30 5396 H 516.543 -5.45209 -2.19138 0
M  V30 5397 H 518.067 -5.25848 -3.10348 0
M  V30 5398 H 519.481 -5.66675 -0.869042 0
M  V30 5399 H 517.878 -5.9991 -0.151045 0
M  V30 5400 H 518.948 -4.81005 0.613339 0
M  V30 5401 N 520.291 -0.0518155 -1.57515 0
M  V30 5402 C 521.538 0.621823 -1.92716 0
M  V30 5403 C 521.866 1.70813 -0.930229 0
M  V30 5404 O 521.121 1.95616 0.0573708 0
M  V30 5405 C 521.42 1.25607 -3.34601 0
M  V30 5406 C 521.086 0.297901 -4.49915 0
M  V30 5407 C 519.748 0.034243 -4.81188 0
M  V30 5408 C 522.1 -0.358738 -5.19964 0
M  V30 5409 C 519.428 -0.893479 -5.79857 0
M  V30 5410 C 521.78 -1.27466 -6.19625 0
M  V30 5411 C 520.444 -1.54698 -6.49326 0
M  V30 5412 H 519.714 0.227541 -0.705199 0
M  V30 5413 H 522.361 -0.118432 -1.91133 0
M  V30 5414 H 520.666 2.07161 -3.32553 0
M  V30 5415 H 522.363 1.78424 -3.59118 0
M  V30 5416 H 518.953 0.513581 -4.25512 0
M  V30 5417 H 523.137 -0.168133 -4.96015 0
M  V30 5418 H 518.393 -1.11193 -6.01204 0
M  V30 5419 H 522.567 -1.78953 -6.73015 0
M  V30 5420 H 520.194 -2.26748 -7.25596 0
M  V30 5421 N 521.769 1.56035 0.221574 0
M  V30 5422 C 523.017 1.78693 0.944102 0
M  V30 5423 C 523.338 0.620317 1.8487 0
M  V30 5424 O 522.608 -0.362784 1.92512 0
M  V30 5425 H 521.188 0.659082 0.351597 0
M  V30 5426 H 523.85 1.93497 0.233435 0
M  V30 5427 H 522.946 2.70837 1.55093 0
M  V30 5428 N 523.247 -0.488276 1.49845 0
M  V30 5429 C 524.194 -1.58836 1.67451 0
M  V30 5430 C 525.164 -1.57886 0.515857 0
M  V30 5431 O 526.349 -1.75679 0.744403 0
M  V30 5432 C 523.489 -2.96915 1.75885 0
M  V30 5433 C 522.602 -3.07784 3.03138 0
M  V30 5434 C 521.737 -4.36673 3.02473 0
M  V30 5435 C 520.776 -4.41222 4.24252 0
M  V30 5436 N 519.913 -5.61557 4.21424 0
M  V30 5437 H 524.753 -1.43131 2.61376 0
M  V30 5438 H 522.29 -0.696186 1.29583 0
M  V30 5439 H 524.248 -3.76965 1.78755 0
M  V30 5440 H 522.878 -3.11295 0.85414 0
M  V30 5441 H 521.93 -2.20717 3.09819 0
M  V30 5442 H 523.242 -3.07005 3.93128 0
M  V30 5443 H 522.396 -5.25055 3.03977 0
M  V30 5444 H 521.135 -4.40037 2.10283 0
M  V30 5445 H 520.14 -3.5124 4.22978 0
M  V30 5446 H 521.365 -4.39564 5.17649 0
M  V30 5447 H 519.311 -5.65738 3.32078 0
M  V30 5448 H 519.228 -5.62447 5.05163 0
M  V30 5449 H 520.496 -6.52111 4.2705 0
M  V30 5450 N 524.725 -1.39134 -0.740242 0
M  V30 5451 C 526.136 -1.32208 -1.31825 0
M  V30 5452 C 526.487 0.0159919 -1.96193 0
M  V30 5453 O 525.612 0.918111 -1.95958 0
M  V30 5454 C 526.207 -2.39436 -2.39699 0
M  V30 5455 C 524.766 -2.36048 -2.93187 0
M  V30 5456 C 523.913 -2.21599 -1.66701 0
M  V30 5457 H 526.864 -1.49298 -0.538133 0
M  V30 5458 H 526.885 -2.05922 -3.19963 0
M  V30 5459 H 526.397 -3.36811 -1.92821 0
M  V30 5460 H 524.498 -1.42295 -3.44359 0
M  V30 5461 H 524.611 -3.30704 -3.46658 0
M  V30 5462 H 522.975 -1.68681 -1.90837 0
M  V30 5463 H 523.758 -3.20936 -1.21882 0
M  V30 5464 N 526.204 0.969867 -1.24223 0
M  V30 5465 C 527.114 2.09806 -1.0497 0
M  V30 5466 C 528.13 1.73998 0.00886455 0
M  V30 5467 O 529.306 2.00513 -0.188848 0
M  V30 5468 C 526.371 3.40467 -0.654452 0
M  V30 5469 C 525.432 3.90236 -1.78926 0
M  V30 5470 C 524.665 5.14662 -1.41277 0
M  V30 5471 O 524.888 5.69602 -0.301632 0
M  V30 5472 O 523.822 5.58761 -2.23763 0
M  V30 5473 H 527.648 2.28942 -1.99548 0
M  V30 5474 H 525.233 1.08197 -1.03023 0
M  V30 5475 H 527.115 4.19039 -0.445452 0
M  V30 5476 H 525.79 3.22636 0.262216 0
M  V30 5477 H 524.697 3.12735 -2.05299 0
M  V30 5478 H 526.03 4.1254 -2.68462 0
M  V30 5479 N 527.682 1.05563 1.17022 0
M  V30 5480 C 528.931 0.763036 1.8671 0
M  V30 5481 C 529.244 -0.712857 1.82147 0
M  V30 5482 O 530.45 -1.11955 2.47343 0
M  V30 5483 C 528.906 1.31474 3.35026 0
M  V30 5484 C 528.514 2.82034 3.48081 0
M  V30 5485 C 530.258 1.09935 4.10018 0
M  V30 5486 C 528.165 3.30486 4.90442 0
M  V30 5487 H 527.095 0.281747 0.699382 0
M  V30 5488 H 529.746 1.2734 1.32124 0
M  V30 5489 H 528.128 0.732171 3.89173 0
M  V30 5490 H 529.302 3.46178 3.04133 0
M  V30 5491 H 527.617 3.02156 2.86515 0
M  V30 5492 H 530.214 1.43632 5.15048 0
M  V30 5493 H 530.557 0.0373072 4.16283 0
M  V30 5494 H 531.09 1.64732 3.62089 0
M  V30 5495 H 527.829 4.36137 4.89352 0
M  V30 5496 H 527.349 2.71086 5.35044 0
M  V30 5497 H 529.028 3.25382 5.59227 0
M  V30 5498 N 529.16 -1.33526 0.837174 0
M  V30 5499 C 530.437 -1.92369 0.354065 0
M  V30 5500 C 530.817 -1.76348 -1.16038 0
M  V30 5501 O 530.165 -1.15083 -1.97403 0
M  V30 5502 C 530.375 -3.39728 0.799101 0
M  V30 5503 C 531.723 -4.16877 0.806139 0
M  V30 5504 O 532.747 -3.48373 0.742597 0
M  V30 5505 O 531.606 -5.39166 0.892345 0
M  V30 5506 H 528.7 -0.820952 0.0998378 0
M  V30 5507 H 531.246 -1.42409 0.922913 0
M  V30 5508 H 530.018 -3.45254 1.84162 0
M  V30 5509 H 529.641 -3.97062 0.206731 0
M  V30 5510 N 530.638 -0.59345 -1.46 0
M  V30 5511 C 531.886 -0.082988 -2.0193 0
M  V30 5512 C 532.207 1.28569 -1.46612 0
M  V30 5513 O 531.477 1.84629 -0.654909 0
M  V30 5514 H 530.057 -0.0276882 -0.746487 0
M  V30 5515 H 532.719 -0.771657 -1.78973 0
M  V30 5516 H 531.815 -0.022079 -3.12092 0
M  V30 5517 N 532.116 1.54067 -0.331816 0
M  V30 5518 C 533.341 2.05599 0.272705 0
M  V30 5519 C 533.766 1.2059 1.44359 0
M  V30 5520 O 533.124 0.216907 1.79998 0
M  V30 5521 C 533.172 3.54188 0.677021 0
M  V30 5522 O 532.276 3.72082 1.77844 0
M  V30 5523 H 531.617 0.662286 0.0476801 0
M  V30 5524 H 534.147 1.98826 -0.482624 0
M  V30 5525 H 534.157 3.96608 0.957415 0
M  V30 5526 H 532.832 4.15513 -0.179325 0
M  V30 5527 H 531.409 3.41566 1.49622 0
M  V30 5528 N 533.594 0.0601682 1.57485 0
M  V30 5529 C 535.01 -0.296422 1.56823 0
M  V30 5530 C 535.21 -1.70831 1.0686 0
M  V30 5531 O 534.266 -2.4174 0.729245 0
M  V30 5532 C 535.579 -0.116681 3.00474 0
M  V30 5533 C 537.127 -0.187103 3.1244 0
M  V30 5534 C 537.602 -0.035783 4.57986 0
M  V30 5535 N 539.093 -0.0917676 4.63109 0
M  V30 5536 C 539.828 0.00107251 5.734 0
M  V30 5537 N 539.324 0.146773 6.92645 0
M  V30 5538 N 541.117 -0.0551577 5.62073 0
M  V30 5539 H 533.268 0.983055 1.88281 0
M  V30 5540 H 535.531 0.382386 0.867459 0
M  V30 5541 H 535.237 0.85712 3.41096 0
M  V30 5542 H 535.111 -0.873929 3.66936 0
M  V30 5543 H 537.498 -1.15138 2.71712 0
M  V30 5544 H 537.579 0.601052 2.48638 0
M  V30 5545 H 537.223 0.925212 4.99402 0
M  V30 5546 H 537.153 -0.843196 5.19806 0
M  V30 5547 H 539.644 -0.203261 3.77353 0
M  V30 5548 H 539.957 0.210076 7.72514 0
M  V30 5549 H 538.302 0.181979 6.94762 0
M  V30 5550 H 541.493 -0.167605 4.678 0
M  V30 5551 H 541.666 0.020652 6.47997 0
M  V30 5552 N 535.072 -1.5615 -0.213296 0
M  V30 5553 C 536.488 -1.49327 -0.56336 0
M  V30 5554 C 536.688 -0.756826 -1.86747 0
M  V30 5555 O 535.744 -0.299866 -2.50713 0
M  V30 5556 C 537.057 -2.9392 -0.634944 0
M  V30 5557 C 538.605 -3.04487 -0.725013 0
M  V30 5558 C 539.08 -4.50456 -0.82787 0
M  V30 5559 N 540.571 -4.54533 -0.891876 0
M  V30 5560 C 541.306 -5.64766 -0.991315 0
M  V30 5561 N 540.802 -6.84733 -1.05419 0
M  V30 5562 N 542.595 -5.52637 -1.02709 0
M  V30 5563 H 534.746 -2.02453 0.642366 0
M  V30 5564 H 537.009 -0.920548 0.226487 0
M  V30 5565 H 536.715 -3.50783 0.253859 0
M  V30 5566 H 536.589 -3.46274 -1.49579 0
M  V30 5567 H 538.976 -2.47685 -1.60425 0
M  V30 5568 H 539.057 -2.55289 0.161669 0
M  V30 5569 H 538.701 -5.07878 0.0469464 0
M  V30 5570 H 538.631 -4.97369 -1.73009 0
M  V30 5571 H 541.122 -3.68141 -0.85327 0
M  V30 5572 H 541.435 -7.64493 -1.13007 0
M  V30 5573 H 539.78 -6.87427 -1.02318 0
M  V30 5574 H 542.971 -4.5784 -0.974687 0
M  V30 5575 H 543.144 -6.38576 -1.10113 0
M  V30 5576 N 536.55 0.480323 -1.50102 0
M  V30 5577 C 537.48 1.58769 -1.71215 0
M  V30 5578 C 538.461 1.60583 -0.560997 0
M  V30 5579 O 539.646 1.76996 -0.799127 0
M  V30 5580 C 536.776 2.97148 -1.79778 0
M  V30 5581 C 535.73 3.10201 -2.94888 0
M  V30 5582 C 535.056 4.50137 -2.88584 0
M  V30 5583 C 536.356 2.88283 -4.35534 0
M  V30 5584 H 538.05 1.41354 -2.6393 0
M  V30 5585 H 535.596 0.678591 -1.27008 0
M  V30 5586 H 537.549 3.74536 -1.93133 0
M  V30 5587 H 536.273 3.15699 -0.836772 0
M  V30 5588 H 534.932 2.35244 -2.81169 0
M  V30 5589 H 534.58 4.65593 -1.90349 0
M  V30 5590 H 534.28 4.59808 -3.65856 0
M  V30 5591 H 535.804 5.29558 -3.03976 0
M  V30 5592 H 537.218 3.55427 -4.49827 0
M  V30 5593 H 535.615 3.09408 -5.14186 0
M  V30 5594 H 536.685 1.84219 -4.48544 0
M  V30 5595 N 538.028 1.39524 0.732853 0
M  V30 5596 C 539.276 1.36594 1.48951 0
M  V30 5597 C 539.597 -0.0367507 1.94965 0
M  V30 5598 O 538.867 -0.988391 1.69138 0
M  V30 5599 H 537.447 0.502673 0.552566 0
M  V30 5600 H 540.109 1.74411 0.869869 0
M  V30 5601 H 539.205 2.03 2.3706 0
M  V30 5602 N 539.506 -0.963266 1.24736 0
M  V30 5603 C 540.752 -1.70933 1.09131 0
M  V30 5604 C 541.085 -1.90676 -0.368273 0
M  V30 5605 O 540.36 -1.47147 -1.27193 0
M  V30 5606 C 540.643 -3.09744 1.83658 0
M  V30 5607 C 540.496 -2.97465 3.37394 0
M  V30 5608 C 541.815 -4.09483 1.61282 0
M  V30 5609 H 538.934 -0.620398 0.397838 0
M  V30 5610 H 541.576 -1.12028 1.53459 0
M  V30 5611 H 539.726 -3.60031 1.4598 0
M  V30 5612 H 541.398 -2.54571 3.84696 0
M  V30 5613 H 539.641 -2.33576 3.65547 0
M  V30 5614 H 540.312 -3.95822 3.84745 0
M  V30 5615 H 542.788 -3.68073 1.94066 0
M  V30 5616 H 541.664 -5.04666 2.15878 0
M  V30 5617 H 541.925 -4.38639 0.552102 0
M  V30 5618 N 540.985 -1.06182 -1.16461 0
M  V30 5619 C 541.948 -0.675723 -2.19013 0
M  V30 5620 C 542.948 0.277963 -1.58379 0
M  V30 5621 O 544.138 0.0604962 -1.74095 0
M  V30 5622 C 541.27 0.00591459 -3.40899 0
M  V30 5623 H 542.463 -1.58353 -2.54685 0
M  V30 5624 H 540.016 -0.856908 -1.30716 0
M  V30 5625 H 540.751 0.92652 -3.10783 0
M  V30 5626 H 540.536 -0.67984 -3.86161 0
M  V30 5627 H 542.026 0.26181 -4.16778 0
M  V30 5628 N 542.463 1.3308 -0.844243 0
M  V30 5629 C 543.393 2.3161 -0.296493 0
M  V30 5630 C 544.374 1.59215 0.598707 0
M  V30 5631 O 545.559 1.87077 0.521134 0
M  V30 5632 C 542.689 3.43313 0.524762 0
M  V30 5633 C 541.643 4.27115 -0.275106 0
M  V30 5634 C 540.969 5.30483 0.670236 0
M  V30 5635 C 542.269 5.00443 -1.49514 0
M  V30 5636 H 543.963 2.77672 -1.11976 0
M  V30 5637 H 541.509 1.33496 -0.539899 0
M  V30 5638 H 543.462 4.11273 0.918298 0
M  V30 5639 H 542.186 2.95952 1.3813 0
M  V30 5640 H 540.845 3.60787 -0.650267 0
M  V30 5641 H 540.493 4.79379 1.52332 0
M  V30 5642 H 540.193 5.87435 0.139123 0
M  V30 5643 H 541.717 6.01308 1.06117 0
M  V30 5644 H 543.131 5.61141 -1.17447 0
M  V30 5645 H 541.528 5.67071 -1.96343 0
M  V30 5646 H 542.598 4.28906 -2.26202 0
M  V30 5647 N 543.941 0.601185 1.45683 0
M  V30 5648 C 544.904 -0.111398 2.28929 0
M  V30 5649 C 545.904 -0.801246 1.39416 0
M  V30 5650 O 547.094 -0.650383 1.61603 0
M  V30 5651 C 544.226 -1.16773 3.20276 0
M  V30 5652 H 545.419 0.620412 2.93413 0
M  V30 5653 H 542.972 0.359946 1.52099 0
M  V30 5654 H 543.707 -1.93051 2.60579 0
M  V30 5655 H 543.492 -0.677358 3.86205 0
M  V30 5656 H 544.982 -1.66698 3.82886 0
M  V30 5657 N 545.419 -1.53889 0.339982 0
M  V30 5658 C 546.647 -2.05271 -0.259114 0
M  V30 5659 C 547.062 -1.21517 -1.44496 0
M  V30 5660 O 546.419 -0.24966 -1.80784 0
M  V30 5661 C 546.47 -3.55092 -0.677634 0
M  V30 5662 O 546.191 -4.35667 0.461051 0
M  V30 5663 C 547.692 -4.22631 -1.33782 0
M  V30 5664 H 544.912 -0.669085 -0.0506566 0
M  V30 5665 H 547.456 -1.9852 0.490935 0
M  V30 5666 H 545.611 -3.62077 -1.37763 0
M  V30 5667 H 546.025 -5.24343 0.128144 0
M  V30 5668 H 547.499 -5.28861 -1.58145 0
M  V30 5669 H 547.976 -3.74758 -2.29027 0
M  V30 5670 H 548.582 -4.19829 -0.679957 0
M  V30 5671 N 546.897 -0.0685191 -1.57451 0
M  V30 5672 C 547.86 0.885173 -2.11417 0
M  V30 5673 C 548.86 1.22853 -1.03748 0
M  V30 5674 O 550.05 1.16235 -1.2975 0
M  V30 5675 C 547.182 2.18964 -2.61281 0
M  V30 5676 H 548.375 0.417034 -2.96986 0
M  V30 5677 H 545.928 0.18014 -1.55258 0
M  V30 5678 H 546.663 2.70321 -1.79156 0
M  V30 5679 H 546.448 1.9534 -3.39977 0
M  V30 5680 H 547.938 2.87242 -3.0312 0
M  V30 5681 N 548.375 1.56261 0.205012 0
M  V30 5682 C 549.285 1.96944 1.27476 0
M  V30 5683 C 550.301 0.875636 1.50362 0
M  V30 5684 O 551.477 1.18058 1.6317 0
M  V30 5685 C 548.542 2.29219 2.60115 0
M  V30 5686 C 547.603 3.52255 2.45387 0
M  V30 5687 C 546.836 3.8298 3.71701 0
M  V30 5688 O 547.059 3.15138 4.75441 0
M  V30 5689 O 545.993 4.76435 3.67823 0
M  V30 5690 H 549.819 2.88144 0.959527 0
M  V30 5691 H 547.404 1.43686 0.409217 0
M  V30 5692 H 549.286 2.51098 3.3842 0
M  V30 5693 H 547.961 1.4119 2.91285 0
M  V30 5694 H 546.868 3.35635 1.65227 0
M  V30 5695 H 548.201 4.40719 2.19152 0
M  V30 5696 N 549.853 -0.472356 1.50355 0
M  V30 5697 C 551.078 -1.25251 1.65309 0
M  V30 5698 C 551.503 -1.85081 0.335643 0
M  V30 5699 O 550.861 -1.67227 -0.700335 0
M  V30 5700 C 550.909 -2.3379 2.74544 0
M  V30 5701 O 550.013 -3.38401 2.35709 0
M  V30 5702 H 549.354 -0.368539 0.552336 0
M  V30 5703 H 551.884 -0.562271 1.96722 0
M  V30 5704 H 551.894 -2.79121 2.97583 0
M  V30 5705 H 550.569 -1.89614 3.70161 0
M  V30 5706 H 549.146 -2.9879 2.23112 0
M  V30 5707 N 551.331 -1.39911 -0.725443 0
M  V30 5708 C 552.577 -1.37858 -1.48738 0
M  V30 5709 C 552.91 0.0224187 -1.94187 0
M  V30 5710 O 552.185 0.989204 -1.67466 0
M  V30 5711 C 552.468 -2.3594 -2.72038 0
M  V30 5712 C 552.321 -3.85023 -2.32546 0
M  V30 5713 C 553.64 -2.31704 -3.74167 0
M  V30 5714 H 550.759 -0.502074 -0.539528 0
M  V30 5715 H 553.401 -1.70974 -0.828728 0
M  V30 5716 H 551.551 -2.0783 -3.28236 0
M  V30 5717 H 553.223 -4.2392 -1.81905 0
M  V30 5718 H 551.466 -4.01334 -1.64661 0
M  V30 5719 H 552.137 -4.49152 -3.20884 0
M  V30 5720 H 554.613 -2.5658 -3.27576 0
M  V30 5721 H 553.489 -3.02395 -4.58092 0
M  V30 5722 H 553.75 -1.3253 -4.21768 0
M  V30 5723 N 552.809 0.956637 -1.25245 0
M  V30 5724 C 554.055 1.70352 -1.10036 0
M  V30 5725 C 554.388 1.90869 0.358156 0
M  V30 5726 O 553.663 1.47819 1.26411 0
M  V30 5727 C 553.946 3.08766 -1.85298 0
M  V30 5728 C 553.799 2.95672 -3.38966 0
M  V30 5729 C 555.118 4.08622 -1.63451 0
M  V30 5730 H 552.237 0.618279 -0.401123 0
M  V30 5731 H 554.879 1.11212 -1.54051 0
M  V30 5732 H 553.029 3.59252 -1.47887 0
M  V30 5733 H 554.701 2.52527 -3.86041 0
M  V30 5734 H 552.944 2.31634 -3.6678 0
M  V30 5735 H 553.615 3.93776 -3.86839 0
M  V30 5736 H 556.091 3.67038 -1.96015 0
M  V30 5737 H 554.967 5.03514 -2.18551 0
M  V30 5738 H 555.228 4.3834 -0.575357 0
M  V30 5739 N 554.287 1.06798 1.15896 0
M  V30 5740 C 555.564 0.701057 1.82605 0
M  V30 5741 C 555.944 -0.817066 1.94646 0
M  V30 5742 O 555.292 -1.72933 1.49353 0
M  V30 5743 C 555.502 1.40895 3.19296 0
M  V30 5744 C 556.85 1.55744 3.95005 0
M  V30 5745 O 557.874 1.36927 3.28831 0
M  V30 5746 O 556.733 1.86658 5.13635 0
M  V30 5747 H 553.827 0.248791 0.78869 0
M  V30 5748 H 556.373 1.16857 1.23055 0
M  V30 5749 H 555.145 2.4439 3.05596 0
M  V30 5750 H 554.768 0.931847 3.86526 0
M  V30 5751 N 555.766 -1.3263 0.851289 0
M  V30 5752 C 556.729 -2.27247 0.298541 0
M  V30 5753 C 557.729 -1.51467 -0.539847 0
M  V30 5754 O 558.919 -1.7061 -0.351843 0
M  V30 5755 C 556.051 -3.35964 -0.578004 0
M  V30 5756 H 557.244 -2.7765 1.13359 0
M  V30 5757 H 554.797 -1.43245 0.625354 0
M  V30 5758 H 555.532 -2.90823 -1.435 0
M  V30 5759 H 555.317 -3.92094 0.0220539 0
M  V30 5760 H 556.807 -4.06472 -0.957626 0
M  V30 5761 N 557.244 -0.608902 -1.45362 0
M  V30 5762 C 558.493 -0.10218 -2.01441 0
M  V30 5763 C 558.806 1.27546 -1.48295 0
M  V30 5764 O 560.012 1.87498 -1.96359 0
M  V30 5765 C 558.468 -0.131985 -3.59658 0
M  V30 5766 C 558.076 -1.50956 -4.21801 0
M  V30 5767 C 559.82 0.319427 -4.23296 0
M  V30 5768 C 557.727 -1.49568 -5.72174 0
M  V30 5769 H 556.657 -0.0344314 -0.753213 0
M  V30 5770 H 559.308 -0.764426 -1.6682 0
M  V30 5771 H 557.69 0.596939 -3.91475 0
M  V30 5772 H 558.864 -2.26029 -4.01556 0
M  V30 5773 H 557.179 -1.90318 -3.70362 0
M  V30 5774 H 559.776 0.349013 -5.3356 0
M  V30 5775 H 560.119 1.34237 -3.94064 0
M  V30 5776 H 560.652 -0.356273 -3.96201 0
M  V30 5777 H 557.391 -2.49626 -6.06108 0
M  V30 5778 H 556.911 -0.787542 -5.94607 0
M  V30 5779 H 558.59 -1.21989 -6.35396 0
M  V30 5780 N 558.722 1.53707 -0.348139 0
M  V30 5781 C 559.632 2.28881 0.514857 0
M  V30 5782 C 560.648 1.34168 1.10793 0
M  V30 5783 O 561.824 1.6721 1.12262 0
M  V30 5784 C 558.889 3.05042 1.64774 0
M  V30 5785 C 557.95 4.15389 1.08398 0
M  V30 5786 C 557.183 4.87909 2.16287 0
M  V30 5787 O 557.406 4.60137 3.3709 0
M  V30 5788 O 556.34 5.74254 1.80323 0
M  V30 5789 H 560.166 3.03547 -0.0963699 0
M  V30 5790 H 557.751 1.48972 -0.113043 0
M  V30 5791 H 559.633 3.52656 2.30677 0
M  V30 5792 H 558.308 2.33228 2.24469 0
M  V30 5793 H 557.215 3.72068 0.389341 0
M  V30 5794 H 558.548 4.89318 0.531829 0
M  V30 5795 N 560.2 0.0768682 1.57412 0
M  V30 5796 C 561.616 -0.279772 1.57129 0
M  V30 5797 C 561.816 -1.69688 1.08666 0
M  V30 5798 O 560.872 -2.40953 0.754843 0
M  V30 5799 C 562.185 -0.0848055 3.0058 0
M  V30 5800 C 563.733 -0.153954 3.12621 0
M  V30 5801 C 564.208 0.0127946 4.57998 0
M  V30 5802 N 565.699 -0.0426435 4.6318 0
M  V30 5803 C 566.434 0.0618892 5.73367 0
M  V30 5804 N 565.93 0.220229 6.9245 0
M  V30 5805 N 567.723 0.00446072 5.621 0
M  V30 5806 H 559.874 1.00297 1.87228 0
M  V30 5807 H 562.137 0.391565 0.863354 0
M  V30 5808 H 561.843 0.89325 3.40168 0
M  V30 5809 H 561.717 -0.834961 3.67843 0
M  V30 5810 H 564.104 -1.1225 2.72917 0
M  V30 5811 H 564.185 0.627389 2.47987 0
M  V30 5812 H 563.829 0.978128 4.98392 0
M  V30 5813 H 563.759 -0.788016 5.20671 0
M  V30 5814 H 566.25 -0.163226 3.77547 0
M  V30 5815 H 566.563 0.291999 7.72248 0
M  V30 5816 H 564.908 0.255658 6.9453 0
M  V30 5817 H 568.099 -0.117979 4.67951 0
M  V30 5818 H 568.272 0.0893796 6.47938 0
M  V30 5819 N 561.678 -1.56367 -0.196722 0
M  V30 5820 C 562.641 -1.93561 -1.22746 0
M  V30 5821 C 563.641 -0.816566 -1.38524 0
M  V30 5822 O 564.831 -1.084 -1.36363 0
M  V30 5823 C 561.963 -2.20823 -2.59712 0
M  V30 5824 H 563.156 -2.85774 -0.909586 0
M  V30 5825 H 560.709 -1.50032 -0.438174 0
M  V30 5826 H 561.444 -1.31243 -2.96557 0
M  V30 5827 H 561.229 -3.02368 -2.49632 0
M  V30 5828 H 562.719 -2.50608 -3.34044 0
M  V30 5829 N 563.156 0.464375 -1.50603 0
M  V30 5830 C 564.103 1.56152 -1.69956 0
M  V30 5831 C 565.073 1.57046 -0.54091 0
M  V30 5832 O 566.258 1.74473 -0.772258 0
M  V30 5833 C 563.398 2.94079 -1.80586 0
M  V30 5834 C 562.511 3.02923 -3.07996 0
M  V30 5835 C 561.646 4.31806 -3.09382 0
M  V30 5836 C 560.685 4.34417 -4.31218 0
M  V30 5837 N 559.822 5.54782 -4.30304 0
M  V30 5838 H 564.662 1.38955 -2.6362 0
M  V30 5839 H 562.199 0.675482 -1.30674 0
M  V30 5840 H 564.157 3.74073 -1.8473 0
M  V30 5841 H 562.787 3.09896 -0.903556 0
M  V30 5842 H 561.839 2.1576 -3.13292 0
M  V30 5843 H 563.151 3.00712 -3.97962 0
M  V30 5844 H 562.305 5.20153 -3.12292 0
M  V30 5845 H 561.044 4.36636 -2.17257 0
M  V30 5846 H 560.049 3.44467 -4.28512 0
M  V30 5847 H 561.274 4.31273 -5.24576 0
M  V30 5848 H 559.22 5.60384 -3.41037 0
M  V30 5849 H 559.137 5.54339 -5.14047 0
M  V30 5850 H 560.405 6.45235 -4.3737 0
M  V30 5851 N 564.634 1.40294 0.718013 0
M  V30 5852 C 565.584 1.36847 1.82365 0
M  V30 5853 C 566.568 0.246424 1.59002 0
M  V30 5854 O 567.76 0.485336 1.70216 0
M  V30 5855 C 564.889 1.23105 3.20469 0
M  V30 5856 C 563.975 2.4008 3.49603 0
M  V30 5857 N 564.366 3.65562 3.49568 0
M  V30 5858 C 562.664 2.33407 3.80049 0
M  V30 5859 C 563.365 4.43015 3.76978 0
M  V30 5860 N 562.341 3.72823 3.95606 0
M  V30 5861 H 566.143 2.31811 1.80668 0
M  V30 5862 H 563.657 1.34031 0.91703 0
M  V30 5863 H 565.654 1.18718 3.9964 0
M  V30 5864 H 564.314 0.291056 3.23393 0
M  V30 5865 H 565.325 3.98756 3.30476 0
M  V30 5866 H 562.002 1.47762 3.90478 0
M  V30 5867 H 563.392 5.51859 3.83276 0
M  V30 5868 N 566.112 -0.949982 1.2575 0
M  V30 5869 C 567.075 -2.02894 1.06615 0
M  V30 5870 C 568.075 -1.60791 0.0173905 0
M  V30 5871 O 569.265 -1.72249 0.260003 0
M  V30 5872 C 566.397 -3.35219 0.619751 0
M  V30 5873 H 567.59 -2.21302 2.02399 0
M  V30 5874 H 565.143 -1.12772 1.08223 0
M  V30 5875 H 565.878 -3.22508 -0.340486 0
M  V30 5876 H 565.663 -3.67129 1.37692 0
M  V30 5877 H 567.153 -4.14505 0.507443 0
M  V30 5878 N 567.59 -1.07411 -1.15328 0
M  V30 5879 C 568.553 -0.698914 -2.18284 0
M  V30 5880 C 569.553 0.261149 -1.58665 0
M  V30 5881 O 570.743 0.0420277 -1.74149 0
M  V30 5882 C 567.875 -0.0302427 -3.40887 0
M  V30 5883 H 569.068 -1.61045 -2.52991 0
M  V30 5884 H 566.621 -0.870724 -1.298 0
M  V30 5885 H 567.356 0.893505 -3.11748 0
M  V30 5886 H 567.141 -0.720759 -3.85419 0
M  V30 5887 H 568.631 0.21759 -4.17033 0
M  V30 5888 N 569.068 1.32177 -0.85831 0
M  V30 5889 C 570.316 1.96735 -0.462568 0
M  V30 5890 C 570.637 1.6824 0.985911 0
M  V30 5891 O 569.907 0.991564 1.68952 0
M  V30 5892 H 568.487 0.727849 -0.168064 0
M  V30 5893 H 571.149 1.61195 -1.09554 0
M  V30 5894 H 570.245 3.06068 -0.610647 0
M  V30 5895 N 570.547 0.616602 1.45037 0
M  V30 5896 C 571.479 -0.135186 2.28801 0
M  V30 5897 C 572.492 -0.82303 1.40464 0
M  V30 5898 O 573.681 -0.686909 1.64754 0
M  V30 5899 C 570.781 -1.21292 3.16451 0
M  V30 5900 C 569.954 -0.61043 4.3312 0
M  V30 5901 C 569.013 -1.58022 5.01912 0
M  V30 5902 O 568.039 -1.10301 5.58411 0
M  V30 5903 N 569.241 -2.91464 5.02025 0
M  V30 5904 H 572.006 0.583612 2.93963 0
M  V30 5905 H 569.567 0.456723 1.55324 0
M  V30 5906 H 571.559 -1.86169 3.59337 0
M  V30 5907 H 570.129 -1.83412 2.53138 0
M  V30 5908 H 569.349 0.216638 3.93604 0
M  V30 5909 H 570.637 -0.188293 5.08451 0
M  V30 5910 H 570.035 -3.32829 4.57429 0
M  V30 5911 H 568.592 -3.51741 5.48745 0
M  V30 5912 N 572.025 -1.5352 0.356285 0
M  V30 5913 C 573.271 -2.01414 -0.236653 0
M  V30 5914 C 573.604 -1.24339 -1.49176 0
M  V30 5915 O 572.879 -0.334496 -1.91602 0
M  V30 5916 C 573.162 -3.56059 -0.537982 0
M  V30 5917 C 573.015 -4.43835 0.730112 0
M  V30 5918 C 574.334 -4.19127 -1.34239 0
M  V30 5919 H 571.453 -0.732135 -0.0845386 0
M  V30 5920 H 574.095 -1.83854 0.479341 0
M  V30 5921 H 572.245 -3.71153 -1.14795 0
M  V30 5922 H 573.917 -4.40555 1.36782 0
M  V30 5923 H 572.16 -4.1218 1.3524 0
M  V30 5924 H 572.831 -5.49958 0.474358 0
M  V30 5925 H 575.307 -4.07809 -0.826498 0
M  V30 5926 H 574.183 -5.27378 -1.52198 0
M  V30 5927 H 574.444 -3.74581 -2.34822 0
M  V30 5928 N 573.503 -0.0852151 -1.57369 0
M  V30 5929 C 574.45 0.877268 -2.13478 0
M  V30 5930 C 575.42 1.28642 -1.05073 0
M  V30 5931 O 576.605 1.36992 -1.32808 0
M  V30 5932 C 573.745 2.13464 -2.71159 0
M  V30 5933 C 572.858 1.77691 -3.93764 0
M  V30 5934 C 571.993 2.98139 -4.39643 0
M  V30 5935 C 571.032 2.58447 -5.54862 0
M  V30 5936 N 570.169 3.71698 -5.95639 0
M  V30 5937 H 575.009 0.391933 -2.95411 0
M  V30 5938 H 572.546 0.181796 -1.45972 0
M  V30 5939 H 574.504 2.87086 -3.02717 0
M  V30 5940 H 573.134 2.59514 -1.91969 0
M  V30 5941 H 572.186 0.940768 -3.68583 0
M  V30 5942 H 573.498 1.44497 -4.77412 0
M  V30 5943 H 572.652 3.80026 -4.72933 0
M  V30 5944 H 571.391 3.34536 -3.54876 0
M  V30 5945 H 570.396 1.74984 -5.21211 0
M  V30 5946 H 571.621 2.23205 -6.41371 0
M  V30 5947 H 569.567 4.07831 -5.13819 0
M  V30 5948 H 569.484 3.42317 -6.74059 0
M  V30 5949 H 570.752 4.54123 -6.33555 0
M  V30 5950 N 574.981 1.5647 0.188427 0
M  V30 5951 C 576.227 1.81281 0.909124 0
M  V30 5952 C 576.56 0.66034 1.82628 0
M  V30 5953 O 575.835 -0.338737 1.91528 0
M  V30 5954 C 576.118 3.16388 1.7196 0
M  V30 5955 C 575.971 4.42137 0.826714 0
M  V30 5956 C 577.29 3.48256 2.69083 0
M  V30 5957 H 574.409 0.659457 0.329068 0
M  V30 5958 H 577.051 1.89182 0.176156 0
M  V30 5959 H 575.201 3.09784 2.34448 0
M  V30 5960 H 576.873 4.60794 0.216025 0
M  V30 5961 H 575.116 4.33594 0.133792 0
M  V30 5962 H 575.787 5.33184 1.42893 0
M  V30 5963 H 578.263 3.55203 2.16726 0
M  V30 5964 H 577.139 4.43899 3.2287 0
M  V30 5965 H 577.4 2.72088 3.48455 0
M  V30 5966 N 576.459 -0.456382 1.50847 0
M  V30 5967 C 577.391 -1.57033 1.66953 0
M  V30 5968 C 578.404 -1.53207 0.550593 0
M  V30 5969 O 579.593 -1.58328 0.824285 0
M  V30 5970 C 576.693 -2.95937 1.65149 0
M  V30 5971 C 575.866 -3.24475 2.93317 0
M  V30 5972 C 574.925 -4.43007 2.83957 0
M  V30 5973 O 573.951 -4.42592 3.57912 0
M  V30 5974 N 575.153 -5.45503 1.9851 0
M  V30 5975 H 577.918 -1.43629 2.63042 0
M  V30 5976 H 575.479 -0.645037 1.48495 0
M  V30 5977 H 577.471 -3.73224 1.56481 0
M  V30 5978 H 576.041 -3.03036 0.767343 0
M  V30 5979 H 575.261 -2.35664 3.16 0
M  V30 5980 H 576.549 -3.4036 3.78196 0
M  V30 5981 H 575.947 -5.48668 1.37766 0
M  V30 5982 H 574.504 -6.21716 1.95735 0
M  V30 5983 N 577.937 -1.40673 -0.710563 0
M  V30 5984 C 579.185 -1.38947 -1.46759 0
M  V30 5985 C 579.506 0.00572879 -1.94999 0
M  V30 5986 O 578.776 0.961358 -1.70689 0
M  V30 5987 H 577.356 -0.5114 -0.544499 0
M  V30 5988 H 580.018 -1.75773 -0.842012 0
M  V30 5989 H 579.114 -2.06745 -2.33801 0
M  V30 5990 O 579.454 0.8523 -1.37179 0
M  V30 5991 H 580.145 1.49284 -1.23425 0
M  V30 END ATOM
M  V30 BEGIN BOND
M  V30 END BOND
M  V30 END CTAB
M  END
$$$$
