drugbank_target|P0A6I3 Pantothenate kinase (DB01783; DB01992; DB04395)
 OpenBabel12092119523D

  0  0  0     0  0            999 V3000
M  V30 BEGIN CTAB
M  V30 COUNTS 5155 5214 0 0 0
M  V30 BEGIN ATOM
M  V30 1 H -0.908 1.98254 -0.117106 0
M  V30 2 N 0 1.576 0 0
M  V30 3 C 0.933 2.03868 1.02534 0
M  V30 4 C 1.911 0.928543 1.3348 0
M  V30 5 O 3.095 1.19667 1.45644 0
M  V30 6 C 0.222 2.43627 2.35294 0
M  V30 7 C -0.732 3.65373 2.2001 0
M  V30 8 S 0.101 5.13292 1.52614 0
M  V30 9 C 1.257 5.56322 2.86805 0
M  V30 10 H 1.49 2.90518 0.631377 0
M  V30 11 H -0.977 1.52953 0.210867 0
M  V30 12 H 0.981 2.67203 3.11629 0
M  V30 13 H -0.358 1.57376 2.7183 0
M  V30 14 H -1.165 3.90944 3.18086 0
M  V30 15 H -1.563 3.418 1.51819 0
M  V30 16 H 0.729 5.58782 3.83104 0
M  V30 17 H 1.672 6.56266 2.65933 0
M  V30 18 H 2.08 4.83886 2.90714 0
M  V30 19 N 1.4781 -0.272755 1.55222 0
M  V30 20 C 2.7031 -1.02683 1.80197 0
M  V30 21 C 3.1281 -1.79142 0.573551 0
M  V30 22 O 2.4861 -1.74917 -0.476849 0
M  V30 23 C 2.5341 -1.9609 3.02624 0
M  V30 24 O 1.6381 -3.04863 2.77727 0
M  V30 25 H 0.9791 -0.293557 0.595584 0
M  V30 26 H 3.5091 -0.30159 2.02365 0
M  V30 27 H 3.5191 -2.38039 3.31363 0
M  V30 28 H 2.1941 -1.39851 3.91682 0
M  V30 29 H 0.7711 -2.67228 2.60084 0
M  V30 30 N 2.9562 -1.48159 -0.537278 0
M  V30 31 C 4.2052 -1.5506 -1.28993 0
M  V30 32 C 4.5182 -0.226211 -1.94288 0
M  V30 33 O 5.7242 -0.173395 -2.70946 0
M  V30 34 C 4.1802 -2.73429 -2.34018 0
M  V30 35 C 3.7882 -4.1248 -1.74825 0
M  V30 36 C 5.5322 -2.89638 -3.10339 0
M  V30 37 C 3.4392 -5.22121 -2.77747 0
M  V30 38 H 2.3692 -0.577231 -0.485098 0
M  V30 39 H 5.0202 -1.74478 -0.568317 0
M  V30 40 H 3.4022 -2.47431 -3.09182 0
M  V30 41 H 4.5762 -4.48466 -1.05899 0
M  V30 42 H 2.8912 -4.01327 -1.11022 0
M  V30 43 H 5.4882 -3.68718 -3.87235 0
M  V30 44 H 5.8312 -1.9882 -3.65754 0
M  V30 45 H 6.3642 -3.15502 -2.42288 0
M  V30 46 H 3.1032 -6.1488 -2.27161 0
M  V30 47 H 2.6232 -4.90631 -3.45024 0
M  V30 48 H 4.3022 -5.49924 -3.4087 0
M  V30 49 N 4.4343 0.785586 -1.36625 0
M  V30 50 C 5.3813 1.89838 -1.31264 0
M  V30 51 C 6.3513 1.65115 -0.180633 0
M  V30 52 O 7.5363 1.87222 -0.36777 0
M  V30 53 C 4.6763 3.26706 -1.11163 0
M  V30 54 C 3.7893 3.63476 -2.33472 0
M  V30 55 C 2.9243 4.89481 -2.06353 0
M  V30 56 C 1.9633 5.18941 -3.24602 0
M  V30 57 N 1.1003 6.36131 -2.97123 0
M  V30 58 H 5.9403 1.93756 -2.26413 0
M  V30 59 H 3.4773 0.947454 -1.12524 0
M  V30 60 H 5.4353 4.05639 -0.975337 0
M  V30 61 H 4.0653 3.222 -0.196674 0
M  V30 62 H 3.1173 2.79636 -2.57891 0
M  V30 63 H 4.4293 3.81193 -3.21704 0
M  V30 64 H 3.5833 5.76288 -1.89675 0
M  V30 65 H 2.3223 4.73841 -1.15437 0
M  V30 66 H 1.3273 4.30615 -3.41834 0
M  V30 67 H 2.5523 5.36498 -4.16349 0
M  V30 68 H 0.4983 6.21875 -2.08823 0
M  V30 69 H 0.4153 6.54198 -3.78894 0
M  V30 70 H 1.6833 7.2591 -2.84033 0
M  V30 71 N 5.9124 1.20967 1.01018 0
M  V30 72 C 6.8224 0.980157 2.13143 0
M  V30 73 C 7.8384 -0.0660665 1.73875 0
M  V30 74 O 9.0144 0.122821 2.01025 0
M  V30 75 C 6.0794 0.54216 3.42435 0
M  V30 76 C 5.1404 1.65999 3.95908 0
M  V30 77 C 4.3734 1.2428 5.19028 0
M  V30 78 O 4.5964 0.114196 5.70286 0
M  V30 79 O 3.5304 2.05271 5.65816 0
M  V30 80 H 7.3564 1.91913 2.35379 0
M  V30 81 H 4.9414 0.994099 1.11526 0
M  V30 82 H 6.8234 0.30744 4.20277 0
M  V30 83 H 5.4984 -0.36815 3.216 0
M  V30 84 H 4.4054 1.94906 3.19316 0
M  V30 85 H 5.7384 2.54753 4.21143 0
M  V30 86 N 7.3905 -1.2043 1.01659 0
M  V30 87 C 8.3225 -2.22626 0.544988 0
M  V30 88 C 9.3355 -1.58479 -0.372609 0
M  V30 89 O 10.5245 -1.77679 -0.170958 0
M  V30 90 C 7.6245 -3.38141 -0.22663 0
M  V30 91 C 6.7975 -4.31877 0.692876 0
M  V30 92 C 5.8565 -5.26191 -0.0311616 0
M  V30 93 O 4.8825 -5.6612 0.591343 0
M  V30 94 N 6.0845 -5.65618 -1.30601 0
M  V30 95 H 8.8495 -2.63716 1.42388 0
M  V30 96 H 6.4105 -1.34971 0.894116 0
M  V30 97 H 8.4025 -3.98239 -0.72024 0
M  V30 98 H 6.9725 -2.95943 -1.00681 0
M  V30 99 H 6.1925 -3.69746 1.36679 0
M  V30 100 H 7.4805 -4.91426 1.31824 0
M  V30 101 H 6.8785 -5.3519 -1.83269 0
M  V30 102 H 5.4355 -6.28025 -1.74435 0
M  V30 103 N 8.8686 -0.792821 -1.36206 0
M  V30 104 C 10.0966 -0.378825 -2.03402 0
M  V30 105 C 10.5116 1.00586 -1.59774 0
M  V30 106 O 9.8686 1.64574 -0.788764 0
M  V30 107 C 9.9196 -0.43683 -3.58851 0
M  V30 108 O 9.6406 -1.76691 -4.00889 0
M  V30 109 C 11.1416 -0.0138943 -4.43298 0
M  V30 110 H 8.3616 -0.155673 -0.652692 0
M  V30 111 H 10.9056 -1.07261 -1.74113 0
M  V30 112 H 9.0606 0.208575 -3.86838 0
M  V30 113 H 9.4746 -1.72011 -4.95492 0
M  V30 114 H 10.9486 -0.105615 -5.51899 0
M  V30 115 H 11.4256 1.03915 -4.2673 0
M  V30 116 H 12.0316 -0.63192 -4.20579 0
M  V30 117 N 10.3467 1.47872 -0.545128 0
M  V30 118 C 11.2767 2.32661 0.197793 0
M  V30 119 C 12.2577 1.43041 0.920504 0
M  V30 120 O 13.4427 1.71912 0.90333 0
M  V30 121 C 10.5727 3.24569 1.23582 0
M  V30 122 C 9.5267 4.23333 0.630323 0
M  V30 123 C 8.8527 5.0448 1.77211 0
M  V30 124 C 10.1527 5.20704 -0.407974 0
M  V30 125 H 11.8467 2.95024 -0.510045 0
M  V30 126 H 9.3927 1.4187 -0.246731 0
M  V30 127 H 11.3457 3.8272 1.76362 0
M  V30 128 H 10.0697 2.60236 1.97344 0
M  V30 129 H 8.7287 3.6639 0.123922 0
M  V30 130 H 8.3767 4.36561 2.49847 0
M  V30 131 H 8.0767 5.71339 1.37281 0
M  V30 132 H 9.6007 5.65487 2.3034 0
M  V30 133 H 11.0147 5.7329 0.033305 0
M  V30 134 H 9.4117 5.95699 -0.725486 0
M  V30 135 H 10.4817 4.66917 -1.30828 0
M  V30 136 N 11.8248 0.280983 1.55075 0
M  V30 137 C 12.7578 -0.645439 2.18882 0
M  V30 138 C 13.7358 -1.14786 1.15165 0
M  V30 139 O 14.9198 -1.21975 1.43716 0
M  V30 140 C 12.0468 -1.88088 2.81674 0
M  V30 141 C 11.0928 -1.51343 3.98745 0
M  V30 142 S 11.9258 -0.586548 5.32278 0
M  V30 143 C 13.0818 -1.83024 5.98543 0
M  V30 144 H 13.3148 -0.1033 2.9712 0
M  V30 145 H 10.8478 0.0652099 1.54262 0
M  V30 146 H 12.8058 -2.58997 3.18482 0
M  V30 147 H 11.4668 -2.39417 2.03318 0
M  V30 148 H 10.6598 -2.43289 4.41392 0
M  V30 149 H 10.2618 -0.884477 3.63391 0
M  V30 150 H 12.5538 -2.77342 6.18133 0
M  V30 151 H 13.4968 -1.44668 6.93164 0
M  V30 152 H 13.9048 -1.99785 5.27964 0
M  V30 153 N 13.3029 -1.57598 0.00835791 0
M  V30 154 C 14.5309 -1.95214 -0.68549 0
M  V30 155 C 14.9459 -0.883706 -1.66841 0
M  V30 156 O 14.3029 0.136565 -1.81988 0
M  V30 157 C 14.3539 -3.32865 -1.41007 0
M  V30 158 O 14.0749 -4.35609 -0.466552 0
M  V30 159 C 15.5759 -3.84991 -2.19765 0
M  V30 160 H 12.7959 -0.643422 -0.190392 0
M  V30 161 H 15.3399 -2.04406 0.0619607 0
M  V30 162 H 13.4949 -3.24956 -2.10908 0
M  V30 163 H 13.9089 -5.15288 -0.978699 0
M  V30 164 H 15.3829 -4.8371 -2.65948 0
M  V30 165 H 15.8599 -3.18137 -3.02796 0
M  V30 166 H 16.4659 -3.96103 -1.54864 0
M  V30 167 N 14.781 0.264519 -1.55364 0
M  V30 168 C 16.192 0.834936 -1.6699 0
M  V30 169 C 16.543 1.86718 -0.602552 0
M  V30 170 O 15.668 2.14899 0.254425 0
M  V30 171 C 16.263 1.5212 -3.02729 0
M  V30 172 C 14.822 2.03954 -3.16354 0
M  V30 173 C 13.969 0.884498 -2.62815 0
M  V30 174 H 16.92 0.0406869 -1.58648 0
M  V30 175 H 16.941 2.38853 -2.96191 0
M  V30 176 H 16.453 0.769668 -3.80392 0
M  V30 177 H 14.554 2.82041 -2.43482 0
M  V30 178 H 14.667 2.24902 -4.23032 0
M  V30 179 H 13.031 1.2802 -2.20188 0
M  V30 180 H 13.814 0.14634 -3.42988 0
M  V30 181 N 16.2591 1.48442 0.529413 0
M  V30 182 C 17.4891 1.59919 1.30804 0
M  V30 183 C 17.8971 0.258792 1.87422 0
M  V30 184 O 17.2401 -0.762096 1.67146 0
M  V30 185 C 17.3021 2.58693 2.49636 0
M  V30 186 C 16.9661 4.03745 2.14101 0
M  V30 187 C 17.9631 4.9141 1.6974 0
M  V30 188 C 15.6481 4.49285 2.24607 0
M  V30 189 C 17.6421 6.22645 1.36351 0
M  V30 190 C 15.3291 5.8054 1.9083 0
M  V30 191 C 16.3271 6.67043 1.46773 0
M  V30 192 O 16.0151 7.95856 1.1344 0
M  V30 193 H 15.7471 0.541981 0.404021 0
M  V30 194 H 18.3011 1.95 0.645309 0
M  V30 195 H 16.5311 2.18734 3.18892 0
M  V30 196 H 18.2201 2.59999 3.11698 0
M  V30 197 H 18.9861 4.57465 1.61094 0
M  V30 198 H 14.8651 3.82142 2.57854 0
M  V30 199 H 18.4091 6.90119 1.01891 0
M  V30 200 H 14.3061 6.14022 1.99117 0
M  V30 201 H 15.0741 8.08613 1.26832 0
M  V30 202 N 17.7372 -0.778329 1.37039 0
M  V30 203 C 18.6672 -1.90546 1.34962 0
M  V30 204 C 19.6482 -1.68681 0.219274 0
M  V30 205 O 20.8332 -1.89634 0.418624 0
M  V30 206 C 17.9632 -3.27734 1.14925 0
M  V30 207 C 16.9172 -3.64147 2.24902 0
M  V30 208 C 16.2432 -4.99806 1.89996 0
M  V30 209 C 17.5432 -3.71579 3.67051 0
M  V30 210 H 19.2372 -1.92541 2.29277 0
M  V30 211 H 16.7832 -0.924948 1.10366 0
M  V30 212 H 18.7362 -4.06215 1.12104 0
M  V30 213 H 17.4602 -3.26154 0.170631 0
M  V30 214 H 16.1192 -2.8797 2.26868 0
M  V30 215 H 15.7672 -4.94759 0.906796 0
M  V30 216 H 15.4672 -5.25139 2.63634 0
M  V30 217 H 16.9912 -5.80694 1.88749 0
M  V30 218 H 18.4052 -4.40227 3.67251 0
M  V30 219 H 16.8022 -4.08405 4.39688 0
M  V30 220 H 17.8722 -2.72404 4.01154 0
M  V30 221 N 19.2153 -1.21501 -1.00376 0
M  V30 222 C 20.1473 -0.933174 -2.09343 0
M  V30 223 C 21.1603 0.0840896 -1.62583 0
M  V30 224 O 22.3493 -0.148563 -1.77881 0
M  V30 225 C 19.4493 -0.379869 -3.36764 0
M  V30 226 C 18.6223 -1.45176 -4.12605 0
M  V30 227 C 17.6813 -0.907476 -5.18316 0
M  V30 228 O 16.7073 -1.5912 -5.46507 0
M  V30 229 N 17.9093 0.276649 -5.7984 0
M  V30 230 H 20.6743 -1.87124 -2.34104 0
M  V30 231 H 18.2353 -1.12043 -1.16867 0
M  V30 232 H 20.2273 -0.00131488 -4.047 0
M  V30 233 H 18.7973 0.463048 -3.09151 0
M  V30 234 H 18.0173 -2.00411 -3.39454 0
M  V30 235 H 19.3053 -2.17328 -4.6005 0
M  V30 236 H 18.7033 0.849147 -5.59291 0
M  V30 237 H 17.2603 0.596702 -6.49063 0
M  V30 238 N 20.6934 1.19889 -1.02296 0
M  V30 239 C 21.9404 1.8942 -0.715972 0
M  V30 240 C 22.2684 1.79251 0.754944 0
M  V30 241 O 21.5234 1.17526 1.56481 0
M  V30 242 C 21.8224 3.39883 -1.10518 0
M  V30 243 C 21.4884 3.70254 -2.57337 0
M  V30 244 C 20.1504 3.78254 -2.97452 0
M  V30 245 C 22.5024 3.84052 -3.52354 0
M  V30 246 C 19.8304 3.97514 -4.31509 0
M  V30 247 C 22.1824 4.04824 -4.86108 0
M  V30 248 C 20.8464 4.11054 -5.25919 0
M  V30 249 H 20.1164 0.693138 -0.261993 0
M  V30 250 H 22.7634 1.42012 -1.28472 0
M  V30 251 H 21.0684 3.8915 -0.454953 0
M  V30 252 H 22.7654 3.9199 -0.845261 0
M  V30 253 H 19.3554 3.64632 -2.25258 0
M  V30 254 H 23.5394 3.77221 -3.22518 0
M  V30 255 H 18.7954 4.00574 -4.61898 0
M  V30 256 H 22.9694 4.14442 -5.59653 0
M  V30 257 H 20.5964 4.2573 -6.29808 0
M  V30 258 N 22.1715 0.800033 1.35784 0
M  V30 259 C 23.4485 0.30088 1.93272 0
M  V30 260 C 23.8285 -1.20857 1.73081 0
M  V30 261 O 23.1765 -2.00502 1.09596 0
M  V30 262 C 23.3865 0.70511 3.41803 0
M  V30 263 C 24.7345 0.690871 4.18942 0
M  V30 264 O 25.7585 0.646244 3.50289 0
M  V30 265 O 24.6175 0.74332 5.41421 0
M  V30 266 H 21.7115 0.0771605 0.823393 0
M  V30 267 H 24.2575 0.88329 1.449 0
M  V30 268 H 23.0295 1.74571 3.50201 0
M  V30 269 H 22.6525 0.0971541 3.97481 0
M  V30 270 N 23.6496 -1.47581 0.552962 0
M  V30 271 C 25.0656 -1.5818 0.212424 0
M  V30 272 C 25.2656 -1.55213 -1.28496 0
M  V30 273 O 24.3216 -1.45329 -2.06484 0
M  V30 274 C 25.6346 -2.88865 0.835318 0
M  V30 275 C 27.1826 -3.0244 0.806156 0
M  V30 276 C 27.6576 -4.35819 1.40804 0
M  V30 277 N 29.1486 -4.42444 1.37103 0
M  V30 278 C 29.8836 -5.44202 1.80641 0
M  V30 279 N 29.3796 -6.52795 2.32015 0
M  V30 280 N 31.1726 -5.35222 1.71738 0
M  V30 281 H 23.3236 -1.47753 1.52587 0
M  V30 282 H 25.5866 -0.702941 0.636064 0
M  V30 283 H 25.2926 -2.9676 1.88749 0
M  V30 284 H 25.1666 -3.7579 0.325848 0
M  V30 285 H 27.5536 -2.94144 -0.237317 0
M  V30 286 H 27.6346 -2.17068 1.35334 0
M  V30 287 H 27.2786 -4.44871 2.45056 0
M  V30 288 H 27.2086 -5.19916 0.836338 0
M  V30 289 H 29.6996 -3.6456 0.995202 0
M  V30 290 H 30.0126 -7.26609 2.63171 0
M  V30 291 H 28.3576 -6.53696 2.36023 0
M  V30 292 H 31.5486 -4.49284 1.31382 0
M  V30 293 H 31.7216 -6.14389 2.05987 0
M  V30 294 N 25.1277 -0.289203 -1.54924 0
M  V30 295 C 26.0757 0.607966 -2.24514 0
M  V30 296 C 27.0697 1.14655 -1.24702 0
M  V30 297 O 28.2757 1.09856 -1.4259 0
M  V30 298 H 24.6507 0.21464 -0.720718 0
M  V30 299 H 26.6217 -0.00164182 -2.984 0
M  V30 300 C 25.3707 1.77406 -2.99036 0
M  V30 301 H 24.6937 1.36884 -3.75637 0
M  V30 302 H 26.1337 2.37814 -3.51028 0
M  V30 303 C 24.5927 2.67107 -2.05318 0
M  V30 304 O 25.1227 3.6787 -1.61353 0
M  V30 305 N 23.3287 2.34582 -1.71521 0
M  V30 306 H 22.8757 1.52688 -2.07471 0
M  V30 307 H 22.8337 2.94867 -1.0909 0
M  V30 308 N 26.6058 1.57591 -0.0167156 0
M  V30 309 C 27.5378 2.06343 0.997753 0
M  V30 310 C 28.5508 0.984469 1.29661 0
M  V30 311 O 29.7398 1.26093 1.26344 0
M  V30 312 C 26.8398 2.46255 2.32834 0
M  V30 313 C 26.0128 3.77083 2.21646 0
M  V30 314 C 25.0718 4.0368 3.37534 0
M  V30 315 O 24.0978 4.7411 3.14973 0
M  V30 316 N 25.2998 3.52881 4.60929 0
M  V30 317 H 28.0648 2.93997 0.581875 0
M  V30 318 H 25.6258 1.61002 0.170316 0
M  V30 319 H 27.6178 2.61149 3.09166 0
M  V30 320 H 26.1878 1.64032 2.66106 0
M  V30 321 H 25.4078 3.72106 1.30119 0
M  V30 322 H 26.6958 4.62822 2.11361 0
M  V30 323 H 26.0938 2.95878 4.82154 0
M  V30 324 H 24.6508 3.73076 5.34469 0
M  V30 325 N 28.0839 -0.256276 1.55502 0
M  V30 326 C 29.3299 -0.982884 1.78076 0
M  V30 327 C 29.6849 -1.83319 0.584109 0
M  V30 328 O 28.9779 -1.86875 -0.422877 0
M  V30 329 C 29.1719 -1.88432 3.03691 0
M  V30 330 C 29.0009 -1.12276 4.35459 0
M  V30 331 C 27.7709 -0.831647 4.98409 0
M  V30 332 C 29.9689 -0.504933 5.11815 0
M  V30 333 N 27.9509 -0.0450423 6.13883 0
M  V30 334 C 29.3219 0.146696 6.19826 0
M  V30 335 C 31.3769 -0.414455 4.96172 0
M  V30 336 C 30.0799 0.880103 7.13895 0
M  V30 337 C 32.1059 0.305398 5.90611 0
M  V30 338 C 31.4679 0.945701 6.98023 0
M  V30 339 H 27.5669 -0.341084 0.703694 0
M  V30 340 H 30.1509 -0.256909 1.92998 0
M  V30 341 H 28.3219 -2.58241 2.90114 0
M  V30 342 H 30.0539 -2.54579 3.14598 0
M  V30 343 H 26.8089 -1.14111 4.59647 0
M  V30 344 H 27.2329 0.336079 6.76165 0
M  V30 345 H 31.8749 -0.895163 4.13215 0
M  V30 346 H 29.5929 1.37244 7.9636 0
M  V30 347 H 33.1789 0.375946 5.80584 0
M  V30 348 H 32.0589 1.49383 7.6984 0
M  V30 349 N 29.562 -1.4872 -0.521534 0
M  V30 350 C 30.525 -1.63379 -1.60748 0
M  V30 351 C 31.525 -0.50661 -1.52611 0
M  V30 352 O 32.715 -0.772601 -1.5613 0
M  V30 353 C 29.847 -1.61192 -3.00383 0
M  V30 354 H 31.04 -2.60217 -1.49087 0
M  V30 355 H 28.593 -1.37444 -0.744235 0
M  V30 356 H 29.328 -0.65863 -3.17541 0
M  V30 357 H 29.113 -2.43032 -3.07698 0
M  V30 358 H 30.603 -1.7466 -3.7932 0
M  V30 359 N 31.0401 0.771051 -1.3745 0
M  V30 360 C 32.0031 1.86598 -1.33093 0
M  V30 361 C 33.0031 1.59076 -0.234845 0
M  V30 362 O 34.1931 1.67145 -0.490732 0
M  V30 363 C 31.3251 3.23747 -1.06773 0
M  V30 364 H 32.5181 1.91873 -2.30488 0
M  V30 365 H 30.0711 0.970876 -1.2249 0
M  V30 366 H 30.8061 3.24148 -0.099129 0
M  V30 367 H 30.5911 3.45115 -1.86112 0
M  V30 368 H 32.0811 4.03824 -1.06377 0
M  V30 369 N 32.5182 1.22032 0.997298 0
M  V30 370 C 33.4482 1.01065 2.10495 0
M  V30 371 C 34.4292 -0.0669542 1.69968 0
M  V30 372 O 35.6142 0.0943987 1.9397 0
M  V30 373 C 32.7442 0.582874 3.42374 0
M  V30 374 C 31.6982 1.60592 3.96729 0
M  V30 375 C 31.0242 1.03412 5.24605 0
M  V30 376 C 32.3242 2.99478 4.27914 0
M  V30 377 H 34.0182 1.93708 2.28292 0
M  V30 378 H 31.5642 0.932761 1.09707 0
M  V30 379 H 33.5172 0.423332 4.19268 0
M  V30 380 H 32.2412 -0.379213 3.24391 0
M  V30 381 H 30.9002 1.75316 3.21963 0
M  V30 382 H 30.5482 0.063518 5.0296 0
M  V30 383 H 30.2482 1.71754 5.61938 0
M  V30 384 H 31.7722 0.886066 6.04137 0
M  V30 385 H 33.1862 2.88153 4.95622 0
M  V30 386 H 31.5832 3.64903 4.76409 0
M  V30 387 H 32.6532 3.49742 3.3587 0
M  V30 388 N 33.9963 -1.19345 1.0293 0
M  V30 389 C 35.4123 -1.41069 0.746446 0
M  V30 390 C 35.6123 -1.90078 -0.668776 0
M  V30 391 O 34.6683 -2.0778 -1.4347 0
M  V30 392 C 35.9813 -2.42141 1.78292 0
M  V30 393 C 37.5293 -2.55887 1.80252 0
M  V30 394 C 38.0043 -3.60214 2.8286 0
M  V30 395 N 39.4953 -3.67711 2.81679 0
M  V30 396 C 40.2303 -4.48128 3.57727 0
M  V30 397 N 39.7263 -5.32248 4.43491 0
M  V30 398 N 41.5193 -4.42782 3.46267 0
M  V30 399 H 33.6703 -0.858536 1.94275 0
M  V30 400 H 35.9333 -0.439541 0.839945 0
M  V30 401 H 35.6393 -2.13155 2.79746 0
M  V30 402 H 35.5133 -3.41323 1.60557 0
M  V30 403 H 37.9003 -2.84196 0.794757 0
M  V30 404 H 37.9813 -1.56858 2.02062 0
M  V30 405 H 37.6253 -3.32647 3.83807 0
M  V30 406 H 37.5553 -4.58895 2.58307 0
M  V30 407 H 40.0463 -3.07634 2.19476 0
M  V30 408 H 40.3593 -5.90729 4.98256 0
M  V30 409 H 38.7043 -5.31707 4.47564 0
M  V30 410 H 41.8953 -3.76107 2.78677 0
M  V30 411 H 42.0683 -5.05215 4.05785 0
M  V30 412 N 35.4744 -0.807222 -1.35358 0
M  V30 413 C 36.7514 -0.311126 -1.9311 0
M  V30 414 C 37.1314 1.19937 -1.73719 0
M  V30 415 O 36.4794 1.99918 -1.10657 0
M  V30 416 C 36.6894 -0.723226 -3.41424 0
M  V30 417 C 38.0374 -0.713078 -4.18569 0
M  V30 418 O 39.0614 -0.664811 -3.49941 0
M  V30 419 O 37.9204 -0.772022 -5.41019 0
M  V30 420 H 35.0144 -0.081526 -0.822972 0
M  V30 421 H 37.5604 -0.890962 -1.4443 0
M  V30 422 H 36.3324 -1.76426 -3.4927 0
M  V30 423 H 35.9554 -0.118232 -3.97424 0
M  V30 424 N 36.9525 1.47285 -0.560781 0
M  V30 425 C 38.1775 2.07359 -0.0410566 0
M  V30 426 C 38.6025 1.41017 1.24483 0
M  V30 427 O 37.9605 0.486368 1.74654 0
M  V30 428 C 38.0085 3.6035 0.134123 0
M  V30 429 O 37.1125 3.94681 1.19587 0
M  V30 430 H 36.4535 0.661887 -0.0529291 0
M  V30 431 H 38.9835 1.89252 -0.777482 0
M  V30 432 H 38.9935 4.0652 0.347207 0
M  V30 433 H 37.6685 4.08034 -0.805047 0
M  V30 434 H 36.2455 3.60251 0.962987 0
M  V30 435 N 38.4306 0.297415 1.54768 0
M  V30 436 C 39.6766 -0.313376 2.00364 0
M  V30 437 C 40.0096 -1.53815 1.18553 0
M  V30 438 O 39.2846 -1.92739 0.261103 0
M  V30 439 C 39.5676 -0.673525 3.53745 0
M  V30 440 C 39.4206 0.560133 4.46299 0
M  V30 441 C 40.7396 -1.50143 4.13697 0
M  V30 442 H 37.8586 -0.112428 0.728374 0
M  V30 443 H 40.5006 0.4088 1.8555 0
M  V30 444 H 38.6506 -1.28881 3.665 0
M  V30 445 H 40.3226 1.19863 4.45455 0
M  V30 446 H 38.5656 1.19405 4.17043 0
M  V30 447 H 39.2366 0.26405 5.51368 0
M  V30 448 H 41.7126 -0.981588 4.04356 0
M  V30 449 H 40.5886 -1.72221 5.21182 0
M  V30 450 H 40.8496 -2.48952 3.65343 0
M  V30 451 N 39.9087 -1.5758 0.0250728 0
M  V30 452 C 41.3197 -1.79476 -0.514323 0
M  V30 453 C 41.6707 -0.934956 -1.72491 0
M  V30 454 O 40.7957 -0.144245 -2.15919 0
M  V30 455 C 41.3907 -3.25503 -0.939842 0
M  V30 456 C 39.9497 -3.48408 -1.42438 0
M  V30 457 C 39.0967 -2.74583 -0.387201 0
M  V30 458 H 42.0477 -1.567 0.25113 0
M  V30 459 H 42.0687 -3.34992 -1.80445 0
M  V30 460 H 41.5807 -3.88056 -0.0585628 0
M  V30 461 H 39.6817 -2.91103 -2.32572 0
M  V30 462 H 39.7947 -4.57119 -1.43455 0
M  V30 463 H 38.1587 -2.39942 -0.854409 0
M  V30 464 H 38.9417 -3.39849 0.485543 0
M  V30 465 N 41.3868 0.248026 -1.55636 0
M  V30 466 C 42.3198 1.3334 -1.85191 0
M  V30 467 C 43.2978 1.46429 -0.706906 0
M  V30 468 O 44.4818 1.62662 -0.952544 0
M  V30 469 C 41.6088 2.70703 -2.03562 0
M  V30 470 C 40.6548 2.7477 -3.26196 0
M  V30 471 S 41.4878 2.31493 -4.82878 0
M  V30 472 C 42.6438 3.70783 -5.04253 0
M  V30 473 H 42.8768 1.08072 -2.76962 0
M  V30 474 H 40.4098 0.448952 -1.47729 0
M  V30 475 H 42.3678 3.49798 -2.1483 0
M  V30 476 H 41.0288 2.9321 -1.12635 0
M  V30 477 H 40.2218 3.75648 -3.36013 0
M  V30 478 H 39.8238 2.03719 -3.13647 0
M  V30 479 H 42.1158 4.6627 -4.91527 0
M  V30 480 H 43.0588 3.65901 -6.06236 0
M  V30 481 H 43.4668 3.63244 -4.32105 0
M  V30 482 N 42.8649 1.48995 0.513639 0
M  V30 483 C 44.0929 1.61531 1.29288 0
M  V30 484 C 44.5079 0.281801 1.86685 0
M  V30 485 O 43.8649 -0.731111 1.67215 0
M  V30 486 C 43.9159 2.67449 2.43215 0
M  V30 487 O 43.6369 3.95626 1.88179 0
M  V30 488 C 45.1379 2.90575 3.34785 0
M  V30 489 H 42.3579 0.544165 0.392588 0
M  V30 490 H 44.9019 1.9494 0.617956 0
M  V30 491 H 43.0569 2.36853 3.0656 0
M  V30 492 H 43.4709 4.53868 2.62876 0
M  V30 493 H 44.9449 3.68449 4.11035 0
M  V30 494 H 45.4219 2.00011 3.91015 0
M  V30 495 H 46.0279 3.22538 2.77218 0
M  V30 496 N 44.343 -0.763751 1.37857 0
M  V30 497 C 45.273 -1.89103 1.36975 0
M  V30 498 C 46.254 -1.68439 0.237152 0
M  V30 499 O 47.439 -1.8918 0.438713 0
M  V30 500 C 44.569 -3.26496 1.18395 0
M  V30 501 C 43.523 -3.61741 2.28751 0
M  V30 502 C 42.849 -4.97762 1.95286 0
M  V30 503 C 44.149 -3.67665 3.70972 0
M  V30 504 H 45.843 -1.90099 2.31307 0
M  V30 505 H 43.389 -0.91319 1.11341 0
M  V30 506 H 45.342 -4.05003 1.16406 0
M  V30 507 H 44.066 -3.25955 0.205215 0
M  V30 508 H 42.725 -2.85547 2.29909 0
M  V30 509 H 42.373 -4.93769 0.959221 0
M  V30 510 H 42.073 -5.22313 2.69189 0
M  V30 511 H 43.597 -5.7866 1.94898 0
M  V30 512 H 45.011 -4.36307 3.719 0
M  V30 513 H 43.408 -4.03718 4.43995 0
M  V30 514 H 44.478 -2.68134 4.0402 0
M  V30 515 N 45.8211 -1.22559 -0.990812 0
M  V30 516 C 47.0461 -1.07862 -1.77145 0
M  V30 517 C 47.4711 0.366447 -1.84496 0
M  V30 518 O 46.8291 1.26478 -1.29896 0
M  V30 519 C 46.8771 -1.69686 -3.18181 0
M  V30 520 O 45.9811 -0.951946 -4.01263 0
M  V30 521 H 45.3221 -0.378712 -0.545411 0
M  V30 522 H 47.8521 -1.62399 -1.2445 0
M  V30 523 H 47.8621 -1.74496 -3.68802 0
M  V30 524 H 46.5371 -2.74841 -3.12146 0
M  V30 525 H 45.1141 -0.980011 -3.59792 0
M  V30 526 N 47.2992 1.18797 -1.03562 0
M  V30 527 C 48.2092 2.25913 -0.632505 0
M  V30 528 C 49.2252 1.70668 0.338882 0
M  V30 529 O 50.4012 2.00453 0.195076 0
M  V30 530 C 47.4662 3.467 0.00350942 0
M  V30 531 C 46.5272 4.17098 -1.01624 0
M  V30 532 C 45.7602 5.32119 -0.410478 0
M  V30 533 O 45.9832 5.64976 0.784725 0
M  V30 534 O 44.9172 5.9107 -1.13667 0
M  V30 535 H 48.7432 2.62648 -1.52478 0
M  V30 536 H 46.3282 1.25781 -0.806195 0
M  V30 537 H 48.2102 4.19878 0.35781 0
M  V30 538 H 46.8852 3.11798 0.869686 0
M  V30 539 H 45.7922 3.4601 -1.42224 0
M  V30 540 H 47.1252 4.55987 -1.85301 0
M  V30 541 N 48.7773 0.814389 1.34928 0
M  V30 542 C 50.0543 0.321363 1.92942 0
M  V30 543 C 50.4343 -1.19014 1.74353 0
M  V30 544 O 49.7823 -1.99328 1.11716 0
M  V30 545 C 49.9923 0.741323 3.41036 0
M  V30 546 C 51.3403 0.735266 4.18185 0
M  V30 547 O 52.3643 0.68336 3.49584 0
M  V30 548 O 51.2233 0.800703 5.40602 0
M  V30 549 H 48.3173 0.0858893 0.822528 0
M  V30 550 H 50.8633 0.898609 1.43955 0
M  V30 551 H 49.6353 1.78276 3.4833 0
M  V30 552 H 49.2583 0.139307 3.97356 0
M  V30 553 N 50.2554 -1.46986 0.568584 0
M  V30 554 C 51.1654 -2.33942 -0.17555 0
M  V30 555 C 52.1814 -1.48891 -0.90041 0
M  V30 556 O 53.3574 -1.81794 -0.86676 0
M  V30 557 C 50.4224 -3.25811 -1.18524 0
M  V30 558 C 49.4834 -4.26757 -0.466582 0
M  V30 559 C 48.7164 -5.14236 -1.42817 0
M  V30 560 O 48.9394 -5.04379 -2.66379 0
M  V30 561 O 47.8734 -5.94412 -0.946453 0
M  V30 562 H 51.6994 -2.98896 0.538036 0
M  V30 563 H 49.2844 -1.4573 0.329097 0
M  V30 564 H 51.1664 -3.82527 -1.76779 0
M  V30 565 H 49.8414 -2.63471 -1.88055 0
M  V30 566 H 48.7484 -3.73769 0.157451 0
M  V30 567 H 50.0814 -4.91843 0.187485 0
M  V30 568 N 51.7335 -0.305618 -1.54608 0
M  V30 569 C 52.9825 0.303098 -1.9941 0
M  V30 570 C 53.2955 1.54648 -1.19764 0
M  V30 571 O 54.5015 2.23007 -1.54855 0
M  V30 572 C 52.9575 0.590588 -3.55021 0
M  V30 573 C 52.5655 -0.634719 -4.43481 0
M  V30 574 C 54.3095 1.16025 -4.08336 0
M  V30 575 C 52.2165 -0.320126 -5.90533 0
M  V30 576 H 51.1465 0.117031 -0.744862 0
M  V30 577 H 53.7975 -0.415045 -1.78745 0
M  V30 578 H 52.1795 1.36845 -3.71604 0
M  V30 579 H 53.3535 -1.41079 -4.38672 0
M  V30 580 H 51.6685 -1.12333 -4.00962 0
M  V30 581 H 54.2655 1.40994 -5.15776 0
M  V30 582 H 54.6085 2.10397 -3.5922 0
M  V30 583 H 55.1415 0.443985 -3.95315 0
M  V30 584 H 51.8805 -1.23254 -6.43808 0
M  V30 585 H 51.4005 0.418579 -5.98338 0
M  V30 586 H 53.0795 0.0766241 -6.46955 0
M  V30 587 N 53.2116 1.57565 -0.0334293 0
M  V30 588 C 54.1746 2.09393 0.932048 0
M  V30 589 C 55.1746 1.00986 1.25134 0
M  V30 590 O 56.3646 1.27129 1.19096 0
M  V30 591 C 53.4966 2.56338 2.2473 0
M  V30 592 H 54.6896 2.95984 0.483085 0
M  V30 593 H 52.2426 1.54819 0.21468 0
M  V30 594 H 52.9776 1.7309 2.74245 0
M  V30 595 H 52.7626 3.35542 2.02865 0
M  V30 596 H 54.2526 2.96646 2.93923 0
M  V30 597 N 54.6897 -0.239769 1.55765 0
M  V30 598 C 56.1057 -0.588624 1.48349 0
M  V30 599 C 56.3057 -1.88005 0.72502 0
M  V30 600 O 55.3617 -2.51186 0.257269 0
M  V30 601 C 56.6747 -0.68474 2.928 0
M  V30 602 C 58.2227 -0.77659 3.03213 0
M  V30 603 C 58.6977 -0.904207 4.48986 0
M  V30 604 N 60.1887 -0.968896 4.52953 0
M  V30 605 C 60.9237 -1.08703 5.63002 0
M  V30 606 N 60.4197 -1.17026 6.82845 0
M  V30 607 N 62.2127 -1.12074 5.50814 0
M  V30 608 H 54.3637 0.607911 2.03515 0
M  V30 609 H 56.6267 0.21083 0.924259 0
M  V30 610 H 56.3327 0.194284 3.51163 0
M  V30 611 H 56.2067 -1.55435 3.43686 0
M  V30 612 H 58.5937 -1.64606 2.44926 0
M  V30 613 H 58.6747 0.118315 2.55526 0
M  V30 614 H 58.3187 -0.0392633 5.07885 0
M  V30 615 H 58.2487 -1.81426 4.9436 0
M  V30 616 H 60.7397 -0.915633 3.6664 0
M  V30 617 H 61.0527 -1.25966 7.62465 0
M  V30 618 H 59.3977 -1.13971 6.85591 0
M  V30 619 H 62.5887 -1.05226 4.5612 0
M  V30 620 H 62.7617 -1.20936 6.36615 0
M  V30 621 N 56.1678 -1.49265 -0.50573 0
M  V30 622 C 57.0978 -1.68495 -1.61653 0
M  V30 623 C 58.0788 -0.53366 -1.61512 0
M  V30 624 O 59.2638 -0.76897 -1.78327 0
M  V30 625 C 56.3938 -1.74709 -3.00157 0
M  V30 626 C 55.3478 -2.89581 -3.15162 0
M  V30 627 C 54.6738 -2.80903 -4.5497 0
M  V30 628 C 55.9738 -4.30578 -2.95634 0
M  V30 629 H 57.6678 -2.61493 -1.45814 0
M  V30 630 H 55.2138 -1.25838 -0.70005 0
M  V30 631 H 57.1668 -1.86748 -3.77761 0
M  V30 632 H 55.8908 -0.783067 -3.17074 0
M  V30 633 H 54.5498 -2.77136 -2.39982 0
M  V30 634 H 54.1978 -1.82419 -4.68756 0
M  V30 635 H 53.8978 -3.57999 -4.65951 0
M  V30 636 H 55.4218 -2.94944 -5.34641 0
M  V30 637 H 56.8358 -4.4373 -3.63011 0
M  V30 638 H 55.2328 -5.0886 -3.18091 0
M  V30 639 H 56.3028 -4.45352 -1.91806 0
M  V30 640 N 57.6459 0.756429 -1.3826 0
M  V30 641 C 58.5929 1.87011 -1.35261 0
M  V30 642 C 59.5629 1.64695 -0.215616 0
M  V30 643 O 60.7479 1.864 -0.407399 0
M  V30 644 C 57.8879 3.24275 -1.18068 0
M  V30 645 C 57.0009 3.58442 -2.41129 0
M  V30 646 C 56.1359 4.84994 -2.16689 0
M  V30 647 C 55.1749 5.11939 -3.35537 0
M  V30 648 N 54.3119 6.29685 -3.10549 0
M  V30 649 H 59.1519 1.8891 -2.30472 0
M  V30 650 H 56.6889 0.923373 -1.14509 0
M  V30 651 H 58.6469 4.03479 -1.06116 0
M  V30 652 H 57.2769 3.21711 -0.264973 0
M  V30 653 H 56.3289 2.74103 -2.63764 0
M  V30 654 H 57.6409 3.74283 -3.29717 0
M  V30 655 H 56.7949 5.72135 -2.01857 0
M  V30 656 H 55.5339 4.71286 -1.25462 0
M  V30 657 H 54.5389 4.23268 -3.50891 0
M  V30 658 H 55.7639 5.27546 -4.27635 0
M  V30 659 H 53.7099 6.17306 -2.21967 0
M  V30 660 H 53.6269 6.46014 -3.92686 0
M  V30 661 H 54.8949 7.19722 -2.99367 0
M  V30 662 N 59.124 1.23083 0.984299 0
M  V30 663 C 60.372 1.05848 1.72165 0
M  V30 664 C 60.693 -0.406049 1.90726 0
M  V30 665 O 59.963 -1.29139 1.47309 0
M  V30 666 H 58.543 0.388685 0.637913 0
M  V30 667 H 61.205 1.54736 1.18503 0
M  V30 668 H 60.301 1.54327 2.71274 0
M  V30 669 N 60.6021 -1.18246 1.0419 0
M  V30 670 C 61.8511 -1.87588 0.741194 0
M  V30 671 C 62.1641 -1.81303 -0.734066 0
M  V30 672 O 63.3701 -2.46019 -1.14834 0
M  V30 673 C 61.8261 -3.36538 1.27555 0
M  V30 674 C 61.4341 -3.51349 2.77953 0
M  V30 675 C 63.1781 -4.11273 1.05143 0
M  V30 676 C 61.0851 -4.94265 3.2474 0
M  V30 677 H 60.0151 -0.702622 0.273565 0
M  V30 678 H 62.6661 -1.33601 1.25789 0
M  V30 679 H 61.0481 -3.9 0.686703 0
M  V30 680 H 62.2221 -3.08153 3.42605 0
M  V30 681 H 60.5371 -2.90022 2.98791 0
M  V30 682 H 63.1341 -5.16689 1.37611 0
M  V30 683 H 63.4771 -4.16298 -0.0112774 0
M  V30 684 H 64.0101 -3.63987 1.60495 0
M  V30 685 H 60.7491 -4.94408 4.30396 0
M  V30 686 H 60.2691 -5.38172 2.64823 0
M  V30 687 H 61.9481 -5.62987 3.18834 0
M  V30 688 N 62.0802 -0.821533 -1.34494 0
M  V30 689 C 63.0282 -0.230702 -2.31453 0
M  V30 690 C 64.0222 0.627793 -1.57338 0
M  V30 691 O 65.2282 0.519288 -1.72347 0
M  V30 692 H 61.6032 -0.0558577 -0.749923 0
M  V30 693 H 63.5742 -1.06332 -2.78812 0
M  V30 694 C 62.3232 0.59391 -3.4259 0
M  V30 695 H 61.6462 -0.0573588 -3.99759 0
M  V30 696 H 63.0862 0.973446 -4.12674 0
M  V30 697 C 61.5452 1.76568 -2.86924 0
M  V30 698 O 62.0752 2.8638 -2.81691 0
M  V30 699 N 60.2812 1.58198 -2.43766 0
M  V30 700 H 59.8282 0.68872 -2.48222 0
M  V30 701 H 59.7862 2.36752 -2.06871 0
M  V30 702 N 63.5583 1.46682 -0.576371 0
M  V30 703 C 64.4683 2.34032 0.163141 0
M  V30 704 C 65.4843 1.49367 0.892501 0
M  V30 705 O 66.6603 1.82252 0.857106 0
M  V30 706 C 63.7253 3.26435 1.16795 0
M  V30 707 C 62.7863 4.26998 0.443944 0
M  V30 708 C 62.0193 5.14986 1.40088 0
M  V30 709 O 62.2423 5.05785 2.637 0
M  V30 710 O 61.1763 5.94906 0.914917 0
M  V30 711 H 65.0023 2.98607 -0.55388 0
M  V30 712 H 62.5873 1.45554 -0.336821 0
M  V30 713 H 64.4693 3.83459 1.74748 0
M  V30 714 H 63.1443 2.64465 1.86655 0
M  V30 715 H 62.0513 3.7368 -0.177271 0
M  V30 716 H 63.3843 4.91736 -0.213566 0
M  V30 717 N 65.0364 0.313813 1.54444 0
M  V30 718 C 66.3134 -0.345447 1.92525 0
M  V30 719 C 66.6934 -1.70667 1.24242 0
M  V30 720 O 66.0414 -2.25273 0.382654 0
M  V30 721 C 66.2514 -0.44737 3.46121 0
M  V30 722 C 67.5994 -0.712238 4.18584 0
M  V30 723 O 68.6234 -0.530678 3.52225 0
M  V30 724 O 67.4824 -1.06183 5.36085 0
M  V30 725 H 64.5764 -0.195407 0.803583 0
M  V30 726 H 67.1224 0.362813 1.65776 0
M  V30 727 H 65.8944 0.509043 3.87975 0
M  V30 728 H 65.5174 -1.20359 3.78945 0
M  V30 729 N 66.5145 -1.57545 0.0417849 0
M  V30 730 C 67.4445 -2.14009 -0.933929 0
M  V30 731 C 68.4255 -1.05938 -1.33083 0
M  V30 732 O 69.6105 -1.33833 -1.40721 0
M  V30 733 C 66.7405 -2.67747 -2.21199 0
M  V30 734 C 65.6945 -3.80718 -1.95544 0
M  V30 735 C 65.0205 -4.20935 -3.29724 0
M  V30 736 C 66.3205 -5.06258 -1.28452 0
M  V30 737 H 68.0145 -2.95788 -0.463645 0
M  V30 738 H 65.5605 -1.42285 -0.221573 0
M  V30 739 H 67.5135 -3.05886 -2.89848 0
M  V30 740 H 66.2375 -1.83147 -2.70416 0
M  V30 741 H 64.8965 -3.43037 -1.2931 0
M  V30 742 H 64.5445 -3.33298 -3.76724 0
M  V30 743 H 64.2445 -4.9707 -3.13361 0
M  V30 744 H 65.7685 -4.61666 -3.9962 0
M  V30 745 H 67.1825 -5.41903 -1.8712 0
M  V30 746 H 65.5795 -5.87475 -1.22445 0
M  V30 747 H 66.6495 -4.84207 -0.259219 0
M  V30 748 N 67.9926 0.231505 -1.5589 0
M  V30 749 C 69.2176 0.978689 -1.82856 0
M  V30 750 C 69.6426 1.77559 -0.620846 0
M  V30 751 O 69.0006 1.76119 0.430305 0
M  V30 752 C 69.0486 1.87997 -3.07716 0
M  V30 753 O 68.1526 2.97393 -2.85712 0
M  V30 754 H 67.4936 0.277663 -0.603158 0
M  V30 755 H 70.0236 0.24783 -2.03093 0
M  V30 756 H 70.0336 2.2917 -3.37558 0
M  V30 757 H 68.7086 1.29417 -3.95252 0
M  V30 758 H 67.2856 2.60238 -2.67078 0
M  V30 759 N 69.4707 1.49531 0.497807 0
M  V30 760 C 70.4007 1.6935 1.60757 0
M  V30 761 C 71.3817 0.542218 1.61227 0
M  V30 762 O 72.5667 0.778417 1.77917 0
M  V30 763 C 69.6967 1.76298 2.99226 0
M  V30 764 C 68.6507 2.91248 3.13622 0
M  V30 765 C 67.9767 2.83312 4.53474 0
M  V30 766 C 69.2767 4.3214 2.93346 0
M  V30 767 H 70.9707 2.62263 1.44425 0
M  V30 768 H 68.5167 1.26208 0.693367 0
M  V30 769 H 70.4697 1.88749 3.76765 0
M  V30 770 H 69.1937 0.799871 3.16654 0
M  V30 771 H 67.8527 2.78404 2.38509 0
M  V30 772 H 67.5007 1.84902 4.67782 0
M  V30 773 H 67.2007 3.60465 4.64046 0
M  V30 774 H 68.7247 2.97775 5.33069 0
M  V30 775 H 70.1387 4.45649 3.60652 0
M  V30 776 H 68.5357 5.1054 3.15387 0
M  V30 777 H 69.6057 4.46363 1.89441 0
M  V30 778 N 70.9488 -0.749086 1.3866 0
M  V30 779 C 71.8588 -1.89358 1.38494 0
M  V30 780 C 72.8748 -1.71708 0.281476 0
M  V30 781 O 74.0508 -1.94554 0.520643 0
M  V30 782 C 71.1158 -3.24782 1.21316 0
M  V30 783 C 70.1768 -3.54926 2.41508 0
M  V30 784 C 69.4098 -4.83888 2.2514 0
M  V30 785 O 69.6328 -5.56592 1.24746 0
M  V30 786 O 68.5668 -5.13612 3.13826 0
M  V30 787 H 72.3928 -1.92452 2.34938 0
M  V30 788 H 69.9778 -0.894981 1.19626 0
M  V30 789 H 71.8598 -4.05739 1.13814 0
M  V30 790 H 70.5348 -3.2249 0.279592 0
M  V30 791 H 69.4418 -2.74112 2.54585 0
M  V30 792 H 70.7748 -3.61983 3.3351 0
M  V30 793 N 72.4269 -1.23603 -0.977757 0
M  V30 794 C 73.3369 -1.03632 -2.1047 0
M  V30 795 C 74.3529 0.0199435 -1.73989 0
M  V30 796 O 75.5289 -0.176076 -2.00629 0
M  V30 797 C 72.5939 -0.63276 -3.40877 0
M  V30 798 C 71.6549 -1.76437 -3.91367 0
M  V30 799 C 70.8879 -1.37997 -5.15551 0
M  V30 800 O 71.1109 -0.265357 -5.69782 0
M  V30 801 O 70.0449 -2.20201 -5.60174 0
M  V30 802 H 73.8709 -1.98086 -2.30208 0
M  V30 803 H 71.4559 -1.02332 -1.08851 0
M  V30 804 H 73.3379 -0.418761 -4.19314 0
M  V30 805 H 72.0129 0.282754 -3.22463 0
M  V30 806 H 70.9199 -2.03304 -3.14036 0
M  V30 807 H 72.2529 -2.6583 -4.14241 0
M  V30 808 N 73.905 1.17692 -1.04816 0
M  V30 809 C 75.151 1.88137 -0.75711 0
M  V30 810 C 75.484 1.80604 0.713841 0
M  V30 811 O 74.759 1.21146 1.52164 0
M  V30 812 C 75.042 3.38318 -1.2334 0
M  V30 813 C 74.895 3.54622 -2.76701 0
M  V30 814 C 76.214 4.32214 -0.829415 0
M  V30 815 H 73.333 0.683163 -0.27651 0
M  V30 816 H 75.975 1.38424 -1.30149 0
M  V30 817 H 74.125 3.80787 -0.770286 0
M  V30 818 H 75.797 3.21194 -3.31107 0
M  V30 819 H 74.04 2.97026 -3.16161 0
M  V30 820 H 74.711 4.60028 -3.05088 0
M  V30 821 H 77.187 3.97565 -1.22805 0
M  V30 822 H 76.063 5.35838 -1.19033 0
M  V30 823 H 76.324 4.41294 0.266891 0
M  V30 824 N 75.3831 0.828654 1.34056 0
M  V30 825 C 76.3461 0.259927 2.27721 0
M  V30 826 C 77.3461 -0.565478 1.50529 0
M  V30 827 O 78.5361 -0.38075 1.69988 0
M  V30 828 C 75.6681 -0.634944 3.34935 0
M  V30 829 H 76.8611 1.0863 2.79534 0
M  V30 830 H 74.4141 0.600951 1.44285 0
M  V30 831 H 75.1491 -1.48416 2.88346 0
M  V30 832 H 74.9341 -0.0444999 3.92075 0
M  V30 833 H 76.4241 -1.02648 4.04788 0
M  V30 834 N 76.8612 -1.46375 0.584142 0
M  V30 835 C 77.7712 -2.34115 -0.150728 0
M  V30 836 C 78.7872 -1.49838 -0.884567 0
M  V30 837 O 79.9632 -1.82704 -0.847429 0
M  V30 838 C 77.0282 -3.2705 -1.15062 0
M  V30 839 C 76.0892 -4.27228 -0.421293 0
M  V30 840 C 75.3222 -5.15722 -1.37355 0
M  V30 841 O 75.5452 -5.07176 -2.61014 0
M  V30 842 O 74.4792 -5.95383 -0.883355 0
M  V30 843 H 78.3052 -2.98309 0.569708 0
M  V30 844 H 75.8902 -1.45373 0.344535 0
M  V30 845 H 77.7722 -3.84381 -1.72712 0
M  V30 846 H 76.4472 -2.65451 -1.8525 0
M  V30 847 H 75.3542 -3.7358 0.197085 0
M  V30 848 H 76.6872 -4.91616 0.239641 0
M  V30 849 N 78.3393 -0.321999 -1.54275 0
M  V30 850 C 79.5883 0.281931 -1.9972 0
M  V30 851 C 79.9013 1.53369 -1.21397 0
M  V30 852 O 81.1073 2.21352 -1.57211 0
M  V30 853 C 79.5633 0.5529 -3.55628 0
M  V30 854 C 79.1713 -0.681721 -4.42783 0
M  V30 855 C 80.9153 1.11687 -4.09544 0
M  V30 856 C 78.8223 -0.382742 -5.9016 0
M  V30 857 H 77.7523 0.109124 -0.746062 0
M  V30 858 H 80.4033 -0.43398 -1.78294 0
M  V30 859 H 78.7853 1.32896 -3.73035 0
M  V30 860 H 79.9593 -1.45723 -4.37151 0
M  V30 861 H 78.2743 -1.1658 -3.99748 0
M  V30 862 H 80.8713 1.35515 -5.17242 0
M  V30 863 H 81.2143 2.06575 -3.61431 0
M  V30 864 H 81.7473 0.402032 -3.95763 0
M  V30 865 H 78.4863 -1.30076 -6.42464 0
M  V30 866 H 78.0063 0.355094 -5.98748 0
M  V30 867 H 79.6853 0.00800157 -6.47 0
M  V30 868 N 79.8174 1.5752 -0.0501392 0
M  V30 869 C 81.0474 1.96678 0.632573 0
M  V30 870 C 81.4554 0.926298 1.64974 0
M  V30 871 O 80.7984 -0.09802 1.83438 0
M  V30 872 C 80.8604 3.32068 1.37735 0
M  V30 873 C 80.5244 4.54076 0.516131 0
M  V30 874 C 81.5214 5.19445 -0.217357 0
M  V30 875 C 79.2064 5.00304 0.44736 0
M  V30 876 C 81.2004 6.29378 -1.00807 0
M  V30 877 C 78.8874 6.10114 -0.347038 0
M  V30 878 C 79.8854 6.74512 -1.07344 0
M  V30 879 O 79.5734 7.82211 -1.85477 0
M  V30 880 H 79.3054 0.652193 0.177821 0
M  V30 881 H 81.8594 2.05091 -0.112543 0
M  V30 882 H 80.0894 3.20206 2.16807 0
M  V30 883 H 81.7784 3.55981 1.95019 0
M  V30 884 H 82.5444 4.84689 -0.173688 0
M  V30 885 H 78.4234 4.49971 1.00235 0
M  V30 886 H 81.9674 6.79575 -1.57556 0
M  V30 887 H 77.8644 6.44307 -0.392349 0
M  V30 888 H 78.6324 7.98982 -1.77678 0
M  V30 889 N 81.2955 -0.223234 1.56011 0
M  V30 890 C 82.2255 -1.27988 1.95298 0
M  V30 891 C 83.2065 -1.48976 0.820979 0
M  V30 892 O 84.3915 -1.61188 1.08315 0
M  V30 893 C 81.5215 -2.63 2.26822 0
M  V30 894 C 80.4755 -2.56671 3.42497 0
M  V30 895 C 79.8015 -3.95697 3.59622 0
M  V30 896 C 81.1015 -2.11601 4.77517 0
M  V30 897 H 82.7955 -0.953525 2.8381 0
M  V30 898 H 80.3415 -0.457244 1.36548 0
M  V30 899 H 82.2945 -3.37077 2.52898 0
M  V30 900 H 81.0185 -2.9732 1.35161 0
M  V30 901 H 79.6775 -1.85051 3.16467 0
M  V30 902 H 79.3255 -4.27322 2.6534 0
M  V30 903 H 79.0255 -3.92345 4.37424 0
M  V30 904 H 80.5495 -4.71438 3.88044 0
M  V30 905 H 81.9635 -2.7542 5.02809 0
M  V30 906 H 80.3605 -2.19311 5.5859 0
M  V30 907 H 81.4305 -1.06824 4.72987 0
M  V30 908 N 82.7736 -1.49793 -0.48987 0
M  V30 909 C 84.1846 -1.52914 -1.07118 0
M  V30 910 C 84.5356 -0.321738 -1.93544 0
M  V30 911 O 83.6606 0.567338 -2.08831 0
M  V30 912 C 84.2556 -2.771 -1.94938 0
M  V30 913 C 82.8146 -2.82963 -2.48212 0
M  V30 914 C 81.9616 -2.46972 -1.26096 0
M  V30 915 H 84.9126 -1.56329 -0.273289 0
M  V30 916 H 84.9336 -2.57892 -2.79771 0
M  V30 917 H 84.4456 -3.64959 -1.32009 0
M  V30 918 H 82.5466 -1.99411 -3.14748 0
M  V30 919 H 82.6596 -3.85406 -2.84603 0
M  V30 920 H 81.0236 -1.98994 -1.58976 0
M  V30 921 H 81.8066 -3.37118 -0.648581 0
M  V30 922 N 84.2517 0.741722 -1.39055 0
M  V30 923 C 85.1817 1.869 -1.39966 0
M  V30 924 C 86.1627 1.6804 -0.26392 0
M  V30 925 O 87.3477 1.88458 -0.468755 0
M  V30 926 C 84.4777 3.24572 -1.23574 0
M  V30 927 C 83.4317 3.58056 -2.34477 0
M  V30 928 C 82.7577 4.94593 -2.0318 0
M  V30 929 C 84.0577 3.61716 -3.76774 0
M  V30 930 H 85.7517 1.86395 -2.34302 0
M  V30 931 H 83.2977 0.895361 -1.1278 0
M  V30 932 H 85.2507 4.031 -1.22834 0
M  V30 933 H 83.9747 3.25587 -0.257045 0
M  V30 934 H 82.6337 2.81854 -2.34423 0
M  V30 935 H 82.2817 4.92181 -1.03765 0
M  V30 936 H 81.9817 5.17964 -2.77465 0
M  V30 937 H 83.5057 5.75486 -2.04079 0
M  V30 938 H 84.9197 4.30335 -3.78794 0
M  V30 939 H 83.3167 3.96603 -4.50362 0
M  V30 940 H 84.3867 2.61672 -4.08235 0
M  V30 941 N 85.7298 1.2412 0.971189 0
M  V30 942 C 86.9548 1.10667 1.75407 0
M  V30 943 C 87.3798 -0.337048 1.85056 0
M  V30 944 O 86.7378 -1.24396 1.31892 0
M  V30 945 C 86.7858 1.74726 3.15441 0
M  V30 946 O 85.8898 1.01566 3.99697 0
M  V30 947 H 85.2308 0.387341 0.539317 0
M  V30 948 H 87.7608 1.64358 1.2185 0
M  V30 949 H 87.7708 1.80341 3.6598 0
M  V30 950 H 86.4458 2.79773 3.07734 0
M  V30 951 H 85.0228 1.03713 3.58187 0
M  V30 952 N 87.2079 -1.17134 1.05439 0
M  V30 953 C 88.6239 -1.39454 0.776201 0
M  V30 954 C 88.8239 -1.91454 -0.628307 0
M  V30 955 O 87.8799 -2.10777 -1.39031 0
M  V30 956 C 89.1929 -2.38305 1.83388 0
M  V30 957 C 90.7409 -2.52006 1.85639 0
M  V30 958 C 91.2159 -3.54133 2.90437 0
M  V30 959 N 92.7069 -3.61653 2.89415 0
M  V30 960 C 93.4419 -4.4044 3.67152 0
M  V30 961 N 92.9379 -5.22721 4.54681 0
M  V30 962 N 94.7309 -4.35337 3.55581 0
M  V30 963 H 86.8819 -0.817134 1.96053 0
M  V30 964 H 89.1449 -0.421626 0.849079 0
M  V30 965 H 88.8509 -2.07173 2.84204 0
M  V30 966 H 88.7249 -3.37841 1.67761 0
M  V30 967 H 91.1119 -2.82447 0.85486 0
M  V30 968 H 91.1929 -1.52537 2.05344 0
M  V30 969 H 90.8369 -3.24431 3.90777 0
M  V30 970 H 90.7669 -4.53313 2.67983 0
M  V30 971 H 93.2579 -3.02909 2.25952 0
M  V30 972 H 93.5709 -5.80027 5.10674 0
M  V30 973 H 91.9159 -5.22093 4.58741 0
M  V30 974 H 95.1069 -3.70112 2.86592 0
M  V30 975 H 95.2799 -4.96494 4.1641 0
M  V30 976 N 88.686 -0.835752 -1.33615 0
M  V30 977 C 89.616 -0.281739 -2.31794 0
M  V30 978 C 90.597 0.608833 -1.58831 0
M  V30 979 O 91.782 0.533035 -1.86741 0
M  V30 980 C 88.912 0.546612 -3.42971 0
M  V30 981 C 87.866 -0.247904 -4.27281 0
M  V30 982 C 87.192 0.704001 -5.30045 0
M  V30 983 C 88.492 -1.46324 -5.01385 0
M  V30 984 H 90.186 -1.10206 -2.78379 0
M  V30 985 H 87.732 -0.531388 -1.33837 0
M  V30 986 H 89.685 0.944467 -4.1068 0
M  V30 987 H 88.409 1.40011 -2.95067 0
M  V30 988 H 87.068 -0.627281 -3.61194 0
M  V30 989 H 86.716 1.55381 -4.78399 0
M  V30 990 H 86.416 0.176524 -5.87335 0
M  V30 991 H 87.94 1.09944 -6.0062 0
M  V30 992 H 89.354 -1.13871 -5.61877 0
M  V30 993 H 87.751 -1.92728 -5.6831 0
M  V30 994 H 88.821 -2.23467 -4.30338 0
M  V30 995 N 90.1641 1.46063 -0.591896 0
M  V30 996 C 91.0941 2.33172 0.123673 0
M  V30 997 C 92.0751 1.45897 0.87453 0
M  V30 998 O 93.2601 1.74698 0.848181 0
M  V30 999 C 90.3901 3.28336 1.13194 0
M  V30 1000 C 89.3441 4.25124 0.495324 0
M  V30 1001 C 88.6701 5.09863 1.61071 0
M  V30 1002 C 89.9701 5.19143 -0.573425 0
M  V30 1003 H 91.6641 2.93252 -0.603646 0
M  V30 1004 H 89.2101 1.41014 -0.291741 0
M  V30 1005 H 91.1631 3.88137 1.64097 0
M  V30 1006 H 89.8871 2.66383 1.88965 0
M  V30 1007 H 88.5461 3.66599 0.00729452 0
M  V30 1008 H 88.1941 4.44288 2.35832 0
M  V30 1009 H 87.8941 5.75417 1.19035 0
M  V30 1010 H 89.4181 5.72529 2.12233 0
M  V30 1011 H 90.8321 5.73106 -0.1491 0
M  V30 1012 H 89.2291 5.93089 -0.914636 0
M  V30 1013 H 90.2991 4.62519 -1.45617 0
M  V30 1014 N 91.6422 0.330177 1.54103 0
M  V30 1015 C 92.5902 -0.548226 2.26047 0
M  V30 1016 C 93.5842 -1.11309 1.27698 0
M  V30 1017 O 94.7902 -1.06036 1.45452 0
M  V30 1018 H 91.1652 -0.195456 0.726155 0
M  V30 1019 H 93.1362 0.0807567 2.98291 0
M  V30 1020 C 91.8852 -1.69415 3.03634 0
M  V30 1021 H 91.2082 -1.26876 3.79134 0
M  V30 1022 H 92.6482 -2.28423 3.5721 0
M  V30 1023 C 91.1072 -2.61569 2.12328 0
M  V30 1024 O 91.6372 -3.63462 1.7105 0
M  V30 1025 N 89.8432 -2.29952 1.77681 0
M  V30 1026 H 89.3902 -1.47134 2.11446 0
M  V30 1027 H 89.3482 -2.91871 1.16869 0
M  V30 1028 N 93.1203 -1.57491 0.0584922 0
M  V30 1029 C 94.3673 -1.92978 -0.613648 0
M  V30 1030 C 94.6953 -0.937461 -1.70417 0
M  V30 1031 O 93.9503 0.049078 -1.95638 0
M  V30 1032 C 94.2493 -3.3513 -1.24188 0
M  V30 1033 C 93.9153 -4.50037 -0.278826 0
M  V30 1034 C 92.5773 -4.81198 -0.0138447 0
M  V30 1035 C 94.9293 -5.19807 0.380777 0
M  V30 1036 C 92.2573 -5.79473 0.918052 0
M  V30 1037 C 94.6093 -6.19079 1.30091 0
M  V30 1038 C 93.2733 -6.48665 1.57449 0
M  V30 1039 H 92.5433 -0.706157 -0.22455 0
M  V30 1040 H 95.1903 -1.91082 0.126533 0
M  V30 1041 H 93.4953 -3.33429 -2.05749 0
M  V30 1042 H 95.1923 -3.59871 -1.769 0
M  V30 1043 H 91.7823 -4.25726 -0.495539 0
M  V30 1044 H 95.9663 -4.95939 0.189158 0
M  V30 1045 H 91.2223 -6.00727 1.1374 0
M  V30 1046 H 95.3963 -6.7225 1.81804 0
M  V30 1047 H 93.0233 -7.24628 2.29822 0
M  V30 1048 N 94.5984 0.214957 -1.56127 0
M  V30 1049 C 95.8284 0.953707 -1.8327 0
M  V30 1050 C 96.2364 1.78181 -0.636262 0
M  V30 1051 O 95.5794 1.79191 0.404516 0
M  V30 1052 C 95.6414 1.91516 -3.0424 0
M  V30 1053 C 95.3054 1.27094 -4.38972 0
M  V30 1054 C 96.3024 0.657575 -5.15725 0
M  V30 1055 C 93.9874 1.28073 -4.85698 0
M  V30 1056 C 95.9814 0.0625968 -6.37369 0
M  V30 1057 C 93.6684 0.681914 -6.07283 0
M  V30 1058 C 94.6664 0.0739046 -6.8296 0
M  V30 1059 O 94.3544 -0.515582 -8.02245 0
M  V30 1060 H 94.0864 0.284764 -0.613095 0
M  V30 1061 H 96.6404 0.233283 -2.04071 0
M  V30 1062 H 94.8704 2.67475 -2.79274 0
M  V30 1063 H 96.5594 2.52001 -3.18198 0
M  V30 1064 H 97.3254 0.642288 -4.80728 0
M  V30 1065 H 93.2044 1.74337 -4.26764 0
M  V30 1066 H 96.7484 -0.412593 -6.96379 0
M  V30 1067 H 92.6454 0.694636 -6.41752 0
M  V30 1068 H 93.4134 -0.410544 -8.1747 0
M  V30 1069 N 96.0765 1.50051 0.48192 0
M  V30 1070 C 97.3255 1.59741 1.23149 0
M  V30 1071 C 97.6385 0.298163 1.93314 0
M  V30 1072 O 98.8445 0.273835 2.70116 0
M  V30 1073 C 97.3005 2.81926 2.23708 0
M  V30 1074 C 96.9085 4.18685 1.59396 0
M  V30 1075 C 98.6525 3.00956 2.99375 0
M  V30 1076 C 96.5595 5.3207 2.58178 0
M  V30 1077 H 95.4895 0.594838 0.46334 0
M  V30 1078 H 98.1405 1.76467 0.503169 0
M  V30 1079 H 96.5225 2.58736 2.99786 0
M  V30 1080 H 97.6965 4.52088 0.891811 0
M  V30 1081 H 96.0115 4.05171 0.960503 0
M  V30 1082 H 98.6085 3.82836 3.73283 0
M  V30 1083 H 98.9515 2.12258 3.58123 0
M  V30 1084 H 99.4845 3.24277 2.30411 0
M  V30 1085 H 96.2235 6.22888 2.04184 0
M  V30 1086 H 95.7435 5.03098 3.26577 0
M  V30 1087 H 97.4225 5.62196 3.20225 0
M  V30 1088 N 97.5546 -0.734337 1.39446 0
M  V30 1089 C 98.7796 -1.52866 1.40167 0
M  V30 1090 C 99.2046 -1.881 -0.00171513 0
M  V30 1091 O 98.5626 -1.51957 -0.988879 0
M  V30 1092 C 98.6106 -2.79235 2.28167 0
M  V30 1093 O 97.7146 -3.75185 1.71201 0
M  V30 1094 H 97.0556 -0.461618 0.477289 0
M  V30 1095 H 99.5856 -0.905949 1.8345 0
M  V30 1096 H 99.5956 -3.27963 2.42702 0
M  V30 1097 H 98.2706 -2.52923 3.30156 0
M  V30 1098 H 96.8476 -3.33958 1.65912 0
M  V30 1099 N 99.0327 -1.24633 -0.964593 0
M  V30 1100 C 100.258 -1.11596 -1.74818 0
M  V30 1101 C 100.683 0.32723 -1.85232 0
M  V30 1102 O 100.041 1.23695 -1.32549 0
M  V30 1103 C 100.089 -1.76397 -3.1451 0
M  V30 1104 O 99.1927 -1.03685 -3.99153 0
M  V30 1105 H 98.5337 -0.390196 -0.537255 0
M  V30 1106 H 101.064 -1.65002 -1.20977 0
M  V30 1107 H 101.074 -1.8228 -3.65018 0
M  V30 1108 H 99.7487 -2.81401 -3.06246 0
M  V30 1109 H 98.3257 -1.05611 -3.57632 0
M  V30 1110 N 100.511 1.16574 -1.06058 0
M  V30 1111 C 101.459 2.22941 -0.663343 0
M  V30 1112 C 102.453 1.66358 0.319593 0
M  V30 1113 O 103.659 1.7905 0.184713 0
M  V30 1114 H 100.034 0.725907 -0.196376 0
M  V30 1115 H 102.005 2.53736 -1.57037 0
M  V30 1116 C 100.754 3.47642 -0.0632808 0
M  V30 1117 H 100.077 3.91493 -0.810733 0
M  V30 1118 H 101.517 4.2363 0.177177 0
M  V30 1119 C 99.9758 3.1509 1.19248 0
M  V30 1120 O 100.506 3.30673 2.28075 0
M  V30 1121 N 98.7118 2.6924 1.09353 0
M  V30 1122 H 98.2588 2.5676 0.207912 0
M  V30 1123 H 98.2168 2.47833 1.93458 0
M  V30 1124 N 101.989 0.842826 1.3317 0
M  V30 1125 C 102.919 0.294028 2.31641 0
M  V30 1126 C 103.9 -0.600401 1.59151 0
M  V30 1127 O 105.085 -0.523124 1.87022 0
M  V30 1128 C 102.215 -0.528416 3.43257 0
M  V30 1129 C 101.169 0.27056 4.27144 0
M  V30 1130 C 100.495 -0.675881 5.30411 0
M  V30 1131 C 101.795 1.48981 5.00602 0
M  V30 1132 H 103.489 1.11681 2.77791 0
M  V30 1133 H 101.035 0.538478 1.33553 0
M  V30 1134 H 102.988 -0.922674 4.11175 0
M  V30 1135 H 101.712 -1.38445 2.95805 0
M  V30 1136 H 100.371 0.646427 3.60856 0
M  V30 1137 H 100.019 -1.52842 4.79216 0
M  V30 1138 H 99.7189 -0.145374 5.8742 0
M  V30 1139 H 101.243 -1.06757 6.01195 0
M  V30 1140 H 102.657 1.16849 5.61266 0
M  V30 1141 H 101.054 1.95739 5.6728 0
M  V30 1142 H 102.124 2.25746 4.29147 0
M  V30 1143 N 103.467 -1.45747 0.599634 0
M  V30 1144 C 104.883 -1.57424 0.26264 0
M  V30 1145 C 105.083 -1.59222 -1.23493 0
M  V30 1146 O 104.139 -1.51825 -2.01756 0
M  V30 1147 C 105.452 -2.86061 0.926795 0
M  V30 1148 C 107 -2.99722 0.901967 0
M  V30 1149 C 107.475 -4.31119 1.54598 0
M  V30 1150 N 108.966 -4.37858 1.5111 0
M  V30 1151 C 109.701 -5.3818 1.97863 0
M  V30 1152 N 109.197 -6.45083 2.52666 0
M  V30 1153 N 110.99 -5.29487 1.88679 0
M  V30 1154 H 103.141 -1.42823 1.57211 0
M  V30 1155 H 105.404 -0.68235 0.658105 0
M  V30 1156 H 105.11 -2.90605 1.98095 0
M  V30 1157 H 104.984 -3.74563 0.445238 0
M  V30 1158 H 107.371 -2.9475 -0.143617 0
M  V30 1159 H 107.452 -2.12652 1.42171 0
M  V30 1160 H 107.096 -4.36849 2.59085 0
M  V30 1161 H 107.026 -5.16992 1.00132 0
M  V30 1162 H 109.517 -3.61209 1.11068 0
M  V30 1163 H 109.83 -7.17869 2.86155 0
M  V30 1164 H 108.175 -6.45856 2.56701 0
M  V30 1165 H 111.366 -4.44877 1.4561 0
M  V30 1166 H 111.539 -6.07524 2.25429 0
M  V30 1167 N 104.945 -0.338344 -1.53925 0
M  V30 1168 C 106.361 0.0137736 -1.59594 0
M  V30 1169 C 106.561 1.49186 -1.35447 0
M  V30 1170 O 105.617 2.24987 -1.14616 0
M  V30 1171 C 106.93 -0.41773 -2.97784 0
M  V30 1172 C 108.478 -0.369633 -3.1081 0
M  V30 1173 C 108.953 -0.776524 -4.51369 0
M  V30 1174 N 110.444 -0.730506 -4.57403 0
M  V30 1175 C 111.179 -1.01736 -5.64303 0
M  V30 1176 N 110.675 -1.3721 -6.79077 0
M  V30 1177 N 112.468 -0.941942 -5.54151 0
M  V30 1178 H 104.619 -1.3012 -1.67876 0
M  V30 1179 H 106.882 -0.530082 -0.78595 0
M  V30 1180 H 106.588 -1.44811 -3.20504 0
M  V30 1181 H 106.462 0.209729 -3.76616 0
M  V30 1182 H 108.849 0.651568 -2.87817 0
M  V30 1183 H 108.93 -1.03223 -2.34049 0
M  V30 1184 H 108.574 -1.79571 -4.75096 0
M  V30 1185 H 108.504 -0.0914649 -5.26521 0
M  V30 1186 H 110.995 -0.468783 -3.74981 0
M  V30 1187 H 111.308 -1.57597 -7.5656 0
M  V30 1188 H 109.653 -1.4105 -6.80536 0
M  V30 1189 H 112.844 -0.664184 -4.63364 0
M  V30 1190 H 113.017 -1.16884 -6.37371 0
M  V30 1191 N 106.423 1.57458 -0.0668435 0
M  V30 1192 C 107.355 2.09413 0.931601 0
M  V30 1193 C 108.368 1.02522 1.26464 0
M  V30 1194 O 109.557 1.30049 1.22269 0
M  V30 1195 C 106.657 2.53537 2.24882 0
M  V30 1196 C 105.83 3.83944 2.09537 0
M  V30 1197 C 104.889 4.14214 3.2452 0
M  V30 1198 O 103.915 4.83891 2.9973 0
M  V30 1199 N 105.117 3.67367 4.49469 0
M  V30 1200 H 107.882 2.95699 0.488048 0
M  V30 1201 H 105.443 1.61462 0.119009 0
M  V30 1202 H 107.435 2.70853 3.00701 0
M  V30 1203 H 106.005 1.72415 2.60753 0
M  V30 1204 H 105.225 3.76057 1.18215 0
M  V30 1205 H 106.513 4.69312 1.96529 0
M  V30 1206 H 105.911 3.11068 4.72497 0
M  V30 1207 H 104.468 3.89891 5.2233 0
M  V30 1208 N 107.901 -0.206675 1.56239 0
M  V30 1209 C 108.864 -1.23976 1.92776 0
M  V30 1210 C 109.864 -1.39041 0.807729 0
M  V30 1211 O 111.054 -1.37051 1.0753 0
M  V30 1212 C 108.186 -2.61112 2.19165 0
M  V30 1213 H 109.379 -0.927764 2.85189 0
M  V30 1214 H 106.932 -0.447718 1.4975 0
M  V30 1215 H 107.667 -2.97386 1.29352 0
M  V30 1216 H 107.452 -2.51552 3.00772 0
M  V30 1217 H 108.942 -3.35633 2.48476 0
M  V30 1218 N 109.379 -1.50304 -0.473955 0
M  V30 1219 C 110.625 -1.61389 -1.22806 0
M  V30 1220 C 110.958 -0.311955 -1.91678 0
M  V30 1221 O 110.233 0.686384 -1.81986 0
M  V30 1222 C 110.516 -2.79219 -2.27396 0
M  V30 1223 C 110.369 -4.19286 -1.62848 0
M  V30 1224 C 111.688 -2.92614 -3.28732 0
M  V30 1225 H 108.807 -0.587399 -0.445119 0
M  V30 1226 H 111.449 -1.82681 -0.522265 0
M  V30 1227 H 109.599 -2.61195 -2.87592 0
M  V30 1228 H 111.271 -4.48892 -1.06271 0
M  V30 1229 H 109.514 -4.23677 -0.931693 0
M  V30 1230 H 110.185 -4.97655 -2.38838 0
M  V30 1231 H 112.661 -3.09105 -2.78556 0
M  V30 1232 H 111.537 -3.76688 -3.99246 0
M  V30 1233 H 111.798 -2.03107 -3.92683 0
M  V30 1234 N 110.857 0.726932 -1.39834 0
M  V30 1235 C 111.787 1.85405 -1.41941 0
M  V30 1236 C 112.768 1.67751 -0.281728 0
M  V30 1237 O 113.953 1.8795 -0.488717 0
M  V30 1238 C 111.083 3.23243 -1.2701 0
M  V30 1239 C 110.037 3.55549 -2.38262 0
M  V30 1240 C 109.363 4.9241 -2.08415 0
M  V30 1241 C 110.663 3.577 -3.80589 0
M  V30 1242 H 112.357 1.83899 -2.36266 0
M  V30 1243 H 109.903 0.883349 -1.13723 0
M  V30 1244 H 111.856 4.01775 -1.27103 0
M  V30 1245 H 110.58 3.25296 -0.291564 0
M  V30 1246 H 109.239 2.79351 -2.37399 0
M  V30 1247 H 108.887 4.91052 -1.0898 0
M  V30 1248 H 108.587 5.14992 -2.82943 0
M  V30 1249 H 110.111 5.73289 -2.10171 0
M  V30 1250 H 111.525 4.26293 -3.83337 0
M  V30 1251 H 109.922 3.91804 -4.54543 0
M  V30 1252 H 110.992 2.57328 -4.10987 0
M  V30 1253 N 112.336 1.25143 0.95797 0
M  V30 1254 C 113.246 1.06968 2.08794 0
M  V30 1255 C 114.262 0.00773911 1.73998 0
M  V30 1256 O 115.438 0.207972 2.00323 0
M  V30 1257 C 112.503 0.68691 3.39827 0
M  V30 1258 C 111.564 1.82641 3.88511 0
M  V30 1259 C 110.797 1.46181 5.1329 0
M  V30 1260 O 111.02 0.355971 5.69288 0
M  V30 1261 O 109.954 2.29085 5.566 0
M  V30 1262 H 113.78 2.01723 2.27027 0
M  V30 1263 H 111.365 1.04051 1.07209 0
M  V30 1264 H 113.247 0.485417 4.18595 0
M  V30 1265 H 111.922 -0.231417 3.22872 0
M  V30 1266 H 110.829 2.08274 3.10762 0
M  V30 1267 H 112.162 2.72386 4.09959 0
M  V30 1268 N 113.814 -1.1601 1.06675 0
M  V30 1269 C 114.746 -2.20115 0.638921 0
M  V30 1270 C 115.759 -1.59916 -0.305057 0
M  V30 1271 O 116.948 -1.78245 -0.0954446 0
M  V30 1272 C 114.048 -3.38798 -0.0830083 0
M  V30 1273 C 113.221 -4.2855 0.875426 0
M  V30 1274 C 112.28 -5.25849 0.192042 0
M  V30 1275 O 111.306 -5.63102 0.830921 0
M  V30 1276 N 112.508 -5.70648 -1.06493 0
M  V30 1277 H 115.273 -2.57439 1.53444 0
M  V30 1278 H 112.834 -1.31057 0.950557 0
M  V30 1279 H 114.826 -4.00936 -0.550685 0
M  V30 1280 H 113.396 -2.99947 -0.880386 0
M  V30 1281 H 112.616 -3.63617 1.52238 0
M  V30 1282 H 113.904 -4.85393 1.52548 0
M  V30 1283 H 113.302 -5.42482 -1.60405 0
M  V30 1284 H 111.859 -6.34859 -1.47641 0
M  V30 1285 N 115.292 -0.849877 -1.32721 0
M  V30 1286 C 116.539 -0.450923 -1.97416 0
M  V30 1287 C 116.867 0.992376 -1.67279 0
M  V30 1288 O 116.122 1.71048 -0.950845 0
M  V30 1289 C 116.421 -0.631272 -3.51781 0
M  V30 1290 C 116.087 -2.04432 -4.01894 0
M  V30 1291 C 114.749 -2.4308 -4.1529 0
M  V30 1292 C 117.101 -2.96679 -4.28522 0
M  V30 1293 C 114.429 -3.73257 -4.52654 0
M  V30 1294 C 116.781 -4.26349 -4.67343 0
M  V30 1295 C 115.445 -4.64939 -4.78945 0
M  V30 1296 H 114.715 -0.165004 -0.722395 0
M  V30 1297 H 117.362 -1.07901 -1.58207 0
M  V30 1298 H 115.667 0.0800767 -3.91718 0
M  V30 1299 H 117.364 -0.302709 -3.99856 0
M  V30 1300 H 113.954 -1.73419 -3.91949 0
M  V30 1301 H 118.138 -2.68054 -4.17685 0
M  V30 1302 H 113.394 -4.02946 -4.59831 0
M  V30 1303 H 117.568 -4.97895 -4.86902 0
M  V30 1304 H 115.195 -5.65855 -5.07654 0
M  V30 1305 N 116.77 1.45427 -0.607355 0
M  V30 1306 C 117.7 2.3329 0.0989352 0
M  V30 1307 C 118.681 1.46816 0.859007 0
M  V30 1308 O 119.866 1.75588 0.829604 0
M  V30 1309 C 116.996 3.29518 1.09705 0
M  V30 1310 C 115.95 4.25626 0.450206 0
M  V30 1311 C 115.276 5.11542 1.55655 0
M  V30 1312 C 116.576 5.18505 -0.628455 0
M  V30 1313 H 118.27 2.92595 -0.634716 0
M  V30 1314 H 115.816 1.40696 -0.306681 0
M  V30 1315 H 117.769 3.89855 1.59971 0
M  V30 1316 H 116.493 2.68372 1.86129 0
M  V30 1317 H 115.152 3.66586 -0.0315886 0
M  V30 1318 H 114.8 4.46765 2.31107 0
M  V30 1319 H 114.5 5.76647 1.12925 0
M  V30 1320 H 116.024 5.74748 2.06148 0
M  V30 1321 H 117.438 5.72916 -0.209877 0
M  V30 1322 H 115.835 5.92085 -0.977489 0
M  V30 1323 H 116.905 4.60948 -1.50514 0
M  V30 1324 N 118.248 0.346503 1.53744 0
M  V30 1325 C 119.496 -0.248612 2.00565 0
M  V30 1326 C 119.817 -1.5083 1.23593 0
M  V30 1327 O 119.087 -1.92858 0.343912 0
M  V30 1328 H 117.667 -0.0948564 0.740953 0
M  V30 1329 H 120.329 0.468341 1.89189 0
M  V30 1330 H 119.425 -0.488994 3.08245 0
M  V30 1331 N 119.726 -1.57421 0.075193 0
M  V30 1332 C 120.954 -1.97946 -0.602076 0
M  V30 1333 C 121.369 -0.953674 -1.62943 0
M  V30 1334 O 120.726 0.0592551 -1.82404 0
M  V30 1335 C 120.777 -3.38546 -1.26762 0
M  V30 1336 O 120.498 -4.37195 -0.281376 0
M  V30 1337 C 121.999 -3.93966 -2.03239 0
M  V30 1338 H 119.219 -0.650918 -0.162931 0
M  V30 1339 H 121.763 -2.03959 0.148601 0
M  V30 1340 H 119.918 -3.33609 -1.96936 0
M  V30 1341 H 120.332 -5.18975 -0.759267 0
M  V30 1342 H 121.806 -4.94555 -2.45193 0
M  V30 1343 H 122.283 -3.30693 -2.8903 0
M  V30 1344 H 122.889 -4.02315 -1.37924 0
M  V30 1345 N 121.204 0.198386 -1.56346 0
M  V30 1346 C 122.152 1.26538 -1.95169 0
M  V30 1347 C 123.146 1.47295 -0.836685 0
M  V30 1348 O 124.352 1.48195 -1.02167 0
M  V30 1349 H 120.727 0.424744 -0.620561 0
M  V30 1350 H 122.698 0.910904 -2.84157 0
M  V30 1351 C 121.447 2.6035 -2.30463 0
M  V30 1352 H 120.77 2.45192 -3.15786 0
M  V30 1353 H 122.21 3.33762 -2.61494 0
M  V30 1354 C 120.669 3.17096 -1.13806 0
M  V30 1355 O 121.199 3.99588 -0.41135 0
M  V30 1356 N 119.405 2.75795 -0.915736 0
M  V30 1357 H 118.952 2.08816 -1.50843 0
M  V30 1358 H 118.91 3.14101 -0.136979 0
M  V30 1359 N 122.682 1.50554 0.465978 0
M  V30 1360 C 123.93 1.61479 1.21528 0
M  V30 1361 C 124.251 0.319596 1.92363 0
M  V30 1362 O 123.521 -0.663194 1.84333 0
M  V30 1363 H 122.101 0.595055 0.451573 0
M  V30 1364 H 124.763 1.87355 0.53704 0
M  V30 1365 H 123.859 2.42846 1.96042 0
M  V30 1366 N 124.16 -0.719506 1.40217 0
M  V30 1367 C 125.092 -1.84428 1.36084 0
M  V30 1368 C 126.105 -1.60597 0.266913 0
M  V30 1369 O 127.294 -1.70544 0.526983 0
M  V30 1370 C 124.394 -3.20757 1.094 0
M  V30 1371 C 123.567 -3.71817 2.30372 0
M  V30 1372 C 122.626 -4.86748 1.99907 0
M  V30 1373 O 121.652 -4.99603 2.72737 0
M  V30 1374 N 122.854 -5.7226 0.974635 0
M  V30 1375 H 125.619 -1.88473 2.33019 0
M  V30 1376 H 123.18 -0.900885 1.3452 0
M  V30 1377 H 125.172 -3.95235 0.870116 0
M  V30 1378 H 123.742 -3.11884 0.211452 0
M  V30 1379 H 122.962 -2.88514 2.68614 0
M  V30 1380 H 124.25 -4.02666 3.11026 0
M  V30 1381 H 123.648 -5.6448 0.371368 0
M  V30 1382 H 122.205 -6.46739 0.810656 0
M  V30 1383 N 125.638 -1.25649 -0.95132 0
M  V30 1384 C 127.054 -1.02542 -1.223 0
M  V30 1385 C 127.254 0.255715 -1.99871 0
M  V30 1386 O 126.31 0.967558 -2.33226 0
M  V30 1387 C 127.623 -2.25065 -1.99415 0
M  V30 1388 C 129.171 -2.29861 -2.12446 0
M  V30 1389 C 129.646 -3.52048 -2.92961 0
M  V30 1390 N 131.137 -3.52465 -3.00538 0
M  V30 1391 C 131.872 -4.43672 -3.63239 0
M  V30 1392 N 131.368 -5.45157 -4.27523 0
M  V30 1393 N 133.161 -4.31346 -3.60412 0
M  V30 1394 H 125.312 -2.07951 -0.432471 0
M  V30 1395 H 127.575 -0.91339 -0.253816 0
M  V30 1396 H 127.281 -3.18194 -1.49817 0
M  V30 1397 H 127.155 -2.28502 -3.00111 0
M  V30 1398 H 129.542 -1.37252 -2.61239 0
M  V30 1399 H 129.623 -2.3044 -1.11044 0
M  V30 1400 H 129.267 -4.44981 -2.44856 0
M  V30 1401 H 129.197 -3.48715 -3.94596 0
M  V30 1402 H 131.688 -2.79056 -2.54826 0
M  V30 1403 H 132.001 -6.10958 -4.73234 0
M  V30 1404 H 130.346 -5.49025 -4.26141 0
M  V30 1405 H 133.537 -3.51288 -3.09377 0
M  V30 1406 H 133.71 -5.02624 -4.0899 0
M  V30 1407 N 127.117 1.15442 -1.07289 0
M  V30 1408 C 128.366 1.85557 -0.790669 0
M  V30 1409 C 128.679 1.83186 0.685739 0
M  V30 1410 O 129.885 2.48977 1.0827 0
M  V30 1411 C 128.341 3.33038 -1.36433 0
M  V30 1412 C 127.949 3.43856 -2.8717 0
M  V30 1413 C 129.693 4.0834 -1.1601 0
M  V30 1414 C 127.6 4.85482 -3.3773 0
M  V30 1415 H 126.53 0.695122 -0.292098 0
M  V30 1416 H 129.181 1.30219 -1.29287 0
M  V30 1417 H 127.563 3.88043 -0.789864 0
M  V30 1418 H 128.737 2.98961 -3.50655 0
M  V30 1419 H 127.052 2.81998 -3.06376 0
M  V30 1420 H 129.649 5.12859 -1.51262 0
M  V30 1421 H 129.992 4.16182 -0.0991007 0
M  V30 1422 H 130.525 3.59603 -1.70089 0
M  V30 1423 H 127.264 4.82823 -4.43353 0
M  V30 1424 H 126.784 5.30961 -2.78999 0
M  V30 1425 H 128.463 5.54335 -3.33648 0
M  V30 1426 N 128.595 0.856903 1.32268 0
M  V30 1427 C 130.006 0.515711 1.79436 0
M  V30 1428 C 130.357 -0.966586 1.70738 0
M  V30 1429 O 129.482 -1.75409 1.26731 0
M  V30 1430 C 130.077 0.929335 3.25805 0
M  V30 1431 C 128.636 0.640006 3.70919 0
M  V30 1432 C 127.783 1.12784 2.53328 0
M  V30 1433 H 130.734 1.04389 1.19535 0
M  V30 1434 H 130.755 0.246633 3.797 0
M  V30 1435 H 130.267 2.00821 3.32103 0
M  V30 1436 H 128.368 -0.428051 3.70133 0
M  V30 1437 H 128.481 1.20788 4.63624 0
M  V30 1438 H 126.845 0.548033 2.48734 0
M  V30 1439 H 127.628 2.21387 2.62379 0
M  V30 1440 N 130.073 -1.45103 0.615059 0
M  V30 1441 C 131.303 -2.06254 0.119596 0
M  V30 1442 C 131.711 -1.4591 -1.20445 0
M  V30 1443 O 131.054 -0.570384 -1.7462 0
M  V30 1444 C 131.116 -3.59396 -0.0865591 0
M  V30 1445 C 130.78 -4.42116 1.15683 0
M  V30 1446 C 131.777 -4.7662 2.07676 0
M  V30 1447 C 129.462 -4.82749 1.38775 0
M  V30 1448 C 131.456 -5.50622 3.21082 0
M  V30 1449 C 129.143 -5.56504 2.52481 0
M  V30 1450 C 130.141 -5.90358 3.43463 0
M  V30 1451 O 129.829 -6.62615 4.55189 0
M  V30 1452 H 129.561 -0.672423 0.0694512 0
M  V30 1453 H 132.115 -1.87219 0.844885 0
M  V30 1454 H 130.345 -3.76859 -0.866823 0
M  V30 1455 H 132.034 -4.02365 -0.534555 0
M  V30 1456 H 132.8 -4.4578 1.91063 0
M  V30 1457 H 128.679 -4.55829 0.688545 0
M  V30 1458 H 132.223 -5.76965 3.92119 0
M  V30 1459 H 128.12 -5.86759 2.69043 0
M  V30 1460 H 128.888 -6.81071 4.53966 0
M  V30 1461 N 131.551 -0.354651 -1.53558 0
M  V30 1462 C 132.8 0.239504 -2.00273 0
M  V30 1463 C 133.113 1.50759 -1.24623 0
M  V30 1464 O 134.319 2.17968 -1.61871 0
M  V30 1465 C 132.775 0.477341 -3.5672 0
M  V30 1466 C 132.383 -0.775488 -4.41237 0
M  V30 1467 C 134.127 1.02975 -4.11821 0
M  V30 1468 C 132.034 -0.507838 -5.89216 0
M  V30 1469 H 130.964 0.0932743 -0.748208 0
M  V30 1470 H 133.615 -0.471701 -1.77334 0
M  V30 1471 H 131.997 1.24953 -3.7577 0
M  V30 1472 H 133.171 -1.54963 -4.33962 0
M  V30 1473 H 131.486 -1.25033 -3.97185 0
M  V30 1474 H 134.083 1.24513 -5.2 0
M  V30 1475 H 134.426 1.98862 -3.65731 0
M  V30 1476 H 134.959 0.317994 -3.96527 0
M  V30 1477 H 131.698 -1.43674 -6.39561 0
M  V30 1478 H 131.218 0.228011 -5.99366 0
M  V30 1479 H 132.897 -0.129238 -6.46871 0
M  V30 1480 N 133.029 1.57378 -0.0835403 0
M  V30 1481 C 134.278 1.93106 0.582498 0
M  V30 1482 C 134.591 0.96651 1.70053 0
M  V30 1483 O 135.797 1.21705 2.42693 0
M  V30 1484 C 134.253 3.43076 1.08751 0
M  V30 1485 C 133.861 4.48 -0.000146404 0
M  V30 1486 C 135.605 3.87785 1.72694 0
M  V30 1487 C 133.512 5.89113 0.519568 0
M  V30 1488 H 132.442 0.720775 0.221358 0
M  V30 1489 H 135.093 1.82821 -0.157675 0
M  V30 1490 H 133.475 3.48474 1.88101 0
M  V30 1491 H 134.649 4.54233 -0.775199 0
M  V30 1492 H 132.964 4.1283 -0.54406 0
M  V30 1493 H 135.561 4.90604 2.1263 0
M  V30 1494 H 135.904 3.25796 2.59158 0
M  V30 1495 H 136.437 3.8504 0.999457 0
M  V30 1496 H 133.176 6.54775 -0.308186 0
M  V30 1497 H 132.696 5.86376 1.26188 0
M  V30 1498 H 134.375 6.39346 0.992237 0
M  V30 1499 N 134.507 -0.190092 1.56449 0
M  V30 1500 C 135.732 -0.929864 1.85387 0
M  V30 1501 C 136.157 -1.7585 0.667704 0
M  V30 1502 O 135.515 -1.77198 -0.383459 0
M  V30 1503 C 135.563 -1.79773 3.12593 0
M  V30 1504 O 134.667 -2.89713 2.93496 0
M  V30 1505 H 134.008 -0.261574 0.610307 0
M  V30 1506 H 136.538 -0.193896 2.03679 0
M  V30 1507 H 136.548 -2.20139 3.43515 0
M  V30 1508 H 135.223 -1.18892 3.98544 0
M  V30 1509 H 133.8 -2.53065 2.73884 0
M  V30 1510 N 135.985 -1.50799 -0.457987 0
M  V30 1511 C 137.234 -1.6168 -1.20593 0
M  V30 1512 C 137.547 -0.32888 -1.92815 0
M  V30 1513 O 138.753 -0.316773 -2.69646 0
M  V30 1514 C 137.209 -2.8545 -2.19195 0
M  V30 1515 C 136.817 -4.21168 -1.52715 0
M  V30 1516 C 138.561 -3.05681 -2.94549 0
M  V30 1517 C 136.468 -5.3611 -2.4968 0
M  V30 1518 H 135.398 -0.602134 -0.453818 0
M  V30 1519 H 138.049 -1.77245 -0.475031 0
M  V30 1520 H 136.431 -2.63472 -2.95632 0
M  V30 1521 H 137.605 -4.53449 -0.819775 0
M  V30 1522 H 135.92 -4.06648 -0.895922 0
M  V30 1523 H 138.517 -3.88727 -3.67145 0
M  V30 1524 H 138.86 -2.17929 -3.54701 0
M  V30 1525 H 139.393 -3.27901 -2.25223 0
M  V30 1526 H 136.132 -6.26057 -1.94249 0
M  V30 1527 H 135.652 -5.0823 -3.18532 0
M  V30 1528 H 137.331 -5.6722 -3.11241 0
M  V30 1529 N 137.463 0.71206 -1.40597 0
M  V30 1530 C 138.426 1.80785 -1.40888 0
M  V30 1531 C 139.426 1.57937 -0.302103 0
M  V30 1532 O 140.616 1.64913 -0.561182 0
M  V30 1533 C 137.748 3.18927 -1.20409 0
M  V30 1534 H 138.941 1.81924 -2.38419 0
M  V30 1535 H 136.494 0.91805 -1.26497 0
M  V30 1536 H 137.229 3.23436 -0.236522 0
M  V30 1537 H 137.014 3.36911 -2.00582 0
M  V30 1538 H 138.504 3.98949 -1.23408 0
M  V30 1539 N 138.941 1.26152 0.944643 0
M  V30 1540 C 140.189 1.11271 1.6871 0
M  V30 1541 C 140.51 -0.345166 1.91921 0
M  V30 1542 O 139.78 -1.24387 1.51343 0
M  V30 1543 H 138.36 0.408783 0.625224 0
M  V30 1544 H 141.022 1.58427 1.1352 0
M  V30 1545 H 140.118 1.62879 2.66227 0
M  V30 1546 N 140.419 -1.14872 1.07899 0
M  V30 1547 C 141.644 -1.90202 0.826926 0
M  V30 1548 C 142.069 -1.77774 -0.614664 0
M  V30 1549 O 141.427 -1.11431 -1.43013 0
M  V30 1550 C 141.475 -3.38352 1.24702 0
M  V30 1551 O 140.579 -4.10497 0.39575 0
M  V30 1552 H 139.92 -0.591968 0.300782 0
M  V30 1553 H 142.45 -1.45437 1.43907 0
M  V30 1554 H 142.46 -3.89156 1.22563 0
M  V30 1555 H 141.135 -3.46715 2.29698 0
M  V30 1556 H 139.712 -3.69796 0.480117 0
M  V30 1557 N 141.898 -0.863906 -1.31812 0
M  V30 1558 C 143.144 -0.472535 -1.97218 0
M  V30 1559 C 143.477 0.971394 -1.68159 0
M  V30 1560 O 142.752 1.68309 -0.974798 0
M  V30 1561 C 143.035 -0.723054 -3.52766 0
M  V30 1562 C 142.888 -2.21608 -3.91421 0
M  V30 1563 C 144.207 -0.185522 -4.39709 0
M  V30 1564 H 141.326 -0.173158 -0.71637 0
M  V30 1565 H 143.968 -1.08403 -1.56041 0
M  V30 1566 H 142.118 -0.202577 -3.87971 0
M  V30 1567 H 143.79 -2.80334 -3.66347 0
M  V30 1568 H 142.033 -2.691 -3.40246 0
M  V30 1569 H 142.704 -2.34203 -4.99853 0
M  V30 1570 H 145.18 -0.630726 -4.11292 0
M  V30 1571 H 144.056 -0.390306 -5.47511 0
M  V30 1572 H 144.317 0.912229 -4.32586 0
M  V30 1573 N 143.376 1.44774 -0.622745 0
M  V30 1574 C 144.339 2.29069 0.0774015 0
M  V30 1575 C 145.339 1.4059 0.780461 0
M  V30 1576 O 146.529 1.62551 0.626322 0
M  V30 1577 C 143.661 3.21974 1.12006 0
M  V30 1578 H 144.854 2.92459 -0.663901 0
M  V30 1579 H 142.407 1.51548 -0.382486 0
M  V30 1580 H 143.142 2.63417 1.89162 0
M  V30 1581 H 142.927 3.87168 0.619951 0
M  V30 1582 H 144.417 3.85318 1.60995 0
M  V30 1583 N 144.854 0.36279 1.53368 0
M  V30 1584 C 146.1 -0.228113 2.01513 0
M  V30 1585 C 146.433 -1.48648 1.2497 0
M  V30 1586 O 145.708 -1.91459 0.342616 0
M  V30 1587 C 145.991 -0.522884 3.56284 0
M  V30 1588 C 145.844 0.74892 4.43521 0
M  V30 1589 C 147.163 -1.32461 4.19693 0
M  V30 1590 H 144.282 -0.0814343 0.732487 0
M  V30 1591 H 146.924 0.48713 1.83649 0
M  V30 1592 H 145.074 -1.1322 3.71636 0
M  V30 1593 H 146.746 1.38648 4.39971 0
M  V30 1594 H 144.989 1.36986 4.11603 0
M  V30 1595 H 145.66 0.497667 5.49752 0
M  V30 1596 H 148.136 -0.809203 4.08156 0
M  V30 1597 H 147.012 -1.49961 5.28018 0
M  V30 1598 H 147.273 -2.33232 3.75573 0
M  V30 1599 N 146.332 -1.57332 0.0918853 0
M  V30 1600 C 147.58 -1.93853 -0.571446 0
M  V30 1601 C 147.901 -0.974212 -1.6892 0
M  V30 1602 O 147.171 -0.0257254 -1.95883 0
M  V30 1603 H 145.751 -0.715666 -0.214082 0
M  V30 1604 H 148.413 -1.94287 0.154464 0
M  V30 1605 H 147.509 -2.96191 -0.983729 0
M  V30 1606 N 147.81 0.181792 -1.56548 0
M  V30 1607 C 148.757 1.22521 -1.95595 0
M  V30 1608 C 149.727 1.4454 -0.818373 0
M  V30 1609 O 150.912 1.57454 -1.07763 0
M  V30 1610 C 148.052 2.56193 -2.31212 0
M  V30 1611 C 147.165 2.41641 -3.58097 0
M  V30 1612 C 146.3 3.68108 -3.82975 0
M  V30 1613 C 145.339 3.48445 -5.03242 0
M  V30 1614 N 144.476 4.66956 -5.24306 0
M  V30 1615 H 149.316 0.885226 -2.84548 0
M  V30 1616 H 146.853 0.425718 -1.40805 0
M  V30 1617 H 148.811 3.34088 -2.49882 0
M  V30 1618 H 147.441 2.88208 -1.45382 0
M  V30 1619 H 146.493 1.54976 -3.474 0
M  V30 1620 H 147.805 2.23052 -4.46149 0
M  V30 1621 H 146.959 4.54441 -4.01956 0
M  V30 1622 H 145.698 3.89666 -2.93278 0
M  V30 1623 H 144.703 2.60499 -4.8417 0
M  V30 1624 H 145.928 3.2832 -5.9446 0
M  V30 1625 H 143.874 4.88752 -4.37559 0
M  V30 1626 H 143.791 4.51242 -6.06561 0
M  V30 1627 H 145.059 5.54602 -5.47756 0
M  V30 1628 N 149.288 1.51039 0.449983 0
M  V30 1629 C 150.513 1.6715 1.22783 0
M  V30 1630 C 150.938 0.363081 1.84563 0
M  V30 1631 O 150.296 -0.675433 1.68249 0
M  V30 1632 C 150.344 2.77985 2.29689 0
M  V30 1633 O 149.448 2.40707 3.34864 0
M  V30 1634 H 148.789 0.557746 0.360299 0
M  V30 1635 H 151.319 1.97535 0.533005 0
M  V30 1636 H 151.329 3.01693 2.74673 0
M  V30 1637 H 150.004 3.72935 1.84098 0
M  V30 1638 H 148.581 2.27523 2.95445 0
M  V30 1639 N 150.766 -0.704594 1.40972 0
M  V30 1640 C 151.994 -1.49354 1.43182 0
M  V30 1641 C 152.409 -1.88768 0.0345508 0
M  V30 1642 O 151.766 -1.56184 -0.944081 0
M  V30 1643 C 151.817 -2.76187 2.33244 0
M  V30 1644 O 151.538 -2.38436 3.67532 0
M  V30 1645 C 153.039 -3.7 2.44162 0
M  V30 1646 H 150.259 -0.460559 0.487982 0
M  V30 1647 H 152.803 -0.868261 1.85153 0
M  V30 1648 H 150.958 -3.34974 1.94606 0
M  V30 1649 H 151.372 -3.20126 4.15475 0
M  V30 1650 H 152.846 -4.55803 3.11364 0
M  V30 1651 H 153.323 -4.13867 1.47006 0
M  V30 1652 H 153.929 -3.17121 2.83398 0
M  V30 1653 N 152.244 -1.26651 -0.937939 0
M  V30 1654 C 153.472 -1.15173 -1.7188 0
M  V30 1655 C 153.887 0.292668 -1.86518 0
M  V30 1656 O 153.244 1.20014 -1.37488 0
M  V30 1657 C 153.295 -1.81925 -3.12387 0
M  V30 1658 O 153.016 -3.2072 -2.98446 0
M  V30 1659 C 154.517 -1.76442 -4.06673 0
M  V30 1660 H 151.737 -0.400911 -0.538063 0
M  V30 1661 H 154.281 -1.67332 -1.1756 0
M  V30 1662 H 152.436 -1.33696 -3.63599 0
M  V30 1663 H 152.85 -3.53802 -3.872 0
M  V30 1664 H 154.324 -2.27781 -5.02812 0
M  V30 1665 H 154.801 -0.731608 -4.33064 0
M  V30 1666 H 155.407 -2.24238 -3.61382 0
M  V30 1667 N 153.722 1.14298 -1.08507 0
M  V30 1668 C 154.685 2.17607 -0.719711 0
M  V30 1669 C 155.685 1.58907 0.245997 0
M  V30 1670 O 156.875 1.74181 0.0254081 0
M  V30 1671 C 154.007 3.40842 -0.0627695 0
M  V30 1672 H 155.2 2.51443 -1.63452 0
M  V30 1673 H 152.753 1.28963 -0.88307 0
M  V30 1674 H 153.488 3.12587 0.863716 0
M  V30 1675 H 153.273 3.84713 -0.757504 0
M  V30 1676 H 154.763 4.17221 0.177786 0
M  V30 1677 N 155.201 0.870884 1.31352 0
M  V30 1678 C 156.617 0.562932 1.49343 0
M  V30 1679 C 156.817 -0.902725 1.80148 0
M  V30 1680 O 155.873 -1.68484 1.88067 0
M  V30 1681 C 157.186 1.46393 2.62659 0
M  V30 1682 C 158.734 1.46607 2.76542 0
M  V30 1683 C 159.209 2.35266 3.92955 0
M  V30 1684 N 160.7 2.33151 4.00243 0
M  V30 1685 C 161.435 2.98471 4.89594 0
M  V30 1686 N 160.931 3.72964 5.8384 0
M  V30 1687 N 162.724 2.87775 4.82848 0
M  V30 1688 H 154.875 1.81923 1.09626 0
M  V30 1689 H 157.138 0.777934 0.541777 0
M  V30 1690 H 156.844 2.50689 2.46674 0
M  V30 1691 H 156.718 1.16314 3.58819 0
M  V30 1692 H 159.105 0.43069 2.9194 0
M  V30 1693 H 159.186 1.8071 1.81046 0
M  V30 1694 H 158.83 3.38881 3.78315 0
M  V30 1695 H 158.76 1.98487 4.87761 0
M  V30 1696 H 161.251 1.79006 3.32814 0
M  V30 1697 H 161.564 4.19932 6.4875 0
M  V30 1698 H 159.909 3.77073 5.83816 0
M  V30 1699 H 163.1 2.29116 4.08195 0
M  V30 1700 H 163.273 3.38961 5.52277 0
M  V30 1701 N 156.679 -1.44442 0.630414 0
M  V30 1702 C 157.925 -2.02351 0.134816 0
M  V30 1703 C 158.258 -1.4947 -1.23986 0
M  V30 1704 O 157.533 -0.678475 -1.82283 0
M  V30 1705 C 157.816 -3.59898 0.120707 0
M  V30 1706 C 157.669 -4.23063 1.52767 0
M  V30 1707 C 158.988 -4.36585 -0.555127 0
M  V30 1708 H 156.107 -0.73527 0.0504646 0
M  V30 1709 H 158.749 -1.72022 0.806751 0
M  V30 1710 H 156.899 -3.85868 -0.451477 0
M  V30 1711 H 158.571 -4.08202 2.14869 0
M  V30 1712 H 156.814 -3.80586 2.08175 0
M  V30 1713 H 157.485 -5.32071 1.46984 0
M  V30 1714 H 159.961 -4.16044 -0.0685429 0
M  V30 1715 H 158.837 -5.46294 -0.534185 0
M  V30 1716 H 159.098 -4.11138 -1.62535 0
M  V30 1717 N 158.157 -0.370918 -1.53173 0
M  V30 1718 C 159.087 0.464847 -2.28826 0
M  V30 1719 C 160.068 1.07936 -1.31468 0
M  V30 1720 O 161.253 1.0956 -1.60344 0
M  V30 1721 C 158.383 1.60196 -3.08147 0
M  V30 1722 C 157.337 1.11443 -4.13237 0
M  V30 1723 C 156.663 2.3422 -4.80672 0
M  V30 1724 C 157.963 0.195384 -5.21934 0
M  V30 1725 H 159.657 -0.166329 -2.98938 0
M  V30 1726 H 157.203 -0.0814359 -1.4377 0
M  V30 1727 H 159.156 2.19332 -3.59822 0
M  V30 1728 H 157.88 2.26045 -2.35735 0
M  V30 1729 H 156.539 0.545727 -3.62515 0
M  V30 1730 H 156.187 2.98537 -4.04827 0
M  V30 1731 H 155.887 2.02269 -5.51689 0
M  V30 1732 H 157.411 2.94032 -5.35143 0
M  V30 1733 H 158.825 0.694375 -5.69079 0
M  V30 1734 H 157.222 -0.0335027 -6.00091 0
M  V30 1735 H 158.292 -0.760961 -4.78892 0
M  V30 1736 N 159.635 1.57281 -0.100228 0
M  V30 1737 C 160.567 2.11342 0.886972 0
M  V30 1738 C 161.58 1.05182 1.24261 0
M  V30 1739 O 162.769 1.32613 1.19483 0
M  V30 1740 C 159.869 2.5825 2.19454 0
M  V30 1741 C 159.042 3.88302 2.01346 0
M  V30 1742 C 158.101 4.21004 3.15661 0
M  V30 1743 O 157.127 4.9014 2.89398 0
M  V30 1744 N 158.329 3.76818 4.41575 0
M  V30 1745 H 161.094 2.96668 0.425216 0
M  V30 1746 H 158.655 1.61678 0.0847334 0
M  V30 1747 H 160.647 2.7717 2.94888 0
M  V30 1748 H 159.217 1.77907 2.57037 0
M  V30 1749 H 158.437 3.7848 1.10212 0
M  V30 1750 H 159.725 4.73375 1.8653 0
M  V30 1751 H 159.123 3.2102 4.65792 0
M  V30 1752 H 157.68 4.00882 5.13942 0
M  V30 1753 N 161.113 -0.173488 1.56642 0
M  V30 1754 C 162.076 -1.19859 1.95362 0
M  V30 1755 C 163.076 -1.37296 0.83704 0
M  V30 1756 O 164.266 -1.34739 1.10413 0
M  V30 1757 C 161.398 -2.56405 2.24654 0
M  V30 1758 H 162.591 -0.867062 2.87092 0
M  V30 1759 H 160.144 -0.415853 1.50666 0
M  V30 1760 H 160.879 -2.94576 1.35631 0
M  V30 1761 H 160.664 -2.45115 3.06041 0
M  V30 1762 H 162.154 -3.30287 2.5554 0
M  V30 1763 N 162.591 -1.51276 -0.441967 0
M  V30 1764 C 163.521 -1.752 -1.54361 0
M  V30 1765 C 164.502 -0.601682 -1.59103 0
M  V30 1766 O 165.687 -0.843913 -1.74905 0
M  V30 1767 C 162.817 -1.87282 -2.92477 0
M  V30 1768 C 161.771 -3.02687 -3.02596 0
M  V30 1769 C 161.097 -2.99947 -4.42647 0
M  V30 1770 C 162.397 -4.4273 -2.77106 0
M  V30 1771 H 164.091 -2.67442 -1.34592 0
M  V30 1772 H 161.637 -1.28694 -0.646048 0
M  V30 1773 H 163.59 -2.02602 -3.695 0
M  V30 1774 H 162.314 -0.916844 -3.13467 0
M  V30 1775 H 160.973 -2.87065 -2.28012 0
M  V30 1776 H 160.621 -2.02136 -4.60597 0
M  V30 1777 H 160.321 -3.77439 -4.50348 0
M  V30 1778 H 161.845 -3.17354 -5.2165 0
M  V30 1779 H 163.259 -4.58727 -3.43864 0
M  V30 1780 H 161.656 -5.21893 -2.96222 0
M  V30 1781 H 162.726 -4.53087 -1.72744 0
M  V30 1782 N 164.069 0.697108 -1.41344 0
M  V30 1783 C 164.999 1.82353 -1.45841 0
M  V30 1784 C 165.98 1.67115 -0.317247 0
M  V30 1785 O 167.165 1.86871 -0.528474 0
M  V30 1786 C 164.295 3.20476 -1.33838 0
M  V30 1787 C 163.249 3.50415 -2.4575 0
M  V30 1788 C 162.575 4.87878 -2.18813 0
M  V30 1789 C 163.875 3.49546 -3.88091 0
M  V30 1790 H 165.569 1.78846 -2.40113 0
M  V30 1791 H 163.115 0.859028 -1.15571 0
M  V30 1792 H 165.068 3.98988 -1.35596 0
M  V30 1793 H 163.792 3.24604 -0.360498 0
M  V30 1794 H 162.451 2.74253 -2.43271 0
M  V30 1795 H 162.099 4.8863 -1.19371 0
M  V30 1796 H 161.799 5.08875 -2.93803 0
M  V30 1797 H 163.323 5.68702 -2.22284 0
M  V30 1798 H 164.737 4.18066 -3.92293 0
M  V30 1799 H 163.134 3.82075 -4.62751 0
M  V30 1800 H 164.204 2.48552 -4.16353 0
M  V30 1801 N 165.547 1.27147 0.931209 0
M  V30 1802 C 166.772 1.16191 1.71797 0
M  V30 1803 C 167.197 -0.278004 1.86034 0
M  V30 1804 O 166.555 -1.20137 1.35782 0
M  V30 1805 C 166.603 1.84673 3.09723 0
M  V30 1806 O 165.707 1.14231 3.96264 0
M  V30 1807 H 165.048 0.404303 0.526721 0
M  V30 1808 H 167.578 1.68152 1.1656 0
M  V30 1809 H 167.588 1.91893 3.60057 0
M  V30 1810 H 166.263 2.89421 2.98677 0
M  V30 1811 H 164.84 1.15056 3.54706 0
M  V30 1812 N 167.025 -1.13721 1.09112 0
M  V30 1813 C 168.441 -1.36914 0.820174 0
M  V30 1814 C 168.641 -1.93356 -0.567079 0
M  V30 1815 O 167.697 -2.15093 -1.32255 0
M  V30 1816 C 169.01 -2.3235 1.90877 0
M  V30 1817 C 170.558 -2.45973 1.93562 0
M  V30 1818 C 171.033 -3.44714 3.01556 0
M  V30 1819 N 172.524 -3.52263 3.00775 0
M  V30 1820 C 173.259 -4.28536 3.80978 0
M  V30 1821 N 172.755 -5.07991 4.71081 0
M  V30 1822 N 174.548 -4.23804 3.69251 0
M  V30 1823 H 166.699 -0.754348 1.98553 0
M  V30 1824 H 168.962 -0.3944 0.862063 0
M  V30 1825 H 168.668 -1.98027 2.90651 0
M  V30 1826 H 168.542 -3.32332 1.78424 0
M  V30 1827 H 170.929 -2.79584 0.944286 0
M  V30 1828 H 171.01 -1.45926 2.10093 0
M  V30 1829 H 170.654 -3.11835 4.00901 0
M  V30 1830 H 170.584 -4.44558 2.82269 0
M  V30 1831 H 173.075 -2.95567 2.35475 0
M  V30 1832 H 173.388 -5.63487 5.28869 0
M  V30 1833 H 171.733 -5.07235 4.75119 0
M  V30 1834 H 174.924 -3.60806 2.98222 0
M  V30 1835 H 175.097 -4.82995 4.31995 0
M  V30 1836 N 168.503 -0.877838 -1.30888 0
M  V30 1837 C 169.749 -0.502773 -1.97088 0
M  V30 1838 C 170.104 0.936274 -1.68082 0
M  V30 1839 O 169.397 1.65162 -0.971196 0
M  V30 1840 C 169.591 -0.705748 -3.50363 0
M  V30 1841 C 169.42 -2.16297 -3.94266 0
M  V30 1842 C 168.19 -2.80614 -4.20219 0
M  V30 1843 C 170.388 -3.13606 -4.07622 0
M  V30 1844 N 168.37 -4.17007 -4.50532 0
M  V30 1845 C 169.741 -4.35051 -4.41736 0
M  V30 1846 C 171.796 -3.09491 -3.90026 0
M  V30 1847 C 170.499 -5.52911 -4.60089 0
M  V30 1848 C 172.525 -4.26616 -4.09576 0
M  V30 1849 C 171.887 -5.46825 -4.44029 0
M  V30 1850 H 167.986 -0.233168 -0.746429 0
M  V30 1851 H 170.57 -1.13408 -1.58261 0
M  V30 1852 H 168.741 -0.103976 -3.88261 0
M  V30 1853 H 170.473 -0.298291 -4.03599 0
M  V30 1854 H 167.228 -2.3152 -4.13153 0
M  V30 1855 H 167.652 -4.87426 -4.69834 0
M  V30 1856 H 172.294 -2.17657 -3.62471 0
M  V30 1857 H 170.012 -6.45255 -4.86489 0
M  V30 1858 H 173.598 -4.24894 -3.97438 0
M  V30 1859 H 172.478 -6.35947 -4.58848 0
M  V30 1860 N 169.982 1.44106 -0.638065 0
M  V30 1861 C 171.393 1.85316 -0.226894 0
M  V30 1862 C 171.744 1.53399 1.22324 0
M  V30 1863 O 170.869 0.975463 1.93167 0
M  V30 1864 C 171.464 3.3637 -0.405013 0
M  V30 1865 C 170.023 3.76369 -0.0482902 0
M  V30 1866 C 169.17 2.67921 -0.715108 0
M  V30 1867 H 172.121 1.34474 -0.842764 0
M  V30 1868 H 172.142 3.7885 0.354 0
M  V30 1869 H 171.654 3.59569 -1.46053 0
M  V30 1870 H 169.755 3.58784 1.00522 0
M  V30 1871 H 169.868 4.76856 -0.463187 0
M  V30 1872 H 168.232 2.54259 -0.149753 0
M  V30 1873 H 169.015 2.93951 -1.77335 0
M  V30 1874 N 171.46 0.379036 1.52974 0
M  V30 1875 C 172.37 -0.468639 2.29872 0
M  V30 1876 C 173.386 -1.08067 1.36373 0
M  V30 1877 O 174.562 -1.08871 1.69438 0
M  V30 1878 C 171.627 -1.58594 3.083 0
M  V30 1879 C 170.688 -1.00007 4.17489 0
M  V30 1880 C 169.921 -2.06413 4.92168 0
M  V30 1881 O 170.144 -3.27751 4.66835 0
M  V30 1882 O 169.078 -1.68717 5.7777 0
M  V30 1883 H 172.904 0.157508 3.03291 0
M  V30 1884 H 170.489 0.143035 1.48714 0
M  V30 1885 H 172.371 -2.23525 3.57232 0
M  V30 1886 H 171.046 -2.19724 2.37703 0
M  V30 1887 H 169.953 -0.314299 3.72777 0
M  V30 1888 H 171.286 -0.433135 4.90291 0
M  V30 1889 N 172.938 -1.57226 0.108567 0
M  V30 1890 C 173.888 -2.11305 -0.856396 0
M  V30 1891 C 174.872 -1.03129 -1.23504 0
M  V30 1892 O 176.064 -1.29381 -1.20787 0
M  V30 1893 C 173.193 -2.70771 -2.11041 0
M  V30 1894 C 172.279 -3.86011 -1.7566 0
M  V30 1895 N 172.67 -4.93492 -1.10902 0
M  V30 1896 C 170.968 -3.95999 -2.05185 0
M  V30 1897 C 171.669 -5.73984 -0.944308 0
M  V30 1898 N 170.645 -5.2346 -1.46596 0
M  V30 1899 H 174.447 -2.91784 -0.352002 0
M  V30 1900 H 171.961 -1.62126 -0.0942324 0
M  V30 1901 H 173.958 -3.07851 -2.81128 0
M  V30 1902 H 172.618 -1.91751 -2.62034 0
M  V30 1903 H 173.629 -5.1208 -0.774235 0
M  V30 1904 H 170.306 -3.28007 -2.58298 0
M  V30 1905 H 171.696 -6.70479 -0.436813 0
M  V30 1906 N 174.416 0.165178 -1.56732 0
M  V30 1907 C 175.832 0.517174 -1.50988 0
M  V30 1908 C 176.032 1.84331 -0.813894 0
M  V30 1909 O 175.088 2.49672 -0.37682 0
M  V30 1910 C 176.401 0.544261 -2.95733 0
M  V30 1911 C 177.949 0.631039 -3.06573 0
M  V30 1912 C 178.424 0.68896 -4.52788 0
M  V30 1913 N 179.915 0.751683 -4.5706 0
M  V30 1914 C 180.65 0.817177 -5.67547 0
M  V30 1915 N 180.146 0.843129 -6.8765 0
M  V30 1916 N 181.939 0.856668 -5.55534 0
M  V30 1917 H 174.09 -0.704318 -2.00382 0
M  V30 1918 H 176.353 -0.254687 -0.913148 0
M  V30 1919 H 176.059 -0.361607 -3.49836 0
M  V30 1920 H 175.933 1.3886 -3.5071 0
M  V30 1921 H 178.32 1.52733 -2.52501 0
M  V30 1922 H 178.401 -0.240095 -2.54671 0
M  V30 1923 H 178.045 -0.2031 -5.07494 0
M  V30 1924 H 177.975 1.57633 -5.02454 0
M  V30 1925 H 180.466 0.739661 -3.70591 0
M  V30 1926 H 180.779 0.894448 -7.67606 0
M  V30 1927 H 179.124 0.811304 -6.90248 0
M  V30 1928 H 182.315 0.833437 -4.60621 0
M  V30 1929 H 182.488 0.904247 -6.4166 0
M  V30 1930 N 175.894 1.51508 0.433938 0
M  V30 1931 C 177.31 1.39759 0.770682 0
M  V30 1932 C 177.51 0.482594 1.95636 0
M  V30 1933 O 176.566 -0.0609691 2.52426 0
M  V30 1934 C 177.879 2.81851 1.04787 0
M  V30 1935 C 179.427 2.91025 1.1521 0
M  V30 1936 C 179.902 4.34032 1.46219 0
M  V30 1937 N 181.393 4.37154 1.53136 0
M  V30 1938 C 182.128 5.4484 1.78709 0
M  V30 1939 N 181.624 6.62682 2.02051 0
M  V30 1940 N 183.417 5.32324 1.80519 0
M  V30 1941 H 175.568 2.09548 -0.346892 0
M  V30 1942 H 177.831 0.943446 -0.0928074 0
M  V30 1943 H 177.537 3.50815 0.249304 0
M  V30 1944 H 177.411 3.21386 1.97461 0
M  V30 1945 H 179.798 2.22257 1.94128 0
M  V30 1946 H 179.879 2.54983 0.204281 0
M  V30 1947 H 179.523 5.03351 0.678274 0
M  V30 1948 H 179.453 4.6759 2.42212 0
M  V30 1949 H 181.944 3.52197 1.36987 0
M  V30 1950 H 182.257 7.40543 2.20943 0
M  V30 1951 H 180.602 6.65791 1.99366 0
M  V30 1952 H 183.793 4.39246 1.61805 0
M  V30 1953 H 183.966 6.16328 2.00111 0
M  V30 1954 N 177.372 -0.689602 1.41712 0
M  V30 1955 C 178.618 -1.45181 1.41599 0
M  V30 1956 C 178.951 -1.94181 0.0270081 0
M  V30 1957 O 178.226 -1.6993 -0.946265 0
M  V30 1958 C 178.509 -2.65945 2.42787 0
M  V30 1959 C 178.362 -2.22672 3.90816 0
M  V30 1960 C 179.681 -3.68149 2.41151 0
M  V30 1961 H 176.8 -0.526576 0.515642 0
M  V30 1962 H 179.442 -0.784947 1.73028 0
M  V30 1963 H 177.592 -3.2284 2.16116 0
M  V30 1964 H 179.264 -1.71058 4.28412 0
M  V30 1965 H 177.507 -1.54394 4.05395 0
M  V30 1966 H 178.178 -3.0935 4.57172 0
M  V30 1967 H 180.654 -3.2094 2.64834 0
M  V30 1968 H 179.53 -4.50248 3.13955 0
M  V30 1969 H 179.791 -4.18259 1.43221 0
M  V30 1970 N 178.85 -1.27639 -0.924453 0
M  V30 1971 C 179.76 -1.12466 -2.05885 0
M  V30 1972 C 180.776 -0.053869 -1.73917 0
M  V30 1973 O 181.952 -0.261012 -1.99702 0
M  V30 1974 C 179.017 -0.776768 -3.37886 0
M  V30 1975 C 178.078 -1.92878 -3.83532 0
M  V30 1976 C 177.311 -1.59739 -5.09234 0
M  V30 1977 O 177.534 -0.506782 -5.68144 0
M  V30 1978 O 176.468 -2.43761 -5.50331 0
M  V30 1979 H 180.294 -2.07671 -2.21599 0
M  V30 1980 H 177.879 -1.06857 -1.04413 0
M  V30 1981 H 179.761 -0.596229 -4.17161 0
M  V30 1982 H 178.436 0.145732 -3.23372 0
M  V30 1983 H 177.343 -2.1644 -3.0513 0
M  V30 1984 H 178.676 -2.8316 -4.02593 0
M  V30 1985 N 180.328 1.1314 -1.09713 0
M  V30 1986 C 181.258 2.20748 -0.761102 0
M  V30 1987 C 182.239 1.68061 0.262566 0
M  V30 1988 O 183.424 1.93765 0.129977 0
M  V30 1989 C 180.554 3.46812 -0.184054 0
M  V30 1990 C 179.508 4.12606 -1.13757 0
M  V30 1991 C 178.834 5.33031 -0.422083 0
M  V30 1992 C 180.134 4.59603 -2.48118 0
M  V30 1993 H 181.828 2.49113 -1.66082 0
M  V30 1994 H 179.374 1.19734 -0.799987 0
M  V30 1995 H 181.327 4.21353 0.0631215 0
M  V30 1996 H 180.051 3.17851 0.750868 0
M  V30 1997 H 178.71 3.40036 -1.37007 0
M  V30 1998 H 178.358 5.00335 0.517072 0
M  V30 1999 H 178.058 5.77999 -1.05788 0
M  V30 2000 H 179.582 6.10325 -0.183277 0
M  V30 2001 H 180.996 5.25552 -2.29059 0
M  V30 2002 H 179.393 5.15321 -3.07514 0
M  V30 2003 H 180.463 3.73971 -3.08665 0
M  V30 2004 N 181.806 0.884767 1.30421 0
M  V30 2005 C 183.055 0.499164 1.95426 0
M  V30 2006 C 183.368 -0.95645 1.70621 0
M  V30 2007 O 184.574 -1.44889 2.29607 0
M  V30 2008 C 183.03 0.84177 3.49917 0
M  V30 2009 C 182.638 2.31514 3.83543 0
M  V30 2010 C 184.382 0.525355 4.21237 0
M  V30 2011 C 182.289 2.59939 5.31212 0
M  V30 2012 H 181.219 0.182944 0.73147 0
M  V30 2013 H 183.87 1.07971 1.48373 0
M  V30 2014 H 182.252 0.190311 3.95542 0
M  V30 2015 H 183.426 3.0109 3.48829 0
M  V30 2016 H 181.741 2.59907 3.25326 0
M  V30 2017 H 184.338 0.714762 5.29901 0
M  V30 2018 H 184.681 -0.535222 4.12845 0
M  V30 2019 H 185.214 1.134 3.81294 0
M  V30 2020 H 181.953 3.64736 5.44654 0
M  V30 2021 H 181.473 1.94972 5.67227 0
M  V30 2022 H 183.152 2.45429 5.98643 0
M  V30 2023 N 183.284 -1.43765 0.645699 0
M  V30 2024 C 184.512 -2.06253 0.163556 0
M  V30 2025 C 184.927 -1.48352 -1.16778 0
M  V30 2026 O 184.284 -0.611932 -1.71935 0
M  V30 2027 C 184.335 -3.61453 0.0583186 0
M  V30 2028 O 184.056 -4.172 1.33702 0
M  V30 2029 C 185.557 -4.41002 -0.450795 0
M  V30 2030 H 182.777 -0.665413 0.0864077 0
M  V30 2031 H 185.321 -1.84396 0.884222 0
M  V30 2032 H 183.476 -3.82522 -0.612865 0
M  V30 2033 H 183.89 -5.10791 1.19131 0
M  V30 2034 H 185.364 -5.49966 -0.473403 0
M  V30 2035 H 185.841 -4.13488 -1.48068 0
M  V30 2036 H 186.447 -4.24886 0.187637 0
M  V30 2037 N 184.763 -0.387143 -1.52771 0
M  V30 2038 C 185.991 0.195869 -2.05971 0
M  V30 2039 C 186.406 1.40691 -1.25903 0
M  V30 2040 O 185.763 1.79931 -0.305134 0
M  V30 2041 C 185.814 0.56812 -3.57008 0
M  V30 2042 O 185.535 -0.594803 -4.34043 0
M  V30 2043 C 187.036 1.20723 -4.26545 0
M  V30 2044 H 184.256 0.0300578 -0.670326 0
M  V30 2045 H 186.8 -0.551749 -1.96916 0
M  V30 2046 H 184.955 1.26564 -3.66143 0
M  V30 2047 H 185.369 -0.289322 -5.23701 0
M  V30 2048 H 186.843 1.41807 -5.33474 0
M  V30 2049 H 187.32 2.17395 -3.81623 0
M  V30 2050 H 187.926 0.550535 -4.21722 0
M  V30 2051 N 186.241 1.57166 -0.116904 0
M  V30 2052 C 187.518 1.86645 0.585049 0
M  V30 2053 C 187.898 1.0177 1.84949 0
M  V30 2054 O 187.246 0.0960379 2.28298 0
M  V30 2055 C 187.456 3.37736 0.879507 0
M  V30 2056 C 188.804 4.06289 1.23348 0
M  V30 2057 O 189.828 3.42743 0.969836 0
M  V30 2058 O 188.687 5.18455 1.7282 0
M  V30 2059 H 185.781 0.772593 0.295007 0
M  V30 2060 H 188.327 1.69025 -0.151249 0
M  V30 2061 H 187.099 3.91296 -0.0166136 0
M  V30 2062 H 186.722 3.6078 1.67103 0
M  V30 2063 N 187.719 -0.156864 1.56817 0
M  V30 2064 C 188.967 -0.869404 1.82444 0
M  V30 2065 C 189.288 -1.82147 0.69623 0
M  V30 2066 O 188.558 -1.93847 -0.28287 0
M  V30 2067 H 187.138 -0.324043 0.673056 0
M  V30 2068 H 189.8 -0.153224 1.94297 0
M  V30 2069 H 188.896 -1.43761 2.77019 0
M  V30 2070 N 189.197 -1.51736 -0.425897 0
M  V30 2071 C 190.444 -1.6497 -1.17436 0
M  V30 2072 C 190.772 -0.371445 -1.9092 0
M  V30 2073 O 190.027 0.644963 -1.84767 0
M  V30 2074 C 190.326 -2.81103 -2.20717 0
M  V30 2075 C 189.992 -4.19954 -1.64162 0
M  V30 2076 C 188.654 -4.57725 -1.48462 0
M  V30 2077 C 191.006 -5.06552 -1.22696 0
M  V30 2078 C 188.334 -5.79789 -0.897873 0
M  V30 2079 C 190.686 -6.29205 -0.654464 0
M  V30 2080 C 189.35 -6.6574 -0.484456 0
M  V30 2081 H 188.62 -0.603668 -0.429727 0
M  V30 2082 H 191.267 -1.85798 -0.463829 0
M  V30 2083 H 189.572 -2.54542 -2.97852 0
M  V30 2084 H 191.269 -2.8854 -2.78471 0
M  V30 2085 H 187.859 -3.90181 -1.77361 0
M  V30 2086 H 192.043 -4.77968 -1.33642 0
M  V30 2087 H 187.299 -6.06733 -0.75402 0
M  V30 2088 H 191.473 -6.95643 -0.324694 0
M  V30 2089 H 189.1 -7.60195 -0.0276833 0
M  V30 2090 N 190.675 0.682077 -1.42076 0
M  V30 2091 C 191.605 1.80796 -1.47767 0
M  V30 2092 C 192.586 1.6677 -0.334954 0
M  V30 2093 O 193.771 1.863 -0.548264 0
M  V30 2094 C 190.901 3.19038 -1.37229 0
M  V30 2095 C 189.855 3.47789 -2.49453 0
M  V30 2096 C 189.181 4.8553 -2.23975 0
M  V30 2097 C 190.481 3.45411 -3.91776 0
M  V30 2098 H 192.175 1.7629 -2.41997 0
M  V30 2099 H 189.721 0.846721 -1.16476 0
M  V30 2100 H 191.674 3.97528 -1.39821 0
M  V30 2101 H 190.398 3.24204 -0.394907 0
M  V30 2102 H 189.057 2.71657 -2.46166 0
M  V30 2103 H 188.705 4.87337 -1.24547 0
M  V30 2104 H 188.405 5.0573 -2.99184 0
M  V30 2105 H 189.929 5.66312 -2.28304 0
M  V30 2106 H 191.343 4.13882 -3.96705 0
M  V30 2107 H 189.74 3.77145 -4.66778 0
M  V30 2108 H 190.81 2.44122 -4.18966 0
M  V30 2109 N 192.153 1.28127 0.917671 0
M  V30 2110 C 193.103 1.08361 2.00604 0
M  V30 2111 C 194.087 0.00847518 1.60898 0
M  V30 2112 O 195.279 0.228167 1.75523 0
M  V30 2113 C 192.408 0.743376 3.35155 0
M  V30 2114 C 191.494 1.85716 3.81275 0
M  V30 2115 N 191.885 3.09822 3.99805 0
M  V30 2116 C 190.183 1.74612 4.10398 0
M  V30 2117 C 190.884 3.82368 4.38372 0
M  V30 2118 N 189.86 3.10192 4.4641 0
M  V30 2119 H 193.662 2.02531 2.12975 0
M  V30 2120 H 191.176 1.18989 1.10523 0
M  V30 2121 H 193.173 0.582859 4.12805 0
M  V30 2122 H 191.833 -0.190595 3.2414 0
M  V30 2123 H 192.844 3.45475 3.85833 0
M  V30 2124 H 189.521 0.883657 4.08041 0
M  V30 2125 H 190.911 4.89082 4.60704 0
M  V30 2126 N 193.631 -1.12557 1.10312 0
M  V30 2127 C 195.042 -1.65574 0.862678 0
M  V30 2128 C 195.393 -1.86566 -0.607256 0
M  V30 2129 O 194.518 -1.59121 -1.46662 0
M  V30 2130 C 195.113 -3.00776 1.55947 0
M  V30 2131 C 193.672 -3.50748 1.36576 0
M  V30 2132 C 192.819 -2.25797 1.60968 0
M  V30 2133 H 195.77 -0.963552 1.26101 0
M  V30 2134 H 195.791 -3.67185 0.997753 0
M  V30 2135 H 195.303 -2.85465 2.62928 0
M  V30 2136 H 193.404 -3.71245 0.317531 0
M  V30 2137 H 193.517 -4.30289 2.10686 0
M  V30 2138 H 191.881 -2.32841 1.03234 0
M  V30 2139 H 192.664 -2.13043 2.69198 0
M  V30 2140 N 195.109 -0.891671 -1.2995 0
M  V30 2141 C 196.057 -0.353066 -2.29905 0
M  V30 2142 C 197.051 0.543509 -1.60444 0
M  V30 2143 O 198.257 0.4272 -1.74857 0
M  V30 2144 H 194.632 -0.095531 -0.745907 0
M  V30 2145 H 196.603 -1.20961 -2.72784 0
M  V30 2146 C 195.352 0.411475 -3.45257 0
M  V30 2147 H 194.675 -0.269182 -3.98893 0
M  V30 2148 H 196.115 0.753328 -4.17254 0
M  V30 2149 C 194.574 1.6111 -2.9588 0
M  V30 2150 O 195.104 2.71045 -2.96475 0
M  V30 2151 N 193.31 1.45054 -2.51809 0
M  V30 2152 H 192.857 0.556175 -2.51524 0
M  V30 2153 H 192.815 2.25453 -2.1913 0
M  V30 2154 N 196.587 1.43421 -0.653314 0
M  V30 2155 C 197.519 2.29071 0.0769134 0
M  V30 2156 C 198.532 1.42513 0.787017 0
M  V30 2157 O 199.721 1.66449 0.644757 0
M  V30 2158 C 196.821 3.19436 1.13199 0
M  V30 2159 C 195.994 4.34533 0.500006 0
M  V30 2160 C 195.053 5.05771 1.45198 0
M  V30 2161 O 194.079 5.61037 0.960538 0
M  V30 2162 N 195.281 5.0928 2.78594 0
M  V30 2163 H 198.046 2.92382 -0.658235 0
M  V30 2164 H 195.607 1.54112 -0.496104 0
M  V30 2165 H 197.599 3.63958 1.76964 0
M  V30 2166 H 196.169 2.57724 1.7691 0
M  V30 2167 H 195.389 3.92925 -0.316738 0
M  V30 2168 H 196.677 5.08766 0.0588345 0
M  V30 2169 H 196.075 4.65751 3.2108 0
M  V30 2170 H 194.632 5.57519 3.37662 0
M  V30 2171 N 198.065 0.39524 1.52563 0
M  V30 2172 C 199.311 -0.185318 2.01952 0
M  V30 2173 C 199.644 -1.45964 1.28095 0
M  V30 2174 O 198.919 -1.90689 0.38315 0
M  V30 2175 C 199.202 -0.447193 3.57312 0
M  V30 2176 C 199.055 0.842828 4.41833 0
M  V30 2177 C 200.374 -1.23529 4.22408 0
M  V30 2178 H 197.493 -0.0658788 0.73405 0
M  V30 2179 H 200.135 0.525975 1.82575 0
M  V30 2180 H 198.285 -1.05312 3.73954 0
M  V30 2181 H 199.957 1.4795 4.36931 0
M  V30 2182 H 198.2 1.45686 4.08605 0
M  V30 2183 H 198.871 0.614165 5.48573 0
M  V30 2184 H 201.347 -0.722445 4.0978 0
M  V30 2185 H 200.223 -1.38727 5.3108 0
M  V30 2186 H 200.484 -2.25213 3.80436 0
M  V30 2187 N 199.544 -1.57102 0.125237 0
M  V30 2188 C 200.474 -2.18659 -0.819174 0
M  V30 2189 C 201.455 -1.12843 -1.27281 0
M  V30 2190 O 202.64 -1.41104 -1.33429 0
M  V30 2191 C 199.77 -2.79096 -2.06695 0
M  V30 2192 C 198.724 -3.90548 -1.75088 0
M  V30 2193 C 198.05 -4.37821 -3.06948 0
M  V30 2194 C 199.35 -5.12356 -1.01435 0
M  V30 2195 H 201.044 -2.9783 -0.306202 0
M  V30 2196 H 198.59 -1.4326 -0.145839 0
M  V30 2197 H 200.543 -3.2082 -2.73226 0
M  V30 2198 H 199.267 -1.97223 -2.60328 0
M  V30 2199 H 197.926 -3.49409 -1.10944 0
M  V30 2200 H 197.574 -3.52799 -3.58527 0
M  V30 2201 H 197.274 -5.12982 -2.86571 0
M  V30 2202 H 198.798 -4.822 -3.74587 0
M  V30 2203 H 200.212 -5.5106 -1.58132 0
M  V30 2204 H 198.609 -5.9314 -0.911319 0
M  V30 2205 H 199.679 -4.849 -0.00218681 0
M  V30 2206 N 201.022 0.148545 -1.56898 0
M  V30 2207 C 201.969 1.18345 -1.98149 0
M  V30 2208 C 202.939 1.42772 -0.848848 0
M  V30 2209 O 204.124 1.55132 -1.11079 0
M  V30 2210 C 201.264 2.51231 -2.36594 0
M  V30 2211 C 200.377 2.33991 -3.63142 0
M  V30 2212 C 199.512 3.59902 -3.90697 0
M  V30 2213 C 198.551 3.37692 -5.1052 0
M  V30 2214 N 197.688 4.5573 -5.34092 0
M  V30 2215 H 202.528 0.82467 -2.86362 0
M  V30 2216 H 200.065 0.395756 -1.41676 0
M  V30 2217 H 202.023 3.28713 -2.56912 0
M  V30 2218 H 200.653 2.85059 -1.51463 0
M  V30 2219 H 199.705 1.47572 -3.50609 0
M  V30 2220 H 201.017 2.13539 -4.5078 0
M  V30 2221 H 200.171 4.45813 -4.11505 0
M  V30 2222 H 198.91 3.83357 -3.01477 0
M  V30 2223 H 197.915 2.5017 -4.89587 0
M  V30 2224 H 199.14 3.15637 -6.0129 0
M  V30 2225 H 197.086 4.79361 -4.47827 0
M  V30 2226 H 197.003 4.38274 -6.15996 0
M  V30 2227 H 198.271 5.42858 -5.59397 0
M  V30 2228 N 202.5 1.5196 0.417844 0
M  V30 2229 C 203.41 1.77554 1.53336 0
M  V30 2230 C 204.426 0.660655 1.6097 0
M  V30 2231 O 205.602 0.945099 1.77848 0
M  V30 2232 C 202.667 1.91291 2.89152 0
M  V30 2233 C 201.728 3.15183 2.91475 0
M  V30 2234 C 200.961 3.28256 4.20813 0
M  V30 2235 O 201.184 2.46798 5.14244 0
M  V30 2236 O 200.118 4.21356 4.29817 0
M  V30 2237 H 203.944 2.7222 1.34647 0
M  V30 2238 H 201.529 1.36698 0.602828 0
M  V30 2239 H 203.411 2.02199 3.69721 0
M  V30 2240 H 202.086 0.998129 3.07927 0
M  V30 2241 H 200.993 3.09739 2.09791 0
M  V30 2242 H 202.326 4.06414 2.77648 0
M  V30 2243 N 203.978 -0.674533 1.42435 0
M  V30 2244 C 205.394 -0.98769 1.25367 0
M  V30 2245 C 205.594 -2.00879 0.158044 0
M  V30 2246 O 204.65 -2.48075 -0.470633 0
M  V30 2247 C 205.963 -1.49224 2.6106 0
M  V30 2248 C 207.511 -1.61 2.68417 0
M  V30 2249 C 207.986 -2.14852 4.04478 0
M  V30 2250 N 209.477 -2.22185 4.06434 0
M  V30 2251 C 210.212 -2.64928 5.08528 0
M  V30 2252 N 209.708 -3.07121 6.21006 0
M  V30 2253 N 211.501 -2.64679 4.95885 0
M  V30 2254 H 203.652 0.00152503 2.124 0
M  V30 2255 H 205.915 -0.0618434 0.945981 0
M  V30 2256 H 205.621 -0.816453 3.42092 0
M  V30 2257 H 205.495 -2.47094 2.84999 0
M  V30 2258 H 207.882 -2.27686 1.87732 0
M  V30 2259 H 207.963 -0.616195 2.48267 0
M  V30 2260 H 207.607 -1.48775 4.85622 0
M  V30 2261 H 207.537 -3.15024 4.2198 0
M  V30 2262 H 210.028 -1.92435 3.25234 0
M  V30 2263 H 210.341 -3.38423 6.94759 0
M  V30 2264 H 208.686 -3.04978 6.24511 0
M  V30 2265 H 211.877 -2.31078 4.07088 0
M  V30 2266 H 212.05 -2.9767 5.75584 0
M  V30 2267 N 205.456 -1.28612 -0.910864 0
M  V30 2268 C 206.704 -1.15705 -1.65701 0
M  V30 2269 C 207.025 0.29416 -1.92769 0
M  V30 2270 O 206.295 1.20331 -1.54588 0
M  V30 2271 H 204.875 -0.425216 -0.614167 0
M  V30 2272 H 207.537 -1.61381 -1.0928 0
M  V30 2273 H 206.633 -1.6988 -2.61815 0
M  V30 2274 N 206.934 1.1197 -1.10907 0
M  V30 2275 C 207.864 2.19928 -0.784473 0
M  V30 2276 C 208.845 1.6833 0.244726 0
M  V30 2277 O 210.03 1.93892 0.109418 0
M  V30 2278 C 207.16 3.46597 -0.220827 0
M  V30 2279 C 206.114 4.11376 -1.18127 0
M  V30 2280 C 205.44 5.32554 -0.478594 0
M  V30 2281 C 206.74 4.56945 -2.52979 0
M  V30 2282 H 208.434 2.47337 -1.68715 0
M  V30 2283 H 205.98 1.18879 -0.812642 0
M  V30 2284 H 207.933 4.21396 0.0184278 0
M  V30 2285 H 206.657 3.1863 0.717113 0
M  V30 2286 H 205.316 3.38564 -1.40606 0
M  V30 2287 H 204.964 5.00856 0.463976 0
M  V30 2288 H 204.664 5.76844 -1.11912 0
M  V30 2289 H 206.188 6.10096 -0.248 0
M  V30 2290 H 207.602 5.23093 -2.3462 0
M  V30 2291 H 205.999 5.1203 -3.12962 0
M  V30 2292 H 207.069 3.70676 -3.12614 0
M  V30 2293 N 208.412 0.89855 1.29475 0
M  V30 2294 C 209.345 0.319981 2.25945 0
M  V30 2295 C 210.323 -0.567189 1.52387 0
M  V30 2296 O 211.507 -0.514254 1.8135 0
M  V30 2297 C 208.634 -0.544013 3.34303 0
M  V30 2298 C 207.68 0.275682 4.25608 0
M  V30 2299 S 208.513 1.67272 5.08704 0
M  V30 2300 C 209.669 0.815621 6.20563 0
M  V30 2301 H 209.902 1.13767 2.74671 0
M  V30 2302 H 207.435 0.69882 1.3768 0
M  V30 2303 H 209.393 -1.03673 3.97193 0
M  V30 2304 H 208.054 -1.33593 2.84274 0
M  V30 2305 H 207.247 -0.384263 5.02533 0
M  V30 2306 H 206.849 0.701496 3.67362 0
M  V30 2307 H 209.141 0.0385042 6.77489 0
M  V30 2308 H 210.084 1.55691 6.90772 0
M  V30 2309 H 210.492 0.370516 5.63283 0
M  V30 2310 N 209.89 -1.43072 0.660911 0
M  V30 2311 C 210.837 -2.30785 -0.0259884 0
M  V30 2312 C 211.807 -1.45184 -0.806888 0
M  V30 2313 O 212.992 -1.74041 -0.781943 0
M  V30 2314 C 210.132 -3.30861 -0.981067 0
M  V30 2315 C 209.245 -4.31558 -0.195458 0
M  V30 2316 C 208.38 -5.18712 -1.14503 0
M  V30 2317 C 207.419 -6.11097 -0.350299 0
M  V30 2318 N 206.556 -6.90849 -1.25186 0
M  V30 2319 H 211.396 -2.88975 0.727846 0
M  V30 2320 H 208.933 -1.42353 0.370682 0
M  V30 2321 H 210.891 -3.87399 -1.54849 0
M  V30 2322 H 209.521 -2.74304 -1.70169 0
M  V30 2323 H 208.573 -3.77252 0.488374 0
M  V30 2324 H 209.885 -4.9701 0.422176 0
M  V30 2325 H 209.039 -5.79914 -1.78284 0
M  V30 2326 H 207.778 -4.53404 -1.79656 0
M  V30 2327 H 206.783 -5.48976 0.300808 0
M  V30 2328 H 208.008 -6.7845 0.296941 0
M  V30 2329 H 205.954 -6.28182 -1.89005 0
M  V30 2330 H 205.871 -7.52854 -0.688971 0
M  V30 2331 H 207.139 -7.5655 -1.87757 0
M  V30 2332 N 211.368 -0.403325 -1.52352 0
M  V30 2333 C 212.315 0.425011 -2.26853 0
M  V30 2334 C 213.285 1.04598 -1.29029 0
M  V30 2335 O 214.47 1.07135 -1.57882 0
M  V30 2336 C 211.61 1.53888 -3.08889 0
M  V30 2337 C 210.723 0.939396 -4.21663 0
M  V30 2338 C 209.858 2.02547 -4.91068 0
M  V30 2339 C 208.897 1.40263 -5.95813 0
M  V30 2340 N 208.034 2.4286 -6.58759 0
M  V30 2341 H 212.874 -0.21674 -2.97211 0
M  V30 2342 H 210.411 -0.118722 -1.4662 0
M  V30 2343 H 212.369 2.19558 -3.54753 0
M  V30 2344 H 210.999 2.15074 -2.40714 0
M  V30 2345 H 210.051 0.171898 -3.80011 0
M  V30 2346 H 211.363 0.44436 -4.96817 0
M  V30 2347 H 210.517 2.75958 -5.40308 0
M  V30 2348 H 209.256 2.55415 -4.15469 0
M  V30 2349 H 208.261 0.653833 -5.45898 0
M  V30 2350 H 209.486 0.881719 -6.73352 0
M  V30 2351 H 207.432 2.94871 -5.85992 0
M  V30 2352 H 207.349 1.98152 -7.2957 0
M  V30 2353 H 208.617 3.15858 -7.12639 0
M  V30 2354 N 212.846 1.57033 -0.133567 0
M  V30 2355 C 213.793 2.16074 0.811208 0
M  V30 2356 C 214.763 1.08979 1.2535 0
M  V30 2357 O 215.948 1.36958 1.32843 0
M  V30 2358 C 213.088 2.77595 2.05024 0
M  V30 2359 C 212.201 3.99042 1.65498 0
M  V30 2360 C 211.336 4.48603 2.84479 0
M  V30 2361 C 210.375 5.62547 2.41262 0
M  V30 2362 N 209.512 6.06787 3.53206 0
M  V30 2363 H 214.352 2.96477 0.300906 0
M  V30 2364 H 211.889 1.46462 0.136822 0
M  V30 2365 H 213.847 3.11402 2.77642 0
M  V30 2366 H 212.477 1.99859 2.53488 0
M  V30 2367 H 211.529 3.71302 0.826981 0
M  V30 2368 H 212.841 4.81629 1.29748 0
M  V30 2369 H 211.995 4.84395 3.65303 0
M  V30 2370 H 210.734 3.64995 3.23465 0
M  V30 2371 H 209.739 5.26345 1.58874 0
M  V30 2372 H 210.964 6.47931 2.03377 0
M  V30 2373 H 208.91 5.26117 3.91838 0
M  V30 2374 H 208.827 6.84266 3.21427 0
M  V30 2375 H 210.095 6.4722 4.34427 0
M  V30 2376 N 214.325 -0.140222 1.56975 0
M  V30 2377 C 215.573 -0.850005 1.83356 0
M  V30 2378 C 215.894 -1.81399 0.71551 0
M  V30 2379 O 215.164 -1.94136 -0.262294 0
M  V30 2380 H 213.744 -0.316886 0.676456 0
M  V30 2381 H 216.406 -0.132608 1.94448 0
M  V30 2382 H 215.502 -1.40814 2.78528 0
M  V30 2383 N 215.803 -1.52179 -0.40978 0
M  V30 2384 C 217.05 -1.66206 -1.15679 0
M  V30 2385 C 217.378 -0.391674 -1.90516 0
M  V30 2386 O 216.633 0.62533 -1.8544 0
M  V30 2387 C 216.932 -2.83428 -2.17723 0
M  V30 2388 C 216.598 -4.21672 -1.59699 0
M  V30 2389 C 215.26 -4.59274 -1.43599 0
M  V30 2390 C 217.612 -5.07825 -1.17317 0
M  V30 2391 C 214.94 -5.80709 -0.836328 0
M  V30 2392 C 217.292 -6.29864 -0.587691 0
M  V30 2393 C 215.956 -6.66216 -0.413818 0
M  V30 2394 H 215.226 -0.608192 -0.423301 0
M  V30 2395 H 217.873 -1.86279 -0.444097 0
M  V30 2396 H 216.178 -2.57687 -2.95135 0
M  V30 2397 H 217.875 -2.91477 -2.75394 0
M  V30 2398 H 214.465 -3.9204 -1.73213 0
M  V30 2399 H 218.649 -4.79359 -1.28565 0
M  V30 2400 H 213.905 -6.07498 -0.689626 0
M  V30 2401 H 218.079 -6.95948 -0.250894 0
M  V30 2402 H 215.706 -7.60182 0.0529471 0
M  V30 2403 N 217.281 0.66697 -1.42791 0
M  V30 2404 C 218.692 1.2478 -1.38877 0
M  V30 2405 C 219.043 1.96012 -0.0859426 0
M  V30 2406 O 218.168 2.00463 0.815081 0
M  V30 2407 C 218.763 2.26938 -2.51564 0
M  V30 2408 C 217.322 2.80529 -2.50959 0
M  V30 2409 C 216.469 1.54965 -2.29959 0
M  V30 2410 H 219.42 0.459853 -1.51892 0
M  V30 2411 H 219.441 3.08834 -2.22265 0
M  V30 2412 H 218.953 1.75065 -3.46372 0
M  V30 2413 H 217.054 3.36502 -1.59991 0
M  V30 2414 H 217.167 3.29012 -3.48265 0
M  V30 2415 H 215.531 1.81817 -1.78366 0
M  V30 2416 H 216.314 1.05047 -3.26833 0
M  V30 2417 N 218.759 1.29093 0.90403 0
M  V30 2418 C 219.669 1.15727 2.0407 0
M  V30 2419 C 220.685 0.0815308 1.73809 0
M  V30 2420 O 221.861 0.292749 1.99261 0
M  V30 2421 C 218.926 0.830424 3.36608 0
M  V30 2422 C 217.987 1.98955 3.80415 0
M  V30 2423 C 217.22 1.6782 5.06628 0
M  V30 2424 O 217.443 0.597105 5.67266 0
M  V30 2425 O 216.377 2.52486 5.46383 0
M  V30 2426 H 220.203 2.11171 2.18267 0
M  V30 2427 H 217.788 1.08504 1.027 0
M  V30 2428 H 219.67 0.662521 4.16159 0
M  V30 2429 H 218.345 -0.0942678 3.23563 0
M  V30 2430 H 217.252 2.21267 3.01648 0
M  V30 2431 H 218.585 2.89529 3.98037 0
M  V30 2432 N 220.237 -1.11381 1.11499 0
M  V30 2433 C 221.462 -1.87475 0.887019 0
M  V30 2434 C 221.887 -1.79639 -0.557796 0
M  V30 2435 O 221.245 -1.15924 -1.39396 0
M  V30 2436 C 221.293 -3.34213 1.35403 0
M  V30 2437 O 220.397 -4.0903 0.526146 0
M  V30 2438 H 219.738 -0.582099 0.319463 0
M  V30 2439 H 222.268 -1.40785 1.48461 0
M  V30 2440 H 222.278 -3.8506 1.34881 0
M  V30 2441 H 220.953 -3.39232 2.40612 0
M  V30 2442 H 219.53 -3.68082 0.597522 0
M  V30 2443 N 221.715 -0.905404 -1.28997 0
M  V30 2444 C 222.945 -0.549049 -1.99171 0
M  V30 2445 C 223.353 0.87203 -1.67906 0
M  V30 2446 O 222.696 1.58796 -0.923561 0
M  V30 2447 C 222.758 -0.668306 -3.53234 0
M  V30 2448 C 222.422 -2.0574 -4.08069 0
M  V30 2449 C 223.419 -3.0292 -4.22534 0
M  V30 2450 C 221.104 -2.36833 -4.42962 0
M  V30 2451 C 223.098 -4.29314 -4.71135 0
M  V30 2452 C 220.785 -3.63467 -4.91258 0
M  V30 2453 C 221.783 -4.59522 -5.053 0
M  V30 2454 O 221.471 -5.83907 -5.52546 0
M  V30 2455 H 221.203 -0.208784 -0.64295 0
M  V30 2456 H 223.757 -1.21836 -1.65363 0
M  V30 2457 H 221.987 0.0580547 -3.86656 0
M  V30 2458 H 223.676 -0.320273 -4.04634 0
M  V30 2459 H 224.442 -2.80216 -3.95859 0
M  V30 2460 H 220.321 -1.62824 -4.31288 0
M  V30 2461 H 223.865 -5.04293 -4.8201 0
M  V30 2462 H 219.762 -3.86 -5.17372 0
M  V30 2463 H 220.53 -5.86578 -5.70849 0
M  V30 2464 N 223.193 1.4272 -0.668489 0
M  V30 2465 C 224.47 1.95248 -0.117373 0
M  V30 2466 C 224.85 1.60919 1.36632 0
M  V30 2467 O 224.198 0.902095 2.09939 0
M  V30 2468 C 224.408 3.46927 -0.379806 0
M  V30 2469 C 225.756 4.23588 -0.292923 0
M  V30 2470 O 226.78 3.5482 -0.313204 0
M  V30 2471 O 225.639 5.46017 -0.229697 0
M  V30 2472 H 222.733 0.827 0.00079152 0
M  V30 2473 H 225.279 1.52581 -0.742783 0
M  V30 2474 H 224.051 3.65096 -1.40786 0
M  V30 2475 H 223.674 3.96627 0.277923 0
M  V30 2476 N 224.671 0.411399 1.52136 0
M  V30 2477 C 225.604 -0.457614 2.23565 0
M  V30 2478 C 226.582 -1.04613 1.24478 0
M  V30 2479 O 227.766 -1.09356 1.53536 0
M  V30 2480 C 224.893 -1.6354 2.96602 0
M  V30 2481 C 223.939 -1.17005 4.10137 0
M  V30 2482 S 224.772 -0.13333 5.35334 0
M  V30 2483 C 225.928 -1.31638 6.119 0
M  V30 2484 H 226.161 0.148883 2.96927 0
M  V30 2485 H 223.694 0.195713 1.53155 0
M  V30 2486 H 225.652 -2.31074 3.39286 0
M  V30 2487 H 224.313 -2.21324 2.22878 0
M  V30 2488 H 223.506 -2.05005 4.60422 0
M  V30 2489 H 223.108 -0.573319 3.6958 0
M  V30 2490 H 225.4 -2.23957 6.39413 0
M  V30 2491 H 226.343 -0.854014 7.02931 0
M  V30 2492 H 226.751 -1.54321 5.42997 0
M  V30 2493 N 226.149 -1.5696 0.141893 0
M  V30 2494 C 227.099 -2.13074 -0.811383 0
M  V30 2495 C 228.083 -1.05726 -1.21288 0
M  V30 2496 O 229.275 -1.31914 -1.18015 0
M  V30 2497 C 226.404 -2.75186 -2.0525 0
M  V30 2498 C 225.49 -3.8965 -1.67432 0
M  V30 2499 N 225.881 -4.95733 -1.0041 0
M  V30 2500 C 224.179 -4.00262 -1.96739 0
M  V30 2501 C 224.88 -5.75858 -0.822345 0
M  V30 2502 N 223.856 -5.26452 -1.3546 0
M  V30 2503 H 227.658 -2.92465 -0.290031 0
M  V30 2504 H 225.172 -1.6229 -0.0598218 0
M  V30 2505 H 227.169 -3.13745 -2.74535 0
M  V30 2506 H 225.829 -1.97266 -2.57907 0
M  V30 2507 H 226.84 -5.13607 -0.665441 0
M  V30 2508 H 223.517 -3.33412 -2.51282 0
M  V30 2509 H 224.907 -6.71254 -0.294496 0
M  V30 2510 N 227.627 0.131896 -1.57047 0
M  V30 2511 C 229.043 0.485031 -1.52051 0
M  V30 2512 C 229.243 1.82563 -0.85281 0
M  V30 2513 O 228.299 2.48817 -0.429694 0
M  V30 2514 C 229.612 0.481409 -2.96821 0
M  V30 2515 C 231.16 0.565868 -3.07842 0
M  V30 2516 C 231.635 0.592762 -4.54148 0
M  V30 2517 N 233.126 0.654564 -4.58552 0
M  V30 2518 C 233.861 0.696608 -5.69153 0
M  V30 2519 N 233.357 0.697078 -6.89284 0
M  V30 2520 N 235.15 0.738639 -5.57226 0
M  V30 2521 H 227.301 -0.746664 -1.98843 0
M  V30 2522 H 229.564 -0.273999 -0.90754 0
M  V30 2523 H 229.27 -0.435731 -3.4899 0
M  V30 2524 H 229.144 1.3139 -3.53577 0
M  V30 2525 H 231.531 1.47343 -2.55684 0
M  V30 2526 H 231.612 -0.29406 -2.54104 0
M  V30 2527 H 231.256 -0.310701 -5.06949 0
M  V30 2528 H 231.186 1.46939 -5.05684 0
M  V30 2529 H 233.677 0.660887 -3.72076 0
M  V30 2530 H 233.99 0.731426 -7.69331 0
M  V30 2531 H 232.335 0.66471 -6.91814 0
M  V30 2532 H 235.526 0.735545 -4.62285 0
M  V30 2533 H 235.699 0.767938 -6.43434 0
M  V30 2534 N 229.106 1.52395 0.401703 0
M  V30 2535 C 230.036 1.79231 1.49661 0
M  V30 2536 C 231.017 0.643654 1.57452 0
M  V30 2537 O 232.202 0.889989 1.72606 0
M  V30 2538 C 229.332 1.94971 2.87409 0
M  V30 2539 C 228.286 3.10604 2.94465 0
M  V30 2540 C 227.612 3.11577 4.34538 0
M  V30 2541 C 228.912 4.49921 2.6527 0
M  V30 2542 H 230.606 2.70917 1.27454 0
M  V30 2543 H 228.152 1.30362 0.6117 0
M  V30 2544 H 230.105 2.12328 3.63999 0
M  V30 2545 H 228.829 0.999632 3.10926 0
M  V30 2546 H 227.488 2.93009 2.20321 0
M  V30 2547 H 227.136 2.14277 4.55076 0
M  V30 2548 H 226.836 3.89247 4.40183 0
M  V30 2549 H 228.36 3.31073 5.13053 0
M  V30 2550 H 229.774 4.67683 3.31581 0
M  V30 2551 H 228.171 5.29564 2.82281 0
M  V30 2552 H 229.241 4.57507 1.60671 0
M  V30 2553 N 230.584 -0.659388 1.43143 0
M  V30 2554 C 231.83 -1.42145 1.44647 0
M  V30 2555 C 232.163 -1.9408 0.0681907 0
M  V30 2556 O 231.438 -1.71899 -0.910007 0
M  V30 2557 C 231.721 -2.60735 2.48373 0
M  V30 2558 C 231.574 -2.14332 3.95451 0
M  V30 2559 C 232.893 -3.62951 2.48906 0
M  V30 2560 H 230.012 -0.51552 0.526696 0
M  V30 2561 H 232.654 -0.748069 1.74654 0
M  V30 2562 H 230.804 -3.18184 2.22916 0
M  V30 2563 H 232.476 -1.61932 4.31944 0
M  V30 2564 H 230.719 -1.4576 4.08578 0
M  V30 2565 H 231.39 -2.99583 4.63631 0
M  V30 2566 H 233.866 -3.1525 2.71582 0
M  V30 2567 H 232.742 -4.43487 3.23435 0
M  V30 2568 H 233.003 -4.15126 1.52061 0
M  V30 2569 N 232.062 -1.29571 -0.897171 0
M  V30 2570 C 233.009 -1.14916 -2.00158 0
M  V30 2571 C 233.979 -0.0418149 -1.66047 0
M  V30 2572 O 235.164 -0.209793 -1.89643 0
M  V30 2573 C 232.304 -0.834307 -3.34863 0
M  V30 2574 C 231.417 -2.02234 -3.8174 0
M  V30 2575 C 230.552 -1.64664 -5.05034 0
M  V30 2576 C 229.591 -2.80033 -5.44286 0
M  V30 2577 N 228.728 -2.42843 -6.58765 0
M  V30 2578 H 233.568 -2.09403 -2.12025 0
M  V30 2579 H 231.105 -1.042 -1.0383 0
M  V30 2580 H 233.063 -0.632436 -4.12379 0
M  V30 2581 H 231.693 0.0736656 -3.22716 0
M  V30 2582 H 230.745 -2.33583 -3.00238 0
M  V30 2583 H 232.057 -2.88673 -4.06779 0
M  V30 2584 H 231.211 -1.4078 -5.9014 0
M  V30 2585 H 229.95 -0.753766 -4.8184 0
M  V30 2586 H 228.955 -3.04596 -4.57713 0
M  V30 2587 H 230.18 -3.69989 -5.6946 0
M  V30 2588 H 228.126 -1.56046 -6.3717 0
M  V30 2589 H 228.043 -3.22815 -6.83613 0
M  V30 2590 H 229.311 -2.22285 -7.47134 0
M  V30 2591 N 233.54 1.10788 -1.12088 0
M  V30 2592 C 234.787 1.82671 -0.873931 0
M  V30 2593 C 235.115 1.85004 0.600311 0
M  V30 2594 O 234.37 1.30365 1.45957 0
M  V30 2595 C 234.669 3.29294 -1.38926 0
M  V30 2596 C 234.335 3.47113 -2.87791 0
M  V30 2597 C 232.997 3.51684 -3.28439 0
M  V30 2598 C 235.349 3.52808 -3.83635 0
M  V30 2599 C 232.677 3.59513 -4.63646 0
M  V30 2600 C 235.029 3.62169 -5.18668 0
M  V30 2601 C 233.693 3.65003 -5.58864 0
M  V30 2602 H 232.963 0.668441 -0.319794 0
M  V30 2603 H 235.61 1.30613 -1.40045 0
M  V30 2604 H 233.915 3.83894 -0.783122 0
M  V30 2605 H 235.612 3.83416 -1.17443 0
M  V30 2606 H 232.202 3.4423 -2.5535 0
M  V30 2607 H 236.386 3.4853 -3.53328 0
M  V30 2608 H 231.642 3.59987 -4.94185 0
M  V30 2609 H 235.816 3.6552 -5.92763 0
M  V30 2610 H 233.443 3.70822 -6.63623 0
M  V30 2611 N 235.018 0.912232 1.28515 0
M  V30 2612 C 236.264 0.545405 1.95328 0
M  V30 2613 C 236.597 -0.908313 1.71649 0
M  V30 2614 O 235.872 -1.64575 1.03659 0
M  V30 2615 C 236.155 0.853483 3.4984 0
M  V30 2616 C 236.008 2.35982 3.82926 0
M  V30 2617 C 237.327 0.348589 4.38717 0
M  V30 2618 H 234.446 0.199626 0.709449 0
M  V30 2619 H 237.088 1.1412 1.5191 0
M  V30 2620 H 235.238 0.34643 3.86952 0
M  V30 2621 H 236.91 2.93738 3.55691 0
M  V30 2622 H 235.153 2.81543 3.30024 0
M  V30 2623 H 235.824 2.52593 4.90816 0
M  V30 2624 H 238.3 0.78294 4.08668 0
M  V30 2625 H 237.176 0.593242 5.45685 0
M  V30 2626 H 237.437 -0.751049 4.35674 0
M  V30 2627 N 236.496 -1.42363 0.676048 0
M  V30 2628 C 237.721 -2.06377 0.205705 0
M  V30 2629 C 238.146 -1.50463 -1.12883 0
M  V30 2630 O 237.504 -0.623619 -1.70237 0
M  V30 2631 C 237.552 -3.60277 0.152655 0
M  V30 2632 O 236.656 -4.02935 -0.87845 0
M  V30 2633 H 235.997 -0.655588 0.105359 0
M  V30 2634 H 238.527 -1.82475 0.925412 0
M  V30 2635 H 238.537 -4.07993 -0.0230675 0
M  V30 2636 H 237.212 -4.00346 1.12675 0
M  V30 2637 H 235.789 -3.66764 -0.673668 0
M  V30 2638 N 237.974 -0.419461 -1.51915 0
M  V30 2639 C 239.251 0.211999 -1.94448 0
M  V30 2640 C 239.631 1.61703 -1.35703 0
M  V30 2641 O 238.979 2.22102 -0.536931 0
M  V30 2642 C 239.189 0.207872 -3.4838 0
M  V30 2643 C 240.537 0.422192 -4.22496 0
M  V30 2644 O 241.561 0.286778 -3.55044 0
M  V30 2645 O 240.42 0.690009 -5.42126 0
M  V30 2646 H 237.514 0.139586 -0.815135 0
M  V30 2647 H 240.06 -0.476151 -1.62883 0
M  V30 2648 H 238.832 -0.775102 -3.83546 0
M  V30 2649 H 238.455 0.939688 -3.86336 0
M  V30 2650 N 239.452 1.56882 -0.150215 0
M  V30 2651 C 240.382 2.19935 0.784284 0
M  V30 2652 C 241.363 1.14854 1.25469 0
M  V30 2653 O 242.548 1.43209 1.31168 0
M  V30 2654 C 239.678 2.82349 2.02229 0
M  V30 2655 C 238.632 3.93285 1.68853 0
M  V30 2656 C 237.958 4.42649 2.99944 0
M  V30 2657 C 239.258 5.13904 0.932714 0
M  V30 2658 H 240.952 2.9828 0.258781 0
M  V30 2659 H 238.498 1.43473 0.123029 0
M  V30 2660 H 240.451 3.25126 2.68088 0
M  V30 2661 H 239.175 2.0134 2.57157 0
M  V30 2662 H 237.834 3.5113 1.05371 0
M  V30 2663 H 237.482 3.58458 3.52869 0
M  V30 2664 H 237.182 5.17476 2.78374 0
M  V30 2665 H 238.706 4.88099 3.66868 0
M  V30 2666 H 240.12 5.53506 1.49345 0
M  V30 2667 H 238.517 5.94515 0.81684 0
M  V30 2668 H 239.587 4.84842 -0.0749568 0
M  V30 2669 N 240.93 -0.123565 1.57115 0
M  V30 2670 C 241.877 -1.15177 2.00007 0
M  V30 2671 C 242.847 -1.41403 0.871454 0
M  V30 2672 O 244.032 -1.53346 1.13533 0
M  V30 2673 C 241.172 -2.47436 2.40561 0
M  V30 2674 C 240.285 -2.28184 3.66819 0
M  V30 2675 C 239.42 -3.53641 3.96373 0
M  V30 2676 C 238.459 -3.29528 5.15827 0
M  V30 2677 N 237.596 -4.47175 5.41275 0
M  V30 2678 H 242.436 -0.779008 2.87638 0
M  V30 2679 H 239.973 -0.373166 1.42288 0
M  V30 2680 H 241.931 -3.24584 2.62109 0
M  V30 2681 H 240.561 -2.82614 1.55978 0
M  V30 2682 H 239.613 -1.41976 3.52912 0
M  V30 2683 H 240.925 -2.0634 4.5412 0
M  V30 2684 H 240.079 -4.39209 4.18545 0
M  V30 2685 H 238.818 -3.78512 3.07538 0
M  V30 2686 H 237.823 -2.42349 4.93505 0
M  V30 2687 H 239.048 -3.06031 6.06236 0
M  V30 2688 H 236.994 -4.72175 4.55397 0
M  V30 2689 H 236.911 -4.28419 6.22891 0
M  V30 2690 H 238.179 -5.3389 5.67963 0
M  V30 2691 N 242.408 -1.52605 -0.393616 0
M  V30 2692 C 243.633 -1.71592 -1.16495 0
M  V30 2693 C 244.058 -0.43133 -1.83088 0
M  V30 2694 O 243.416 0.612523 -1.7064 0
M  V30 2695 C 243.464 -2.86318 -2.19213 0
M  V30 2696 O 242.568 -2.52969 -3.257 0
M  V30 2697 H 241.909 -0.570734 -0.33935 0
M  V30 2698 H 244.439 -1.99377 -0.459324 0
M  V30 2699 H 244.449 -3.1168 -2.63286 0
M  V30 2700 H 243.124 -3.79511 -1.7013 0
M  V30 2701 H 241.701 -2.38332 -2.86797 0
M  V30 2702 N 243.887 0.651787 -1.4349 0
M  V30 2703 C 245.135 1.40888 -1.44897 0
M  V30 2704 C 245.456 1.94856 -0.0749086 0
M  V30 2705 O 244.726 1.74518 0.889956 0
M  V30 2706 H 243.306 0.522887 -0.533478 0
M  V30 2707 H 245.968 0.768609 -1.79104 0
M  V30 2708 H 245.064 2.25052 -2.16236 0
M  V30 2709 N 245.365 1.30045 0.890287 0
M  V30 2710 C 246.611 1.18737 1.64406 0
M  V30 2711 C 246.944 -0.258525 1.92472 0
M  V30 2712 O 246.219 -1.18562 1.54186 0
M  V30 2713 C 246.502 2.01087 2.98724 0
M  V30 2714 C 246.355 3.53867 2.77665 0
M  V30 2715 C 247.674 1.84457 3.9958 0
M  V30 2716 H 244.793 0.432698 0.596608 0
M  V30 2717 H 247.435 1.5962 1.0306 0
M  V30 2718 H 245.585 1.66349 3.51084 0
M  V30 2719 H 247.257 3.98637 2.32133 0
M  V30 2720 H 245.5 3.78318 2.12269 0
M  V30 2721 H 246.171 4.06772 3.7315 0
M  V30 2722 H 248.647 2.14817 3.56361 0
M  V30 2723 H 247.523 2.44411 4.91482 0
M  V30 2724 H 247.784 0.802276 4.3476 0
M  V30 2725 N 246.843 -1.10192 1.12674 0
M  V30 2726 C 248.254 -1.63707 0.897604 0
M  V30 2727 C 248.605 -1.87812 -0.567546 0
M  V30 2728 O 247.73 -1.62196 -1.43253 0
M  V30 2729 C 248.325 -2.974 1.62292 0
M  V30 2730 C 246.884 -3.47772 1.43986 0
M  V30 2731 C 246.031 -2.22332 1.65722 0
M  V30 2732 H 248.982 -0.936587 1.28116 0
M  V30 2733 H 249.003 -3.64986 1.07541 0
M  V30 2734 H 248.515 -2.79824 2.68924 0
M  V30 2735 H 246.616 -3.70487 0.396206 0
M  V30 2736 H 246.729 -4.25723 2.19765 0
M  V30 2737 H 245.093 -2.30599 1.08149 0
M  V30 2738 H 245.876 -2.07285 2.73657 0
M  V30 2739 N 248.321 -0.919034 -1.28029 0
M  V30 2740 C 249.269 -0.401753 -2.29104 0
M  V30 2741 C 250.263 0.509354 -1.61561 0
M  V30 2742 O 251.469 0.390014 -1.75724 0
M  V30 2743 H 247.844 -0.111331 -0.743713 0
M  V30 2744 H 249.815 -1.2672 -2.70156 0
M  V30 2745 C 248.564 0.338148 -3.46052 0
M  V30 2746 H 247.887 -0.353732 -3.98232 0
M  V30 2747 H 249.327 0.664653 -4.18758 0
M  V30 2748 C 247.786 1.54798 -2.99231 0
M  V30 2749 O 248.316 2.64696 -3.02157 0
M  V30 2750 N 246.522 1.3968 -2.54829 0
M  V30 2751 H 246.069 0.502698 -2.52647 0
M  V30 2752 H 246.027 2.20755 -2.23863 0
M  V30 2753 N 249.799 1.42003 -0.683588 0
M  V30 2754 C 251.045 2.01712 -0.209825 0
M  V30 2755 C 251.378 1.53968 1.18353 0
M  V30 2756 O 250.653 0.745661 1.79639 0
M  V30 2757 C 250.936 3.59202 -0.254197 0
M  V30 2758 C 250.789 4.17102 -1.68363 0
M  V30 2759 C 252.108 4.38344 0.392709 0
M  V30 2760 H 249.227 0.732891 -0.0777189 0
M  V30 2761 H 251.869 1.68909 -0.87004 0
M  V30 2762 H 250.019 3.87278 0.307954 0
M  V30 2763 H 251.691 3.99946 -2.29871 0
M  V30 2764 H 249.934 3.72597 -2.22157 0
M  V30 2765 H 250.605 5.26249 -1.6663 0
M  V30 2766 H 253.081 4.16011 -0.0859162 0
M  V30 2767 H 251.957 5.47901 0.331063 0
M  V30 2768 H 252.218 4.16887 1.47164 0
M  V30 2769 N 251.277 0.427512 1.51691 0
M  V30 2770 C 252.505 -0.141191 2.06418 0
M  V30 2771 C 252.92 -1.37303 1.29589 0
M  V30 2772 O 252.277 -1.79059 0.352732 0
M  V30 2773 C 252.328 -0.473266 3.58389 0
M  V30 2774 O 252.049 0.709673 4.32314 0
M  V30 2775 C 253.55 -1.09371 4.29596 0
M  V30 2776 H 250.77 -0.0122747 0.670888 0
M  V30 2777 H 253.314 0.603764 1.95384 0
M  V30 2778 H 251.469 -1.16812 3.69369 0
M  V30 2779 H 251.883 0.42807 5.2275 0
M  V30 2780 H 253.357 -1.27613 5.37046 0
M  V30 2781 H 253.834 -2.072 3.87253 0
M  V30 2782 H 254.44 -0.43853 4.23033 0
M  V30 2783 N 252.755 -1.56801 0.158532 0
M  V30 2784 C 253.718 -2.16138 -0.762705 0
M  V30 2785 C 254.718 -1.1061 -1.16713 0
M  V30 2786 O 255.908 -1.36191 -1.08617 0
M  V30 2787 C 253.04 -2.73386 -2.03649 0
M  V30 2788 H 254.233 -2.98886 -0.246354 0
M  V30 2789 H 251.786 -1.56035 -0.0909744 0
M  V30 2790 H 252.521 -1.94335 -2.59623 0
M  V30 2791 H 252.306 -3.50601 -1.75559 0
M  V30 2792 H 253.796 -3.19065 -2.6942 0
M  V30 2793 N 254.233 0.115231 -1.57178 0
M  V30 2794 C 255.644 0.67197 -1.74188 0
M  V30 2795 C 255.995 1.80125 -0.777777 0
M  V30 2796 O 255.12 2.16346 0.0484376 0
M  V30 2797 C 255.715 1.22573 -3.1585 0
M  V30 2798 C 254.274 1.72872 -3.34353 0
M  V30 2799 C 253.421 0.629972 -2.70049 0
M  V30 2800 H 256.372 -0.110712 -1.58313 0
M  V30 2801 H 256.393 2.09535 -3.17609 0
M  V30 2802 H 255.905 0.403598 -3.85996 0
M  V30 2803 H 254.006 2.5755 -2.69256 0
M  V30 2804 H 254.119 1.83557 -4.42542 0
M  V30 2805 H 252.483 1.0645 -2.31388 0
M  V30 2806 H 253.266 -0.181241 -3.42821 0
M  V30 2807 N 255.711 1.52812 0.385517 0
M  V30 2808 C 256.957 1.68275 1.13188 0
M  V30 2809 C 257.29 0.423179 1.89533 0
M  V30 2810 O 256.565 -0.579113 1.85679 0
M  V30 2811 C 256.848 2.92001 2.1073 0
M  V30 2812 C 256.701 4.28067 1.38125 0
M  V30 2813 C 258.02 3.11283 3.11113 0
M  V30 2814 H 255.139 0.612352 0.410115 0
M  V30 2815 H 257.781 1.85415 0.414869 0
M  V30 2816 H 255.931 2.77519 2.71874 0
M  V30 2817 H 257.603 4.54324 0.799187 0
M  V30 2818 H 255.846 4.28388 0.683092 0
M  V30 2819 H 256.517 5.10733 2.09417 0
M  V30 2820 H 258.993 3.2482 2.6006 0
M  V30 2821 H 257.869 3.99325 3.76605 0
M  V30 2822 H 258.13 2.25656 3.80173 0
M  V30 2823 N 257.189 -0.644168 1.43834 0
M  V30 2824 C 258.419 -1.42939 1.49171 0
M  V30 2825 C 258.827 -1.88874 0.111048 0
M  V30 2826 O 258.17 -1.60656 -0.8908 0
M  V30 2827 C 258.232 -2.69151 2.38324 0
M  V30 2828 C 257.896 -2.45097 3.85715 0
M  V30 2829 C 258.893 -2.07747 4.76589 0
M  V30 2830 C 256.578 -2.59141 4.30292 0
M  V30 2831 C 258.572 -1.8475 6.10038 0
M  V30 2832 C 256.259 -2.35759 5.63792 0
M  V30 2833 C 257.257 -1.9862 6.53482 0
M  V30 2834 O 256.945 -1.75489 7.84512 0
M  V30 2835 H 256.677 -0.445271 0.508635 0
M  V30 2836 H 259.231 -0.79621 1.8934 0
M  V30 2837 H 257.461 -3.3506 1.93058 0
M  V30 2838 H 259.15 -3.31123 2.3476 0
M  V30 2839 H 259.916 -1.96465 4.43426 0
M  V30 2840 H 255.795 -2.87022 3.60749 0
M  V30 2841 H 259.339 -1.55686 6.80006 0
M  V30 2842 H 255.236 -2.46646 5.9652 0
M  V30 2843 H 256.004 -1.89841 7.9618 0
M  V30 2844 N 258.668 -1.30515 -0.883378 0
M  V30 2845 C 259.893 -1.22487 -1.67367 0
M  V30 2846 C 260.318 0.208767 -1.86938 0
M  V30 2847 O 259.676 1.15015 -1.40148 0
M  V30 2848 C 259.724 -1.96041 -3.02655 0
M  V30 2849 O 258.828 -1.28859 -3.91751 0
M  V30 2850 H 258.169 -0.423573 -0.511353 0
M  V30 2851 H 260.699 -1.72362 -1.10239 0
M  V30 2852 H 260.709 -2.05124 -3.52687 0
M  V30 2853 H 259.384 -3.00307 -2.8773 0
M  V30 2854 H 257.961 -1.28141 -3.50192 0
M  V30 2855 N 260.146 1.09593 -1.13257 0
M  V30 2856 C 261.096 2.14345 -0.777179 0
M  V30 2857 C 262.08 1.59277 0.227966 0
M  V30 2858 O 263.272 1.76971 0.0321413 0
M  V30 2859 C 260.401 3.42439 -0.242991 0
M  V30 2860 C 259.487 4.04419 -1.27694 0
M  V30 2861 N 259.878 4.40979 -2.47732 0
M  V30 2862 C 258.176 4.31596 -1.12432 0
M  V30 2863 C 258.877 4.89784 -3.13826 0
M  V30 2864 N 257.853 4.87133 -2.41252 0
M  V30 2865 H 261.655 2.40415 -1.69049 0
M  V30 2866 H 259.169 1.26803 -1.01463 0
M  V30 2867 H 261.166 4.16889 0.0298496 0
M  V30 2868 H 259.826 3.17824 0.66467 0
M  V30 2869 H 260.837 4.32396 -2.85051 0
M  V30 2870 H 257.514 4.16595 -0.274684 0
M  V30 2871 H 258.904 5.2755 -4.16102 0
M  V30 2872 N 261.624 0.925811 1.2754 0
M  V30 2873 C 262.554 0.440748 2.29303 0
M  V30 2874 C 263.535 -0.497971 1.62648 0
M  V30 2875 O 264.72 -0.403126 1.8997 0
M  V30 2876 C 261.85 -0.309048 3.45922 0
M  V30 2877 C 260.804 0.54166 4.24559 0
M  V30 2878 C 260.13 -0.337191 5.33636 0
M  V30 2879 C 261.43 1.80516 4.90114 0
M  V30 2880 H 263.124 1.29121 2.70126 0
M  V30 2881 H 260.67 0.622323 1.29858 0
M  V30 2882 H 262.623 -0.659315 4.1621 0
M  V30 2883 H 261.347 -1.19352 3.04011 0
M  V30 2884 H 260.006 0.874609 3.56014 0
M  V30 2885 H 259.654 -1.22056 4.87966 0
M  V30 2886 H 259.354 0.228497 5.87156 0
M  V30 2887 H 260.878 -0.683072 6.06767 0
M  V30 2888 H 262.292 1.52307 5.52698 0
M  V30 2889 H 260.689 2.3142 5.53683 0
M  V30 2890 H 261.759 2.52581 4.13921 0
M  V30 2891 N 263.102 -1.41638 0.69111 0
M  V30 2892 C 264.351 -2.00526 0.217318 0
M  V30 2893 C 264.664 -1.55353 -1.18848 0
M  V30 2894 O 265.87 -2.06769 -1.75951 0
M  V30 2895 C 264.326 -3.58313 0.337639 0
M  V30 2896 C 263.934 -4.12469 1.74852 0
M  V30 2897 C 265.678 -4.24431 -0.0766066 0
M  V30 2898 C 263.585 -5.62675 1.82074 0
M  V30 2899 H 262.515 -0.750008 0.0774893 0
M  V30 2900 H 265.166 -1.6217 0.858661 0
M  V30 2901 H 263.548 -3.9425 -0.371879 0
M  V30 2902 H 264.722 -3.8796 2.48644 0
M  V30 2903 H 263.037 -3.58861 2.11205 0
M  V30 2904 H 265.634 -5.34683 -0.0430284 0
M  V30 2905 H 265.977 -4.01101 -1.1146 0
M  V30 2906 H 266.51 -3.93512 0.582476 0
M  V30 2907 H 263.249 -5.90826 2.83911 0
M  V30 2908 H 262.769 -5.89124 1.12661 0
M  V30 2909 H 264.448 -6.27371 1.58159 0
M  V30 2910 N 264.58 -0.43555 -1.51462 0
M  V30 2911 C 265.81 0.130053 -2.0619 0
M  V30 2912 C 266.218 1.37164 -1.30317 0
M  V30 2913 O 265.561 1.80225 -0.355598 0
M  V30 2914 C 265.623 0.519418 -3.55728 0
M  V30 2915 C 265.287 -0.615119 -4.52841 0
M  V30 2916 C 266.284 -1.48671 -4.9819 0
M  V30 2917 C 263.969 -0.795341 -4.95963 0
M  V30 2918 C 265.963 -2.52324 -5.8533 0
M  V30 2919 C 263.65 -1.83514 -5.82894 0
M  V30 2920 C 264.648 -2.69748 -6.27475 0
M  V30 2921 O 264.336 -3.71944 -7.1268 0
M  V30 2922 H 264.068 0.0121612 -0.675891 0
M  V30 2923 H 266.622 -0.6129 -1.96043 0
M  V30 2924 H 264.852 1.31505 -3.63653 0
M  V30 2925 H 266.541 1.01597 -3.92979 0
M  V30 2926 H 267.307 -1.359 -4.65571 0
M  V30 2927 H 263.186 -0.133713 -4.60806 0
M  V30 2928 H 266.73 -3.19665 -6.20048 0
M  V30 2929 H 262.627 -1.96306 -6.14926 0
M  V30 2930 H 263.395 -3.68503 -7.30854 0
M  V30 2931 N 266.058 1.56714 -0.166846 0
M  V30 2932 C 267.335 1.88412 0.525373 0
M  V30 2933 C 267.715 1.07602 1.81618 0
M  V30 2934 O 267.063 0.168621 2.27877 0
M  V30 2935 C 267.273 3.40363 0.771613 0
M  V30 2936 C 268.621 4.10007 1.1036 0
M  V30 2937 O 269.645 3.45655 0.860304 0
M  V30 2938 O 268.504 5.2369 1.56239 0
M  V30 2939 H 265.598 0.781587 0.270278 0
M  V30 2940 H 268.144 1.68458 -0.204946 0
M  V30 2941 H 266.916 3.91046 -0.141093 0
M  V30 2942 H 266.539 3.65914 1.55541 0
M  V30 2943 N 267.536 -0.106894 1.57237 0
M  V30 2944 C 268.782 -0.81373 1.85759 0
M  V30 2945 C 269.115 -1.78952 0.754315 0
M  V30 2946 O 268.39 -1.93029 -0.23879 0
M  V30 2947 C 268.673 -1.55293 3.24894 0
M  V30 2948 C 268.526 -0.595929 4.45835 0
M  V30 2949 C 269.845 -2.5063 3.61763 0
M  V30 2950 H 266.964 -0.294369 0.67566 0
M  V30 2951 H 269.606 -0.0776472 1.89841 0
M  V30 2952 H 267.756 -2.1804 3.21544 0
M  V30 2953 H 269.428 0.0236262 4.61294 0
M  V30 2954 H 267.671 0.0916191 4.33703 0
M  V30 2955 H 268.342 -1.15004 5.39887 0
M  V30 2956 H 270.818 -1.97982 3.65981 0
M  V30 2957 H 269.694 -2.99376 4.60071 0
M  V30 2958 H 269.955 -3.3385 2.89821 0
M  V30 2959 N 269.014 -1.53014 -0.377408 0
M  V30 2960 C 270.263 -1.67845 -1.11853 0
M  V30 2961 C 270.576 -0.430625 -1.90801 0
M  V30 2962 O 271.782 -0.459261 -2.67587 0
M  V30 2963 C 270.238 -2.96668 -2.03756 0
M  V30 2964 C 269.846 -4.28671 -1.30175 0
M  V30 2965 C 271.59 -3.20865 -2.77932 0
M  V30 2966 C 269.497 -5.48591 -2.20911 0
M  V30 2967 H 268.427 -0.625343 -0.421263 0
M  V30 2968 H 271.078 -1.79514 -0.380409 0
M  V30 2969 H 269.46 -2.78773 -2.8125 0
M  V30 2970 H 270.634 -4.57157 -0.578259 0
M  V30 2971 H 268.949 -4.10825 -0.679108 0
M  V30 2972 H 271.546 -4.07642 -3.46024 0
M  V30 2973 H 271.889 -2.36424 -3.4265 0
M  V30 2974 H 272.422 -3.39379 -2.07525 0
M  V30 2975 H 269.161 -6.35474 -1.6079 0
M  V30 2976 H 268.681 -5.244 -2.91144 0
M  V30 2977 H 270.36 -5.8292 -2.80736 0
M  V30 2978 N 270.492 0.636531 -1.44174 0
M  V30 2979 C 271.903 1.21806 -1.41493 0
M  V30 2980 C 272.254 1.95785 -0.1275 0
M  V30 2981 O 271.379 2.02147 0.772376 0
M  V30 2982 C 271.974 2.21551 -2.56321 0
M  V30 2983 C 270.533 2.75143 -2.56853 0
M  V30 2984 C 269.68 1.50052 -2.33195 0
M  V30 2985 H 272.631 0.427531 -1.52833 0
M  V30 2986 H 272.652 3.0405 -2.28765 0
M  V30 2987 H 272.164 1.67679 -3.50008 0
M  V30 2988 H 270.265 3.33033 -1.67093 0
M  V30 2989 H 270.378 3.2155 -3.55165 0
M  V30 2990 H 268.742 1.77993 -1.82183 0
M  V30 2991 H 269.525 0.980903 -3.28988 0
M  V30 2992 N 271.97 1.30982 0.876444 0
M  V30 2993 C 273.247 1.10942 1.61094 0
M  V30 2994 C 273.627 -0.338223 2.08373 0
M  V30 2995 O 272.975 -1.33122 1.85717 0
M  V30 2996 C 273.185 2.11789 2.77392 0
M  V30 2997 C 274.533 2.43965 3.47514 0
M  V30 2998 O 275.557 2.10166 2.87591 0
M  V30 2999 O 274.416 3.01817 4.55597 0
M  V30 3000 H 271.51 0.42667 0.708436 0
M  V30 3001 H 274.056 1.42438 0.922474 0
M  V30 3002 H 272.828 3.09194 2.39823 0
M  V30 3003 H 272.451 1.81161 3.5393 0
M  V30 3004 N 273.449 -1.08991 1.13837 0
M  V30 3005 C 274.697 -1.80899 0.901098 0
M  V30 3006 C 275.018 -1.86356 -0.574134 0
M  V30 3007 O 274.288 -1.35235 -1.41733 0
M  V30 3008 H 272.868 -0.669966 0.330386 0
M  V30 3009 H 275.53 -1.318 1.43578 0
M  V30 3010 H 274.626 -2.83929 1.29578 0
M  V30 3011 N 274.927 -0.932562 -1.27047 0
M  V30 3012 C 276.204 -0.49377 -1.89265 0
M  V30 3013 C 276.584 1.02833 -1.8436 0
M  V30 3014 O 275.932 1.88461 -1.29209 0
M  V30 3015 C 276.142 -1.04536 -3.32976 0
M  V30 3016 C 277.49 -1.10879 -4.09867 0
M  V30 3017 O 278.514 -0.995327 -3.42011 0
M  V30 3018 O 277.373 -1.28417 -5.31198 0
M  V30 3019 H 274.467 -0.159596 -0.811454 0
M  V30 3020 H 277.013 -1.02457 -1.3528 0
M  V30 3021 H 275.785 -2.08913 -3.30864 0
M  V30 3022 H 275.408 -0.496494 -3.94488 0
M  V30 3023 N 276.405 1.4127 -0.698611 0
M  V30 3024 C 277.352 2.30773 -0.0352094 0
M  V30 3025 C 278.322 1.47273 0.768111 0
M  V30 3026 O 279.507 1.76053 0.735524 0
M  V30 3027 C 276.647 3.33346 0.893 0
M  V30 3028 C 275.76 4.31924 0.0809695 0
M  V30 3029 C 274.895 5.21566 1.0071 0
M  V30 3030 C 273.934 6.11811 0.188155 0
M  V30 3031 N 273.071 6.93926 1.06825 0
M  V30 3032 H 277.911 2.86943 -0.804207 0
M  V30 3033 H 275.448 1.4132 -0.408294 0
M  V30 3034 H 277.406 3.91368 1.44523 0
M  V30 3035 H 276.036 2.78719 1.62836 0
M  V30 3036 H 275.088 3.75825 -0.588224 0
M  V30 3037 H 276.4 4.95716 -0.553801 0
M  V30 3038 H 275.554 5.84437 1.62845 0
M  V30 3039 H 274.293 4.58008 1.67572 0
M  V30 3040 H 273.298 5.47986 -0.446254 0
M  V30 3041 H 274.523 6.77425 -0.476716 0
M  V30 3042 H 272.469 6.32973 1.72283 0
M  V30 3043 H 272.386 7.54416 0.489123 0
M  V30 3044 H 273.654 7.61262 1.67632 0
M  V30 3045 N 277.883 0.443576 1.51229 0
M  V30 3046 C 279.111 -0.11929 2.06556 0
M  V30 3047 C 279.526 -1.35921 1.31038 0
M  V30 3048 O 278.883 -1.78675 0.371704 0
M  V30 3049 C 278.934 -0.435228 3.5887 0
M  V30 3050 O 278.655 0.755486 4.31537 0
M  V30 3051 C 280.156 -1.04808 4.30732 0
M  V30 3052 H 277.376 -0.0051584 0.67098 0
M  V30 3053 H 279.92 0.624453 1.94733 0
M  V30 3054 H 278.075 -1.12887 3.70588 0
M  V30 3055 H 278.489 0.483491 5.22267 0
M  V30 3056 H 279.963 -1.2191 5.3837 0
M  V30 3057 H 280.44 -2.03081 3.89429 0
M  V30 3058 H 281.046 -0.393637 4.23474 0
M  V30 3059 N 279.361 -1.56624 0.175154 0
M  V30 3060 C 280.607 -1.9729 -0.469506 0
M  V30 3061 C 280.94 -1.06128 -1.62636 0
M  V30 3062 O 280.215 -0.109183 -1.94193 0
M  V30 3063 C 280.498 -3.47375 -0.948804 0
M  V30 3064 C 280.351 -4.49317 0.208491 0
M  V30 3065 C 281.67 -4.00652 -1.82116 0
M  V30 3066 H 278.789 -0.717317 -0.16919 0
M  V30 3067 H 281.431 -1.88184 0.262062 0
M  V30 3068 H 279.581 -3.55267 -1.57219 0
M  V30 3069 H 281.253 -4.53482 0.845682 0
M  V30 3070 H 279.496 -4.25121 0.863395 0
M  V30 3071 H 280.167 -5.51741 -0.169059 0
M  V30 3072 H 282.643 -3.95416 -1.2956 0
M  V30 3073 H 281.519 -5.06075 -2.12554 0
M  V30 3074 H 281.78 -3.44699 -2.7683 0
M  V30 3075 N 280.839 0.0985539 -1.57292 0
M  V30 3076 C 282.085 0.803867 -1.86188 0
M  V30 3077 C 282.418 1.78549 -0.763794 0
M  V30 3078 O 281.693 1.93153 0.22855 0
M  V30 3079 C 281.976 1.53568 -3.25713 0
M  V30 3080 C 281.829 0.572277 -4.46145 0
M  V30 3081 C 283.148 2.48708 -3.63087 0
M  V30 3082 H 280.267 0.290781 -0.677211 0
M  V30 3083 H 282.909 0.0675783 -1.8988 0
M  V30 3084 H 281.059 2.16332 -3.22696 0
M  V30 3085 H 282.731 -0.0480894 -4.61275 0
M  V30 3086 H 280.974 -0.114618 -4.33649 0
M  V30 3087 H 281.645 1.12139 -5.40489 0
M  V30 3088 H 284.121 1.96039 -3.67026 0
M  V30 3089 H 282.997 2.96932 -4.61652 0
M  V30 3090 H 283.258 3.32309 -2.91588 0
M  V30 3091 N 282.317 1.53212 0.369288 0
M  V30 3092 C 283.249 1.75668 1.47219 0
M  V30 3093 C 284.262 0.637387 1.49804 0
M  V30 3094 O 285.451 0.913561 1.5335 0
M  V30 3095 C 282.551 1.81818 2.85999 0
M  V30 3096 C 281.724 3.11409 3.07153 0
M  V30 3097 C 280.783 3.08849 4.26026 0
M  V30 3098 O 279.809 3.82659 4.2138 0
M  V30 3099 N 281.011 2.29409 5.33246 0
M  V30 3100 H 283.776 2.70832 1.28337 0
M  V30 3101 H 281.337 1.51944 0.55898 0
M  V30 3102 H 283.329 1.77588 3.63655 0
M  V30 3103 H 281.899 0.939544 2.98146 0
M  V30 3104 H 281.119 3.28971 2.1719 0
M  V30 3105 H 282.407 3.97059 3.18154 0
M  V30 3106 H 281.805 1.68946 5.39883 0
M  V30 3107 H 280.362 2.31001 6.09493 0
M  V30 3108 N 283.795 -0.628877 1.44509 0
M  V30 3109 C 285.206 -1.21054 1.42137 0
M  V30 3110 C 285.557 -1.95715 0.137881 0
M  V30 3111 O 284.682 -2.02554 -0.761645 0
M  V30 3112 C 285.277 -2.20189 2.57493 0
M  V30 3113 C 283.836 -2.73777 2.58308 0
M  V30 3114 C 282.983 -1.48813 2.33987 0
M  V30 3115 H 285.934 -0.41942 1.53057 0
M  V30 3116 H 285.955 -3.02833 2.30375 0
M  V30 3117 H 285.467 -1.6582 3.50892 0
M  V30 3118 H 283.568 -3.32142 1.68856 0
M  V30 3119 H 283.681 -3.19662 3.56865 0
M  V30 3120 H 282.045 -1.77024 1.83124 0
M  V30 3121 H 282.828 -0.963442 3.29504 0
M  V30 3122 N 285.273 -1.31445 -0.869486 0
M  V30 3123 C 286.55 -1.11795 -1.60503 0
M  V30 3124 C 286.93 0.327168 -2.08549 0
M  V30 3125 O 286.278 1.32135 -1.8642 0
M  V30 3126 C 286.488 -2.13258 -2.76265 0
M  V30 3127 C 287.836 -2.45805 -3.46215 0
M  V30 3128 O 288.86 -2.11688 -2.86473 0
M  V30 3129 O 287.719 -3.04228 -4.5399 0
M  V30 3130 H 284.813 -0.430421 -0.706163 0
M  V30 3131 H 287.359 -1.42925 -0.914907 0
M  V30 3132 H 286.131 -3.10461 -2.3818 0
M  V30 3133 H 285.754 -1.83035 -3.52964 0
M  V30 3134 N 286.751 1.08385 -1.14413 0
M  V30 3135 C 288 1.80153 -0.907076 0
M  V30 3136 C 288.313 1.87176 0.567851 0
M  V30 3137 O 289.519 2.55359 0.922172 0
M  V30 3138 C 287.975 3.23687 -1.57336 0
M  V30 3139 C 287.583 3.24897 -3.08457 0
M  V30 3140 C 289.327 4.00136 -1.41744 0
M  V30 3141 C 287.234 4.6302 -3.67921 0
M  V30 3142 H 286.164 0.675139 -0.335714 0
M  V30 3143 H 288.815 1.21733 -1.37307 0
M  V30 3144 H 287.197 3.82234 -1.03505 0
M  V30 3145 H 288.371 2.76055 -3.68958 0
M  V30 3146 H 286.686 2.61943 -3.2369 0
M  V30 3147 H 289.283 5.02201 -1.83572 0
M  V30 3148 H 289.626 4.14709 -0.363576 0
M  V30 3149 H 290.159 3.48058 -1.92614 0
M  V30 3150 H 286.898 4.5365 -4.73161 0
M  V30 3151 H 286.418 5.12143 -3.12201 0
M  V30 3152 H 288.097 5.31994 -3.68227 0
M  V30 3153 N 288.23 0.939286 1.26551 0
M  V30 3154 C 289.16 0.465044 2.28822 0
M  V30 3155 C 290.141 -0.480692 1.63167 0
M  V30 3156 O 291.326 -0.382955 1.90387 0
M  V30 3157 C 288.456 -0.27234 3.46231 0
M  V30 3158 C 287.41 0.58666 4.2396 0
M  V30 3159 C 286.736 -0.280573 5.33963 0
M  V30 3160 C 288.036 1.85704 4.88171 0
M  V30 3161 H 289.73 1.31979 2.68741 0
M  V30 3162 H 287.276 0.636061 1.29191 0
M  V30 3163 H 289.229 -0.615133 4.16886 0
M  V30 3164 H 287.953 -1.16121 3.0526 0
M  V30 3165 H 286.612 0.91232 3.55067 0
M  V30 3166 H 286.26 -1.16874 4.89234 0
M  V30 3167 H 285.96 0.29076 5.8688 0
M  V30 3168 H 287.484 -0.618678 6.07458 0
M  V30 3169 H 288.898 1.58161 5.51052 0
M  V30 3170 H 287.295 2.37279 5.51197 0
M  V30 3171 H 288.365 2.56957 4.11219 0
M  V30 3172 N 289.708 -1.40897 0.706093 0
M  V30 3173 C 290.957 -2.00284 0.238574 0
M  V30 3174 C 291.27 -1.56604 -1.17194 0
M  V30 3175 O 292.476 -2.08624 -1.73748 0
M  V30 3176 C 290.932 -3.57934 0.375623 0
M  V30 3177 C 290.54 -4.10591 1.79217 0
M  V30 3178 C 292.284 -4.24488 -0.0315857 0
M  V30 3179 C 290.191 -5.60712 1.88032 0
M  V30 3180 H 289.121 -0.749144 0.0854398 0
M  V30 3181 H 291.772 -1.61251 0.875813 0
M  V30 3182 H 290.154 -3.94622 -0.330042 0
M  V30 3183 H 291.328 -3.85301 2.52745 0
M  V30 3184 H 289.643 -3.56601 2.15 0
M  V30 3185 H 292.24 -5.34698 0.0136842 0
M  V30 3186 H 292.583 -4.02261 -1.072 0
M  V30 3187 H 293.116 -3.92873 0.624181 0
M  V30 3188 H 289.855 -5.87781 2.90161 0
M  V30 3189 H 289.375 -5.87896 1.18903 0
M  V30 3190 H 291.054 -6.25658 1.64805 0
M  V30 3191 N 291.186 -0.45159 -1.50991 0
M  V30 3192 C 292.116 0.342898 -2.30969 0
M  V30 3193 C 293.097 1.00815 -1.37005 0
M  V30 3194 O 294.282 1.00907 -1.65926 0
M  V30 3195 C 291.412 1.43637 -3.16205 0
M  V30 3196 C 290.366 0.893818 -4.18563 0
M  V30 3197 C 289.692 2.08411 -4.92411 0
M  V30 3198 C 290.992 -0.0815568 -5.22236 0
M  V30 3199 H 292.686 -0.324556 -2.97636 0
M  V30 3200 H 290.232 -0.157531 -1.43136 0
M  V30 3201 H 292.185 1.9995 -3.70942 0
M  V30 3202 H 290.909 2.13232 -2.47386 0
M  V30 3203 H 289.568 0.352798 -3.64898 0
M  V30 3204 H 289.216 2.76658 -4.20082 0
M  V30 3205 H 288.916 1.72741 -5.61636 0
M  V30 3206 H 290.44 2.65251 -5.49976 0
M  V30 3207 H 291.854 0.391742 -5.7196 0
M  V30 3208 H 290.251 -0.351551 -5.99069 0
M  V30 3209 H 291.321 -1.01374 -4.74185 0
M  V30 3210 N 292.664 1.56529 -0.183458 0
M  V30 3211 C 293.574 2.22144 0.754272 0
M  V30 3212 C 294.59 1.21684 1.24374 0
M  V30 3213 O 295.766 1.54385 1.29333 0
M  V30 3214 C 292.831 2.85884 1.96141 0
M  V30 3215 C 291.892 4.01579 1.51765 0
M  V30 3216 C 291.125 4.6227 2.66725 0
M  V30 3217 O 291.348 4.21865 3.83909 0
M  V30 3218 O 290.282 5.51936 2.40104 0
M  V30 3219 H 294.108 3.02861 0.225527 0
M  V30 3220 H 291.693 1.49331 0.0453032 0
M  V30 3221 H 293.575 3.26253 2.66715 0
M  V30 3222 H 292.25 2.08154 2.47899 0
M  V30 3223 H 291.157 3.65856 0.781049 0
M  V30 3224 H 292.49 4.80938 1.04686 0
M  V30 3225 N 294.142 -0.090211 1.57342 0
M  V30 3226 C 295.39 -0.791241 1.85967 0
M  V30 3227 C 295.711 -1.7903 0.772859 0
M  V30 3228 O 294.981 -1.94872 -0.200398 0
M  V30 3229 H 293.561 -0.295205 0.686195 0
M  V30 3230 H 296.223 -0.0706782 1.94772 0
M  V30 3231 H 295.319 -1.31882 2.82867 0
M  V30 3232 N 295.62 -1.53406 -0.361157 0
M  V30 3233 C 296.55 -1.83136 -1.44857 0
M  V30 3234 C 297.531 -0.685174 -1.5569 0
M  V30 3235 O 298.716 -0.93544 -1.70186 0
M  V30 3236 C 295.846 -2.02522 -2.82138 0
M  V30 3237 C 294.8 -3.18302 -2.86126 0
M  V30 3238 C 294.126 -3.22989 -4.26125 0
M  V30 3239 C 295.426 -4.56796 -2.53248 0
M  V30 3240 H 297.12 -2.74201 -1.20226 0
M  V30 3241 H 294.666 -1.31938 -0.576922 0
M  V30 3242 H 296.619 -2.21904 -3.58241 0
M  V30 3243 H 295.343 -1.08172 -3.08166 0
M  V30 3244 H 294.002 -2.98747 -2.12475 0
M  V30 3245 H 293.65 -2.26267 -4.49235 0
M  V30 3246 H 293.35 -4.00781 -4.29708 0
M  V30 3247 H 294.874 -3.44559 -5.04094 0
M  V30 3248 H 296.288 -4.7631 -3.19064 0
M  V30 3249 H 294.685 -5.36862 -2.68141 0
M  V30 3250 H 295.755 -4.61606 -1.48484 0
M  V30 3251 N 297.098 0.621204 -1.44841 0
M  V30 3252 C 298.046 1.75385 -1.52784 0
M  V30 3253 C 299.04 1.64639 -0.398779 0
M  V30 3254 O 300.246 1.70598 -0.574137 0
M  V30 3255 H 296.621 0.579193 -0.479625 0
M  V30 3256 H 298.592 1.6581 -2.48092 0
M  V30 3257 C 297.341 3.13742 -1.4987 0
M  V30 3258 H 296.664 3.22663 -2.36069 0
M  V30 3259 H 298.104 3.92861 -1.59487 0
M  V30 3260 C 296.563 3.36175 -0.220973 0
M  V30 3261 O 297.093 3.95469 0.704782 0
M  V30 3262 N 295.299 2.90348 -0.120963 0
M  V30 3263 H 294.846 2.42278 -0.875162 0
M  V30 3264 H 294.804 3.05732 0.733168 0
M  V30 3265 N 298.576 1.31904 0.862503 0
M  V30 3266 C 299.822 1.22197 1.61851 0
M  V30 3267 C 300.155 -0.217641 1.92977 0
M  V30 3268 O 299.43 -1.15264 1.56666 0
M  V30 3269 C 299.713 2.07378 2.94391 0
M  V30 3270 C 299.566 3.59678 2.70096 0
M  V30 3271 C 300.885 1.92891 3.95577 0
M  V30 3272 H 298.004 0.445255 0.587296 0
M  V30 3273 H 300.646 1.6177 0.99651 0
M  V30 3274 H 298.796 1.73758 3.47477 0
M  V30 3275 H 300.468 4.03472 2.23625 0
M  V30 3276 H 298.711 3.82735 2.04197 0
M  V30 3277 H 299.382 4.14595 3.64438 0
M  V30 3278 H 301.858 2.22327 3.51724 0
M  V30 3279 H 300.734 2.54781 4.86187 0
M  V30 3280 H 300.995 0.894315 4.3296 0
M  V30 3281 N 300.054 -1.07777 1.14986 0
M  V30 3282 C 300.984 -2.16865 0.865557 0
M  V30 3283 C 301.965 -1.69123 -0.182083 0
M  V30 3284 O 303.15 -1.94164 -0.0373815 0
M  V30 3285 C 300.28 -3.45539 0.349313 0
M  V30 3286 C 299.234 -4.06708 1.33313 0
M  V30 3287 C 298.56 -5.30411 0.675918 0
M  V30 3288 C 299.86 -4.47241 2.69764 0
M  V30 3289 H 301.554 -2.40905 1.77778 0
M  V30 3290 H 299.1 -1.15781 0.856203 0
M  V30 3291 H 301.053 -4.21174 0.137983 0
M  V30 3292 H 299.777 -3.21072 -0.598362 0
M  V30 3293 H 298.436 -3.33112 1.53075 0
M  V30 3294 H 298.084 -5.02232 -0.277767 0
M  V30 3295 H 297.784 -5.72293 1.33244 0
M  V30 3296 H 299.308 -6.08755 0.474262 0
M  V30 3297 H 300.722 -5.14025 2.53873 0
M  V30 3298 H 299.119 -5.00062 3.3175 0
M  V30 3299 H 300.189 -3.58818 3.26156 0
M  V30 3300 N 301.532 -0.945985 -1.26051 0
M  V30 3301 C 302.464 -0.416662 -2.25381 0
M  V30 3302 C 303.477 0.462712 -1.56086 0
M  V30 3303 O 304.666 0.272383 -1.7641 0
M  V30 3304 C 301.766 0.419812 -3.3629 0
M  V30 3305 C 300.939 -0.444531 -4.35135 0
M  V30 3306 C 299.998 0.332305 -5.2515 0
M  V30 3307 O 299.024 -0.266324 -5.68577 0
M  V30 3308 N 300.226 1.62763 -5.57215 0
M  V30 3309 H 302.991 -1.27059 -2.71433 0
M  V30 3310 H 300.552 -0.815392 -1.39868 0
M  V30 3311 H 302.544 0.947013 -3.93464 0
M  V30 3312 H 301.114 1.17456 -2.89694 0
M  V30 3313 H 300.334 -1.15291 -3.76964 0
M  V30 3314 H 301.622 -1.03478 -4.98166 0
M  V30 3315 H 301.02 2.13603 -5.23823 0
M  V30 3316 H 299.577 2.10097 -6.17011 0
M  V30 3317 N 303.011 1.40521 -0.713556 0
M  V30 3318 C 304.236 2.05759 -0.26035 0
M  V30 3319 C 304.661 1.53403 1.08854 0
M  V30 3320 O 304.019 0.668535 1.68524 0
M  V30 3321 C 304.067 3.59745 -0.248122 0
M  V30 3322 O 303.171 4.05123 0.77131 0
M  V30 3323 H 302.512 0.652564 -0.122703 0
M  V30 3324 H 305.042 1.79958 -0.973467 0
M  V30 3325 H 305.052 4.07911 -0.0851129 0
M  V30 3326 H 303.727 3.97218 -1.2325 0
M  V30 3327 H 302.304 3.68422 0.57619 0
M  V30 3328 N 304.489 0.459591 1.5075 0
M  V30 3329 C 305.737 -0.0991532 2.01857 0
M  V30 3330 C 306.058 -1.41247 1.34441 0
M  V30 3331 O 305.328 -1.89775 0.486022 0
M  V30 3332 H 303.908 -0.039633 0.745948 0
M  V30 3333 H 306.57 0.607387 1.85194 0
M  V30 3334 H 305.666 -0.258998 3.11023 0
M  V30 3335 N 305.967 -1.56429 0.191757 0
M  V30 3336 C 306.9 -2.14829 -0.76967 0
M  V30 3337 C 307.878 -1.08405 -1.2119 0
M  V30 3338 O 309.062 -1.36498 -1.30002 0
M  V30 3339 C 306.189 -2.70446 -2.03903 0
M  V30 3340 C 305.235 -3.89428 -1.7392 0
M  V30 3341 S 306.068 -5.28048 -0.890265 0
M  V30 3342 C 307.224 -5.87085 -2.16984 0
M  V30 3343 H 307.457 -2.96042 -0.273204 0
M  V30 3344 H 304.99 -1.54383 -0.0231975 0
M  V30 3345 H 306.948 -3.03134 -2.76803 0
M  V30 3346 H 305.609 -1.89281 -2.50662 0
M  V30 3347 H 304.802 -4.26742 -2.68155 0
M  V30 3348 H 304.404 -3.57732 -1.09103 0
M  V30 3349 H 306.696 -6.01244 -3.12269 0
M  V30 3350 H 307.639 -6.83747 -1.84108 0
M  V30 3351 H 308.047 -5.15663 -2.29678 0
M  V30 3352 N 307.445 0.0818655 -1.57387 0
M  V30 3353 C 308.722 0.815343 -1.77796 0
M  V30 3354 C 309.102 1.96289 -0.77679 0
M  V30 3355 O 308.45 2.27691 0.192106 0
M  V30 3356 C 308.66 1.29765 -3.23978 0
M  V30 3357 C 310.008 1.7351 -3.8753 0
M  V30 3358 O 311.032 1.39356 -3.27808 0
M  V30 3359 O 309.891 2.36708 -4.92576 0
M  V30 3360 H 306.985 0.389914 -0.729312 0
M  V30 3361 H 309.531 0.0627213 -1.69584 0
M  V30 3362 H 308.303 0.47608 -3.88393 0
M  V30 3363 H 307.926 2.11189 -3.36875 0
M  V30 3364 N 308.923 1.53595 0.353017 0
M  V30 3365 C 310.153 1.74058 1.11299 0
M  V30 3366 C 310.561 0.475205 1.83135 0
M  V30 3367 O 309.904 -0.562344 1.74881 0
M  V30 3368 C 309.966 2.85994 2.17825 0
M  V30 3369 C 309.63 4.25923 1.65647 0
M  V30 3370 C 310.627 5.07829 1.11383 0
M  V30 3371 C 308.312 4.72377 1.7078 0
M  V30 3372 C 310.306 6.34285 0.629439 0
M  V30 3373 C 307.993 5.98808 1.21953 0
M  V30 3374 C 308.991 6.79594 0.681265 0
M  V30 3375 O 308.679 8.03651 0.200248 0
M  V30 3376 H 308.411 0.585327 0.338183 0
M  V30 3377 H 310.965 2.01186 0.413927 0
M  V30 3378 H 309.195 2.54368 2.91262 0
M  V30 3379 H 310.884 2.94515 2.79313 0
M  V30 3380 H 311.65 4.73107 1.06746 0
M  V30 3381 H 307.529 4.0956 2.11617 0
M  V30 3382 H 311.073 6.97288 0.208636 0
M  V30 3383 H 306.97 6.33026 1.26287 0
M  V30 3384 H 307.738 8.1788 0.318416 0
M  V30 3385 N 310.401 -0.613514 1.45168 0
M  V30 3386 C 311.812 -1.19539 1.43413 0
M  V30 3387 C 312.163 -1.95558 0.158632 0
M  V30 3388 O 311.288 -2.0335 -0.740119 0
M  V30 3389 C 311.883 -2.17445 2.59813 0
M  V30 3390 C 310.442 -2.71022 2.61197 0
M  V30 3391 C 309.589 -1.46323 2.35552 0
M  V30 3392 H 312.54 -0.403163 1.53494 0
M  V30 3393 H 312.561 -3.00373 2.33574 0
M  V30 3394 H 312.073 -1.62089 3.52631 0
M  V30 3395 H 310.174 -3.30332 1.7237 0
M  V30 3396 H 310.287 -3.15859 3.60236 0
M  V30 3397 H 308.651 -1.75072 1.84992 0
M  V30 3398 H 309.434 -0.92844 3.30507 0
M  V30 3399 N 311.879 -1.3236 -0.855495 0
M  V30 3400 C 312.829 -1.17809 -1.95205 0
M  V30 3401 C 313.813 -0.0852319 -1.60674 0
M  V30 3402 O 315.005 -0.311651 -1.74235 0
M  V30 3403 C 312.134 -0.902437 -3.31226 0
M  V30 3404 C 311.22 -2.03695 -3.7198 0
M  V30 3405 N 311.611 -3.28544 -3.84568 0
M  V30 3406 C 309.909 -1.93993 -4.016 0
M  V30 3407 C 310.61 -4.02847 -4.19629 0
M  V30 3408 N 309.586 -3.31138 -4.31102 0
M  V30 3409 H 313.388 -2.12462 -2.0307 0
M  V30 3410 H 310.902 -1.24127 -1.0472 0
M  V30 3411 H 312.899 -0.77915 -4.09554 0
M  V30 3412 H 311.559 0.0357267 -3.2468 0
M  V30 3413 H 312.57 -3.6349 -3.68911 0
M  V30 3414 H 309.247 -1.07733 -4.03361 0
M  V30 3415 H 310.637 -5.10506 -4.36845 0
M  V30 3416 N 313.357 1.07166 -1.15556 0
M  V30 3417 C 314.634 1.76546 -0.842069 0
M  V30 3418 C 315.014 2.00453 0.661939 0
M  V30 3419 O 314.362 1.62452 1.60691 0
M  V30 3420 C 314.572 3.07266 -1.65495 0
M  V30 3421 C 315.92 3.81578 -1.86234 0
M  V30 3422 O 316.944 3.17083 -1.62287 0
M  V30 3423 O 315.803 4.97419 -2.26355 0
M  V30 3424 H 312.897 0.766756 -0.309862 0
M  V30 3425 H 315.443 1.13514 -1.26145 0
M  V30 3426 H 314.215 2.85494 -2.67598 0
M  V30 3427 H 313.838 3.7803 -1.23203 0
M  V30 3428 N 314.835 0.952656 1.25548 0
M  V30 3429 C 316.246 0.647392 1.75116 0
M  V30 3430 C 316.597 -0.837274 1.77438 0
M  V30 3431 O 315.722 -1.65525 1.39393 0
M  V30 3432 C 316.317 1.16845 3.18014 0
M  V30 3433 C 314.876 0.913382 3.6515 0
M  V30 3434 C 314.023 1.31265 2.44264 0
M  V30 3435 H 316.974 1.12968 1.11462 0
M  V30 3436 H 316.995 0.527606 3.76824 0
M  V30 3437 H 316.507 2.24902 3.16292 0
M  V30 3438 H 314.608 -0.152316 3.72289 0
M  V30 3439 H 314.721 1.54845 4.53387 0
M  V30 3440 H 313.085 0.731028 2.43984 0
M  V30 3441 H 313.868 2.40239 2.45234 0
M  V30 3442 N 316.313 -1.40141 0.720998 0
M  V30 3443 C 317.263 -2.27949 0.0482544 0
M  V30 3444 C 318.247 -1.43538 -0.727021 0
M  V30 3445 O 319.439 -1.6658 -0.598332 0
M  V30 3446 C 316.568 -3.32126 -0.868729 0
M  V30 3447 C 315.654 -4.24008 -0.0883515 0
M  V30 3448 N 316.045 -4.97154 0.931226 0
M  V30 3449 C 314.343 -4.4485 -0.320105 0
M  V30 3450 C 315.044 -5.64587 1.4006 0
M  V30 3451 N 314.02 -5.38787 0.721752 0
M  V30 3452 H 317.822 -2.81948 0.829609 0
M  V30 3453 H 315.336 -1.52656 0.554067 0
M  V30 3454 H 317.333 -3.93884 -1.36605 0
M  V30 3455 H 315.993 -2.79687 -1.6494 0
M  V30 3456 H 317.004 -5.01 1.31222 0
M  V30 3457 H 313.681 -4.03378 -1.07668 0
M  V30 3458 H 315.071 -6.33175 2.24808 0
M  V30 3459 N 317.792 -0.46758 -1.50504 0
M  V30 3460 C 318.742 0.34698 -2.25344 0
M  V30 3461 C 319.726 0.964469 -1.2879 0
M  V30 3462 O 320.918 0.8776 -1.53711 0
M  V30 3463 C 318.047 1.43042 -3.1208 0
M  V30 3464 C 317.133 0.82084 -4.16081 0
M  V30 3465 N 317.524 -0.0567602 -5.05768 0
M  V30 3466 C 315.822 1.08517 -4.32597 0
M  V30 3467 C 316.523 -0.402343 -5.80307 0
M  V30 3468 N 315.499 0.221607 -5.43148 0
M  V30 3469 H 319.301 -0.329129 -2.92051 0
M  V30 3470 H 316.815 -0.281508 -1.59942 0
M  V30 3471 H 318.812 2.02712 -3.64299 0
M  V30 3472 H 317.472 2.10856 -2.46921 0
M  V30 3473 H 318.483 -0.425349 -5.1615 0
M  V30 3474 H 315.16 1.75855 -3.78657 0
M  V30 3475 H 316.55 -1.11834 -6.62528 0
M  V30 3476 N 319.27 1.56325 -0.20005 0
M  V30 3477 C 320.516 1.98012 0.438059 0
M  V30 3478 C 320.849 1.08702 1.60927 0
M  V30 3479 O 320.124 0.140064 1.93995 0
M  V30 3480 C 320.407 3.48841 0.893419 0
M  V30 3481 C 320.26 4.48928 -0.279947 0
M  V30 3482 C 321.579 4.03498 1.75719 0
M  V30 3483 H 318.698 0.719918 0.157757 0
M  V30 3484 H 321.34 1.87743 -0.291968 0
M  V30 3485 H 319.49 3.57723 1.51547 0
M  V30 3486 H 321.162 4.52079 -0.91772 0
M  V30 3487 H 319.405 4.23694 -0.930919 0
M  V30 3488 H 320.076 5.5194 0.0812601 0
M  V30 3489 H 322.552 3.97427 1.23253 0
M  V30 3490 H 321.428 5.09393 2.04476 0
M  V30 3491 H 321.689 3.4906 2.71311 0
M  V30 3492 N 320.748 -0.0735177 1.57428 0
M  V30 3493 C 321.995 -0.772999 1.87166 0
M  V30 3494 C 322.323 -1.77665 0.791551 0
M  V30 3495 O 321.578 -1.94541 -0.212636 0
M  V30 3496 C 321.877 -1.51799 3.23561 0
M  V30 3497 C 321.543 -0.654484 4.46125 0
M  V30 3498 C 320.205 -0.416511 4.79394 0
M  V30 3499 C 322.557 -0.0555862 5.2117 0
M  V30 3500 C 319.885 0.429869 5.85123 0
M  V30 3501 C 322.237 0.778239 6.27795 0
M  V30 3502 C 320.901 1.0261 6.59566 0
M  V30 3503 H 320.171 -0.282861 0.684888 0
M  V30 3504 H 322.818 -0.0338272 1.9147 0
M  V30 3505 H 321.123 -2.32932 3.1504 0
M  V30 3506 H 322.82 -2.06397 3.43804 0
M  V30 3507 H 319.41 -0.850091 4.20085 0
M  V30 3508 H 323.594 -0.226558 4.95783 0
M  V30 3509 H 318.85 0.630665 6.08139 0
M  V30 3510 H 323.024 1.24906 6.85107 0
M  V30 3511 H 320.651 1.68371 7.4132 0
M  V30 3512 N 322.226 -1.5378 -0.344866 0
M  V30 3513 C 323.472 -1.71216 -1.08687 0
M  V30 3514 C 323.805 -0.473281 -1.88345 0
M  V30 3515 O 323.08 0.52968 -1.87149 0
M  V30 3516 C 323.363 -2.97486 -2.02914 0
M  V30 3517 C 323.216 -4.31579 -1.26727 0
M  V30 3518 C 324.535 -3.19422 -3.0275 0
M  V30 3519 H 321.654 -0.62301 -0.393735 0
M  V30 3520 H 324.296 -1.8645 -0.365563 0
M  V30 3521 H 322.446 -2.84629 -2.64421 0
M  V30 3522 H 324.118 -4.56284 -0.67845 0
M  V30 3523 H 322.361 -4.30049 -0.569273 0
M  V30 3524 H 323.032 -5.16106 -1.95803 0
M  V30 3525 H 325.508 -3.316 -2.51357 0
M  V30 3526 H 324.384 -4.09169 -3.65885 0
M  V30 3527 H 324.645 -2.35656 -3.74057 0
M  V30 3528 N 323.704 0.605807 -1.45491 0
M  V30 3529 C 324.929 1.39625 -1.53361 0
M  V30 3530 C 325.354 1.87351 -0.167645 0
M  V30 3531 O 324.712 1.60243 0.848051 0
M  V30 3532 C 324.76 2.57559 -2.5238 0
M  V30 3533 O 323.864 3.58248 -2.04285 0
M  V30 3534 H 323.205 0.416771 -0.516912 0
M  V30 3535 H 325.735 0.737103 -1.90861 0
M  V30 3536 H 325.745 3.0478 -2.71244 0
M  V30 3537 H 324.42 2.22171 -3.51586 0
M  V30 3538 H 322.997 3.17664 -1.95305 0
M  V30 3539 N 325.182 1.32811 0.848464 0
M  V30 3540 C 326.459 1.14334 1.58704 0
M  V30 3541 C 326.839 -0.293948 2.09043 0
M  V30 3542 O 326.187 -1.29153 1.88499 0
M  V30 3543 C 326.397 2.17626 2.72837 0
M  V30 3544 C 327.745 2.51282 3.42261 0
M  V30 3545 O 328.769 2.16219 2.83068 0
M  V30 3546 O 327.628 3.11413 4.49093 0
M  V30 3547 H 324.722 0.441601 0.699226 0
M  V30 3548 H 327.268 1.44362 0.892053 0
M  V30 3549 H 326.04 3.14211 2.3321 0
M  V30 3550 H 325.663 1.88628 3.50008 0
M  V30 3551 N 326.66 -1.06551 1.16123 0
M  V30 3552 C 327.907 -1.79302 0.941126 0
M  V30 3553 C 328.235 -1.87105 -0.531235 0
M  V30 3554 O 327.49 -1.35692 -1.41018 0
M  V30 3555 C 327.789 -3.23911 1.51052 0
M  V30 3556 C 327.455 -3.36193 3.00475 0
M  V30 3557 C 326.117 -3.39252 3.41265 0
M  V30 3558 C 328.469 -3.38326 3.96465 0
M  V30 3559 C 325.797 -3.42057 4.76669 0
M  V30 3560 C 328.149 -3.4267 5.31752 0
M  V30 3561 C 326.813 -3.4401 5.72026 0
M  V30 3562 H 326.083 -0.656111 0.344382 0
M  V30 3563 H 328.73 -1.25325 1.44796 0
M  V30 3564 H 327.035 -3.80723 0.925063 0
M  V30 3565 H 328.732 -3.78793 1.31593 0
M  V30 3566 H 325.322 -3.34516 2.6795 0
M  V30 3567 H 329.506 -3.35176 3.6602 0
M  V30 3568 H 324.762 -3.41398 5.07206 0
M  V30 3569 H 328.936 -3.43268 6.05921 0
M  V30 3570 H 326.563 -3.45937 6.76928 0
M  V30 3571 N 328.138 -0.959301 -1.25041 0
M  V30 3572 C 329.384 -0.617525 -1.9317 0
M  V30 3573 C 329.717 0.843981 -1.74902 0
M  V30 3574 O 328.992 1.60615 -1.09696 0
M  V30 3575 C 329.275 -0.982736 -3.46431 0
M  V30 3576 C 329.128 -2.50032 -3.73904 0
M  V30 3577 C 330.447 -0.511176 -4.37121 0
M  V30 3578 H 327.566 -0.22582 -0.701552 0
M  V30 3579 H 330.208 -1.19679 -1.4757 0
M  V30 3580 H 328.358 -0.489806 -3.854 0
M  V30 3581 H 330.03 -3.06737 -3.44544 0
M  V30 3582 H 328.273 -2.93598 -3.19348 0
M  V30 3583 H 328.944 -2.70635 -4.81103 0
M  V30 3584 H 331.42 -0.934075 -4.0548 0
M  V30 3585 H 330.296 -0.795361 -5.43107 0
M  V30 3586 H 330.557 0.588834 -4.38161 0
M  V30 3587 N 329.616 1.39756 -0.72842 0
M  V30 3588 C 330.893 1.94574 -0.200079 0
M  V30 3589 C 331.273 1.66569 1.29684 0
M  V30 3590 O 330.621 0.990326 2.05924 0
M  V30 3591 C 330.831 3.45004 -0.526608 0
M  V30 3592 C 332.179 4.21965 -0.472318 0
M  V30 3593 O 333.203 3.53173 -0.463413 0
M  V30 3594 O 332.062 5.44552 -0.461075 0
M  V30 3595 H 329.156 0.826289 -0.0342851 0
M  V30 3596 H 331.702 1.49293 -0.806829 0
M  V30 3597 H 330.474 3.58796 -1.56144 0
M  V30 3598 H 330.097 3.97449 0.109449 0
M  V30 3599 N 331.094 0.475555 1.50254 0
M  V30 3600 C 332.341 -0.0778919 2.0235 0
M  V30 3601 C 332.669 -1.39319 1.35722 0
M  V30 3602 O 331.924 -1.89888 0.473395 0
M  V30 3603 C 332.223 -0.305114 3.56095 0
M  V30 3604 C 331.889 0.92903 4.41225 0
M  V30 3605 C 330.551 1.26739 4.6421 0
M  V30 3606 C 332.903 1.75054 4.90923 0
M  V30 3607 C 330.231 2.42724 5.34137 0
M  V30 3608 C 332.583 2.9017 5.62125 0
M  V30 3609 C 331.247 3.24416 5.83362 0
M  V30 3610 H 330.517 -0.0285027 0.740452 0
M  V30 3611 H 333.164 0.630543 1.80821 0
M  V30 3612 H 331.469 -1.09584 3.76163 0
M  V30 3613 H 333.166 -0.747377 3.93974 0
M  V30 3614 H 329.756 0.655428 4.23559 0
M  V30 3615 H 333.94 1.50231 4.73016 0
M  V30 3616 H 329.196 2.69525 5.48786 0
M  V30 3617 H 333.37 3.54169 5.99614 0
M  V30 3618 H 330.997 4.14396 6.37323 0
M  V30 3619 N 332.573 -1.56217 0.208337 0
M  V30 3620 C 333.798 -2.02782 -0.435222 0
M  V30 3621 C 334.223 -1.08738 -1.53485 0
M  V30 3622 O 333.581 -0.0731855 -1.81152 0
M  V30 3623 C 333.629 -3.47687 -0.956335 0
M  V30 3624 O 332.733 -3.56773 -2.06849 0
M  V30 3625 H 332.074 -0.656403 -0.100158 0
M  V30 3626 H 334.604 -2.02033 0.3231 0
M  V30 3627 H 334.614 -3.87745 -1.26955 0
M  V30 3628 H 333.289 -4.15624 -0.15143 0
M  V30 3629 H 331.866 -3.28597 -1.76292 0
M  V30 3630 N 334.051 0.0651679 -1.57465 0
M  V30 3631 C 335.3 0.761916 -1.86756 0
M  V30 3632 C 335.613 1.78406 -0.801925 0
M  V30 3633 O 336.819 2.53084 -0.982885 0
M  V30 3634 C 335.275 1.40603 -3.31299 0
M  V30 3635 C 334.883 0.422115 -4.46007 0
M  V30 3636 C 336.627 2.08476 -3.69781 0
M  V30 3637 C 334.534 1.07252 -5.81593 0
M  V30 3638 H 333.464 0.288308 -0.696702 0
M  V30 3639 H 336.115 0.015344 -1.83494 0
M  V30 3640 H 334.497 2.20109 -3.29193 0
M  V30 3641 H 335.671 -0.343613 -4.59517 0
M  V30 3642 H 333.986 -0.152527 -4.16121 0
M  V30 3643 H 336.583 2.57925 -4.68379 0
M  V30 3644 H 336.926 2.88712 -2.99919 0
M  V30 3645 H 337.459 1.35792 -3.73905 0
M  V30 3646 H 334.198 0.310342 -6.54765 0
M  V30 3647 H 333.718 1.80895 -5.71872 0
M  V30 3648 H 335.397 1.59043 -6.27148 0
M  V30 3649 N 335.529 1.53961 0.336706 0
M  V30 3650 C 336.759 1.75229 1.09446 0
M  V30 3651 C 337.167 0.494602 1.82621 0
M  V30 3652 O 336.51 -0.543764 1.75468 0
M  V30 3653 C 336.572 2.88288 2.1478 0
M  V30 3654 C 336.236 4.27656 1.6112 0
M  V30 3655 C 337.233 5.08981 1.0599 0
M  V30 3656 C 334.918 4.74161 1.6576 0
M  V30 3657 C 336.912 6.34916 0.562129 0
M  V30 3658 C 334.599 6.00067 1.15595 0
M  V30 3659 C 335.597 6.80278 0.609147 0
M  V30 3660 O 335.285 8.03818 0.114999 0
M  V30 3661 H 335.017 0.588881 0.331956 0
M  V30 3662 H 337.571 2.01614 0.392566 0
M  V30 3663 H 335.801 2.57443 2.88548 0
M  V30 3664 H 337.49 2.97461 2.76174 0
M  V30 3665 H 338.256 4.74213 1.01722 0
M  V30 3666 H 334.135 4.11781 2.07261 0
M  V30 3667 H 337.679 6.9747 0.134668 0
M  V30 3668 H 333.576 6.3433 1.19566 0
M  V30 3669 H 334.344 8.18172 0.231651 0
M  V30 3670 N 337.007 -0.598083 1.45811 0
M  V30 3671 C 338.253 -1.35882 1.50545 0
M  V30 3672 C 338.586 -1.93616 0.150445 0
M  V30 3673 O 337.861 -1.75604 -0.83628 0
M  V30 3674 C 338.144 -2.49966 2.59208 0
M  V30 3675 C 337.997 -1.97367 4.04186 0
M  V30 3676 C 339.316 -3.52068 2.64076 0
M  V30 3677 H 336.435 -0.492717 0.548087 0
M  V30 3678 H 339.077 -0.673319 1.77669 0
M  V30 3679 H 337.227 -3.08443 2.3621 0
M  V30 3680 H 338.899 -1.43466 4.38423 0
M  V30 3681 H 337.142 -1.283 4.14393 0
M  V30 3682 H 337.813 -2.79649 4.75921 0
M  V30 3683 H 340.289 -3.03448 2.84708 0
M  V30 3684 H 339.165 -4.2937 3.41954 0
M  V30 3685 H 339.426 -4.08304 1.69531 0
M  V30 3686 N 338.485 -1.33259 -0.841409 0
M  V30 3687 C 339.762 -1.15174 -1.58096 0
M  V30 3688 C 340.142 0.282858 -2.09196 0
M  V30 3689 O 339.49 1.28151 -1.89181 0
M  V30 3690 C 339.7 -2.1907 -2.71679 0
M  V30 3691 C 341.048 -2.53093 -3.40924 0
M  V30 3692 O 342.072 -2.17717 -2.81918 0
M  V30 3693 O 340.931 -3.1379 -4.47435 0
M  V30 3694 H 338.025 -0.445303 -0.696875 0
M  V30 3695 H 340.571 -1.44833 -0.884385 0
M  V30 3696 H 339.343 -3.15443 -2.31541 0
M  V30 3697 H 338.966 -1.90481 -3.49002 0
M  V30 3698 N 339.963 1.05934 -1.16686 0
M  V30 3699 C 340.926 2.11669 -0.879144 0
M  V30 3700 C 341.926 1.60294 0.127445 0
M  V30 3701 O 343.116 1.7389 -0.103865 0
M  V30 3702 C 340.248 3.39438 -0.315425 0
M  V30 3703 H 341.441 2.38626 -1.81653 0
M  V30 3704 H 338.994 1.22058 -0.976299 0
M  V30 3705 H 339.729 3.18132 0.629468 0
M  V30 3706 H 339.514 3.78034 -1.04079 0
M  V30 3707 H 341.004 4.17391 -0.132189 0
M  V30 3708 N 341.441 0.965919 1.2453 0
M  V30 3709 C 342.852 0.665929 1.7442 0
M  V30 3710 C 343.203 -0.818407 1.78316 0
M  V30 3711 O 342.328 -1.64037 1.41141 0
M  V30 3712 C 342.923 1.20211 3.16757 0
M  V30 3713 C 341.482 0.952059 3.6416 0
M  V30 3714 C 340.629 1.33848 2.42858 0
M  V30 3715 H 343.58 1.14144 1.10258 0
M  V30 3716 H 343.601 0.567544 3.76244 0
M  V30 3717 H 343.113 2.28244 3.13889 0
M  V30 3718 H 341.214 -0.112821 3.72429 0
M  V30 3719 H 341.327 1.59645 4.51719 0
M  V30 3720 H 339.691 0.756864 2.43195 0
M  V30 3721 H 340.474 2.42827 2.42673 0
M  V30 3722 N 342.919 -1.39368 0.735821 0
M  V30 3723 C 343.829 -2.34395 0.0979693 0
M  V30 3724 C 344.845 -1.58361 -0.720968 0
M  V30 3725 O 346.021 -1.90648 -0.649245 0
M  V30 3726 C 343.086 -3.37393 -0.797916 0
M  V30 3727 C 342.147 -4.29287 0.0333662 0
M  V30 3728 C 341.38 -5.27365 -0.819854 0
M  V30 3729 O 341.603 -5.31959 -2.05855 0
M  V30 3730 O 340.537 -6.01389 -0.248079 0
M  V30 3731 H 344.363 -2.90601 0.882315 0
M  V30 3732 H 341.948 -1.40909 0.4965 0
M  V30 3733 H 343.83 -4.00505 -1.31048 0
M  V30 3734 H 342.505 -2.83571 -1.56106 0
M  V30 3735 H 341.412 -3.69395 0.591475 0
M  V30 3736 H 342.745 -4.86317 0.758752 0
M  V30 3737 N 344.397 -0.483516 -1.5 0
M  V30 3738 C 345.674 0.129337 -1.95172 0
M  V30 3739 C 346.054 1.55802 -1.4244 0
M  V30 3740 O 345.402 2.19625 -0.630649 0
M  V30 3741 C 345.612 0.0599251 -3.48949 0
M  V30 3742 C 346.96 0.242617 -4.23906 0
M  V30 3743 O 347.984 0.135933 -3.55941 0
M  V30 3744 O 346.843 0.459454 -5.44565 0
M  V30 3745 H 343.937 0.104887 -0.820322 0
M  V30 3746 H 346.483 -0.544807 -1.60717 0
M  V30 3747 H 345.255 -0.937079 -3.79914 0
M  V30 3748 H 344.878 0.774984 -3.89974 0
M  V30 3749 N 345.875 1.56104 -0.216619 0
M  V30 3750 C 346.805 2.23063 0.690296 0
M  V30 3751 C 347.786 1.20072 1.20485 0
M  V30 3752 O 348.971 1.48643 1.24976 0
M  V30 3753 C 346.101 2.90672 1.90072 0
M  V30 3754 C 345.055 4.00092 1.5202 0
M  V30 3755 C 344.381 4.54972 2.80899 0
M  V30 3756 C 345.681 5.17398 0.71391 0
M  V30 3757 H 347.375 2.99109 0.132038 0
M  V30 3758 H 344.921 1.43866 0.0620664 0
M  V30 3759 H 346.874 3.36204 2.54057 0
M  V30 3760 H 345.598 2.12066 2.48386 0
M  V30 3761 H 344.257 3.55283 0.903839 0
M  V30 3762 H 343.905 3.73102 3.37348 0
M  V30 3763 H 343.605 5.28817 2.56176 0
M  V30 3764 H 345.129 5.0322 3.45836 0
M  V30 3765 H 346.543 5.59342 1.25735 0
M  V30 3766 H 344.94 5.97444 0.563951 0
M  V30 3767 H 346.01 4.84088 -0.280527 0
M  V30 3768 N 347.353 -0.0568162 1.57498 0
M  V30 3769 C 348.283 -1.06593 2.0775 0
M  V30 3770 C 349.264 -1.39448 0.974082 0
M  V30 3771 O 350.449 -1.48815 1.24771 0
M  V30 3772 C 347.579 -2.37509 2.5339 0
M  V30 3773 C 346.533 -2.1897 3.67745 0
M  V30 3774 C 345.859 -3.55402 3.99492 0
M  V30 3775 C 347.159 -1.59859 4.97235 0
M  V30 3776 H 348.853 -0.647706 2.9231 0
M  V30 3777 H 346.399 -0.310116 1.40621 0
M  V30 3778 H 348.352 -3.08409 2.87162 0
M  V30 3779 H 347.076 -2.8134 1.65878 0
M  V30 3780 H 345.735 -1.50508 3.3428 0
M  V30 3781 H 345.383 -3.9683 3.09088 0
M  V30 3782 H 345.083 -3.43831 4.76502 0
M  V30 3783 H 346.607 -4.27708 4.35773 0
M  V30 3784 H 348.021 -2.20642 5.29141 0
M  V30 3785 H 346.418 -1.58942 5.78669 0
M  V30 3786 H 347.488 -0.561506 4.81638 0
M  V30 3787 N 348.832 -1.54138 -0.328536 0
M  V30 3788 C 349.764 -1.79509 -1.4251 0
M  V30 3789 C 350.777 -0.67688 -1.48061 0
M  V30 3790 O 351.966 -0.953898 -1.50874 0
M  V30 3791 C 349.066 -1.89337 -2.81078 0
M  V30 3792 C 348.239 -3.19443 -2.98789 0
M  V30 3793 C 347.298 -3.20036 -4.17688 0
M  V30 3794 O 346.324 -3.93697 -4.11086 0
M  V30 3795 N 347.526 -2.43467 -5.26976 0
M  V30 3796 H 350.291 -2.74139 -1.21111 0
M  V30 3797 H 347.852 -1.53373 -0.518499 0
M  V30 3798 H 349.844 -1.87167 -3.58818 0
M  V30 3799 H 348.414 -1.01826 -2.95551 0
M  V30 3800 H 347.634 -3.34614 -2.08391 0
M  V30 3801 H 348.922 -4.05354 -3.07515 0
M  V30 3802 H 348.32 -1.83201 -5.35214 0
M  V30 3803 H 346.877 -2.4708 -6.03154 0
M  V30 3804 N 350.31 0.590341 -1.46126 0
M  V30 3805 C 351.538 1.37504 -1.54597 0
M  V30 3806 C 351.953 1.87897 -0.184447 0
M  V30 3807 O 351.31 1.63192 0.816984 0
M  V30 3808 C 351.361 2.56779 -2.54454 0
M  V30 3809 O 351.082 2.08476 -3.85317 0
M  V30 3810 C 352.583 3.49427 -2.72792 0
M  V30 3811 H 349.803 0.420325 -0.523037 0
M  V30 3812 H 352.347 0.718383 -1.91467 0
M  V30 3813 H 350.502 3.1845 -2.20609 0
M  V30 3814 H 350.916 2.86097 -4.396 0
M  V30 3815 H 352.39 4.29619 -3.466 0
M  V30 3816 H 352.867 4.00876 -1.79429 0
M  V30 3817 H 353.473 2.93598 -3.07702 0
M  V30 3818 N 351.788 1.33704 0.83433 0
M  V30 3819 C 353.034 1.26612 1.59188 0
M  V30 3820 C 353.389 -0.165439 1.91687 0
M  V30 3821 O 352.682 -1.10873 1.56262 0
M  V30 3822 C 352.876 2.07926 2.90692 0
M  V30 3823 C 352.705 3.58844 2.71038 0
M  V30 3824 C 351.475 4.28148 2.68361 0
M  V30 3825 C 353.673 4.53082 2.43353 0
M  V30 3826 N 351.655 5.64987 2.40132 0
M  V30 3827 C 353.026 5.77843 2.24716 0
M  V30 3828 C 355.081 4.42119 2.28987 0
M  V30 3829 C 353.784 6.92877 1.9317 0
M  V30 3830 C 355.81 5.56973 1.98835 0
M  V30 3831 C 355.172 6.80745 1.81012 0
M  V30 3832 H 351.271 0.518517 0.585375 0
M  V30 3833 H 353.855 1.68294 0.979044 0
M  V30 3834 H 352.026 1.68558 3.49918 0
M  V30 3835 H 353.758 1.92568 3.55949 0
M  V30 3836 H 350.513 3.80469 2.82029 0
M  V30 3837 H 350.937 6.37133 2.28889 0
M  V30 3838 H 355.579 3.47058 2.41477 0
M  V30 3839 H 353.297 7.87931 1.79418 0
M  V30 3840 H 356.883 5.50428 1.88468 0
M  V30 3841 H 355.763 7.68115 1.58017 0
M  V30 3842 N 353.266 -1.05314 1.17247 0
M  V30 3843 C 354.496 -1.81707 0.983166 0
M  V30 3844 C 354.904 -1.83222 -0.471822 0
M  V30 3845 O 354.247 -1.25721 -1.3394 0
M  V30 3846 C 354.309 -3.29134 1.44606 0
M  V30 3847 C 353.973 -3.51304 2.92292 0
M  V30 3848 C 354.97 -3.4353 3.90235 0
M  V30 3849 C 352.655 -3.78306 3.30439 0
M  V30 3850 C 354.649 -3.62442 5.24323 0
M  V30 3851 C 352.336 -3.96866 4.64694 0
M  V30 3852 C 353.334 -3.88933 5.61445 0
M  V30 3853 O 353.022 -4.06976 6.93272 0
M  V30 3854 H 352.754 -0.579476 0.348114 0
M  V30 3855 H 355.308 -1.33705 1.55924 0
M  V30 3856 H 353.538 -3.78046 0.813537 0
M  V30 3857 H 355.227 -3.87049 1.22262 0
M  V30 3858 H 355.993 -3.22648 3.62109 0
M  V30 3859 H 351.872 -3.83585 2.55702 0
M  V30 3860 H 355.416 -3.56165 5.99827 0
M  V30 3861 H 351.313 -4.1724 4.92525 0
M  V30 3862 H 352.081 -4.24209 6.99992 0
M  V30 3863 N 354.744 -0.972509 -1.24016 0
M  V30 3864 C 355.993 -0.632603 -1.91523 0
M  V30 3865 C 356.306 0.836641 -1.76804 0
M  V30 3866 O 357.512 1.28728 -2.39043 0
M  V30 3867 C 355.968 -1.08082 -3.43287 0
M  V30 3868 C 355.576 -2.57386 -3.66683 0
M  V30 3869 C 357.32 -0.814288 -4.16617 0
M  V30 3870 C 355.227 -2.95915 -5.12043 0
M  V30 3871 H 354.157 -0.232898 -0.717129 0
M  V30 3872 H 356.808 -1.17936 -1.40582 0
M  V30 3873 H 355.19 -0.462339 -3.93292 0
M  V30 3874 H 356.364 -3.24405 -3.27258 0
M  V30 3875 H 354.679 -2.81701 -3.06649 0
M  V30 3876 H 357.276 -1.0781 -5.23718 0
M  V30 3877 H 357.619 0.24955 -4.15551 0
M  V30 3878 H 358.152 -1.39397 -3.72577 0
M  V30 3879 H 354.891 -4.0139 -5.18234 0
M  V30 3880 H 354.411 -2.33584 -5.52448 0
M  V30 3881 H 356.09 -2.86086 -5.80314 0
M  V30 3882 N 356.222 1.38976 -0.743202 0
M  V30 3883 C 357.17 2.32394 -0.0978389 0
M  V30 3884 C 358.164 1.53486 0.716824 0
M  V30 3885 O 359.37 1.69092 0.617088 0
M  V30 3886 H 355.745 0.75189 -0.0128402 0
M  V30 3887 H 357.716 2.84441 -0.901981 0
M  V30 3888 C 356.465 3.38629 0.789036 0
M  V30 3889 H 355.788 3.99432 0.171559 0
M  V30 3890 H 357.228 4.06426 1.20807 0
M  V30 3891 C 355.687 2.76347 1.92702 0
M  V30 3892 O 356.217 2.64836 3.02034 0
M  V30 3893 N 354.423 2.34311 1.71891 0
M  V30 3894 H 353.97 2.43873 0.829675 0
M  V30 3895 H 353.928 1.9298 2.48205 0
M  V30 3896 N 357.7 0.491464 1.49741 0
M  V30 3897 C 359.116 0.146835 1.58923 0
M  V30 3898 C 359.316 -1.34804 1.49767 0
M  V30 3899 O 358.372 -2.12317 1.36667 0
M  V30 3900 C 359.685 0.715157 2.92072 0
M  V30 3901 C 361.233 0.680407 3.05515 0
M  V30 3902 C 361.708 1.22663 4.41269 0
M  V30 3903 N 363.199 1.18691 4.47735 0
M  V30 3904 C 363.934 1.57984 5.51207 0
M  V30 3905 N 363.43 2.04824 6.6183 0
M  V30 3906 N 365.223 1.49459 5.41866 0
M  V30 3907 H 357.374 1.46347 1.53936 0
M  V30 3908 H 359.637 0.606453 0.728642 0
M  V30 3909 H 359.343 1.76317 3.04311 0
M  V30 3910 H 359.217 0.17018 3.76816 0
M  V30 3911 H 361.604 -0.358743 2.92911 0
M  V30 3912 H 361.685 1.26242 2.22478 0
M  V30 3913 H 361.329 2.26451 4.54623 0
M  V30 3914 H 361.259 0.620637 5.2293 0
M  V30 3915 H 363.75 0.843605 3.68364 0
M  V30 3916 H 364.063 2.32901 7.3687 0
M  V30 3917 H 362.408 2.08791 6.62896 0
M  V30 3918 H 365.599 1.12692 4.54333 0
M  V30 3919 H 365.772 1.80406 6.22381 0
M  V30 3920 N 359.178 -1.55987 0.224894 0
M  V30 3921 C 360.425 -1.9839 -0.4059 0
M  V30 3922 C 360.753 -1.11261 -1.59535 0
M  V30 3923 O 360.008 -0.158314 -1.95059 0
M  V30 3924 C 360.307 -3.46394 -0.880106 0
M  V30 3925 C 359.973 -4.5046 0.19918 0
M  V30 3926 C 358.635 -4.7864 0.495661 0
M  V30 3927 C 360.987 -5.12855 0.928939 0
M  V30 3928 C 358.315 -5.66497 1.52636 0
M  V30 3929 C 360.667 -6.01828 1.949 0
M  V30 3930 C 359.331 -6.28351 2.25236 0
M  V30 3931 H 358.601 -0.725961 -0.148529 0
M  V30 3932 H 361.248 -1.88668 0.328113 0
M  V30 3933 H 359.553 -3.53337 -1.69294 0
M  V30 3934 H 361.25 -3.76577 -1.37808 0
M  V30 3935 H 357.84 -4.28579 -0.0420526 0
M  V30 3936 H 362.024 -4.9115 0.713129 0
M  V30 3937 H 357.28 -5.8531 1.76698 0
M  V30 3938 H 361.454 -6.49225 2.51951 0
M  V30 3939 H 359.081 -6.96226 3.05244 0
M  V30 3940 N 360.656 0.0484629 -1.57525 0
M  V30 3941 C 361.586 1.0549 -2.08313 0
M  V30 3942 C 362.567 1.38929 -0.981463 0
M  V30 3943 O 363.752 1.48151 -1.25558 0
M  V30 3944 C 360.882 2.36162 -2.54646 0
M  V30 3945 C 359.836 2.17016 -3.68901 0
M  V30 3946 C 359.162 3.53278 -4.01371 0
M  V30 3947 C 360.462 1.57219 -4.98076 0
M  V30 3948 H 362.156 0.632195 -2.92649 0
M  V30 3949 H 359.702 0.302654 -1.40784 0
M  V30 3950 H 361.655 3.06882 -2.88793 0
M  V30 3951 H 360.379 2.80456 -1.67368 0
M  V30 3952 H 359.038 1.48733 -3.35073 0
M  V30 3953 H 358.686 3.95185 -3.11188 0
M  V30 3954 H 358.386 3.41299 -4.78318 0
M  V30 3955 H 359.91 4.25391 -4.38035 0
M  V30 3956 H 361.324 2.17832 -5.30304 0
M  V30 3957 H 359.721 1.55871 -5.79503 0
M  V30 3958 H 360.791 0.535956 -4.81929 0
M  V30 3959 N 362.134 1.5431 0.320358 0
M  V30 3960 C 363.081 1.83918 1.39438 0
M  V30 3961 C 364.051 0.686525 1.51248 0
M  V30 3962 O 365.236 0.933269 1.66417 0
M  V30 3963 C 362.376 2.075 2.75749 0
M  V30 3964 C 361.489 3.35177 2.72544 0
M  V30 3965 C 360.624 3.48704 4.00723 0
M  V30 3966 C 359.663 4.70244 3.91838 0
M  V30 3967 N 358.8 4.80679 5.11754 0
M  V30 3968 H 363.64 2.75544 1.13489 0
M  V30 3969 H 361.177 1.36459 0.549309 0
M  V30 3970 H 363.135 2.19166 3.54996 0
M  V30 3971 H 361.765 1.19163 3 0
M  V30 3972 H 360.817 3.32233 1.85271 0
M  V30 3973 H 362.129 4.24534 2.61863 0
M  V30 3974 H 361.283 3.59928 4.88402 0
M  V30 3975 H 360.022 2.57445 4.14214 0
M  V30 3976 H 359.027 4.59072 3.02544 0
M  V30 3977 H 360.252 5.6289 3.7991 0
M  V30 3978 H 358.198 3.92337 5.25745 0
M  V30 3979 H 358.115 5.64007 5.0342 0
M  V30 3980 H 359.383 4.96239 6.01138 0
M  V30 3981 N 363.613 -0.582584 1.46437 0
M  V30 3982 C 364.86 -1.34079 1.51753 0
M  V30 3983 C 365.188 -1.93762 0.169299 0
M  V30 3984 O 364.443 -1.76989 -0.835062 0
M  V30 3985 C 364.742 -2.48964 2.56421 0
M  V30 3986 C 364.408 -2.07273 4.00436 0
M  V30 3987 C 363.07 -1.95618 4.39644 0
M  V30 3988 C 365.422 -1.75111 4.90903 0
M  V30 3989 C 362.75 -1.5006 5.67185 0
M  V30 3990 C 365.102 -1.31032 6.18881 0
M  V30 3991 C 363.766 -1.17954 6.56996 0
M  V30 3992 H 363.036 -0.49063 0.555304 0
M  V30 3993 H 365.683 -0.656007 1.79913 0
M  V30 3994 H 363.988 -3.22889 2.21923 0
M  V30 3995 H 365.685 -3.07178 2.57765 0
M  V30 3996 H 362.275 -2.17279 3.69443 0
M  V30 3997 H 366.459 -1.83001 4.61329 0
M  V30 3998 H 361.715 -1.38577 5.95488 0
M  V30 3999 H 365.889 -1.052 6.88408 0
M  V30 4000 H 363.516 -0.824279 7.55718 0
M  V30 4001 N 365.091 -1.34144 -0.827227 0
M  V30 4002 C 366.507 -1.13732 -1.11969 0
M  V30 4003 C 366.707 0.0640463 -2.01398 0
M  V30 4004 O 365.763 0.740856 -2.41387 0
M  V30 4005 C 367.076 -2.43047 -1.77055 0
M  V30 4006 C 368.624 -2.49063 -1.89569 0
M  V30 4007 C 369.099 -3.78369 -2.58072 0
M  V30 4008 N 370.59 -3.79505 -2.65575 0
M  V30 4009 C 371.325 -4.76274 -3.19297 0
M  V30 4010 N 370.821 -5.83424 -3.73616 0
M  V30 4011 N 372.614 -4.63735 -3.17658 0
M  V30 4012 H 364.765 -2.11126 -0.232296 0
M  V30 4013 H 367.028 -0.933424 -0.165602 0
M  V30 4014 H 366.734 -3.31025 -1.18807 0
M  V30 4015 H 366.608 -2.56066 -2.76966 0
M  V30 4016 H 368.995 -1.61527 -2.46968 0
M  V30 4017 H 369.076 -2.39975 -0.885745 0
M  V30 4018 H 368.72 -4.66293 -2.01329 0
M  V30 4019 H 368.65 -3.84737 -3.59562 0
M  V30 4020 H 371.141 -3.02074 -2.27068 0
M  V30 4021 H 371.454 -6.53282 -4.12846 0
M  V30 4022 H 369.799 -5.87143 -3.71871 0
M  V30 4023 H 372.99 -3.79177 -2.74486 0
M  V30 4024 H 373.163 -5.39318 -3.59221 0
M  V30 4025 N 366.569 1.04691 -1.17803 0
M  V30 4026 C 367.479 2.16057 -0.914151 0
M  V30 4027 C 368.495 1.73589 0.119503 0
M  V30 4028 O 369.671 2.01308 -0.0609468 0
M  V30 4029 C 366.736 3.4394 -0.436603 0
M  V30 4030 C 365.797 4.00825 -1.53746 0
M  V30 4031 C 365.03 5.22604 -1.0826 0
M  V30 4032 O 365.253 5.70367 0.0612244 0
M  V30 4033 O 364.187 5.7186 -1.87775 0
M  V30 4034 H 368.013 2.41169 -1.84584 0
M  V30 4035 H 365.598 1.1453 -0.959334 0
M  V30 4036 H 367.48 4.21024 -0.178057 0
M  V30 4037 H 366.155 3.20316 0.466869 0
M  V30 4038 H 365.062 3.25158 -1.84995 0
M  V30 4039 H 366.395 4.28778 -2.41683 0
M  V30 4040 N 368.047 0.979072 1.23499 0
M  V30 4041 C 369.295 0.645941 1.91499 0
M  V30 4042 C 369.616 -0.822948 1.76784 0
M  V30 4043 O 368.886 -1.58854 1.14639 0
M  V30 4044 H 367.466 0.235919 0.708767 0
M  V30 4045 H 370.128 1.2426 1.50152 0
M  V30 4046 H 369.224 0.896411 2.9895 0
M  V30 4047 N 369.525 -1.3858 0.750561 0
M  V30 4048 C 370.488 -2.28836 0.129152 0
M  V30 4049 C 371.488 -1.47045 -0.650714 0
M  V30 4050 O 372.678 -1.6753 -0.477428 0
M  V30 4051 C 369.81 -3.30751 -0.825622 0
M  V30 4052 H 371.003 -2.85294 0.924516 0
M  V30 4053 H 368.556 -1.47489 0.517376 0
M  V30 4054 H 369.291 -2.79378 -1.64677 0
M  V30 4055 H 369.076 -3.91177 -0.268852 0
M  V30 4056 H 370.566 -3.98249 -1.2565 0
M  V30 4057 N 371.003 -0.499398 -1.49478 0
M  V30 4058 C 372.25 0.0456899 -2.02448 0
M  V30 4059 C 372.578 1.37142 -1.37921 0
M  V30 4060 O 371.833 1.89111 -0.503544 0
M  V30 4061 C 372.132 0.248424 -3.56536 0
M  V30 4062 C 371.798 -0.999107 -4.39692 0
M  V30 4063 C 370.46 -1.34108 -4.62135 0
M  V30 4064 C 372.812 -1.82842 -4.88076 0
M  V30 4065 C 370.14 -2.51191 -5.30208 0
M  V30 4066 C 372.492 -2.99076 -5.57437 0
M  V30 4067 C 371.156 -3.33655 -5.78127 0
M  V30 4068 H 370.426 0.0167191 -0.740811 0
M  V30 4069 H 373.073 -0.65923 -1.79795 0
M  V30 4070 H 371.378 1.03586 -3.77859 0
M  V30 4071 H 373.075 0.684605 -3.95113 0
M  V30 4072 H 369.665 -0.722729 -4.22463 0
M  V30 4073 H 373.849 -1.57737 -4.70566 0
M  V30 4074 H 369.105 -2.78221 -5.44429 0
M  V30 4075 H 373.279 -3.63664 -5.93904 0
M  V30 4076 H 370.906 -4.24483 -6.30649 0
M  V30 4077 N 372.481 1.55866 -0.233164 0
M  V30 4078 C 373.709 2.02998 0.399905 0
M  V30 4079 C 374.124 1.11274 1.52524 0
M  V30 4080 O 373.481 0.124528 1.82075 0
M  V30 4081 C 373.532 3.4958 0.920639 0
M  V30 4082 O 373.253 4.37808 -0.159834 0
M  V30 4083 C 374.754 4.12411 1.62578 0
M  V30 4084 H 371.974 0.664006 0.0966281 0
M  V30 4085 H 374.518 2.0143 -0.353013 0
M  V30 4086 H 372.673 3.51727 1.62379 0
M  V30 4087 H 373.087 5.23981 0.23337 0
M  V30 4088 H 374.561 5.16711 1.94201 0
M  V30 4089 H 375.038 3.5809 2.54299 0
M  V30 4090 H 375.644 4.14148 0.967553 0
M  V30 4091 N 373.959 -0.0401083 1.57549 0
M  V30 4092 C 375.236 -0.767917 1.79896 0
M  V30 4093 C 375.616 -1.9416 0.82856 0
M  V30 4094 O 374.964 -2.2812 -0.131671 0
M  V30 4095 C 375.174 -1.2113 3.27305 0
M  V30 4096 C 376.522 -1.63175 3.91994 0
M  V30 4097 O 377.546 -1.30616 3.31388 0
M  V30 4098 O 376.405 -2.23565 4.98679 0
M  V30 4099 H 373.499 -0.370441 0.739393 0
M  V30 4100 H 376.045 -0.017737 1.69691 0
M  V30 4101 H 374.817 -0.372937 3.89519 0
M  V30 4102 H 374.44 -2.02183 3.42356 0
M  V30 4103 N 375.437 -1.54477 -0.31217 0
M  V30 4104 C 376.848 -1.64344 -0.885891 0
M  V30 4105 C 377.199 -0.54485 -1.88483 0
M  V30 4106 O 376.324 0.320387 -2.14015 0
M  V30 4107 C 376.919 -2.97908 -1.61357 0
M  V30 4108 C 375.478 -3.09933 -2.13585 0
M  V30 4109 C 374.625 -2.59971 -0.964897 0
M  V30 4110 H 377.576 -1.58448 -0.0894528 0
M  V30 4111 H 377.597 -2.88706 -2.47848 0
M  V30 4112 H 377.109 -3.77845 -0.886277 0
M  V30 4113 H 375.21 -2.34694 -2.89395 0
M  V30 4114 H 375.323 -4.15916 -2.37804 0
M  V30 4115 H 373.687 -2.16147 -1.34731 0
M  V30 4116 H 374.47 -3.42376 -0.251742 0
M  V30 4117 N 376.915 0.57481 -1.46744 0
M  V30 4118 C 378.192 1.3352 -1.4294 0
M  V30 4119 C 378.572 2.10775 -0.117009 0
M  V30 4120 O 377.92 2.09966 0.901474 0
M  V30 4121 C 378.13 2.25456 -2.66403 0
M  V30 4122 C 379.478 2.87035 -3.12883 0
M  V30 4123 O 380.502 2.35766 -2.67007 0
M  V30 4124 O 379.361 3.80179 -3.92589 0
M  V30 4125 H 376.455 0.600318 -0.568812 0
M  V30 4126 H 379.001 0.595171 -1.58921 0
M  V30 4127 H 377.773 1.67851 -3.53471 0
M  V30 4128 H 377.396 3.06785 -2.52921 0
M  V30 4129 N 378.394 1.34581 0.820102 0
M  V30 4130 C 379.619 1.30333 1.61332 0
M  V30 4131 C 380.044 -0.119339 1.87721 0
M  V30 4132 O 379.402 -1.08197 1.45475 0
M  V30 4133 C 379.45 2.10258 2.92957 0
M  V30 4134 O 378.554 1.47404 3.85157 0
M  V30 4135 H 377.895 0.447488 0.490561 0
M  V30 4136 H 380.425 1.77425 1.01889 0
M  V30 4137 H 380.435 2.21718 3.42498 0
M  V30 4138 H 379.11 3.13693 2.73074 0
M  V30 4139 H 377.687 1.44703 3.43679 0
M  V30 4140 N 379.872 -1.04064 1.18357 0
M  V30 4141 C 381.102 -1.80654 1.00238 0
M  V30 4142 C 381.51 -1.83713 -0.452362 0
M  V30 4143 O 380.853 -1.27135 -1.32599 0
M  V30 4144 C 380.915 -3.27582 1.48088 0
M  V30 4145 C 380.579 -3.48184 2.96002 0
M  V30 4146 C 381.576 -3.39372 3.93856 0
M  V30 4147 C 379.261 -3.7478 3.34433 0
M  V30 4148 C 381.255 -3.5686 5.28138 0
M  V30 4149 C 378.942 -3.91915 4.68877 0
M  V30 4150 C 379.94 -3.82956 5.65539 0
M  V30 4151 O 379.628 -3.996 6.97549 0
M  V30 4152 H 379.36 -0.575751 0.354241 0
M  V30 4153 H 381.914 -1.32044 1.57333 0
M  V30 4154 H 380.144 -3.77161 0.853588 0
M  V30 4155 H 381.833 -3.8573 1.2636 0
M  V30 4156 H 382.599 -3.18789 3.65511 0
M  V30 4157 H 378.478 -3.80852 2.59756 0
M  V30 4158 H 382.022 -3.49783 6.03571 0
M  V30 4159 H 377.919 -4.11992 4.96923 0
M  V30 4160 H 378.687 -4.1676 7.04452 0
M  V30 4161 N 381.35 -0.985608 -1.22978 0
M  V30 4162 C 382.597 -0.657386 -1.91532 0
M  V30 4163 C 382.925 0.809707 -1.76845 0
M  V30 4164 O 382.18 1.60021 -1.12658 0
M  V30 4165 C 382.479 -1.00014 -3.43121 0
M  V30 4166 C 382.145 -2.4583 -3.77993 0
M  V30 4167 C 380.807 -2.85679 -3.87222 0
M  V30 4168 C 383.159 -3.40378 -3.94705 0
M  V30 4169 C 380.487 -4.19081 -4.10595 0
M  V30 4170 C 382.839 -4.73429 -4.1958 0
M  V30 4171 C 381.503 -5.1303 -4.27032 0
M  V30 4172 H 380.773 -0.240555 -0.700867 0
M  V30 4173 H 383.42 -1.24044 -1.45895 0
M  V30 4174 H 381.725 -0.335072 -3.90365 0
M  V30 4175 H 383.422 -0.724322 -3.94404 0
M  V30 4176 H 380.012 -2.13939 -3.71387 0
M  V30 4177 H 384.196 -3.10766 -3.8696 0
M  V30 4178 H 379.452 -4.49362 -4.14589 0
M  V30 4179 H 383.626 -5.46644 -4.31455 0
M  V30 4180 H 381.253 -6.16418 -4.44896 0
M  V30 4181 N 382.828 1.3818 -0.7579 0
M  V30 4182 C 383.778 2.27741 -0.108674 0
M  V30 4183 C 384.762 1.45415 0.688709 0
M  V30 4184 O 385.954 1.68108 0.553956 0
M  V30 4185 C 383.083 3.34313 0.780367 0
M  V30 4186 C 382.169 4.24093 -0.0240977 0
M  V30 4187 N 382.56 4.9451 -1.06271 0
M  V30 4188 C 380.858 4.45542 0.202049 0
M  V30 4189 C 381.559 5.60675 -1.54979 0
M  V30 4190 N 380.535 5.36684 -0.864348 0
M  V30 4191 H 384.337 2.79649 -0.904071 0
M  V30 4192 H 381.851 1.51133 -0.594346 0
M  V30 4193 H 383.848 3.97368 1.26114 0
M  V30 4194 H 382.508 2.83962 1.57467 0
M  V30 4195 H 383.519 4.97345 -1.44459 0
M  V30 4196 H 380.196 4.06091 0.96935 0
M  V30 4197 H 381.586 6.26992 -2.41517 0
M  V30 4198 N 384.306 0.507319 1.49211 0
M  V30 4199 C 385.254 -0.281364 2.30892 0
M  V30 4200 C 386.248 -0.95687 1.39787 0
M  V30 4201 O 387.454 -0.883838 1.56807 0
M  V30 4202 H 383.829 -0.109597 0.743971 0
M  V30 4203 H 385.8 0.42744 2.95323 0
M  V30 4204 C 384.549 -1.32918 3.21291 0
M  V30 4205 H 383.872 -0.818799 3.91326 0
M  V30 4206 H 385.312 -1.85288 3.81372 0
M  V30 4207 C 383.771 -2.35074 2.41333 0
M  V30 4208 O 384.301 -3.4108 2.12197 0
M  V30 4209 N 382.507 -2.07705 2.03241 0
M  V30 4210 H 382.054 -1.2152 2.27136 0
M  V30 4211 H 382.012 -2.76283 1.50051 0
M  V30 4212 N 385.784 -1.5574 0.241426 0
M  V30 4213 C 387.014 -2.02913 -0.38857 0
M  V30 4214 C 387.422 -1.12014 -1.52478 0
M  V30 4215 O 386.765 -0.125903 -1.83268 0
M  V30 4216 C 386.827 -3.4636 -0.963075 0
M  V30 4217 C 386.491 -4.56982 0.0401916 0
M  V30 4218 C 387.488 -5.12941 0.847766 0
M  V30 4219 C 385.173 -5.0203 0.164699 0
M  V30 4220 C 387.167 -6.12437 1.76636 0
M  V30 4221 C 384.854 -6.01358 1.0868 0
M  V30 4222 C 385.852 -6.5644 1.88616 0
M  V30 4223 O 385.54 -7.53831 2.79273 0
M  V30 4224 H 385.272 -0.668983 -0.0971452 0
M  V30 4225 H 387.826 -2.02198 0.361248 0
M  V30 4226 H 386.056 -3.44206 -1.76235 0
M  V30 4227 H 387.745 -3.77065 -1.50257 0
M  V30 4228 H 388.511 -4.78974 0.762133 0
M  V30 4229 H 384.39 -4.58824 -0.447411 0
M  V30 4230 H 387.934 -6.55355 2.39071 0
M  V30 4231 H 383.831 -6.34746 1.17338 0
M  V30 4232 H 384.599 -7.71428 2.73572 0
M  V30 4233 N 387.262 0.0317525 -1.57568 0
M  V30 4234 C 388.225 1.01783 -2.0536 0
M  V30 4235 C 389.225 1.29203 -0.957253 0
M  V30 4236 O 390.415 1.24251 -1.22095 0
M  V30 4237 C 387.547 2.35137 -2.46827 0
M  V30 4238 H 388.74 0.605062 -2.93733 0
M  V30 4239 H 386.293 0.278514 -1.53799 0
M  V30 4240 H 387.028 2.81168 -1.61602 0
M  V30 4241 H 386.813 2.16566 -3.26866 0
M  V30 4242 H 388.303 3.05938 -2.84239 0
M  V30 4243 N 388.74 1.54641 0.303973 0
M  V30 4244 C 389.687 1.85386 1.37479 0
M  V30 4245 C 390.657 0.702528 1.50512 0
M  V30 4246 O 391.842 0.950867 1.65418 0
M  V30 4247 C 388.982 2.10413 2.73533 0
M  V30 4248 C 388.095 3.38049 2.68974 0
M  V30 4249 C 387.23 3.52934 3.97002 0
M  V30 4250 C 386.269 4.74373 3.86829 0
M  V30 4251 N 385.406 4.8608 5.06627 0
M  V30 4252 H 390.246 2.76732 1.1056 0
M  V30 4253 H 387.783 1.37034 0.534805 0
M  V30 4254 H 389.741 2.22919 3.52652 0
M  V30 4255 H 388.371 1.22338 2.98719 0
M  V30 4256 H 387.423 3.3418 1.81736 0
M  V30 4257 H 388.735 4.27288 2.57346 0
M  V30 4258 H 387.889 3.65088 4.84557 0
M  V30 4259 H 386.628 2.61824 4.1146 0
M  V30 4260 H 385.633 4.62255 2.97658 0
M  V30 4261 H 386.858 5.66888 3.73918 0
M  V30 4262 H 384.804 3.97891 5.21554 0
M  V30 4263 H 384.721 5.69315 4.9741 0
M  V30 4264 H 385.989 5.02587 5.95841 0
M  V30 4265 N 390.218 -0.567019 1.47046 0
M  V30 4266 C 391.148 -1.68482 1.61667 0
M  V30 4267 C 392.129 -1.6358 0.466418 0
M  V30 4268 O 393.314 -1.81354 0.694574 0
M  V30 4269 C 390.444 -3.07124 1.62148 0
M  V30 4270 C 389.398 -3.26867 2.76301 0
M  V30 4271 C 388.724 -4.66196 2.61849 0
M  V30 4272 C 390.024 -3.13186 4.17986 0
M  V30 4273 H 391.718 -1.56502 2.5524 0
M  V30 4274 H 389.264 -0.751486 1.22836 0
M  V30 4275 H 391.217 -3.8516 1.70968 0
M  V30 4276 H 389.941 -3.2004 0.651287 0
M  V30 4277 H 388.6 -2.51237 2.66975 0
M  V30 4278 H 388.248 -4.75898 1.62879 0
M  V30 4279 H 387.948 -4.80356 3.38425 0
M  V30 4280 H 389.472 -5.46379 2.72584 0
M  V30 4281 H 390.886 -3.81049 4.2834 0
M  V30 4282 H 389.283 -3.3886 4.95272 0
M  V30 4283 H 390.353 -2.10057 4.3704 0
M  V30 4284 N 391.696 -1.35014 -0.812953 0
M  V30 4285 C 392.924 -1.31031 -1.6012 0
M  V30 4286 C 393.339 0.113558 -1.88458 0
M  V30 4287 O 392.696 1.06363 -1.48301 0
M  V30 4288 C 392.747 -2.10872 -2.93624 0
M  V30 4289 O 392.468 -3.47706 -2.66518 0
M  V30 4290 C 393.969 -2.14401 -3.88004 0
M  V30 4291 H 391.189 -0.45037 -0.497401 0
M  V30 4292 H 393.733 -1.77775 -1.01076 0
M  V30 4293 H 391.888 -1.67744 -3.492 0
M  V30 4294 H 392.302 -3.89097 -3.51715 0
M  V30 4295 H 393.776 -2.74669 -4.78812 0
M  V30 4296 H 394.253 -1.14105 -4.24119 0
M  V30 4297 H 394.859 -2.57662 -3.38364 0
M  V30 4298 N 393.175 1.03435 -1.18907 0
M  V30 4299 C 394.122 2.11591 -0.921837 0
M  V30 4300 C 395.092 1.65499 0.141226 0
M  V30 4301 O 396.277 1.908 0.000242829 0
M  V30 4302 C 393.417 3.42012 -0.460616 0
M  V30 4303 C 392.53 4.01682 -1.58982 0
M  V30 4304 C 391.665 5.20091 -1.08069 0
M  V30 4305 C 390.704 5.71805 -2.18416 0
M  V30 4306 N 389.841 6.81494 -1.68849 0
M  V30 4307 H 394.681 2.33787 -1.8479 0
M  V30 4308 H 392.218 1.1467 -0.921373 0
M  V30 4309 H 394.176 4.16834 -0.174642 0
M  V30 4310 H 392.806 3.19944 0.428467 0
M  V30 4311 H 391.858 3.24127 -1.99113 0
M  V30 4312 H 393.17 4.36084 -2.4214 0
M  V30 4313 H 392.324 6.02051 -0.749615 0
M  V30 4314 H 391.063 4.87209 -0.218771 0
M  V30 4315 H 390.068 4.88461 -2.5236 0
M  V30 4316 H 391.293 6.06728 -3.05054 0
M  V30 4317 H 389.239 6.50475 -0.849572 0
M  V30 4318 H 389.156 7.14994 -2.45601 0
M  V30 4319 H 390.424 7.67063 -1.38689 0
M  V30 4320 N 394.653 0.992116 1.22453 0
M  V30 4321 C 395.563 0.55065 2.28046 0
M  V30 4322 C 396.579 -0.400189 1.69335 0
M  V30 4323 O 397.755 -0.267215 1.99619 0
M  V30 4324 C 394.82 -0.128496 3.46462 0
M  V30 4325 C 393.881 0.865208 4.20491 0
M  V30 4326 C 393.114 0.218377 5.33253 0
M  V30 4327 O 393.337 -0.987894 5.6178 0
M  V30 4328 O 392.271 0.922845 5.94783 0
M  V30 4329 H 396.097 1.4291 2.67975 0
M  V30 4330 H 393.682 0.760326 1.28606 0
M  V30 4331 H 395.564 -0.508947 4.18315 0
M  V30 4332 H 394.239 -0.981526 3.0846 0
M  V30 4333 H 393.146 1.29658 3.50913 0
M  V30 4334 H 394.479 1.68741 4.62371 0
M  V30 4335 N 396.131 -1.37776 0.765217 0
M  V30 4336 C 397.041 -2.34135 0.147666 0
M  V30 4337 C 398.057 -1.59854 -0.687215 0
M  V30 4338 O 399.233 -1.91983 -0.608659 0
M  V30 4339 C 396.298 -3.3901 -0.72617 0
M  V30 4340 C 395.359 -4.2912 0.124417 0
M  V30 4341 C 394.592 -5.28986 -0.707807 0
M  V30 4342 O 394.815 -5.36205 -1.94525 0
M  V30 4343 O 393.749 -6.01779 -0.12046 0
M  V30 4344 H 397.575 -2.88664 0.943758 0
M  V30 4345 H 395.16 -1.39824 0.526277 0
M  V30 4346 H 397.042 -4.03195 -1.22524 0
M  V30 4347 H 395.717 -2.86819 -1.50056 0
M  V30 4348 H 394.624 -3.68057 0.669696 0
M  V30 4349 H 395.957 -4.84598 0.861736 0
M  V30 4350 N 397.609 -0.515225 -1.4894 0
M  V30 4351 C 398.572 0.244681 -2.2789 0
M  V30 4352 C 399.572 0.881166 -1.34507 0
M  V30 4353 O 400.762 0.743497 -1.57537 0
M  V30 4354 C 397.894 1.35247 -3.12923 0
M  V30 4355 H 399.087 -0.448289 -2.96531 0
M  V30 4356 H 396.64 -0.270656 -1.53939 0
M  V30 4357 H 397.375 2.07916 -2.48881 0
M  V30 4358 H 397.16 0.901374 -3.81599 0
M  V30 4359 H 398.65 1.88737 -3.72516 0
M  V30 4360 N 399.087 1.5561 -0.249682 0
M  V30 4361 C 400.336 1.98187 0.37479 0
M  V30 4362 C 400.649 1.14111 1.58865 0
M  V30 4363 O 401.855 1.46714 2.28445 0
M  V30 4364 C 400.311 3.52661 0.718192 0
M  V30 4365 C 399.919 4.45481 -0.474428 0
M  V30 4366 C 401.663 4.03888 1.3067 0
M  V30 4367 C 399.57 5.91303 -0.107026 0
M  V30 4368 H 398.5 0.740159 0.143808 0
M  V30 4369 H 401.151 1.80125 -0.350336 0
M  V30 4370 H 399.533 3.66429 1.50152 0
M  V30 4371 H 400.707 4.43473 -1.25172 0
M  V30 4372 H 399.022 4.04751 -0.978052 0
M  V30 4373 H 401.619 5.10358 1.59496 0
M  V30 4374 H 401.962 3.51401 2.23211 0
M  V30 4375 H 402.495 3.93457 0.586211 0
M  V30 4376 H 399.234 6.47833 -0.999642 0
M  V30 4377 H 398.754 5.9644 0.634013 0
M  V30 4378 H 400.433 6.46258 0.309807 0
M  V30 4379 N 400.565 -0.0233959 1.57583 0
M  V30 4380 C 401.512 -1.02224 2.06927 0
M  V30 4381 C 402.482 -1.35575 0.959617 0
M  V30 4382 O 403.667 -1.45815 1.23055 0
M  V30 4383 C 400.807 -2.31636 2.5581 0
M  V30 4384 C 399.92 -2.04394 3.80588 0
M  V30 4385 C 399.055 -3.27717 4.18061 0
M  V30 4386 C 398.094 -2.96056 5.3574 0
M  V30 4387 N 397.231 -4.11847 5.68618 0
M  V30 4388 H 402.071 -0.594504 2.9201 0
M  V30 4389 H 399.608 -0.281921 1.44373 0
M  V30 4390 H 401.566 -3.07258 2.82221 0
M  V30 4391 H 400.196 -2.72122 1.73636 0
M  V30 4392 H 399.248 -1.19244 3.61227 0
M  V30 4393 H 400.56 -1.77042 4.66323 0
M  V30 4394 H 399.714 -4.11702 4.4563 0
M  V30 4395 H 398.453 -3.58188 3.30988 0
M  V30 4396 H 397.458 -2.10474 5.07918 0
M  V30 4397 H 398.683 -2.66857 6.24471 0
M  V30 4398 H 396.629 -4.42258 4.84504 0
M  V30 4399 H 396.546 -3.87938 6.48876 0
M  V30 4400 H 397.814 -4.96689 6.00766 0
M  V30 4401 N 402.043 -1.548 -0.295768 0
M  V30 4402 C 403.271 -1.78327 -1.04914 0
M  V30 4403 C 403.686 -0.545316 -1.80753 0
M  V30 4404 O 403.043 0.485013 -1.75937 0
M  V30 4405 C 403.094 -2.99418 -2.02561 0
M  V30 4406 O 402.815 -4.18431 -1.29798 0
M  V30 4407 C 404.316 -3.35375 -2.89895 0
M  V30 4408 H 401.536 -0.594618 -0.310918 0
M  V30 4409 H 404.08 -2.01763 -0.333454 0
M  V30 4410 H 402.235 -2.78175 -2.69624 0
M  V30 4411 H 402.649 -4.86736 -1.95419 0
M  V30 4412 H 404.123 -4.23332 -3.54251 0
M  V30 4413 H 404.6 -2.53761 -3.58472 0
M  V30 4414 H 405.206 -3.58796 -2.28355 0
M  V30 4415 N 403.521 0.559213 -1.47345 0
M  V30 4416 C 404.484 1.64854 -1.59235 0
M  V30 4417 C 405.484 1.53851 -0.467607 0
M  V30 4418 O 406.674 1.58045 -0.732617 0
M  V30 4419 C 403.806 3.04388 -1.53496 0
M  V30 4420 H 404.999 1.55662 -2.56339 0
M  V30 4421 H 402.552 0.778973 -1.35505 0
M  V30 4422 H 403.287 3.19115 -0.577604 0
M  V30 4423 H 403.072 3.13783 -2.35123 0
M  V30 4424 H 404.562 3.83642 -1.6495 0
M  V30 4425 N 404.999 1.35443 0.805782 0
M  V30 4426 C 405.932 1.22783 1.92353 0
M  V30 4427 C 406.91 0.115543 1.62189 0
M  V30 4428 O 408.094 0.283778 1.86352 0
M  V30 4429 C 405.221 0.890746 3.26777 0
M  V30 4430 C 404.267 2.01519 3.75889 0
M  V30 4431 S 405.1 3.63101 3.93596 0
M  V30 4432 C 406.256 3.31472 5.30921 0
M  V30 4433 H 406.489 2.17394 2.02798 0
M  V30 4434 H 404.022 1.20669 0.963245 0
M  V30 4435 H 405.98 0.703068 4.04434 0
M  V30 4436 H 404.641 -0.0373152 3.14078 0
M  V30 4437 H 403.834 1.7335 4.7325 0
M  V30 4438 H 403.436 2.16124 3.05231 0
M  V30 4439 H 405.728 2.8435 6.1494 0
M  V30 4440 H 406.671 4.28036 5.64084 0
M  V30 4441 H 407.079 2.67221 4.97246 0
M  V30 4442 N 406.477 -1.02803 1.19454 0
M  V30 4443 C 407.705 -1.79841 1.02297 0
M  V30 4444 C 408.12 -1.83879 -0.428259 0
M  V30 4445 O 407.477 -1.28345 -1.29745 0
M  V30 4446 C 407.528 -3.24852 1.58598 0
M  V30 4447 O 407.249 -3.21097 2.98041 0
M  V30 4448 C 408.75 -4.18485 1.46236 0
M  V30 4449 H 405.97 -0.565936 0.360496 0
M  V30 4450 H 408.514 -1.2948 1.58288 0
M  V30 4451 H 406.669 -3.72401 1.06753 0
M  V30 4452 H 407.083 -4.12033 3.24545 0
M  V30 4453 H 408.557 -5.18121 1.90407 0
M  V30 4454 H 409.034 -4.37254 0.41301 0
M  V30 4455 H 409.64 -3.76811 1.97215 0
M  V30 4456 N 407.956 -0.998596 -1.21925 0
M  V30 4457 C 408.886 -0.573688 -2.26343 0
M  V30 4458 C 409.867 0.402296 -1.65274 0
M  V30 4459 O 411.052 0.291683 -1.91997 0
M  V30 4460 C 408.182 0.106839 -3.47136 0
M  V30 4461 C 407.136 -0.788269 -4.20678 0
M  V30 4462 C 406.462 0.0254927 -5.34694 0
M  V30 4463 C 407.762 -2.08784 -4.78755 0
M  V30 4464 H 409.456 -1.44651 -2.62138 0
M  V30 4465 H 407.002 -0.696975 -1.26009 0
M  V30 4466 H 408.955 0.415531 -4.19346 0
M  V30 4467 H 407.679 1.01424 -3.10452 0
M  V30 4468 H 406.338 -1.08069 -3.50309 0
M  V30 4469 H 405.986 0.933989 -4.94253 0
M  V30 4470 H 405.686 -0.570437 -5.84825 0
M  V30 4471 H 407.21 0.328147 -6.09718 0
M  V30 4472 H 408.624 -1.84272 -5.42878 0
M  V30 4473 H 407.021 -2.63307 -5.39249 0
M  V30 4474 H 408.091 -2.76284 -3.98491 0
M  V30 4475 N 409.434 1.37368 -0.772513 0
M  V30 4476 C 410.68 2.00423 -0.3467 0
M  V30 4477 C 411.035 1.60224 1.06518 0
M  V30 4478 O 410.328 0.838712 1.72268 0
M  V30 4479 C 410.522 3.54817 -0.428876 0
M  V30 4480 C 410.351 4.10011 -1.84719 0
M  V30 4481 C 409.121 4.40927 -2.46803 0
M  V30 4482 C 411.319 4.30955 -2.80681 0
M  V30 4483 N 409.301 4.8184 -3.80399 0
M  V30 4484 C 410.672 4.74486 -3.99078 0
M  V30 4485 C 412.727 4.1309 -2.77958 0
M  V30 4486 C 411.43 5.02023 -5.15136 0
M  V30 4487 C 413.456 4.41764 -3.9319 0
M  V30 4488 C 412.818 4.85535 -5.10328 0
M  V30 4489 H 408.917 0.762413 -0.173927 0
M  V30 4490 H 411.501 1.66666 -1.00651 0
M  V30 4491 H 409.672 3.87881 0.200757 0
M  V30 4492 H 411.404 4.04696 0.0190668 0
M  V30 4493 H 408.159 4.30033 -1.98415 0
M  V30 4494 H 408.583 5.06604 -4.49089 0
M  V30 4495 H 413.225 3.7842 -1.88568 0
M  V30 4496 H 410.943 5.35582 -6.05126 0
M  V30 4497 H 414.529 4.29528 -3.92425 0
M  V30 4498 H 413.409 5.07296 -5.98013 0
M  V30 4499 N 410.912 0.523116 1.48665 0
M  V30 4500 C 411.859 -0.243398 2.29513 0
M  V30 4501 C 412.829 -0.940139 1.36933 0
M  V30 4502 O 414.014 -0.942503 1.65896 0
M  V30 4503 C 411.154 -1.28855 3.20141 0
M  V30 4504 C 410.267 -0.60135 4.27794 0
M  V30 4505 C 409.402 -1.62884 5.05611 0
M  V30 4506 C 408.441 -0.924726 6.05075 0
M  V30 4507 N 407.578 -1.89744 6.75975 0
M  V30 4508 H 412.418 0.452234 2.94549 0
M  V30 4509 H 409.955 0.234858 1.45213 0
M  V30 4510 H 411.913 -1.90674 3.71079 0
M  V30 4511 H 410.543 -1.95266 2.57043 0
M  V30 4512 H 409.595 0.130623 3.80176 0
M  V30 4513 H 410.907 -0.0481585 4.98777 0
M  V30 4514 H 410.061 -2.32149 5.60528 0
M  V30 4515 H 408.8 -2.21592 4.34452 0
M  V30 4516 H 407.805 -0.217966 5.49368 0
M  V30 4517 H 409.03 -0.343851 6.78229 0
M  V30 4518 H 406.976 -2.47373 6.07571 0
M  V30 4519 H 406.893 -1.3955 7.43009 0
M  V30 4520 H 408.161 -2.58229 7.35485 0
M  V30 4521 N 412.39 -1.55475 0.257931 0
M  V30 4522 C 413.3 -2.2549 -0.647425 0
M  V30 4523 C 414.316 -1.2748 -1.18427 0
M  V30 4524 O 415.492 -1.6038 -1.2182 0
M  V30 4525 C 412.557 -2.94916 -1.82278 0
M  V30 4526 C 411.618 -4.08363 -1.32432 0
M  V30 4527 C 410.851 -4.74469 -2.44366 0
M  V30 4528 O 411.074 -4.39701 -3.63344 0
M  V30 4529 O 410.008 -5.62763 -2.13497 0
M  V30 4530 H 413.834 -3.03593 -0.0807707 0
M  V30 4531 H 411.419 -1.49377 0.0259962 0
M  V30 4532 H 413.301 -3.38606 -2.50846 0
M  V30 4533 H 411.976 -2.19744 -2.37685 0
M  V30 4534 H 410.883 -3.69166 -0.605605 0
M  V30 4535 H 412.216 -4.85385 -0.816211 0
M  V30 4536 N 413.868 0.0150385 -1.57593 0
M  V30 4537 C 415.117 0.702115 -1.89085 0
M  V30 4538 C 415.43 1.75764 -0.858277 0
M  V30 4539 O 416.636 2.49829 -1.0629 0
M  V30 4540 C 415.092 1.29992 -3.35604 0
M  V30 4541 C 414.7 0.280007 -4.47124 0
M  V30 4542 C 416.444 1.96606 -3.76227 0
M  V30 4543 C 414.351 0.886949 -5.84711 0
M  V30 4544 H 413.281 0.265997 -0.705522 0
M  V30 4545 H 415.932 -0.0430408 -1.8345 0
M  V30 4546 H 414.314 2.09525 -3.36029 0
M  V30 4547 H 415.488 -0.489631 -4.58191 0
M  V30 4548 H 413.803 -0.284835 -4.15425 0
M  V30 4549 H 416.4 2.42893 -4.76347 0
M  V30 4550 H 416.743 2.79024 -3.08952 0
M  V30 4551 H 417.276 1.23828 -3.78036 0
M  V30 4552 H 414.015 0.101876 -6.55421 0
M  V30 4553 H 413.535 1.6261 -5.77337 0
M  V30 4554 H 415.214 1.39011 -6.3189 0
M  V30 4555 N 415.346 1.54954 0.287554 0
M  V30 4556 C 416.294 1.87606 1.37502 0
M  V30 4557 C 417.288 0.751001 1.51843 0
M  V30 4558 O 418.494 0.935169 1.53801 0
M  V30 4559 H 414.869 0.595231 0.459569 0
M  V30 4560 H 416.84 2.78477 1.07206 0
M  V30 4561 C 415.589 2.15183 2.73115 0
M  V30 4562 H 414.912 3.01234 2.62866 0
M  V30 4563 H 416.352 2.4196 3.48183 0
M  V30 4564 C 414.811 0.954686 3.2309 0
M  V30 4565 O 415.341 0.181949 4.01288 0
M  V30 4566 N 413.547 0.756368 2.80584 0
M  V30 4567 H 413.094 1.38643 2.17108 0
M  V30 4568 H 413.052 -0.0430391 3.14371 0
M  V30 4569 N 416.824 -0.551391 1.4764 0
M  V30 4570 C 418.07 -1.30789 1.55774 0
M  V30 4571 C 418.425 -1.91143 0.219562 0
M  V30 4572 O 417.718 -1.7521 -0.775375 0
M  V30 4573 C 417.912 -2.43469 2.61644 0
M  V30 4574 C 417.741 -1.94157 4.05627 0
M  V30 4575 C 416.511 -1.77734 4.7301 0
M  V30 4576 C 418.709 -1.48262 4.92466 0
M  V30 4577 N 416.691 -1.22823 6.01488 0
M  V30 4578 C 418.062 -1.05156 6.11017 0
M  V30 4579 C 420.117 -1.36367 4.78862 0
M  V30 4580 C 418.82 -0.513357 7.17466 0
M  V30 4581 C 420.846 -0.839484 5.85411 0
M  V30 4582 C 420.208 -0.418377 7.03156 0
M  V30 4583 H 416.307 -0.470406 0.624694 0
M  V30 4584 H 418.891 -0.624331 1.84419 0
M  V30 4585 H 417.062 -3.09348 2.34859 0
M  V30 4586 H 418.794 -3.10477 2.59589 0
M  V30 4587 H 415.549 -2.00623 4.29007 0
M  V30 4588 H 415.973 -0.974393 6.69951 0
M  V30 4589 H 420.615 -1.67535 3.88191 0
M  V30 4590 H 418.333 -0.189318 8.07878 0
M  V30 4591 H 421.919 -0.750921 5.76934 0
M  V30 4592 H 420.799 -0.0190538 7.84198 0
M  V30 4593 N 418.302 -1.35869 -0.798587 0
M  V30 4594 C 419.232 -1.32118 -1.92528 0
M  V30 4595 C 420.213 -0.194209 -1.68988 0
M  V30 4596 O 421.398 -0.390426 -1.90235 0
M  V30 4597 C 418.528 -1.10047 -3.29404 0
M  V30 4598 C 417.482 -2.19471 -3.67446 0
M  V30 4599 C 416.808 -1.82555 -5.02571 0
M  V30 4600 C 418.108 -3.61495 -3.76987 0
M  V30 4601 H 419.802 -2.26394 -1.95924 0
M  V30 4602 H 417.348 -1.08981 -0.94123 0
M  V30 4603 H 419.301 -1.06061 -4.07835 0
M  V30 4604 H 418.025 -0.122195 -3.26371 0
M  V30 4605 H 416.684 -2.22568 -2.91306 0
M  V30 4606 H 416.332 -0.833249 -4.9605 0
M  V30 4607 H 416.032 -2.5581 -5.28995 0
M  V30 4608 H 417.556 -1.80108 -5.83432 0
M  V30 4609 H 418.97 -3.60676 -4.4563 0
M  V30 4610 H 417.367 -4.33577 -4.14887 0
M  V30 4611 H 418.437 -3.97065 -2.78329 0
M  V30 4612 N 419.78 1.02168 -1.19998 0
M  V30 4613 C 420.728 2.12717 -0.940967 0
M  V30 4614 C 421.722 1.69069 0.105841 0
M  V30 4615 O 422.928 1.79946 -0.0440583 0
M  V30 4616 H 419.303 0.695108 -0.28693 0
M  V30 4617 H 421.274 2.3175 -1.87975 0
M  V30 4618 C 420.023 3.44027 -0.504049 0
M  V30 4619 H 419.346 3.78036 -1.30112 0
M  V30 4620 H 420.786 4.22452 -0.361991 0
M  V30 4621 C 419.245 3.27678 0.782878 0
M  V30 4622 O 419.775 3.56949 1.84256 0
M  V30 4623 N 417.981 2.80943 0.742921 0
M  V30 4624 H 417.528 2.57322 -0.119687 0
M  V30 4625 H 417.486 2.70385 1.60435 0
M  V30 4626 N 421.258 1.00505 1.21394 0
M  V30 4627 C 422.188 0.585684 2.26035 0
M  V30 4628 C 423.169 -0.393525 1.65485 0
M  V30 4629 O 424.354 -0.281497 1.92149 0
M  V30 4630 C 421.484 -0.0884283 3.47187 0
M  V30 4631 C 420.438 0.810567 4.20254 0
M  V30 4632 C 419.764 0.00286382 5.347 0
M  V30 4633 C 421.064 2.1132 4.77641 0
M  V30 4634 H 422.758 1.46039 2.61368 0
M  V30 4635 H 420.304 0.703648 1.25638 0
M  V30 4636 H 422.257 -0.393286 4.19561 0
M  V30 4637 H 420.981 -0.997766 3.10986 0
M  V30 4638 H 419.64 1.09925 3.49731 0
M  V30 4639 H 419.288 -0.907765 4.94741 0
M  V30 4640 H 418.988 0.601444 5.84514 0
M  V30 4641 H 420.512 -0.295808 6.09883 0
M  V30 4642 H 421.926 1.87148 5.41893 0
M  V30 4643 H 420.323 2.66164 5.37845 0
M  V30 4644 H 421.393 2.78393 3.9702 0
M  V30 4645 N 422.737 -1.36956 0.779787 0
M  V30 4646 C 423.684 -2.30175 0.169697 0
M  V30 4647 C 424.654 -1.51501 -0.68094 0
M  V30 4648 O 425.839 -1.80042 -0.631629 0
M  V30 4649 C 422.979 -3.37985 -0.697131 0
M  V30 4650 C 422.092 -4.31661 0.170992 0
M  V30 4651 C 421.227 -5.2655 -0.701298 0
M  V30 4652 C 420.266 -6.11867 0.168869 0
M  V30 4653 N 419.403 -6.98973 -0.661855 0
M  V30 4654 H 424.243 -2.81767 0.970135 0
M  V30 4655 H 421.78 -1.38699 0.489994 0
M  V30 4656 H 423.738 -3.99128 -1.2146 0
M  V30 4657 H 422.368 -2.87739 -1.46309 0
M  V30 4658 H 421.42 -3.71756 0.80634 0
M  V30 4659 H 422.732 -4.91644 0.841875 0
M  V30 4660 H 421.886 -5.92937 -1.28494 0
M  V30 4661 H 420.625 -4.66998 -1.40584 0
M  V30 4662 H 419.63 -5.44452 0.764986 0
M  V30 4663 H 420.855 -6.73493 0.870863 0
M  V30 4664 H 418.801 -6.41941 -1.35086 0
M  V30 4665 H 418.718 -7.55984 -0.0484447 0
M  V30 4666 H 419.986 -7.6974 -1.22963 0
M  V30 4667 N 424.215 -0.530993 -1.48385 0
M  V30 4668 C 425.147 0.268353 -2.27624 0
M  V30 4669 C 426.16 0.903525 -1.35426 0
M  V30 4670 O 427.349 0.781796 -1.60469 0
M  V30 4671 C 424.449 1.39535 -3.08842 0
M  V30 4672 C 423.622 0.861913 -4.28824 0
M  V30 4673 C 422.681 1.87016 -4.91845 0
M  V30 4674 O 421.707 1.4267 -5.5103 0
M  V30 4675 N 422.909 3.20238 -4.84178 0
M  V30 4676 H 425.674 -0.41123 -2.96865 0
M  V30 4677 H 423.235 -0.365387 -1.57723 0
M  V30 4678 H 425.227 2.06803 -3.47871 0
M  V30 4679 H 423.797 1.97859 -2.42014 0
M  V30 4680 H 423.017 0.0132126 -3.94198 0
M  V30 4681 H 424.305 0.484415 -5.06489 0
M  V30 4682 H 423.703 3.58932 -4.37246 0
M  V30 4683 H 422.26 3.83136 -5.27305 0
M  V30 4684 N 425.693 1.55336 -0.266172 0
M  V30 4685 C 426.641 2.23587 0.641228 0
M  V30 4686 C 427.635 1.22986 1.16494 0
M  V30 4687 O 428.841 1.40943 1.1196 0
M  V30 4688 H 425.216 0.717452 0.225315 0
M  V30 4689 H 427.187 2.9837 0.0426561 0
M  V30 4690 C 425.936 2.96369 1.81826 0
M  V30 4691 H 425.259 3.73563 1.42445 0
M  V30 4692 H 426.699 3.47459 2.42998 0
M  V30 4693 C 425.158 2.0133 2.70125 0
M  V30 4694 O 425.688 1.55875 3.70224 0
M  V30 4695 N 423.894 1.6802 2.37102 0
M  V30 4696 H 423.441 2.05181 1.55751 0
M  V30 4697 H 423.399 1.047 2.96454 0
M  V30 4698 N 427.171 -0.0066808 1.57599 0
M  V30 4699 C 428.42 -0.692078 1.89455 0
M  V30 4700 C 428.733 -1.75306 0.867586 0
M  V30 4701 O 429.939 -2.49262 1.07614 0
M  V30 4702 C 428.395 -1.2821 3.36289 0
M  V30 4703 C 428.003 -0.256291 4.47266 0
M  V30 4704 C 429.747 -1.94608 3.77264 0
M  V30 4705 C 427.654 -0.855927 5.85173 0
M  V30 4706 H 426.584 -0.262252 0.706923 0
M  V30 4707 H 429.235 0.052769 1.83424 0
M  V30 4708 H 427.617 -2.0774 3.37135 0
M  V30 4709 H 428.791 0.513923 4.57925 0
M  V30 4710 H 427.106 0.306862 4.15268 0
M  V30 4711 H 429.703 -2.40364 4.77629 0
M  V30 4712 H 430.046 -2.77382 3.10427 0
M  V30 4713 H 430.579 -1.21822 3.78688 0
M  V30 4714 H 427.318 -0.0671161 6.55466 0
M  V30 4715 H 426.838 -1.59546 5.78191 0
M  V30 4716 H 428.517 -1.35658 6.32618 0
M  V30 4717 N 428.649 -1.55105 -0.279332 0
M  V30 4718 C 429.579 -1.90557 -1.34945 0
M  V30 4719 C 430.56 -0.766738 -1.51839 0
M  V30 4720 O 431.745 -1.02434 -1.64988 0
M  V30 4721 C 428.875 -2.17193 -2.71006 0
M  V30 4722 C 427.829 -3.33021 -2.68851 0
M  V30 4723 C 427.155 -3.45123 -4.08405 0
M  V30 4724 C 428.455 -4.69578 -2.28678 0
M  V30 4725 H 430.149 -2.80188 -1.05522 0
M  V30 4726 H 427.695 -1.34811 -0.506173 0
M  V30 4727 H 429.648 -2.40581 -3.45975 0
M  V30 4728 H 428.372 -1.24355 -3.01999 0
M  V30 4729 H 427.031 -3.0959 -1.9634 0
M  V30 4730 H 426.679 -2.49762 -4.3661 0
M  V30 4731 H 426.379 -4.22995 -4.07859 0
M  V30 4732 H 427.903 -3.70796 -4.85121 0
M  V30 4733 H 429.317 -4.92553 -2.93368 0
M  V30 4734 H 427.714 -5.5032 -2.39306 0
M  V30 4735 H 428.784 -4.68828 -1.23807 0
M  V30 4736 N 430.127 0.543554 -1.4793 0
M  V30 4737 C 431.538 1.12561 -1.48953 0
M  V30 4738 C 431.889 1.94578 -0.251754 0
M  V30 4739 O 431.014 2.0665 0.642255 0
M  V30 4740 C 431.609 2.04801 -2.69892 0
M  V30 4741 C 430.168 2.58251 -2.73831 0
M  V30 4742 C 429.315 1.34918 -2.42265 0
M  V30 4743 H 432.266 0.32947 -1.55242 0
M  V30 4744 H 432.287 2.88886 -2.47639 0
M  V30 4745 H 431.799 1.4508 -3.59963 0
M  V30 4746 H 429.9 3.21732 -1.87934 0
M  V30 4747 H 430.013 2.98312 -3.74895 0
M  V30 4748 H 428.377 1.66046 -1.93134 0
M  V30 4749 H 429.16 0.769693 -3.3456 0
M  V30 4750 N 431.605 1.3629 0.791371 0
M  V30 4751 C 432.833 1.33562 1.58016 0
M  V30 4752 C 433.248 -0.0835616 1.88615 0
M  V30 4753 O 432.605 -1.0399 1.49974 0
M  V30 4754 C 432.656 2.15517 2.90232 0
M  V30 4755 O 432.377 3.51902 2.60953 0
M  V30 4756 C 433.878 2.20546 3.84544 0
M  V30 4757 H 431.098 0.458226 0.490173 0
M  V30 4758 H 433.642 1.79361 0.982345 0
M  V30 4759 H 431.797 1.73278 3.46487 0
M  V30 4760 H 432.211 3.94644 3.4548 0
M  V30 4761 H 433.685 2.82252 4.74382 0
M  V30 4762 H 434.162 1.20838 4.2225 0
M  V30 4763 H 434.768 2.63013 3.34222 0
M  V30 4764 N 433.083 -1.0153 1.20538 0
M  V30 4765 C 434.499 -1.27461 0.96051 0
M  V30 4766 C 434.699 -1.98273 -0.359193 0
M  V30 4767 O 433.755 -2.27886 -1.0874 0
M  V30 4768 C 435.068 -2.10837 2.14402 0
M  V30 4769 C 436.616 -2.24099 2.18515 0
M  V30 4770 C 437.091 -3.10852 3.36355 0
M  V30 4771 N 438.582 -3.18441 3.36377 0
M  V30 4772 C 439.317 -3.85795 4.24205 0
M  V30 4773 N 438.813 -4.55264 5.22213 0
M  V30 4774 N 440.606 -3.82331 4.12043 0
M  V30 4775 H 432.757 -0.539907 2.05423 0
M  V30 4776 H 435.02 -0.30092 0.898972 0
M  V30 4777 H 434.726 -1.66144 3.09983 0
M  V30 4778 H 434.6 -3.11576 2.12604 0
M  V30 4779 H 436.987 -2.68016 1.23497 0
M  V30 4780 H 437.068 -1.22865 2.24361 0
M  V30 4781 H 436.712 -2.6764 4.31661 0
M  V30 4782 H 436.642 -4.12177 3.27746 0
M  V30 4783 H 439.133 -2.68978 2.65442 0
M  V30 4784 H 439.446 -5.04331 5.85551 0
M  V30 4785 H 437.791 -4.54085 5.26148 0
M  V30 4786 H 440.982 -3.27207 3.34743 0
M  V30 4787 H 441.155 -4.34547 4.807 0
M  V30 4788 N 434.561 -1.01147 -1.20859 0
M  V30 4789 C 435.471 -0.58686 -2.27141 0
M  V30 4790 C 436.487 0.373198 -1.69951 0
M  V30 4791 O 437.663 0.235423 -2.00019 0
M  V30 4792 C 434.728 0.0733602 -3.46622 0
M  V30 4793 C 433.789 -0.931995 -4.19061 0
M  V30 4794 C 433.022 -0.303186 -5.32838 0
M  V30 4795 O 433.245 0.898395 -5.63281 0
M  V30 4796 O 432.179 -1.01735 -5.9324 0
M  V30 4797 H 436.005 -1.47155 -2.65667 0
M  V30 4798 H 433.59 -0.780689 -1.2738 0
M  V30 4799 H 435.472 0.442333 -4.19072 0
M  V30 4800 H 434.147 0.932329 -3.09983 0
M  V30 4801 H 433.054 -1.35224 -3.48805 0
M  V30 4802 H 434.387 -1.76076 -4.59628 0
M  V30 4803 N 436.039 1.36541 -0.78704 0
M  V30 4804 C 437.455 1.52571 -0.46844 0
M  V30 4805 C 437.655 1.7415 1.01361 0
M  V30 4806 O 436.711 1.77163 1.79915 0
M  V30 4807 C 438.024 2.71299 -1.29682 0
M  V30 4808 C 439.572 2.85169 -1.29027 0
M  V30 4809 C 440.047 4.06898 -2.10233 0
M  V30 4810 N 441.538 4.1404 -2.07666 0
M  V30 4811 C 442.273 5.07301 -2.67271 0
M  V30 4812 N 441.769 6.06021 -3.35724 0
M  V30 4813 N 443.562 4.99898 -2.57018 0
M  V30 4814 H 435.713 1.20788 -1.74711 0
M  V30 4815 H 437.976 0.589364 -0.742532 0
M  V30 4816 H 437.682 2.61868 -2.34773 0
M  V30 4817 H 437.556 3.6539 -0.936479 0
M  V30 4818 H 439.943 2.94062 -0.247284 0
M  V30 4819 H 440.024 1.91992 -1.69035 0
M  V30 4820 H 439.668 3.98766 -3.1456 0
M  V30 4821 H 439.598 4.99218 -1.67597 0
M  V30 4822 H 442.089 3.43357 -1.57843 0
M  V30 4823 H 442.402 6.73741 -3.78541 0
M  V30 4824 H 440.747 6.06253 -3.39826 0
M  V30 4825 H 443.938 4.21724 -2.03142 0
M  V30 4826 H 444.111 5.72392 -3.03761 0
M  V30 4827 N 437.518 0.538854 1.48102 0
M  V30 4828 C 438.481 -0.208395 2.28251 0
M  V30 4829 C 439.481 -0.859656 1.35892 0
M  V30 4830 O 440.671 -0.71834 1.58699 0
M  V30 4831 C 437.803 -1.30252 3.15035 0
M  V30 4832 H 438.996 0.495407 2.9578 0
M  V30 4833 H 436.549 0.295112 1.53489 0
M  V30 4834 H 437.284 -2.0393 2.52157 0
M  V30 4835 H 437.069 -0.840551 3.82985 0
M  V30 4836 H 438.559 -1.82787 3.75471 0
M  V30 4837 N 438.996 -1.55193 0.274407 0
M  V30 4838 C 440.221 -2.04446 -0.348824 0
M  V30 4839 C 440.646 -1.15149 -1.48735 0
M  V30 4840 O 440.004 -0.149952 -1.80679 0
M  V30 4841 C 440.052 -3.51431 -0.808009 0
M  V30 4842 O 439.156 -3.65225 -1.91531 0
M  V30 4843 H 438.497 -0.66006 -0.0722276 0
M  V30 4844 H 441.027 -2.00481 0.408498 0
M  V30 4845 H 441.037 -3.92781 -1.10395 0
M  V30 4846 H 439.712 -4.15892 0.0249865 0
M  V30 4847 H 438.289 -3.35778 -1.62196 0
M  V30 4848 N 440.474 -0.00167713 -1.576 0
M  V30 4849 C 441.404 0.988091 -2.11563 0
M  V30 4850 C 442.385 1.35736 -1.02517 0
M  V30 4851 O 443.57 1.44082 -1.30208 0
M  V30 4852 C 440.7 2.27941 -2.62031 0
M  V30 4853 C 439.654 2.0517 -3.75619 0
M  V30 4854 C 438.98 3.4033 -4.12407 0
M  V30 4855 C 440.28 1.41294 -5.02825 0
M  V30 4856 H 441.974 0.538771 -2.94513 0
M  V30 4857 H 439.52 0.257712 -1.41675 0
M  V30 4858 H 441.473 2.97539 -2.9841 0
M  V30 4859 H 440.197 2.74989 -1.76205 0
M  V30 4860 H 438.856 1.37998 -3.39635 0
M  V30 4861 H 438.504 3.85085 -3.23603 0
M  V30 4862 H 438.204 3.25909 -4.88935 0
M  V30 4863 H 439.728 4.1124 -4.51347 0
M  V30 4864 H 441.142 2.00851 -5.36965 0
M  V30 4865 H 439.539 1.37356 -5.84169 0
M  V30 4866 H 440.609 0.382362 -4.8339 0
M  V30 4867 N 441.952 1.55251 0.271103 0
M  V30 4868 C 443.201 1.75151 1.00025 0
M  V30 4869 C 443.514 0.561041 1.87381 0
M  V30 4870 O 444.72 0.642506 2.63788 0
M  V30 4871 C 443.176 3.09999 1.82835 0
M  V30 4872 C 442.784 4.3662 1.00336 0
M  V30 4873 C 444.528 3.39249 2.55168 0
M  V30 4874 C 442.435 5.62506 1.82595 0
M  V30 4875 H 441.365 0.652877 0.377183 0
M  V30 4876 H 444.016 1.81708 0.255843 0
M  V30 4877 H 442.398 2.97485 2.61378 0
M  V30 4878 H 443.572 4.60055 0.261959 0
M  V30 4879 H 441.887 4.14527 0.394486 0
M  V30 4880 H 444.484 4.3051 3.1712 0
M  V30 4881 H 444.827 2.59467 3.2555 0
M  V30 4882 H 445.36 3.52869 1.83653 0
M  V30 4883 H 442.099 6.45041 1.16631 0
M  V30 4884 H 441.619 5.43211 2.54327 0
M  V30 4885 H 443.298 6.00875 2.39913 0
M  V30 4886 N 443.43 -0.535701 1.48216 0
M  V30 4887 C 444.36 -1.65014 1.65204 0
M  V30 4888 C 445.341 -1.62554 0.501011 0
M  V30 4889 O 446.526 -1.7984 0.732886 0
M  V30 4890 C 443.656 -3.03616 1.68626 0
M  V30 4891 C 442.61 -3.20932 2.83172 0
M  V30 4892 C 441.936 -4.60537 2.71679 0
M  V30 4893 C 443.236 -3.04249 4.24535 0
M  V30 4894 H 444.93 -1.51053 2.58502 0
M  V30 4895 H 442.476 -0.725262 1.24402 0
M  V30 4896 H 444.429 -3.81446 1.79099 0
M  V30 4897 H 443.153 -3.18587 0.719026 0
M  V30 4898 H 441.812 -2.45517 2.72244 0
M  V30 4899 H 441.46 -4.72336 1.72937 0
M  V30 4900 H 441.16 -4.73069 3.48538 0
M  V30 4901 H 442.684 -5.40475 2.84112 0
M  V30 4902 H 444.098 -3.71877 4.36326 0
M  V30 4903 H 442.495 -3.28278 5.02348 0
M  V30 4904 H 443.565 -2.00739 4.41397 0
M  V30 4905 N 444.908 -1.36708 -0.784132 0
M  V30 4906 C 446.136 -1.34398 -1.57305 0
M  V30 4907 C 446.551 0.0735577 -1.88657 0
M  V30 4908 O 445.908 1.03193 -1.50524 0
M  V30 4909 C 445.959 -2.17053 -2.89085 0
M  V30 4910 O 445.68 -3.53281 -2.59083 0
M  V30 4911 C 447.181 -2.22583 -3.83369 0
M  V30 4912 H 444.401 -0.460819 -0.487736 0
M  V30 4913 H 446.945 -1.79879 -0.972819 0
M  V30 4914 H 445.1 -1.75113 -3.45564 0
M  V30 4915 H 445.514 -3.9647 -3.43383 0
M  V30 4916 H 446.988 -2.84763 -4.72878 0
M  V30 4917 H 447.465 -1.23075 -4.21603 0
M  V30 4918 H 448.071 -2.64781 -3.32823 0
M  V30 4919 N 446.386 1.0089 -1.21074 0
M  V30 4920 C 447.333 2.09588 -0.966512 0
M  V30 4921 C 448.303 1.65761 0.106089 0
M  V30 4922 O 449.488 1.90758 -0.0402287 0
M  V30 4923 C 446.628 3.40958 -0.533058 0
M  V30 4924 C 445.741 3.9822 -1.67467 0
M  V30 4925 C 444.876 5.17682 -1.19076 0
M  V30 4926 C 443.915 5.67043 -2.30496 0
M  V30 4927 N 443.052 6.77759 -1.83267 0
M  V30 4928 H 447.892 2.29815 -1.89708 0
M  V30 4929 H 445.429 1.12689 -0.945489 0
M  V30 4930 H 447.387 4.1637 -0.263019 0
M  V30 4931 H 446.017 3.20781 0.360505 0
M  V30 4932 H 445.069 3.1983 -2.05944 0
M  V30 4933 H 446.381 4.3085 -2.51336 0
M  V30 4934 H 445.535 6.00326 -0.877151 0
M  V30 4935 H 444.274 4.86635 -0.322066 0
M  V30 4936 H 443.279 4.82999 -2.62664 0
M  V30 4937 H 444.504 6.00121 -3.17855 0
M  V30 4938 H 442.45 6.48527 -0.987356 0
M  V30 4939 H 442.367 7.09624 -2.60711 0
M  V30 4940 H 443.635 7.63949 -1.54928 0
M  V30 4941 N 447.864 1.01787 1.20321 0
M  V30 4942 C 449.089 0.727009 1.9424 0
M  V30 4943 C 449.514 -0.706179 1.74341 0
M  V30 4944 O 448.872 -1.48609 1.03852 0
M  V30 4945 C 448.92 1.06958 3.44372 0
M  V30 4946 O 448.024 0.181983 4.11998 0
M  V30 4947 H 447.365 0.269626 0.606793 0
M  V30 4948 H 449.895 1.36158 1.52716 0
M  V30 4949 H 449.905 1.02182 3.94997 0
M  V30 4950 H 448.58 2.11378 3.58179 0
M  V30 4951 H 447.157 0.287378 3.71791 0
M  V30 4952 N 449.342 -1.36122 0.79427 0
M  V30 4953 C 450.305 -2.28309 0.201889 0
M  V30 4954 C 451.305 -1.49041 -0.603603 0
M  V30 4955 O 452.495 -1.68964 -0.423888 0
M  V30 4956 C 449.627 -3.3321 -0.719978 0
M  V30 4957 H 450.82 -2.82208 1.01481 0
M  V30 4958 H 448.373 -1.45768 0.564037 0
M  V30 4959 H 449.108 -2.84475 -1.55706 0
M  V30 4960 H 448.893 -3.91835 -0.144266 0
M  V30 4961 H 450.383 -4.02044 -1.12916 0
M  V30 4962 N 450.82 -0.546701 -1.47814 0
M  V30 4963 C 451.768 0.220048 -2.31557 0
M  V30 4964 C 452.762 0.919472 -1.42275 0
M  V30 4965 O 453.968 0.841953 -1.59095 0
M  V30 4966 H 450.343 0.0898334 -0.746615 0
M  V30 4967 H 452.314 -0.505589 -2.94086 0
M  V30 4968 C 451.063 1.24353 -3.24702 0
M  V30 4969 H 450.386 0.714758 -3.93359 0
M  V30 4970 H 451.826 1.75112 -3.8615 0
M  V30 4971 C 450.285 2.28593 -2.47481 0
M  V30 4972 O 450.815 3.35334 -2.21165 0
M  V30 4973 N 449.021 2.02244 -2.08676 0
M  V30 4974 H 448.568 1.15455 -2.30278 0
M  V30 4975 H 448.526 2.72207 -1.57323 0
M  V30 4976 N 452.299 1.55045 -0.282633 0
M  V30 4977 C 453.249 2.19514 0.616249 0
M  V30 4978 C 454.233 1.16216 1.11277 0
M  V30 4979 O 455.425 1.42004 1.05659 0
M  V30 4980 C 452.554 2.92548 1.7964 0
M  V30 4981 C 451.64 4.03142 1.31671 0
M  V30 4982 N 452.031 5.0276 0.553695 0
M  V30 4983 C 450.329 4.1635 1.59903 0
M  V30 4984 C 451.03 5.80923 0.30054 0
M  V30 4985 N 450.006 5.3651 0.875116 0
M  V30 4986 H 453.808 2.93889 0.0255363 0
M  V30 4987 H 451.322 1.62169 -0.0865362 0
M  V30 4988 H 453.319 3.37188 2.45173 0
M  V30 4989 H 451.979 2.19685 2.39099 0
M  V30 4990 H 452.99 5.17512 0.20032 0
M  V30 4991 H 449.667 3.54682 2.20243 0
M  V30 4992 H 451.057 6.7118 -0.311053 0
M  V30 4993 N 453.777 0.010035 1.57597 0
M  V30 4994 C 454.74 -0.963029 2.07986 0
M  V30 4995 C 455.74 -1.26619 0.991173 0
M  V30 4996 O 456.93 -1.2097 1.25347 0
M  V30 4997 C 454.062 -2.2851 2.52974 0
M  V30 4998 H 455.255 -0.526971 2.95234 0
M  V30 4999 H 452.808 -0.237639 1.54483 0
M  V30 5000 H 453.543 -2.76784 1.69 0
M  V30 5001 H 453.328 -2.07824 3.32493 0
M  V30 5002 H 454.818 -2.98294 2.9225 0
M  V30 5003 N 455.255 -1.55392 -0.262866 0
M  V30 5004 C 456.501 -1.76737 -0.99458 0
M  V30 5005 C 456.834 -0.572453 -1.85571 0
M  V30 5006 O 456.109 0.429732 -1.89693 0
M  V30 5007 C 456.392 -3.07824 -1.8686 0
M  V30 5008 C 456.245 -4.3769 -1.03672 0
M  V30 5009 C 457.564 -3.35021 -2.85393 0
M  V30 5010 H 454.683 -0.643005 -0.360157 0
M  V30 5011 H 457.325 -1.88126 -0.266216 0
M  V30 5012 H 455.475 -2.98245 -2.48962 0
M  V30 5013 H 457.147 -4.59238 -0.43563 0
M  V30 5014 H 455.39 -4.32461 -0.340513 0
M  V30 5015 H 456.061 -5.25759 -1.6817 0
M  V30 5016 H 458.537 -3.44458 -2.33426 0
M  V30 5017 H 457.413 -4.27989 -3.43681 0
M  V30 5018 H 457.674 -2.55153 -3.61039 0
M  V30 5019 N 456.733 0.527833 -1.48498 0
M  V30 5020 C 457.643 1.65907 -1.65867 0
M  V30 5021 C 458.659 1.6537 -0.541192 0
M  V30 5022 O 459.835 1.84282 -0.812534 0
M  V30 5023 C 456.9 3.02364 -1.69637 0
M  V30 5024 C 455.961 3.1374 -2.93028 0
M  V30 5025 C 455.194 4.43688 -2.96609 0
M  V30 5026 O 455.417 5.30913 -2.08538 0
M  V30 5027 O 454.351 4.59475 -3.88802 0
M  V30 5028 H 458.177 1.5419 -2.61647 0
M  V30 5029 H 455.762 0.701163 -1.31924 0
M  V30 5030 H 457.644 3.83515 -1.74625 0
M  V30 5031 H 456.319 3.14401 -0.770312 0
M  V30 5032 H 455.226 2.31877 -2.93571 0
M  V30 5033 H 456.559 3.06621 -3.85026 0
M  V30 5034 N 458.211 1.37122 0.776871 0
M  V30 5035 C 459.121 1.34651 1.9211 0
M  V30 5036 C 460.137 0.246824 1.7224 0
M  V30 5037 O 461.313 0.48134 1.95563 0
M  V30 5038 C 458.378 1.14748 3.2716 0
M  V30 5039 C 457.439 2.34308 3.5972 0
M  V30 5040 C 456.672 2.15345 4.88326 0
M  V30 5041 O 456.895 1.13507 5.58992 0
M  V30 5042 O 455.829 3.03414 5.1983 0
M  V30 5043 H 459.655 2.31013 1.97146 0
M  V30 5044 H 457.24 1.17799 0.918901 0
M  V30 5045 H 459.122 1.05616 4.0795 0
M  V30 5046 H 457.797 0.214562 3.22988 0
M  V30 5047 H 456.704 2.49011 2.79185 0
M  V30 5048 H 458.037 3.26149 3.68629 0
M  V30 5049 N 459.689 -1.00246 1.21608 0
M  V30 5050 C 460.935 -1.74319 1.03638 0
M  V30 5051 C 461.268 -1.89408 -0.428749 0
M  V30 5052 O 460.543 -1.43026 -1.3181 0
M  V30 5053 C 460.826 -3.15431 1.73711 0
M  V30 5054 C 460.679 -3.08049 3.27759 0
M  V30 5055 C 461.998 -4.14407 1.48173 0
M  V30 5056 H 459.117 -0.632741 0.377899 0
M  V30 5057 H 461.759 -1.16853 1.49818 0
M  V30 5058 H 459.909 -3.64493 1.34452 0
M  V30 5059 H 461.581 -2.66681 3.76403 0
M  V30 5060 H 459.824 -2.45088 3.57931 0
M  V30 5061 H 460.495 -4.07862 3.71958 0
M  V30 5062 H 462.971 -3.74061 1.82258 0
M  V30 5063 H 461.847 -5.11279 1.99713 0
M  V30 5064 H 462.108 -4.40174 0.412273 0
M  V30 5065 N 461.167 -1.02423 -1.1978 0
M  V30 5066 C 462.583 -0.740459 -1.41384 0
M  V30 5067 C 462.783 0.676827 -1.89793 0
M  V30 5068 O 461.839 1.4435 -2.0717 0
M  V30 5069 C 463.152 -1.77264 -2.42895 0
M  V30 5070 C 464.7 -1.79165 -2.56649 0
M  V30 5071 C 465.175 -2.8133 -3.6141 0
M  V30 5072 N 466.666 -2.80118 -3.68901 0
M  V30 5073 C 467.401 -3.55824 -4.49641 0
M  V30 5074 N 466.897 -4.41231 -5.34123 0
M  V30 5075 N 468.69 -3.44387 -4.44246 0
M  V30 5076 H 460.841 -1.9391 -0.866764 0
M  V30 5077 H 463.104 -0.838074 -0.443098 0
M  V30 5078 H 462.81 -2.7884 -2.14339 0
M  V30 5079 H 462.684 -1.59108 -3.42001 0
M  V30 5080 H 465.071 -0.782702 -2.84531 0
M  V30 5081 H 465.152 -2.01396 -1.57713 0
M  V30 5082 H 464.796 -3.82394 -3.34271 0
M  V30 5083 H 464.726 -2.56359 -4.59986 0
M  V30 5084 H 467.217 -2.1817 -3.08562 0
M  V30 5085 H 467.53 -4.95747 -5.92836 0
M  V30 5086 H 465.875 -4.45306 -5.33599 0
M  V30 5087 H 469.066 -2.7708 -3.77285 0
M  V30 5088 H 469.239 -4.0364 -5.06931 0
M  V30 5089 N 462.645 1.35699 -0.801477 0
M  V30 5090 C 463.575 2.32436 -0.222658 0
M  V30 5091 C 464.556 1.5723 0.649057 0
M  V30 5092 O 465.741 1.85324 0.580387 0
M  V30 5093 C 462.871 3.41469 0.633719 0
M  V30 5094 C 461.825 4.27774 -0.139083 0
M  V30 5095 C 461.151 5.28082 0.838666 0
M  V30 5096 C 462.451 5.04946 -1.33517 0
M  V30 5097 H 464.145 2.81094 -1.03086 0
M  V30 5098 H 461.691 1.35146 -0.497155 0
M  V30 5099 H 463.644 4.08143 1.04868 0
M  V30 5100 H 462.368 2.91408 1.47475 0
M  V30 5101 H 461.027 3.62673 -0.535156 0
M  V30 5102 H 460.675 4.7429 1.67506 0
M  V30 5103 H 460.375 5.86695 0.32594 0
M  V30 5104 H 461.899 5.97628 1.25194 0
M  V30 5105 H 463.313 5.64593 -0.995349 0
M  V30 5106 H 461.71 5.7303 -1.78202 0
M  V30 5107 H 462.78 4.35886 -2.12442 0
M  V30 5108 N 464.123 0.554532 1.47522 0
M  V30 5109 C 465.539 0.214107 1.58157 0
M  V30 5110 C 465.739 -1.28331 1.55349 0
M  V30 5111 O 464.795 -2.06329 1.45549 0
M  V30 5112 C 466.108 0.838391 2.88776 0
M  V30 5113 C 467.656 0.809374 3.02354 0
M  V30 5114 C 468.131 1.41268 4.35669 0
M  V30 5115 N 469.622 1.37574 4.42298 0
M  V30 5116 C 470.357 1.8122 5.4401 0
M  V30 5117 N 469.853 2.3271 6.52547 0
M  V30 5118 N 471.646 1.72307 5.35039 0
M  V30 5119 H 463.797 1.52744 1.4759 0
M  V30 5120 H 466.06 0.636812 0.702264 0
M  V30 5121 H 465.766 1.89065 2.96559 0
M  V30 5122 H 465.64 0.329847 3.75755 0
M  V30 5123 H 468.027 -0.234187 2.94169 0
M  V30 5124 H 468.108 1.35565 2.16924 0
M  V30 5125 H 467.752 2.45529 4.4461 0
M  V30 5126 H 467.682 0.841871 5.19827 0
M  V30 5127 H 470.173 0.999081 3.64454 0
M  V30 5128 H 470.486 2.63944 7.26329 0
M  V30 5129 H 468.831 2.36719 6.53444 0
M  V30 5130 H 472.022 1.3186 4.49144 0
M  V30 5131 H 472.195 2.06641 6.14169 0
M  V30 5132 N 465.601 -1.54893 0.290851 0
M  V30 5133 C 466.548 -2.23138 -0.58974 0
M  V30 5134 C 467.518 -1.21036 -1.13752 0
M  V30 5135 O 468.703 -1.49626 -1.18392 0
M  V30 5136 C 465.843 -2.96811 -1.76061 0
M  V30 5137 C 464.956 -4.13665 -1.24519 0
M  V30 5138 C 464.091 -4.74944 -2.3791 0
M  V30 5139 C 463.13 -5.83963 -1.83451 0
M  V30 5140 N 462.267 -6.39239 -2.90376 0
M  V30 5141 H 467.107 -2.98 -0.00114915 0
M  V30 5142 H 464.644 -1.47096 0.0112006 0
M  V30 5143 H 466.602 -3.37751 -2.44909 0
M  V30 5144 H 465.232 -2.24344 -2.32098 0
M  V30 5145 H 464.284 -3.77737 -0.449288 0
M  V30 5146 H 465.596 -4.92238 -0.806424 0
M  V30 5147 H 464.75 -5.18684 -3.14724 0
M  V30 5148 H 463.489 -3.95682 -2.85109 0
M  V30 5149 H 462.494 -5.39657 -1.05122 0
M  V30 5150 H 463.719 -6.65103 -1.37169 0
M  V30 5151 H 461.665 -5.62864 -3.36927 0
M  V30 5152 H 461.582 -7.13129 -2.50965 0
M  V30 5153 H 462.85 -6.87637 -3.67118 0
M  V30 5154 O 467.118 -0.15707 -1.60734 0
M  V30 5155 H 467.809 0.435157 -1.88749 0
M  V30 END ATOM
M  V30 BEGIN BOND
M  V30 END BOND
M  V30 END CTAB
M  END
$$$$
