drugbank_target|Q9NQU5 Serine/threonine-protein kinase PAK 6 (DB12010)
 OpenBabel12092121183D

  0  0  0     0  0            999 V3000
M  V30 BEGIN CTAB
M  V30 COUNTS 10578 10702 0 0 0
M  V30 BEGIN ATOM
M  V30 1 H -0.908 1.98254 -0.117106 0
M  V30 2 N 0 1.576 0 0
M  V30 3 C 0.933 2.03868 1.02534 0
M  V30 4 C 1.911 0.928543 1.3348 0
M  V30 5 O 3.095 1.19667 1.45644 0
M  V30 6 C 0.222 2.43627 2.35294 0
M  V30 7 C -0.732 3.65373 2.2001 0
M  V30 8 S 0.101 5.13292 1.52614 0
M  V30 9 C 1.257 5.56322 2.86805 0
M  V30 10 H 1.49 2.90518 0.631377 0
M  V30 11 H -0.977 1.52953 0.210867 0
M  V30 12 H 0.981 2.67203 3.11629 0
M  V30 13 H -0.358 1.57376 2.7183 0
M  V30 14 H -1.165 3.90944 3.18086 0
M  V30 15 H -1.563 3.418 1.51819 0
M  V30 16 H 0.729 5.58782 3.83104 0
M  V30 17 H 1.672 6.56266 2.65933 0
M  V30 18 H 2.08 4.83886 2.90714 0
M  V30 19 N 1.4781 -0.272755 1.55222 0
M  V30 20 C 2.7251 -1.00433 1.7584 0
M  V30 21 C 3.0531 -1.86275 0.559629 0
M  V30 22 O 2.3081 -1.90269 -0.457857 0
M  V30 23 C 2.6071 -1.91642 3.01675 0
M  V30 24 C 2.2731 -1.21548 4.34208 0
M  V30 25 C 0.9351 -1.02166 4.70229 0
M  V30 26 C 3.2871 -0.716684 5.16249 0
M  V30 27 C 0.6151 -0.316334 5.85847 0
M  V30 28 C 2.9671 -0.0249476 6.32595 0
M  V30 29 C 1.6311 0.180579 6.67256 0
M  V30 30 H 0.9011 -0.367509 0.643443 0
M  V30 31 H 3.5481 -0.276596 1.89492 0
M  V30 32 H 1.8531 -2.71037 2.82924 0
M  V30 33 H 3.5501 -2.48369 3.14824 0
M  V30 34 H 0.1401 -1.37645 4.05896 0
M  V30 35 H 4.3241 -0.854047 4.88896 0
M  V30 36 H -0.4199 -0.146378 6.11225 0
M  V30 37 H 3.7541 0.369311 6.9542 0
M  V30 38 H 1.3811 0.729098 7.56696 0
M  V30 39 N 2.9562 -1.48159 -0.537278 0
M  V30 40 C 4.3722 -1.34118 -0.865129 0
M  V30 41 C 4.5722 -0.346678 -1.98495 0
M  V30 42 O 3.6282 0.234715 -2.51407 0
M  V30 43 C 4.9412 -2.73963 -1.23954 0
M  V30 44 C 6.4892 -2.82397 -1.34984 0
M  V30 45 C 6.9642 -4.22928 -1.75772 0
M  V30 46 N 8.4552 -4.25566 -1.82887 0
M  V30 47 C 9.1902 -5.31235 -2.15817 0
M  V30 48 N 8.6862 -6.47189 -2.47222 0
M  V30 49 N 10.4792 -5.18624 -2.16761 0
M  V30 50 H 2.6302 -2.1144 0.201715 0
M  V30 51 H 4.8932 -0.947598 0.0275949 0
M  V30 52 H 4.5992 -3.48264 -0.490381 0
M  V30 53 H 4.4732 -3.0702 -2.19132 0
M  V30 54 H 6.8602 -2.08356 -2.08978 0
M  V30 55 H 6.9412 -2.5297 -0.379448 0
M  V30 56 H 6.5852 -4.97482 -1.02341 0
M  V30 57 H 6.5152 -4.49794 -2.73848 0
M  V30 58 H 9.0062 -3.41924 -1.60924 0
M  V30 59 H 9.3192 -7.23564 -2.71433 0
M  V30 60 H 7.6642 -6.50476 -2.44757 0
M  V30 61 H 10.8552 -4.27056 -1.91679 0
M  V30 62 H 11.0282 -6.01078 -2.42093 0
M  V30 63 N 4.4343 0.785586 -1.36625 0
M  V30 64 C 5.3813 1.89838 -1.31264 0
M  V30 65 C 6.3513 1.65115 -0.180633 0
M  V30 66 O 7.5363 1.87222 -0.36777 0
M  V30 67 C 4.6763 3.26706 -1.11163 0
M  V30 68 C 3.7893 3.63476 -2.33472 0
M  V30 69 C 2.9243 4.89481 -2.06353 0
M  V30 70 C 1.9633 5.18941 -3.24602 0
M  V30 71 N 1.1003 6.36131 -2.97123 0
M  V30 72 H 5.9403 1.93756 -2.26413 0
M  V30 73 H 3.4773 0.947454 -1.12524 0
M  V30 74 H 5.4353 4.05639 -0.975337 0
M  V30 75 H 4.0653 3.222 -0.196674 0
M  V30 76 H 3.1173 2.79636 -2.57891 0
M  V30 77 H 4.4293 3.81193 -3.21704 0
M  V30 78 H 3.5833 5.76288 -1.89675 0
M  V30 79 H 2.3223 4.73841 -1.15437 0
M  V30 80 H 1.3273 4.30615 -3.41834 0
M  V30 81 H 2.5523 5.36498 -4.16349 0
M  V30 82 H 0.4983 6.21875 -2.08823 0
M  V30 83 H 0.4153 6.54198 -3.78894 0
M  V30 84 H 1.6833 7.2591 -2.84033 0
M  V30 85 N 5.9124 1.20967 1.01018 0
M  V30 86 C 6.8594 0.964281 2.09691 0
M  V30 87 C 7.8294 -0.107853 1.65749 0
M  V30 88 O 9.0144 0.0381987 1.90762 0
M  V30 89 C 6.1544 0.52943 3.41015 0
M  V30 90 C 5.2674 1.67043 3.98398 0
M  V30 91 C 4.4024 1.18525 5.17808 0
M  V30 92 C 3.4414 2.29892 5.67288 0
M  V30 93 N 2.5784 1.82546 6.77954 0
M  V30 94 H 7.4184 1.89463 2.30017 0
M  V30 95 H 4.9554 0.944289 1.1279 0
M  V30 96 H 6.9134 0.258588 4.16398 0
M  V30 97 H 5.5434 -0.363919 3.20742 0
M  V30 98 H 4.5954 2.05603 3.20049 0
M  V30 99 H 5.9074 2.50877 4.31117 0
M  V30 100 H 5.0614 0.870762 6.00419 0
M  V30 101 H 3.8004 0.316887 4.86669 0
M  V30 102 H 2.8054 2.6215 4.83278 0
M  V30 103 H 4.0304 3.17216 6.00459 0
M  V30 104 H 1.9764 0.980454 6.48632 0
M  V30 105 H 1.8934 2.59956 7.09901 0
M  V30 106 H 3.1614 1.54115 7.64113 0
M  V30 107 N 7.3905 -1.2043 1.01659 0
M  V30 108 C 8.3375 -2.23215 0.586822 0
M  V30 109 C 9.3075 -1.61382 -0.393085 0
M  V30 110 O 10.4925 -1.88544 -0.292525 0
M  V30 111 C 7.6325 -3.45032 -0.0687464 0
M  V30 112 C 6.7455 -4.21296 0.955724 0
M  V30 113 C 5.8805 -5.30507 0.271208 0
M  V30 114 C 4.9195 -5.98515 1.28244 0
M  V30 115 N 4.0565 -6.99316 0.62459 0
M  V30 116 H 8.8965 -2.59336 1.46796 0
M  V30 117 H 6.4335 -1.27431 0.734836 0
M  V30 118 H 8.3915 -4.1459 -0.465965 0
M  V30 119 H 7.0215 -3.09604 -0.913529 0
M  V30 120 H 6.0735 -3.50803 1.4711 0
M  V30 121 H 7.3855 -4.6803 1.72479 0
M  V30 122 H 6.5395 -6.06428 -0.18151 0
M  V30 123 H 5.2785 -4.8481 -0.530163 0
M  V30 124 H 4.2835 -5.21355 1.74554 0
M  V30 125 H 5.5085 -6.46298 2.08509 0
M  V30 126 H 3.4545 -6.55812 -0.156914 0
M  V30 127 H 3.3715 -7.44178 1.33172 0
M  V30 128 H 4.6395 -7.79255 0.195462 0
M  V30 129 N 8.8686 -0.792821 -1.36206 0
M  V30 130 C 9.8156 -0.191653 -2.30003 0
M  V30 131 C 10.7856 0.666453 -1.52143 0
M  V30 132 O 11.9706 0.61442 -1.80636 0
M  V30 133 C 9.1106 0.664848 -3.38635 0
M  V30 134 C 8.2236 -0.212175 -4.31479 0
M  V30 135 C 7.3586 0.651022 -5.27196 0
M  V30 136 C 6.3976 -0.227247 -6.11678 0
M  V30 137 N 5.5346 0.595127 -6.99573 0
M  V30 138 H 10.3746 -0.996978 -2.80828 0
M  V30 139 H 7.9116 -0.503206 -1.38225 0
M  V30 140 H 9.8696 1.17645 -4.00269 0
M  V30 141 H 8.4996 1.43557 -2.89122 0
M  V30 142 H 7.5516 -0.841777 -3.70969 0
M  V30 143 H 8.8636 -0.888751 -4.90818 0
M  V30 144 H 8.0176 1.2283 -5.94136 0
M  V30 145 H 6.7566 1.36121 -4.68319 0
M  V30 146 H 5.7616 -0.816904 -5.43697 0
M  V30 147 H 6.9866 -0.93509 -6.72631 0
M  V30 148 H 4.9326 1.28955 -6.432 0
M  V30 149 H 4.8496 -0.0236952 -7.55996 0
M  V30 150 H 6.1176 1.15613 -7.70879 0
M  V30 151 N 10.3467 1.47872 -0.545128 0
M  V30 152 C 11.2937 2.29849 0.2093 0
M  V30 153 C 12.2637 1.38313 0.919707 0
M  V30 154 O 13.4487 1.67277 0.917772 0
M  V30 155 C 10.5887 3.22019 1.24088 0
M  V30 156 C 9.7017 4.2864 0.537778 0
M  V30 157 C 8.8367 5.07973 1.5536 0
M  V30 158 C 7.8757 6.06381 0.8348 0
M  V30 159 N 7.0127 6.78717 1.79688 0
M  V30 160 H 11.8527 2.93845 -0.49591 0
M  V30 161 H 9.3897 1.44848 -0.256389 0
M  V30 162 H 11.3477 3.73868 1.85144 0
M  V30 163 H 9.9777 2.59914 1.91428 0
M  V30 164 H 9.0297 3.7994 -0.187046 0
M  V30 165 H 10.3417 4.98793 -0.0258907 0
M  V30 166 H 9.4957 5.63912 2.23803 0
M  V30 167 H 8.2347 4.37693 2.15118 0
M  V30 168 H 7.2397 5.49631 0.136388 0
M  V30 169 H 8.4647 6.78665 0.24313 0
M  V30 170 H 6.4107 6.11177 2.38326 0
M  V30 171 H 6.3277 7.44998 1.28505 0
M  V30 172 H 7.5957 7.39237 2.47282 0
M  V30 173 N 11.8248 0.280983 1.55075 0
M  V30 174 C 13.2408 -0.0729964 1.59433 0
M  V30 175 C 13.4408 -1.5411 1.29817 0
M  V30 176 O 12.4968 -2.29086 1.06187 0
M  V30 177 C 13.8098 0.306921 2.9913 0
M  V30 178 C 15.3578 0.254023 3.11968 0
M  V30 179 C 15.8328 0.608467 4.5394 0
M  V30 180 N 17.3238 0.560241 4.59799 0
M  V30 181 C 18.0588 0.80722 5.6769 0
M  V30 182 N 17.5548 1.11912 6.83701 0
M  V30 183 N 19.3478 0.735623 5.57266 0
M  V30 184 H 11.4988 1.238 1.7259 0
M  V30 185 H 13.7618 0.500547 0.805082 0
M  V30 186 H 13.4678 1.32816 3.25657 0
M  V30 187 H 13.3418 -0.349363 3.75579 0
M  V30 188 H 15.7288 -0.75794 2.852 0
M  V30 189 H 15.8098 0.944649 2.37718 0
M  V30 190 H 15.4538 1.61814 4.81434 0
M  V30 191 H 15.3838 -0.104013 5.26497 0
M  V30 192 H 17.8748 0.329288 3.76463 0
M  V30 193 H 18.1878 1.29409 7.61888 0
M  V30 194 H 16.5328 1.15695 6.85303 0
M  V30 195 H 19.7238 0.491752 4.6551 0
M  V30 196 H 19.8968 0.931482 6.4127 0
M  V30 197 N 13.3029 -1.57598 0.00835791 0
M  V30 198 C 14.7139 -1.7892 -0.53333 0
M  V30 199 C 15.0649 -0.916609 -1.73473 0
M  V30 200 O 14.1899 -0.121336 -2.1606 0
M  V30 201 C 14.7849 -3.24488 -0.974313 0
M  V30 202 C 13.3439 -3.46878 -1.46125 0
M  V30 203 C 12.4909 -2.74157 -0.416302 0
M  V30 204 H 15.4419 -1.56958 0.234495 0
M  V30 205 H 15.4629 -3.3306 -1.83988 0
M  V30 206 H 14.9749 -3.87972 -0.099718 0
M  V30 207 H 13.0759 -2.8862 -2.35646 0
M  V30 208 H 13.1889 -4.55572 -1.48295 0
M  V30 209 H 11.5529 -2.39022 -0.87981 0
M  V30 210 H 12.3359 -3.40345 0.44947 0
M  V30 211 N 14.781 0.264519 -1.55364 0
M  V30 212 C 15.691 1.34902 -1.91934 0
M  V30 213 C 16.707 1.53595 -0.817593 0
M  V30 214 O 17.883 1.67558 -1.11742 0
M  V30 215 C 14.948 2.68676 -2.19121 0
M  V30 216 C 14.009 2.58657 -3.4263 0
M  V30 217 C 13.242 3.86051 -3.68511 0
M  V30 218 O 13.465 4.87126 -2.96757 0
M  V30 219 O 12.399 3.85744 -4.62045 0
M  V30 220 H 16.225 1.06883 -2.8427 0
M  V30 221 H 13.81 0.463775 -1.42019 0
M  V30 222 H 15.692 3.47759 -2.37995 0
M  V30 223 H 14.367 2.96463 -1.29966 0
M  V30 224 H 13.274 1.7792 -3.29082 0
M  V30 225 H 14.607 2.35818 -4.32031 0
M  V30 226 N 16.2591 1.48442 0.529413 0
M  V30 227 C 17.5081 1.55742 1.28169 0
M  V30 228 C 17.8211 0.236511 1.94165 0
M  V30 229 O 19.0271 0.187761 2.7085 0
M  V30 230 C 17.4831 2.74667 2.32564 0
M  V30 231 C 17.0911 4.13402 1.72636 0
M  V30 232 C 18.8351 2.9128 3.08798 0
M  V30 233 C 16.7421 5.23587 2.74975 0
M  V30 234 H 15.6721 0.579796 0.48203 0
M  V30 235 H 18.3231 1.74776 0.559056 0
M  V30 236 H 16.7051 2.49067 3.07866 0
M  V30 237 H 17.8791 4.49022 1.03519 0
M  V30 238 H 16.1941 4.0191 1.08892 0
M  V30 239 H 18.7911 3.70767 3.85274 0
M  V30 240 H 19.1341 2.00757 3.64695 0
M  V30 241 H 19.6671 3.16782 2.40611 0
M  V30 242 H 16.4061 6.16076 2.23897 0
M  V30 243 H 15.9261 4.92454 3.42417 0
M  V30 244 H 17.6051 5.51724 3.37949 0
M  V30 245 N 17.7372 -0.778329 1.37039 0
M  V30 246 C 18.9622 -1.57248 1.35233 0
M  V30 247 C 19.3872 -1.87999 -0.0615568 0
M  V30 248 O 18.7452 -1.48734 -1.03672 0
M  V30 249 C 18.7932 -2.86353 2.19167 0
M  V30 250 O 17.8972 -3.80442 1.59178 0
M  V30 251 H 17.2382 -0.476569 0.462362 0
M  V30 252 H 19.7682 -0.963853 1.80474 0
M  V30 253 H 19.7782 -3.35519 2.32145 0
M  V30 254 H 18.4532 -2.63299 3.21942 0
M  V30 255 H 17.0302 -3.39067 1.55203 0
M  V30 256 N 19.2153 -1.21501 -1.00376 0
M  V30 257 C 20.1783 -0.976927 -2.07337 0
M  V30 258 C 21.1783 0.0525322 -1.60714 0
M  V30 259 O 22.3683 -0.184869 -1.73216 0
M  V30 260 C 19.5003 -0.473423 -3.37597 0
M  V30 261 H 20.6933 -1.92587 -2.29892 0
M  V30 262 H 18.2463 -1.03217 -1.17371 0
M  V30 263 H 18.9813 0.480379 -3.20722 0
M  V30 264 H 18.7663 -1.216 -3.72768 0
M  V30 265 H 20.2563 -0.32675 -4.1632 0
M  V30 266 N 20.6934 1.19889 -1.02296 0
M  V30 267 C 22.1044 1.71124 -0.746568 0
M  V30 268 C 22.4554 1.81939 0.734335 0
M  V30 269 O 21.5804 1.48639 1.57275 0
M  V30 270 C 22.1754 3.10804 -1.34857 0
M  V30 271 C 20.7344 3.59323 -1.1209 0
M  V30 272 C 19.8814 2.3635 -1.45031 0
M  V30 273 H 22.8324 1.04813 -1.19163 0
M  V30 274 H 22.8534 3.73186 -0.742437 0
M  V30 275 H 22.3654 3.029 -2.42638 0
M  V30 276 H 20.4664 3.7255 -0.0610337 0
M  V30 277 H 20.5794 4.4378 -1.80544 0
M  V30 278 H 18.9434 2.39399 -0.869487 0
M  V30 279 H 19.7264 2.31081 -2.53883 0
M  V30 280 N 22.1715 0.800033 1.35784 0
M  V30 281 C 23.1035 0.163596 2.28615 0
M  V30 282 C 24.1165 -0.633317 1.49976 0
M  V30 283 O 25.3055 -0.466754 1.72289 0
M  V30 284 C 22.4055 -0.790958 3.29541 0
M  V30 285 C 21.5785 -0.0418255 4.3738 0
M  V30 286 C 20.6375 -0.91389 5.18203 0
M  V30 287 O 19.6635 -0.367234 5.68014 0
M  V30 288 N 20.8655 -2.23682 5.35674 0
M  V30 289 H 23.6305 0.96105 2.83873 0
M  V30 290 H 21.1915 0.654894 1.48063 0
M  V30 291 H 23.1835 -1.37844 3.80501 0
M  V30 292 H 21.7535 -1.48925 2.74846 0
M  V30 293 H 20.9735 0.726813 3.87442 0
M  V30 294 H 22.2615 0.474719 5.06581 0
M  V30 295 H 21.6595 -2.70497 4.96838 0
M  V30 296 H 20.2165 -2.77369 5.89839 0
M  V30 297 N 23.6496 -1.47581 0.552962 0
M  V30 298 C 24.5976 -2.31648 -0.21023 0
M  V30 299 C 25.5916 -1.42663 -0.913432 0
M  V30 300 O 26.7976 -1.5945 -0.835201 0
M  V30 301 H 23.1726 -0.746989 -0.0866676 0
M  V30 302 H 25.1436 -2.93869 0.518051 0
M  V30 303 C 23.8926 -3.25226 -1.22976 0
M  V30 304 H 23.2156 -3.93658 -0.698077 0
M  V30 305 H 24.6556 -3.86889 -1.73473 0
M  V30 306 C 23.1146 -2.48448 -2.27542 0
M  V30 307 O 23.6446 -2.22585 -3.34393 0
M  V30 308 N 21.8506 -2.09532 -2.01357 0
M  V30 309 H 21.3976 -2.30765 -1.14478 0
M  V30 310 H 21.3556 -1.58476 -2.71538 0
M  V30 311 N 25.1277 -0.289203 -1.54924 0
M  V30 312 C 26.3747 0.323519 -1.99899 0
M  V30 313 C 26.7027 1.54797 -1.17762 0
M  V30 314 O 25.9577 1.94237 -0.238835 0
M  V30 315 C 26.2567 0.736119 -3.49737 0
M  V30 316 C 25.9227 -0.385276 -4.49251 0
M  V30 317 C 24.5847 -0.693156 -4.76181 0
M  V30 318 C 26.9367 -1.14021 -5.08575 0
M  V30 319 C 24.2647 -1.7593 -5.59701 0
M  V30 320 C 26.6167 -2.19619 -5.93254 0
M  V30 321 C 25.2807 -2.51026 -6.185 0
M  V30 322 H 24.5507 0.118384 -0.731482 0
M  V30 323 H 27.1977 -0.405847 -1.8715 0
M  V30 324 H 25.5027 1.54539 -3.60035 0
M  V30 325 H 27.1997 1.22118 -3.81953 0
M  V30 326 H 23.7897 -0.135202 -4.28387 0
M  V30 327 H 27.9737 -0.915611 -4.87781 0
M  V30 328 H 23.2297 -2.0075 -5.77503 0
M  V30 329 H 27.4037 -2.78581 -6.38252 0
M  V30 330 H 25.0307 -3.33772 -6.83008 0
M  V30 331 N 26.6058 1.57591 -0.0167156 0
M  V30 332 C 27.5378 2.06343 0.997753 0
M  V30 333 C 28.5508 0.984469 1.29661 0
M  V30 334 O 29.7398 1.26093 1.26344 0
M  V30 335 C 26.8398 2.46255 2.32834 0
M  V30 336 C 26.0128 3.77083 2.21646 0
M  V30 337 C 25.0718 4.0368 3.37534 0
M  V30 338 O 24.0978 4.7411 3.14973 0
M  V30 339 N 25.2998 3.52881 4.60929 0
M  V30 340 H 28.0648 2.93997 0.581875 0
M  V30 341 H 25.6258 1.61002 0.170316 0
M  V30 342 H 27.6178 2.61149 3.09166 0
M  V30 343 H 26.1878 1.64032 2.66106 0
M  V30 344 H 25.4078 3.72106 1.30119 0
M  V30 345 H 26.6958 4.62822 2.11361 0
M  V30 346 H 26.0938 2.95878 4.82154 0
M  V30 347 H 24.6508 3.73076 5.34469 0
M  V30 348 N 28.0839 -0.256276 1.55502 0
M  V30 349 C 29.0339 -1.31981 1.85916 0
M  V30 350 C 30.0179 -1.43927 0.719296 0
M  V30 351 O 31.2099 -1.47326 0.981019 0
M  V30 352 C 28.3389 -2.67703 2.14918 0
M  V30 353 C 27.4249 -2.59801 3.35208 0
M  V30 354 N 27.8159 -2.21524 4.54709 0
M  V30 355 C 26.1139 -2.90832 3.38131 0
M  V30 356 C 26.8149 -2.24024 5.36832 0
M  V30 357 N 25.7909 -2.63158 4.75656 0
M  V30 358 H 29.5929 -1.01423 2.75845 0
M  V30 359 H 27.1069 -0.464911 1.55603 0
M  V30 360 H 29.1039 -3.44445 2.34869 0
M  V30 361 H 27.7639 -2.99137 1.26282 0
M  V30 362 H 28.7749 -1.93223 4.80505 0
M  V30 363 H 25.4519 -3.26867 2.59739 0
M  V30 364 H 26.8419 -1.9685 6.42417 0
M  V30 365 N 29.562 -1.4872 -0.521534 0
M  V30 366 C 30.978 -1.35028 -0.850855 0
M  V30 367 C 31.178 -0.367712 -1.98116 0
M  V30 368 O 30.234 0.208037 -2.51642 0
M  V30 369 C 31.547 -2.75263 -1.21041 0
M  V30 370 C 33.095 -2.83813 -1.31981 0
M  V30 371 C 33.57 -4.24769 -1.71276 0
M  V30 372 N 35.061 -4.27482 -1.78363 0
M  V30 373 C 35.796 -5.33494 -2.1017 0
M  V30 374 N 35.292 -6.49775 -2.40343 0
M  V30 375 N 37.085 -5.20894 -2.11248 0
M  V30 376 H 29.236 -2.11214 0.22413 0
M  V30 377 H 31.499 -0.947252 0.0376439 0
M  V30 378 H 31.205 -3.48765 -0.453415 0
M  V30 379 H 31.079 -3.09327 -2.15863 0
M  V30 380 H 33.466 -2.10561 -2.06756 0
M  V30 381 H 33.547 -2.53358 -0.352596 0
M  V30 382 H 33.191 -4.9854 -0.970588 0
M  V30 383 H 33.121 -4.52673 -2.69062 0
M  V30 384 H 35.612 -3.43611 -1.57288 0
M  V30 385 H 35.925 -7.26402 -2.63743 0
M  V30 386 H 34.27 -6.53035 -2.37844 0
M  V30 387 H 37.461 -4.29065 -1.87139 0
M  V30 388 H 37.634 -6.03612 -2.35704 0
M  V30 389 N 31.0401 0.771051 -1.3745 0
M  V30 390 C 32.2861 1.5319 -1.32894 0
M  V30 391 C 32.6191 1.94008 0.0862511 0
M  V30 392 O 31.8941 1.64124 1.04373 0
M  V30 393 C 32.1771 2.79648 -2.26868 0
M  V30 394 C 32.0301 2.45079 -3.77169 0
M  V30 395 C 33.3491 3.81583 -2.19277 0
M  V30 396 H 30.4681 0.555744 -0.484064 0
M  V30 397 H 33.1101 0.884492 -1.68157 0
M  V30 398 H 31.2601 3.34891 -1.96926 0
M  V30 399 H 32.9321 1.95745 -4.1771 0
M  V30 400 H 31.1751 1.77767 -3.95704 0
M  V30 401 H 31.8461 3.35478 -4.38359 0
M  V30 402 H 34.3221 3.35835 -2.45671 0
M  V30 403 H 33.1981 4.67787 -2.87171 0
M  V30 404 H 33.4591 4.25897 -1.18592 0
M  V30 405 N 32.5182 1.22032 0.997298 0
M  V30 406 C 33.4682 0.953838 2.07089 0
M  V30 407 C 34.4522 -0.0938669 1.60626 0
M  V30 408 O 35.6442 0.116078 1.76619 0
M  V30 409 C 32.7732 0.528726 3.39204 0
M  V30 410 C 31.8592 1.61092 3.92314 0
M  V30 411 N 32.2502 2.83768 4.18699 0
M  V30 412 C 30.5482 1.48158 4.20672 0
M  V30 413 C 31.2492 3.53715 4.61802 0
M  V30 414 N 30.2252 2.81174 4.65233 0
M  V30 415 H 34.0272 1.88577 2.25424 0
M  V30 416 H 31.5412 1.11719 1.17867 0
M  V30 417 H 33.5382 0.31915 4.15677 0
M  V30 418 H 32.1982 -0.39635 3.22272 0
M  V30 419 H 33.2092 3.20238 4.07023 0
M  V30 420 H 29.8862 0.622369 4.12835 0
M  V30 421 H 31.2762 4.58793 4.90875 0
M  V30 422 N 33.9963 -1.19345 1.0293 0
M  V30 423 C 35.2243 -1.92997 0.745644 0
M  V30 424 C 35.6393 -1.75519 -0.695589 0
M  V30 425 O 34.9963 -1.07737 -1.47306 0
M  V30 426 C 35.0473 -3.44741 1.08792 0
M  V30 427 O 34.7683 -3.61658 2.47256 0
M  V30 428 C 36.2693 -4.35515 0.827129 0
M  V30 429 H 33.4893 -0.613042 0.272801 0
M  V30 430 H 36.0333 -1.51473 1.3739 0
M  V30 431 H 34.1883 -3.84097 0.504832 0
M  V30 432 H 34.6023 -4.55514 2.60015 0
M  V30 433 H 36.0763 -5.40589 1.11658 0
M  V30 434 H 36.5533 -4.38552 -0.238436 0
M  V30 435 H 37.1593 -4.01841 1.39297 0
M  V30 436 N 35.4744 -0.807222 -1.35358 0
M  V30 437 C 36.6994 -0.399309 -2.0352 0
M  V30 438 C 37.1244 0.981986 -1.60433 0
M  V30 439 O 36.4824 1.63601 -0.781299 0
M  V30 440 C 36.5304 -0.491552 -3.57234 0
M  V30 441 O 35.6344 0.494754 -4.09421 0
M  V30 442 H 34.9754 -0.166682 -0.642739 0
M  V30 443 H 37.5054 -1.09328 -1.72941 0
M  V30 444 H 37.5154 -0.361588 -4.06395 0
M  V30 445 H 36.1904 -1.49907 -3.87944 0
M  V30 446 H 34.7674 0.324977 -3.71481 0
M  V30 447 N 36.9525 1.47285 -0.560781 0
M  V30 448 C 38.1995 2.02464 -0.038062 0
M  V30 449 C 38.5275 1.43474 1.31322 0
M  V30 450 O 37.7825 0.581311 1.86867 0
M  V30 451 C 38.0815 3.57258 0.100784 0
M  V30 452 C 37.7475 4.35184 -1.18007 0
M  V30 453 C 36.4095 4.56194 -1.53103 0
M  V30 454 C 38.7615 4.80098 -2.02867 0
M  V30 455 C 36.0895 5.19367 -2.729 0
M  V30 456 C 38.4415 5.44593 -3.21871 0
M  V30 457 C 37.1055 5.63835 -3.57276 0
M  V30 458 H 36.3755 0.740869 -0.0139279 0
M  V30 459 H 39.0225 1.76916 -0.733012 0
M  V30 460 H 37.3275 3.81819 0.878724 0
M  V30 461 H 39.0245 3.97606 0.520639 0
M  V30 462 H 35.6145 4.19113 -0.8968 0
M  V30 463 H 39.7985 4.63642 -1.7706 0
M  V30 464 H 35.0545 5.32459 -3.00496 0
M  V30 465 H 39.2285 5.78358 -3.87911 0
M  V30 466 H 36.8555 6.12557 -4.50197 0
M  V30 467 N 38.4306 0.297415 1.54768 0
M  V30 468 C 39.7076 -0.365847 1.92148 0
M  V30 469 C 40.0876 -1.71975 1.22424 0
M  V30 470 O 39.4356 -2.25666 0.358739 0
M  V30 471 C 39.6456 -0.484056 3.45627 0
M  V30 472 C 40.9936 -0.756594 4.17805 0
M  V30 473 O 42.0176 -0.568007 3.51642 0
M  V30 474 O 40.8766 -1.11863 5.34929 0
M  V30 475 H 37.9706 -0.203919 0.801465 0
M  V30 476 H 40.5166 0.34521 1.66152 0
M  V30 477 H 39.2886 0.467865 3.88493 0
M  V30 478 H 38.9116 -1.24372 3.77647 0
M  V30 479 N 39.9087 -1.5758 0.0250728 0
M  V30 480 C 41.3197 -1.79476 -0.514323 0
M  V30 481 C 41.6707 -0.934956 -1.72491 0
M  V30 482 O 40.7957 -0.144245 -2.15919 0
M  V30 483 C 41.3907 -3.25503 -0.939842 0
M  V30 484 C 39.9497 -3.48408 -1.42438 0
M  V30 485 C 39.0967 -2.74583 -0.387201 0
M  V30 486 H 42.0477 -1.567 0.25113 0
M  V30 487 H 42.0687 -3.34992 -1.80445 0
M  V30 488 H 41.5807 -3.88056 -0.0585628 0
M  V30 489 H 39.6817 -2.91103 -2.32572 0
M  V30 490 H 39.7947 -4.57119 -1.43455 0
M  V30 491 H 38.1587 -2.39942 -0.854409 0
M  V30 492 H 38.9417 -3.39849 0.485543 0
M  V30 493 N 41.3868 0.248026 -1.55636 0
M  V30 494 C 42.3338 1.30707 -1.90222 0
M  V30 495 C 43.3038 1.47881 -0.756332 0
M  V30 496 O 44.4888 1.61883 -1.00988 0
M  V30 497 C 41.6288 2.65769 -2.20138 0
M  V30 498 C 40.7418 2.56612 -3.47526 0
M  V30 499 C 39.8768 3.8402 -3.67017 0
M  V30 500 C 38.9158 3.69476 -4.8801 0
M  V30 501 N 38.0528 4.88774 -5.04029 0
M  V30 502 H 42.8928 1.00512 -2.80538 0
M  V30 503 H 40.4298 0.485055 -1.38873 0
M  V30 504 H 42.3878 3.44386 -2.35487 0
M  V30 505 H 41.0178 2.94115 -1.33027 0
M  V30 506 H 40.0698 1.69571 -3.40514 0
M  V30 507 H 41.3818 2.41774 -4.36287 0
M  V30 508 H 40.5358 4.7108 -3.8232 0
M  V30 509 H 39.2748 4.01754 -2.76487 0
M  V30 510 H 38.2798 2.80799 -4.72686 0
M  V30 511 H 39.5048 3.53238 -5.8 0
M  V30 512 H 37.4508 5.0687 -4.16435 0
M  V30 513 H 37.3678 4.76562 -5.86877 0
M  V30 514 H 38.6358 5.77335 -5.23741 0
M  V30 515 N 42.8649 1.48995 0.513639 0
M  V30 516 C 43.7749 1.67443 1.64317 0
M  V30 517 C 44.7909 0.556947 1.64846 0
M  V30 518 O 45.9669 0.830082 1.83498 0
M  V30 519 C 43.0319 1.72515 3.00732 0
M  V30 520 C 42.0929 2.96009 3.1093 0
M  V30 521 C 41.3259 3.00829 4.40837 0
M  V30 522 O 41.5489 2.13594 5.28898 0
M  V30 523 O 40.4829 3.93168 4.55744 0
M  V30 524 H 44.3089 2.63106 1.51687 0
M  V30 525 H 41.8939 1.32588 0.688543 0
M  V30 526 H 43.7759 1.78277 3.81831 0
M  V30 527 H 42.4509 0.800278 3.13651 0
M  V30 528 H 41.3579 2.9577 2.29065 0
M  V30 529 H 42.6909 3.87934 3.02933 0
M  V30 530 N 44.343 -0.763751 1.37857 0
M  V30 531 C 45.591 -1.51957 1.33243 0
M  V30 532 C 45.912 -1.94835 -0.0801709 0
M  V30 533 O 45.182 -1.66894 -1.02582 0
M  V30 534 H 43.762 -0.563626 0.49024 0
M  V30 535 H 46.424 -0.908504 1.7243 0
M  V30 536 H 45.52 -2.41523 1.97669 0
M  V30 537 N 45.8211 -1.22559 -0.990812 0
M  V30 538 C 46.7681 -0.997519 -2.0813 0
M  V30 539 C 47.7381 0.0814702 -1.659 0
M  V30 540 O 48.9231 -0.0685424 -1.90677 0
M  V30 541 C 46.0631 -0.583615 -3.40129 0
M  V30 542 C 45.1761 -1.7336 -3.9569 0
M  V30 543 C 44.3111 -1.26748 -5.15857 0
M  V30 544 C 43.3501 -2.38888 -5.63559 0
M  V30 545 N 42.4871 -1.93308 -6.74964 0
M  V30 546 H 47.3271 -1.93099 -2.26973 0
M  V30 547 H 44.8641 -0.962114 -1.11273 0
M  V30 548 H 46.8221 -0.324801 -4.15934 0
M  V30 549 H 45.4521 0.312845 -3.2128 0
M  V30 550 H 44.5041 -2.10669 -3.16738 0
M  V30 551 H 45.8161 -2.57704 -4.27071 0
M  V30 552 H 44.9701 -0.966173 -5.98957 0
M  V30 553 H 43.7091 -0.394272 -4.86104 0
M  V30 554 H 42.7141 -2.69805 -4.79046 0
M  V30 555 H 43.9391 -3.26728 -5.95336 0
M  V30 556 H 41.8851 -1.08352 -6.4699 0
M  V30 557 H 41.8021 -2.71217 -7.05675 0
M  V30 558 H 43.0701 -1.66252 -7.61564 0
M  V30 559 N 47.2992 1.18797 -1.03562 0
M  V30 560 C 48.5462 1.8865 -0.736023 0
M  V30 561 C 48.8742 1.80041 0.735889 0
M  V30 562 O 48.1292 1.19179 1.55225 0
M  V30 563 C 48.4282 3.38692 -1.14117 0
M  V30 564 C 48.0942 3.67504 -2.6125 0
M  V30 565 C 46.7562 3.75078 -3.01447 0
M  V30 566 C 49.1082 3.80293 -3.56408 0
M  V30 567 C 46.4362 3.92915 -4.35701 0
M  V30 568 C 48.7882 3.99645 -4.90374 0
M  V30 569 C 47.4522 4.05453 -5.30249 0
M  V30 570 H 46.7222 0.690321 -0.26933 0
M  V30 571 H 49.3692 1.40641 -1.29971 0
M  V30 572 H 47.6742 3.88645 -0.496202 0
M  V30 573 H 49.3712 3.91072 -0.886789 0
M  V30 574 H 45.9612 3.62223 -2.29113 0
M  V30 575 H 50.1452 3.73779 -3.26501 0
M  V30 576 H 45.4012 3.95653 -4.66121 0
M  V30 577 H 49.5752 4.08482 -5.64017 0
M  V30 578 H 47.2022 4.19027 -6.34288 0
M  V30 579 N 48.7773 0.814389 1.34928 0
M  V30 580 C 50.0233 0.399013 1.98836 0
M  V30 581 C 50.3563 -1.03314 1.64438 0
M  V30 582 O 49.6313 -1.71811 0.911659 0
M  V30 583 C 49.9143 0.591629 3.55207 0
M  V30 584 C 49.7673 2.06928 3.99376 0
M  V30 585 C 51.0863 0.022199 4.40094 0
M  V30 586 H 48.2053 0.146451 0.722303 0
M  V30 587 H 50.8473 1.02537 1.59957 0
M  V30 588 H 48.9973 0.0584441 3.88456 0
M  V30 589 H 50.6693 2.66544 3.76499 0
M  V30 590 H 48.9123 2.56287 3.49999 0
M  V30 591 H 49.5833 2.1549 5.08201 0
M  V30 592 H 52.0593 0.477643 4.13349 0
M  V30 593 H 50.9353 0.186832 5.48582 0
M  V30 594 H 51.1963 -1.07215 4.28902 0
M  V30 595 N 50.2554 -1.46986 0.568584 0
M  V30 596 C 51.5034 -2.02041 0.0487022 0
M  V30 597 C 51.8244 -1.44408 -1.31039 0
M  V30 598 O 51.0944 -0.623477 -1.85714 0
M  V30 599 H 49.6744 -0.746849 0.015014 0
M  V30 600 H 52.3364 -1.80257 0.741168 0
M  V30 601 H 51.4324 -3.12085 -0.0308961 0
M  V30 602 N 51.7335 -0.305618 -1.54608 0
M  V30 603 C 52.6635 0.561482 -2.26649 0
M  V30 604 C 53.6445 1.13415 -1.26772 0
M  V30 605 O 54.8295 1.16262 -1.55553 0
M  V30 606 C 51.9595 1.73122 -3.01075 0
M  V30 607 C 50.9135 1.2887 -4.08138 0
M  V30 608 C 50.2395 2.54396 -4.70305 0
M  V30 609 C 51.5395 0.416578 -5.20636 0
M  V30 610 H 53.2335 -0.0393902 -2.99374 0
M  V30 611 H 50.7795 -0.020385 -1.43986 0
M  V30 612 H 52.7325 2.34396 -3.50195 0
M  V30 613 H 51.4565 2.3584 -2.25936 0
M  V30 614 H 50.1155 0.698991 -3.59875 0
M  V30 615 H 49.7635 3.15439 -3.918 0
M  V30 616 H 49.4635 2.25486 -5.42614 0
M  V30 617 H 50.9875 3.16464 -5.2219 0
M  V30 618 H 52.4015 0.935116 -5.65622 0
M  V30 619 H 50.7985 0.221046 -5.99693 0
M  V30 620 H 51.8685 -0.557162 -4.81688 0
M  V30 621 N 53.2116 1.57565 -0.0334293 0
M  V30 622 C 54.6226 1.79746 0.504798 0
M  V30 623 C 54.9736 0.944091 1.71992 0
M  V30 624 O 54.0986 0.155694 2.15839 0
M  V30 625 C 54.6936 3.25997 0.922567 0
M  V30 626 C 53.2526 3.49159 1.40588 0
M  V30 627 C 52.3996 2.74785 0.372633 0
M  V30 628 H 55.3506 1.56565 -0.259436 0
M  V30 629 H 55.3716 3.35945 1.78666 0
M  V30 630 H 54.8836 3.88081 0.0379825 0
M  V30 631 H 52.9846 2.92332 2.31025 0
M  V30 632 H 53.0976 4.57873 1.41028 0
M  V30 633 H 51.4616 2.40391 0.841672 0
M  V30 634 H 52.2446 3.39587 -0.503559 0
M  V30 635 N 54.6897 -0.239769 1.55765 0
M  V30 636 C 56.1007 -0.808263 1.68297 0
M  V30 637 C 56.4517 -1.85736 0.632181 0
M  V30 638 O 55.5767 -2.15277 -0.220204 0
M  V30 639 C 56.1717 -1.47284 3.05111 0
M  V30 640 C 54.7307 -1.98895 3.19559 0
M  V30 641 C 53.8777 -0.842575 2.64189 0
M  V30 642 H 56.8287 -0.0154422 1.58692 0
M  V30 643 H 56.8497 -2.34111 2.99954 0
M  V30 644 H 56.3617 -0.709053 3.81568 0
M  V30 645 H 54.4627 -2.78132 2.47938 0
M  V30 646 H 54.5757 -2.18143 4.26556 0
M  V30 647 H 52.9397 -1.24501 2.22197 0
M  V30 648 H 53.7227 -0.0917552 3.43177 0
M  V30 649 N 56.1678 -1.49265 -0.50573 0
M  V30 650 C 57.0998 -1.617 -1.62437 0
M  V30 651 C 58.1128 -0.499924 -1.54934 0
M  V30 652 O 59.3018 -0.771785 -1.60953 0
M  V30 653 C 56.4018 -1.5533 -3.01207 0
M  V30 654 C 55.5748 -2.8249 -3.33943 0
M  V30 655 C 54.6338 -2.69238 -4.52103 0
M  V30 656 O 53.6598 -3.43167 -4.5412 0
M  V30 657 N 54.8618 -1.80468 -5.51735 0
M  V30 658 H 57.6268 -2.58177 -1.52199 0
M  V30 659 H 55.1878 -1.46294 -0.693511 0
M  V30 660 H 57.1798 -1.44125 -3.78167 0
M  V30 661 H 55.7498 -0.667297 -3.05395 0
M  V30 662 H 54.9698 -3.08081 -2.45926 0
M  V30 663 H 56.2578 -3.66802 -3.5261 0
M  V30 664 H 55.6558 -1.19653 -5.52901 0
M  V30 665 H 54.2128 -1.75188 -6.27816 0
M  V30 666 N 57.6459 0.756429 -1.3826 0
M  V30 667 C 58.8919 1.5168 -1.35517 0
M  V30 668 C 59.2469 1.9232 0.0554451 0
M  V30 669 O 58.5399 1.62352 1.01746 0
M  V30 670 C 58.7339 2.78313 -2.24224 0
M  V30 671 C 58.5629 2.50053 -3.7377 0
M  V30 672 C 57.3329 2.43414 -4.42807 0
M  V30 673 C 59.5309 2.1702 -4.66269 0
M  V30 674 N 57.5129 2.07398 -5.77805 0
M  V30 675 C 58.8839 1.91271 -5.89759 0
M  V30 676 C 60.9389 2.03305 -4.54501 0
M  V30 677 C 59.6419 1.53192 -7.02798 0
M  V30 678 C 61.6679 1.66627 -5.67441 0
M  V30 679 C 61.0299 1.4175 -6.8999 0
M  V30 680 H 57.1289 0.554735 -0.551174 0
M  V30 681 H 59.7129 0.881106 -1.73622 0
M  V30 682 H 57.8839 3.39696 -1.88311 0
M  V30 683 H 59.6159 3.44343 -2.12627 0
M  V30 684 H 56.3709 2.59789 -3.95988 0
M  V30 685 H 56.7949 1.92044 -6.4919 0
M  V30 686 H 61.4369 2.21215 -3.60311 0
M  V30 687 H 59.1549 1.34022 -7.96909 0
M  V30 688 H 62.7409 1.56652 -5.60314 0
M  V30 689 H 61.6209 1.1379 -7.759 0
M  V30 690 N 59.124 1.23083 0.984299 0
M  V30 691 C 60.056 0.96636 2.07832 0
M  V30 692 C 61.069 -0.0582135 1.62696 0
M  V30 693 O 62.258 0.176843 1.77622 0
M  V30 694 C 59.358 0.433397 3.36117 0
M  V30 695 C 58.531 1.51722 4.10243 0
M  V30 696 C 57.59 0.989821 5.16807 0
M  V30 697 O 56.616 1.67794 5.43906 0
M  V30 698 N 57.818 -0.184367 5.80207 0
M  V30 699 H 60.583 1.90824 2.31098 0
M  V30 700 H 58.144 1.13888 1.1507 0
M  V30 701 H 60.136 0.065699 4.04647 0
M  V30 702 H 58.706 -0.413806 3.09849 0
M  V30 703 H 57.926 2.05786 3.36223 0
M  V30 704 H 59.214 2.24619 4.56534 0
M  V30 705 H 58.612 -0.760062 5.60571 0
M  V30 706 H 57.169 -0.493366 6.4993 0
M  V30 707 N 60.6021 -1.18246 1.0419 0
M  V30 708 C 61.5501 -2.23968 0.627792 0
M  V30 709 C 62.5441 -1.65828 -0.346019 0
M  V30 710 O 63.7501 -1.78733 -0.213175 0
M  V30 711 H 60.1251 -0.728939 0.184802 0
M  V30 712 H 62.0961 -2.56202 1.52981 0
M  V30 713 C 60.8451 -3.47699 0.00796591 0
M  V30 714 H 60.1681 -3.92734 0.748347 0
M  V30 715 H 61.6081 -4.23294 -0.24455 0
M  V30 716 C 60.0671 -3.13153 -1.24246 0
M  V30 717 O 60.5971 -3.27003 -2.33307 0
M  V30 718 N 58.8031 -2.67467 -1.13622 0
M  V30 719 H 58.3501 -2.56396 -0.248734 0
M  V30 720 H 58.3081 -2.44724 -1.97377 0
M  V30 721 N 62.0802 -0.821533 -1.34494 0
M  V30 722 C 63.3292 -0.405355 -1.97585 0
M  V30 723 C 63.6422 1.03677 -1.65863 0
M  V30 724 O 64.8482 1.55679 -2.22433 0
M  V30 725 C 63.3042 -0.673861 -3.53535 0
M  V30 726 C 62.9122 -2.12951 -3.94152 0
M  V30 727 C 64.6562 -0.32378 -4.23263 0
M  V30 728 C 62.5632 -2.34298 -5.43009 0
M  V30 729 H 61.4932 -0.147836 -0.739365 0
M  V30 730 H 64.1442 -1.00769 -1.53355 0
M  V30 731 H 62.5262 -0.00137554 -3.96 0
M  V30 732 H 63.7002 -2.84104 -3.62797 0
M  V30 733 H 62.0152 -2.44089 -3.37356 0
M  V30 734 H 64.6122 -0.461126 -5.32708 0
M  V30 735 H 64.9552 0.731586 -4.09821 0
M  V30 736 H 65.4882 -0.950786 -3.8627 0
M  V30 737 H 62.2272 -3.38335 -5.61435 0
M  V30 738 H 61.7472 -1.67687 -5.75883 0
M  V30 739 H 63.4262 -2.16588 -6.09671 0
M  V30 740 N 63.5583 1.46682 -0.576371 0
M  V30 741 C 64.4883 2.33028 0.148397 0
M  V30 742 C 65.4693 1.44961 0.889956 0
M  V30 743 O 66.6543 1.73789 0.866662 0
M  V30 744 C 63.7843 3.27117 1.1667 0
M  V30 745 C 62.7383 4.24575 0.540386 0
M  V30 746 C 62.0643 5.08126 1.6647 0
M  V30 747 C 63.3643 5.19722 -0.518331 0
M  V30 748 H 65.0583 2.93875 -0.572509 0
M  V30 749 H 62.6043 1.41315 -0.276768 0
M  V30 750 H 64.5573 3.86374 1.68204 0
M  V30 751 H 63.2813 2.64364 1.9178 0
M  V30 752 H 61.9403 3.66571 0.0461769 0
M  V30 753 H 61.5883 4.41762 2.40531 0
M  V30 754 H 61.2883 5.74122 1.25131 0
M  V30 755 H 62.8123 5.70246 2.18293 0
M  V30 756 H 64.2263 5.73232 -0.0883058 0
M  V30 757 H 62.6233 5.94026 -0.851679 0
M  V30 758 H 63.6933 4.64037 -1.40703 0
M  V30 759 N 65.0364 0.313813 1.54444 0
M  V30 760 C 66.3134 -0.345447 1.92525 0
M  V30 761 C 66.6934 -1.70667 1.24242 0
M  V30 762 O 66.0414 -2.25273 0.382654 0
M  V30 763 C 66.2514 -0.44737 3.46121 0
M  V30 764 C 67.5994 -0.712238 4.18584 0
M  V30 765 O 68.6234 -0.530678 3.52225 0
M  V30 766 O 67.4824 -1.06183 5.36085 0
M  V30 767 H 64.5764 -0.195407 0.803583 0
M  V30 768 H 67.1224 0.362813 1.65776 0
M  V30 769 H 65.8944 0.509043 3.87975 0
M  V30 770 H 65.5174 -1.20359 3.78945 0
M  V30 771 N 66.5145 -1.57545 0.0417849 0
M  V30 772 C 67.7425 -1.96624 -0.643928 0
M  V30 773 C 68.1575 -0.918897 -1.64929 0
M  V30 774 O 67.5145 0.0979323 -1.82237 0
M  V30 775 C 67.5655 -3.35781 -1.33914 0
M  V30 776 O 67.2865 -4.365 -0.374048 0
M  V30 777 C 68.7875 -3.89566 -2.1155 0
M  V30 778 H 66.0075 -0.647316 -0.176702 0
M  V30 779 H 68.5515 -2.04229 0.105304 0
M  V30 780 H 66.7065 -3.29357 -2.03968 0
M  V30 781 H 67.1205 -5.17248 -0.869179 0
M  V30 782 H 68.5945 -4.89242 -2.55628 0
M  V30 783 H 69.0715 -3.24488 -2.9598 0
M  V30 784 H 69.6775 -3.99298 -1.46427 0
M  V30 785 N 67.9926 0.231505 -1.5589 0
M  V30 786 C 68.9226 1.29022 -1.94617 0
M  V30 787 C 69.9036 1.4941 -0.813067 0
M  V30 788 O 71.0886 1.6176 -1.07459 0
M  V30 789 C 68.2186 2.64199 -2.25424 0
M  V30 790 C 67.1726 2.58484 -3.41131 0
M  V30 791 C 66.4986 3.97599 -3.57518 0
M  V30 792 C 67.7986 2.1413 -4.76388 0
M  V30 793 H 69.4926 0.968563 -2.83301 0
M  V30 794 H 67.0386 0.464479 -1.36303 0
M  V30 795 H 68.9916 3.38413 -2.51107 0
M  V30 796 H 67.7156 2.98032 -1.33583 0
M  V30 797 H 66.3746 1.86727 -3.15481 0
M  V30 798 H 66.0226 4.28723 -2.6307 0
M  V30 799 H 65.7226 3.94659 -4.35337 0
M  V30 800 H 67.2466 4.7349 -3.85538 0
M  V30 801 H 68.6606 2.78083 -5.01341 0
M  V30 802 H 67.0576 2.2227 -5.57419 0
M  V30 803 H 68.1276 1.09331 -4.72414 0
M  V30 804 N 69.4707 1.49531 0.497807 0
M  V30 805 C 70.8867 1.36365 0.829266 0
M  V30 806 C 71.0867 0.399184 1.97506 0
M  V30 807 O 70.1427 -0.167977 2.51941 0
M  V30 808 C 71.4557 2.77153 1.16647 0
M  V30 809 C 73.0037 2.85877 1.27449 0
M  V30 810 C 73.4787 4.2744 1.64497 0
M  V30 811 N 74.9697 4.30265 1.7154 0
M  V30 812 C 75.7047 5.3677 2.01656 0
M  V30 813 N 75.2007 6.53516 2.29976 0
M  V30 814 N 76.9937 5.24189 2.02934 0
M  V30 815 H 69.1447 2.10831 -0.257703 0
M  V30 816 H 71.4077 0.946534 -0.0527091 0
M  V30 817 H 71.1137 3.49442 0.397872 0
M  V30 818 H 70.9877 3.12722 2.10915 0
M  V30 819 H 73.3747 2.13824 2.0338 0
M  V30 820 H 73.4557 2.53887 0.312244 0
M  V30 821 H 73.0997 5.00021 0.891151 0
M  V30 822 H 73.0297 4.56896 2.61827 0
M  V30 823 H 75.5207 3.4607 1.51802 0
M  V30 824 H 75.8337 7.30506 2.52153 0
M  V30 825 H 74.1787 6.56737 2.27425 0
M  V30 826 H 77.3697 4.31988 1.80289 0
M  V30 827 H 77.5427 6.07286 2.26071 0
M  V30 828 N 70.9488 -0.749086 1.3866 0
M  V30 829 C 72.3648 -1.05276 1.19955 0
M  V30 830 C 72.5648 -2.01435 0.05134 0
M  V30 831 O 71.6208 -2.45232 -0.60147 0
M  V30 832 C 72.9338 -1.62853 2.52783 0
M  V30 833 C 74.4818 -1.75002 2.59506 0
M  V30 834 C 74.9568 -2.35991 3.92521 0
M  V30 835 N 76.4478 -2.43416 3.94085 0
M  V30 836 C 77.1828 -2.91511 4.9377 0
M  V30 837 N 76.6788 -3.39608 6.03853 0
M  V30 838 N 78.4718 -2.90592 4.81157 0
M  V30 839 H 70.6228 -0.111066 2.12109 0
M  V30 840 H 72.8858 -0.111901 0.941373 0
M  V30 841 H 72.5918 -0.99664 3.37283 0
M  V30 842 H 72.4658 -2.61854 2.715 0
M  V30 843 H 74.8528 -2.37317 1.75398 0
M  V30 844 H 74.9338 -0.74693 2.44652 0
M  V30 845 H 74.5778 -1.74308 4.77053 0
M  V30 846 H 74.5078 -3.3695 4.04688 0
M  V30 847 H 76.9988 -2.09405 3.14576 0
M  V30 848 H 77.3118 -3.74775 6.75843 0
M  V30 849 H 75.6568 -3.37653 6.07466 0
M  V30 850 H 78.8478 -2.52332 3.94267 0
M  V30 851 H 79.0208 -3.27762 5.58996 0
M  V30 852 N 72.4269 -1.23603 -0.977757 0
M  V30 853 C 73.8379 -1.06424 -1.53398 0
M  V30 854 C 74.1889 0.367578 -1.92726 0
M  V30 855 O 73.3139 1.25465 -1.76316 0
M  V30 856 C 73.9089 -1.92568 -2.78753 0
M  V30 857 C 72.4679 -1.79642 -3.30765 0
M  V30 858 C 71.6149 -1.88111 -2.03739 0
M  V30 859 H 74.5659 -1.37227 -0.797152 0
M  V30 860 H 74.5869 -1.45203 -3.51705 0
M  V30 861 H 74.0989 -2.96771 -2.50098 0
M  V30 862 H 72.1999 -0.782325 -3.64294 0
M  V30 863 H 72.3129 -2.63174 -4.00345 0
M  V30 864 H 70.6769 -1.31723 -2.17994 0
M  V30 865 H 71.4599 -2.93875 -1.77461 0
M  V30 866 N 73.905 1.17692 -1.04816 0
M  V30 867 C 74.852 2.21581 -0.645797 0
M  V30 868 C 75.822 1.62367 0.350159 0
M  V30 869 O 77.007 1.89254 0.242433 0
M  V30 870 C 74.147 3.45092 -0.0227568 0
M  V30 871 C 73.26 4.18613 -1.06709 0
M  V30 872 C 72.395 5.29602 -0.411767 0
M  V30 873 C 71.434 5.94904 -1.44067 0
M  V30 874 N 70.571 6.97414 -0.809781 0
M  V30 875 H 75.411 2.55353 -1.5362 0
M  V30 876 H 72.948 1.25438 -0.768364 0
M  V30 877 H 74.906 4.15679 0.35588 0
M  V30 878 H 73.536 3.11917 0.831122 0
M  V30 879 H 72.588 3.46779 -1.5636 0
M  V30 880 H 73.9 4.63293 -1.84827 0
M  V30 881 H 73.054 6.06696 0.0206623 0
M  V30 882 H 71.793 4.86045 0.401438 0
M  V30 883 H 70.798 5.16544 -1.88316 0
M  V30 884 H 72.023 6.40542 -2.25571 0
M  V30 885 H 69.969 6.55998 -0.0170186 0
M  V30 886 H 69.886 7.40386 -1.52856 0
M  V30 887 H 71.154 7.78463 -0.401999 0
M  V30 888 N 75.3831 0.828654 1.34056 0
M  V30 889 C 76.7941 0.477534 1.8049 0
M  V30 890 C 77.1451 -1.00258 1.6865 0
M  V30 891 O 76.2701 -1.78057 1.22982 0
M  V30 892 C 76.8651 0.860018 3.27703 0
M  V30 893 C 75.4241 0.561185 3.72193 0
M  V30 894 C 74.5711 1.07385 2.55663 0
M  V30 895 H 77.5221 1.0183 1.21722 0
M  V30 896 H 77.5431 0.166038 3.80138 0
M  V30 897 H 77.0551 1.93731 3.36288 0
M  V30 898 H 75.1561 -0.506465 3.69142 0
M  V30 899 H 75.2691 1.10926 4.66082 0
M  V30 900 H 73.6331 0.495149 2.49841 0
M  V30 901 H 74.4161 2.15771 2.67016 0
M  V30 902 N 76.8612 -1.46375 0.584142 0
M  V30 903 C 78.1072 -2.02678 0.0703716 0
M  V30 904 C 78.4402 -1.4545 -1.28678 0
M  V30 905 O 77.7152 -0.62014 -1.84349 0
M  V30 906 C 77.9982 -3.60099 0.00614674 0
M  V30 907 C 77.8512 -4.27709 1.3923 0
M  V30 908 C 79.1702 -4.34598 -0.693742 0
M  V30 909 H 76.2892 -0.736504 0.027047 0
M  V30 910 H 78.9312 -1.74501 0.751615 0
M  V30 911 H 77.0812 -3.84236 -0.574009 0
M  V30 912 H 78.7532 -4.14832 2.01773 0
M  V30 913 H 76.9962 -3.87016 1.95962 0
M  V30 914 H 77.6672 -5.36478 1.29982 0
M  V30 915 H 80.1432 -4.15615 -0.200869 0
M  V30 916 H 79.0192 -5.44318 -0.707714 0
M  V30 917 H 79.2802 -4.05759 -1.75533 0
M  V30 918 N 78.3393 -0.321999 -1.54275 0
M  V30 919 C 79.5853 0.281461 -2.00837 0
M  V30 920 C 79.9183 1.51909 -1.20985 0
M  V30 921 O 79.1933 1.923 -0.291733 0
M  V30 922 C 79.4763 0.617162 -3.54772 0
M  V30 923 C 79.3293 -0.631064 -4.45351 0
M  V30 924 C 80.6483 1.43542 -4.16033 0
M  V30 925 H 77.7673 0.100826 -0.730071 0
M  V30 926 H 80.4093 -0.438268 -1.84876 0
M  V30 927 H 78.5593 1.23034 -3.68504 0
M  V30 928 H 80.2313 -1.26934 -4.43492 0
M  V30 929 H 78.4743 -1.26025 -4.15091 0
M  V30 930 H 79.1453 -0.351735 -5.50878 0
M  V30 931 H 81.6213 0.917134 -4.05867 0
M  V30 932 H 80.4973 1.63907 -5.23856 0
M  V30 933 H 80.7583 2.43108 -3.69257 0
M  V30 934 N 79.8174 1.5752 -0.0501392 0
M  V30 935 C 81.0944 1.83996 0.663685 0
M  V30 936 C 81.4744 0.938339 1.89099 0
M  V30 937 O 80.8224 -0.00087759 2.285 0
M  V30 938 C 81.0324 3.33702 1.02196 0
M  V30 939 C 82.3804 4.00691 1.40469 0
M  V30 940 O 83.4044 3.38321 1.11433 0
M  V30 941 O 82.2634 5.10658 1.94654 0
M  V30 942 H 79.3574 0.759385 0.32751 0
M  V30 943 H 81.9034 1.69514 -0.0794238 0
M  V30 944 H 80.6754 3.91015 0.149364 0
M  V30 945 H 80.2984 3.53368 1.82255 0
M  V30 946 N 81.2955 -0.223234 1.56011 0
M  V30 947 C 82.7065 -0.790368 1.69145 0
M  V30 948 C 83.0575 -1.85055 0.651845 0
M  V30 949 O 82.1825 -2.15498 -0.197359 0
M  V30 950 C 82.7775 -1.4404 3.06656 0
M  V30 951 C 81.3365 -1.95494 3.2165 0
M  V30 952 C 80.4835 -0.814506 2.65068 0
M  V30 953 H 83.4345 0.00139011 1.587 0
M  V30 954 H 83.4555 -2.30916 3.0242 0
M  V30 955 H 82.9675 -0.668543 3.82298 0
M  V30 956 H 81.0685 -2.75487 2.50874 0
M  V30 957 H 81.1815 -2.13607 4.28846 0
M  V30 958 H 79.5455 -1.22137 2.23505 0
M  V30 959 H 80.3285 -0.0553515 3.43255 0
M  V30 960 N 82.7736 -1.49793 -0.48987 0
M  V30 961 C 83.9986 -1.63836 -1.27172 0
M  V30 962 C 84.4236 -0.31402 -1.8546 0
M  V30 963 O 83.7816 0.719803 -1.66399 0
M  V30 964 C 83.8296 -2.71797 -2.36978 0
M  V30 965 O 82.9336 -2.31744 -3.41128 0
M  V30 966 H 82.2746 -0.547997 -0.37496 0
M  V30 967 H 84.8046 -1.96053 -0.585191 0
M  V30 968 H 84.8146 -2.94305 -2.82575 0
M  V30 969 H 83.4896 -3.67923 -1.93921 0
M  V30 970 H 82.0666 -2.1961 -3.01373 0
M  V30 971 N 84.2517 0.741722 -1.39055 0
M  V30 972 C 85.6677 1.04638 -1.20512 0
M  V30 973 C 85.8677 2.01405 -0.0620218 0
M  V30 974 O 84.9237 2.45547 0.588457 0
M  V30 975 C 86.2367 1.6151 -2.53643 0
M  V30 976 C 87.7847 1.73623 -2.6043 0
M  V30 977 C 88.2597 2.33906 -3.93767 0
M  V30 978 N 89.7507 2.41323 -3.9537 0
M  V30 979 C 90.4857 2.88888 -4.95309 0
M  V30 980 N 89.9817 3.36401 -6.05645 0
M  V30 981 N 91.7747 2.88037 -4.82692 0
M  V30 982 H 83.9257 0.0998155 -2.12165 0
M  V30 983 H 86.1887 0.106907 -0.941953 0
M  V30 984 H 85.8947 0.978739 -3.37807 0
M  V30 985 H 85.7687 2.60411 -2.72885 0
M  V30 986 H 88.1557 2.36384 -1.76655 0
M  V30 987 H 88.2367 0.733945 -2.45045 0
M  V30 988 H 87.8807 1.71776 -4.7797 0
M  V30 989 H 87.8107 3.34799 -4.06469 0
M  V30 990 H 90.3017 2.07734 -3.15682 0
M  V30 991 H 90.6147 3.71186 -6.77821 0
M  V30 992 H 88.9597 3.34427 -6.09248 0
M  V30 993 H 92.1507 2.50237 -3.95599 0
M  V30 994 H 92.3237 3.24792 -5.60726 0
M  V30 995 N 85.7298 1.2412 0.971189 0
M  V30 996 C 86.9788 1.07284 1.70801 0
M  V30 997 C 87.2918 -0.388902 1.91695 0
M  V30 998 O 88.4978 -0.677379 2.62914 0
M  V30 999 C 86.9538 1.87145 3.07416 0
M  V30 1000 C 86.5618 3.37707 2.94377 0
M  V30 1001 C 88.3058 1.78828 3.84995 0
M  V30 1002 C 86.2128 4.09925 4.26281 0
M  V30 1003 H 85.1428 0.397854 0.64049 0
M  V30 1004 H 87.7938 1.4817 1.0825 0
M  V30 1005 H 86.1758 1.39071 3.70777 0
M  V30 1006 H 87.3498 3.93335 2.4005 0
M  V30 1007 H 85.6648 3.46938 2.30267 0
M  V30 1008 H 88.2618 2.30089 4.82662 0
M  V30 1009 H 88.6048 0.75284 4.09436 0
M  V30 1010 H 89.1378 2.24563 3.28354 0
M  V30 1011 H 85.8768 5.13813 4.07033 0
M  V30 1012 H 85.3968 3.59083 4.80437 0
M  V30 1013 H 87.0758 4.1673 4.94919 0
M  V30 1014 N 87.2079 -1.17134 1.05439 0
M  V30 1015 C 88.4359 -1.91372 0.786414 0
M  V30 1016 C 88.8509 -1.76955 -0.658202 0
M  V30 1017 O 88.2079 -1.10838 -1.44987 0
M  V30 1018 C 88.2589 -3.42356 1.1608 0
M  V30 1019 O 87.9799 -3.56332 2.54871 0
M  V30 1020 C 89.4809 -4.33663 0.919322 0
M  V30 1021 H 86.7009 -0.607118 0.285743 0
M  V30 1022 H 89.2449 -1.48525 1.40572 0
M  V30 1023 H 87.3999 -3.82939 0.586191 0
M  V30 1024 H 87.8139 -4.49896 2.69618 0
M  V30 1025 H 89.2879 -5.38099 1.231 0
M  V30 1026 H 89.7649 -4.38959 -0.145359 0
M  V30 1027 H 90.3709 -3.98796 1.47789 0
M  V30 1028 N 88.686 -0.835752 -1.33615 0
M  V30 1029 C 90.102 -0.523139 -1.50783 0
M  V30 1030 C 90.302 0.950171 -1.77691 0
M  V30 1031 O 89.358 1.73411 -1.83534 0
M  V30 1032 C 90.671 -1.39378 -2.66448 0
M  V30 1033 C 92.219 -1.39223 -2.80332 0
M  V30 1034 C 92.694 -2.24765 -3.99055 0
M  V30 1035 N 94.185 -2.22458 -4.06284 0
M  V30 1036 C 94.92 -2.85386 -4.97336 0
M  V30 1037 N 94.416 -3.57354 -5.93523 0
M  V30 1038 N 96.209 -2.74872 -4.90308 0
M  V30 1039 H 88.36 -1.78952 -1.14411 0
M  V30 1040 H 90.623 -0.763297 -0.562212 0
M  V30 1041 H 90.329 -2.44061 -2.53234 0
M  V30 1042 H 90.203 -1.0676 -3.61776 0
M  V30 1043 H 92.59 -0.353136 -2.92979 0
M  V30 1044 H 92.671 -1.75846 -1.85773 0
M  V30 1045 H 92.315 -3.28732 -3.87167 0
M  V30 1046 H 92.245 -1.85485 -4.92852 0
M  V30 1047 H 94.736 -1.70119 -3.37443 0
M  V30 1048 H 95.049 -4.02584 -6.59656 0
M  V30 1049 H 93.394 -3.61461 -5.93608 0
M  V30 1050 H 96.585 -2.18213 -4.14126 0
M  V30 1051 H 96.758 -3.24199 -5.61069 0
M  V30 1052 N 90.1641 1.46063 -0.591896 0
M  V30 1053 C 91.4101 2.02638 -0.0811191 0
M  V30 1054 C 91.7431 1.4613 1.27905 0
M  V30 1055 O 91.0181 0.629908 1.84017 0
M  V30 1056 C 91.3011 3.60091 -0.0252436 0
M  V30 1057 C 91.1541 4.26965 -1.41496 0
M  V30 1058 C 92.4731 4.3496 0.670685 0
M  V30 1059 H 89.5921 0.73635 -0.0309524 0
M  V30 1060 H 92.2341 1.741 -0.760859 0
M  V30 1061 H 90.3841 3.84535 0.553624 0
M  V30 1062 H 92.0561 4.13756 -2.0397 0
M  V30 1063 H 90.2991 3.85971 -1.98011 0
M  V30 1064 H 90.9701 5.35781 -1.32825 0
M  V30 1065 H 93.4461 4.15716 0.178825 0
M  V30 1066 H 92.3221 5.44686 0.678837 0
M  V30 1067 H 92.5831 4.06685 1.73379 0
M  V30 1068 N 91.6422 0.330177 1.54103 0
M  V30 1069 C 92.5742 -0.566902 2.22079 0
M  V30 1070 C 93.5872 -1.07462 1.22294 0
M  V30 1071 O 94.7762 -0.987065 1.48726 0
M  V30 1072 C 91.8762 -1.79138 2.87685 0
M  V30 1073 C 91.0492 -1.42123 4.13666 0
M  V30 1074 C 90.1082 -2.50394 4.62806 0
M  V30 1075 O 89.1342 -2.14261 5.27334 0
M  V30 1076 N 90.3362 -3.81433 4.37595 0
M  V30 1077 H 93.1012 0.0151844 2.99696 0
M  V30 1078 H 90.6622 0.153681 1.61169 0
M  V30 1079 H 92.6542 -2.50975 3.1748 0
M  V30 1080 H 91.2242 -2.28115 2.13734 0
M  V30 1081 H 90.4442 -0.534201 3.90564 0
M  V30 1082 H 91.7322 -1.14971 4.9564 0
M  V30 1083 H 91.1302 -4.13584 3.8596 0
M  V30 1084 H 89.6872 -4.4948 4.72029 0
M  V30 1085 N 93.1203 -1.57491 0.0584922 0
M  V30 1086 C 94.0503 -2.14988 -0.911178 0
M  V30 1087 C 95.0313 -1.07343 -1.31952 0
M  V30 1088 O 96.2163 -1.35318 -1.39294 0
M  V30 1089 C 93.3463 -2.70078 -2.18347 0
M  V30 1090 C 92.3003 -3.82771 -1.91495 0
M  V30 1091 C 91.6263 -4.24408 -3.25241 0
M  V30 1092 C 92.9263 -5.07592 -1.23075 0
M  V30 1093 H 94.6203 -2.96263 -0.432246 0
M  V30 1094 H 92.1663 -1.42512 -0.206469 0
M  V30 1095 H 94.1193 -3.08943 -2.86587 0
M  V30 1096 H 92.8433 -1.86005 -2.68458 0
M  V30 1097 H 91.5023 -3.44389 -1.25664 0
M  V30 1098 H 91.1503 -3.37275 -3.73168 0
M  V30 1099 H 90.8503 -5.00366 -3.08071 0
M  V30 1100 H 92.3743 -4.65879 -3.94701 0
M  V30 1101 H 93.7883 -5.43857 -1.81362 0
M  V30 1102 H 92.1853 -5.88741 -1.16207 0
M  V30 1103 H 93.2553 -4.84454 -0.207847 0
M  V30 1104 N 94.5984 0.214957 -1.56127 0
M  V30 1105 C 95.5304 1.29004 -1.89448 0
M  V30 1106 C 96.5434 1.42716 -0.783326 0
M  V30 1107 O 97.7324 1.43496 -1.06166 0
M  V30 1108 C 94.8324 2.66482 -2.09381 0
M  V30 1109 C 94.0054 2.74633 -3.40434 0
M  V30 1110 C 93.0644 3.9317 -3.49719 0
M  V30 1111 O 92.0904 3.812 -4.227 0
M  V30 1112 N 93.2924 5.07765 -2.81346 0
M  V30 1113 H 96.0574 1.00743 -2.82261 0
M  V30 1114 H 93.6184 0.40497 -1.56753 0
M  V30 1115 H 95.6104 3.44173 -2.12901 0
M  V30 1116 H 94.1804 2.87314 -1.23163 0
M  V30 1117 H 93.4004 1.83368 -3.48955 0
M  V30 1118 H 94.6884 2.77054 -4.26754 0
M  V30 1119 H 94.0864 5.20386 -2.21843 0
M  V30 1120 H 92.6434 5.83474 -2.90519 0
M  V30 1121 N 96.0765 1.50051 0.48192 0
M  V30 1122 C 97.4875 1.5348 1.06305 0
M  V30 1123 C 97.8385 0.331997 1.93371 0
M  V30 1124 O 96.9635 -0.556256 2.09129 0
M  V30 1125 C 97.5585 2.7813 1.93466 0
M  V30 1126 C 96.1175 2.84275 2.46707 0
M  V30 1127 C 95.2645 2.47637 1.24785 0
M  V30 1128 H 98.2155 1.56472 0.264995 0
M  V30 1129 H 98.2365 2.59372 2.78399 0
M  V30 1130 H 97.7485 3.65654 1.30072 0
M  V30 1131 H 95.8495 2.01077 3.13686 0
M  V30 1132 H 95.9625 3.8691 2.82555 0
M  V30 1133 H 94.3265 1.99835 1.57918 0
M  V30 1134 H 95.1095 3.37457 0.630694 0
M  V30 1135 N 97.5546 -0.734337 1.39446 0
M  V30 1136 C 98.4876 -1.85715 1.32609 0
M  V30 1137 C 99.4656 -1.6137 0.199636 0
M  V30 1138 O 100.65 -1.84626 0.380195 0
M  V30 1139 C 97.7766 -3.21709 1.05929 0
M  V30 1140 C 96.8226 -3.64913 2.20773 0
M  V30 1141 S 97.6556 -3.74203 3.83056 0
M  V30 1142 C 98.8116 -5.12986 3.58603 0
M  V30 1143 H 99.0446 -1.91232 2.27635 0
M  V30 1144 H 96.5776 -0.899263 1.25509 0
M  V30 1145 H 98.5356 -4.00236 0.912203 0
M  V30 1146 H 97.1966 -3.13848 0.125883 0
M  V30 1147 H 96.3896 -4.63606 1.97699 0
M  V30 1148 H 95.9916 -2.93593 2.31688 0
M  V30 1149 H 98.2836 -5.99339 3.15909 0
M  V30 1150 H 99.2266 -5.41088 4.5676 0
M  V30 1151 H 99.6346 -4.82694 2.9269 0
M  V30 1152 N 99.0327 -1.24633 -0.964593 0
M  V30 1153 C 99.9797 -1.04144 -2.05968 0
M  V30 1154 C 100.95 0.046262 -1.66036 0
M  V30 1155 O 102.135 -0.108972 -1.90489 0
M  V30 1156 C 99.2747 -0.65563 -3.38815 0
M  V30 1157 C 98.3877 -1.81714 -3.91923 0
M  V30 1158 C 97.5227 -1.37662 -5.13052 0
M  V30 1159 C 96.5617 -2.50788 -5.58365 0
M  V30 1160 N 95.6987 -2.07582 -6.70712 0
M  V30 1161 H 100.539 -1.9787 -2.22827 0
M  V30 1162 H 98.0757 -0.9855 -1.09208 0
M  V30 1163 H 100.034 -0.412954 -4.15151 0
M  V30 1164 H 98.6637 0.244627 -3.21872 0
M  V30 1165 H 97.7157 -2.1734 -3.12198 0
M  V30 1166 H 99.0277 -2.66705 -4.21509 0
M  V30 1167 H 98.1817 -1.093 -5.96773 0
M  V30 1168 H 96.9207 -0.497293 -4.85158 0
M  V30 1169 H 95.9257 -2.79906 -4.73215 0
M  V30 1170 H 97.1507 -3.39283 -5.88272 0
M  V30 1171 H 95.0967 -1.22051 -6.44546 0
M  V30 1172 H 95.0137 -2.86125 -6.99763 0
M  V30 1173 H 96.2817 -1.82369 -7.57867 0
M  V30 1174 N 100.511 1.16574 -1.06058 0
M  V30 1175 C 101.739 1.90952 -0.796552 0
M  V30 1176 C 102.154 1.77302 0.648808 0
M  V30 1177 O 101.511 1.11605 1.44397 0
M  V30 1178 C 101.562 3.41736 -1.17894 0
M  V30 1179 O 101.283 3.54975 -2.56758 0
M  V30 1180 C 102.784 4.33169 -0.942308 0
M  V30 1181 H 100.004 0.605594 -0.288959 0
M  V30 1182 H 102.548 1.47777 -1.41358 0
M  V30 1183 H 100.703 3.82623 -0.606491 0
M  V30 1184 H 101.117 4.4846 -2.72 0
M  V30 1185 H 102.591 5.37439 -1.25952 0
M  V30 1186 H 103.068 4.3903 0.122078 0
M  V30 1187 H 103.674 3.98007 -1.49902 0
M  V30 1188 N 101.989 0.842826 1.3317 0
M  V30 1189 C 103.235 0.441099 1.97945 0
M  V30 1190 C 103.568 -0.998024 1.66593 0
M  V30 1191 O 102.843 -1.69839 0.947898 0
M  V30 1192 C 103.126 0.666841 3.53872 0
M  V30 1193 C 102.979 2.15352 3.94897 0
M  V30 1194 C 104.298 0.115544 4.39948 0
M  V30 1195 H 101.417 0.161739 0.719034 0
M  V30 1196 H 104.059 1.05907 1.57746 0
M  V30 1197 H 102.209 0.140828 3.88245 0
M  V30 1198 H 103.881 2.7447 3.70761 0
M  V30 1199 H 102.124 2.63653 3.44484 0
M  V30 1200 H 102.795 2.26221 5.03516 0
M  V30 1201 H 105.271 0.565213 4.12243 0
M  V30 1202 H 104.147 0.303152 5.48062 0
M  V30 1203 H 104.408 -0.980935 4.3108 0
M  V30 1204 N 103.467 -1.45747 0.599634 0
M  V30 1205 C 104.713 -2.02592 0.0918643 0
M  V30 1206 C 105.046 -1.46806 -1.27128 0
M  V30 1207 O 104.321 -0.639658 -1.83681 0
M  V30 1208 C 104.604 -3.60073 0.0443398 0
M  V30 1209 C 104.457 -4.26208 1.43759 0
M  V30 1210 C 105.776 -4.35309 -0.647608 0
M  V30 1211 H 102.895 -0.736175 0.034857 0
M  V30 1212 H 105.537 -1.73694 0.770081 0
M  V30 1213 H 103.687 -3.84823 -0.533224 0
M  V30 1214 H 105.359 -4.12668 2.06162 0
M  V30 1215 H 103.602 -3.84916 2.00056 0
M  V30 1216 H 104.273 -5.35069 1.35665 0
M  V30 1217 H 106.749 -4.15805 -0.156776 0
M  V30 1218 H 105.625 -5.45038 -0.649942 0
M  V30 1219 H 105.886 -4.07598 -1.71219 0
M  V30 1220 N 104.945 -0.338344 -1.53925 0
M  V30 1221 C 106.361 0.0137736 -1.59594 0
M  V30 1222 C 106.561 1.49186 -1.35447 0
M  V30 1223 O 105.617 2.24987 -1.14616 0
M  V30 1224 C 106.93 -0.41773 -2.97784 0
M  V30 1225 C 108.478 -0.369633 -3.1081 0
M  V30 1226 C 108.953 -0.776524 -4.51369 0
M  V30 1227 N 110.444 -0.730506 -4.57403 0
M  V30 1228 C 111.179 -1.01736 -5.64303 0
M  V30 1229 N 110.675 -1.3721 -6.79077 0
M  V30 1230 N 112.468 -0.941942 -5.54151 0
M  V30 1231 H 104.619 -1.3012 -1.67876 0
M  V30 1232 H 106.882 -0.530082 -0.78595 0
M  V30 1233 H 106.588 -1.44811 -3.20504 0
M  V30 1234 H 106.462 0.209729 -3.76616 0
M  V30 1235 H 108.849 0.651568 -2.87817 0
M  V30 1236 H 108.93 -1.03223 -2.34049 0
M  V30 1237 H 108.574 -1.79571 -4.75096 0
M  V30 1238 H 108.504 -0.0914649 -5.26521 0
M  V30 1239 H 110.995 -0.468783 -3.74981 0
M  V30 1240 H 111.308 -1.57597 -7.5656 0
M  V30 1241 H 109.653 -1.4105 -6.80536 0
M  V30 1242 H 112.844 -0.664184 -4.63364 0
M  V30 1243 H 113.017 -1.16884 -6.37371 0
M  V30 1244 N 106.423 1.57458 -0.0668435 0
M  V30 1245 C 107.671 1.92919 0.602214 0
M  V30 1246 C 107.992 0.947215 1.70449 0
M  V30 1247 O 107.262 -0.00544117 1.95899 0
M  V30 1248 H 105.842 0.71217 0.22544 0
M  V30 1249 H 108.504 1.94508 -0.123535 0
M  V30 1250 H 107.6 2.94589 1.03073 0
M  V30 1251 N 107.901 -0.206675 1.56239 0
M  V30 1252 C 109.126 -0.949474 1.8439 0
M  V30 1253 C 109.551 -1.76549 0.649016 0
M  V30 1254 O 108.909 -1.76782 -0.402231 0
M  V30 1255 C 108.957 -1.83078 3.10668 0
M  V30 1256 O 108.061 -2.9281 2.90407 0
M  V30 1257 H 107.402 -0.268033 0.607499 0
M  V30 1258 H 109.932 -0.215488 2.03462 0
M  V30 1259 H 109.942 -2.2377 3.41161 0
M  V30 1260 H 108.617 -1.23112 3.97261 0
M  V30 1261 H 107.194 -2.55956 2.71184 0
M  V30 1262 N 109.379 -1.50304 -0.473955 0
M  V30 1263 C 110.342 -1.6841 -1.55469 0
M  V30 1264 C 111.342 -0.554905 -1.50922 0
M  V30 1265 O 112.532 -0.821882 -1.53593 0
M  V30 1266 C 109.664 -1.70667 -2.95102 0
M  V30 1267 H 110.857 -2.64828 -1.40733 0
M  V30 1268 H 108.41 -1.39742 -0.700132 0
M  V30 1269 H 109.145 -0.75932 -3.15285 0
M  V30 1270 H 108.93 -2.52698 -2.9981 0
M  V30 1271 H 110.42 -1.8664 -3.73571 0
M  V30 1272 N 110.857 0.726932 -1.39834 0
M  V30 1273 C 111.79 1.8501 -1.33592 0
M  V30 1274 C 112.768 1.61262 -0.208191 0
M  V30 1275 O 113.952 1.84422 -0.389981 0
M  V30 1276 C 111.079 3.21143 -1.07633 0
M  V30 1277 C 110.125 3.63737 -2.22705 0
M  V30 1278 S 110.958 3.72167 -3.85035 0
M  V30 1279 C 112.114 5.11077 -3.61318 0
M  V30 1280 H 112.347 1.90022 -2.28646 0
M  V30 1281 H 109.88 0.892595 -1.25985 0
M  V30 1282 H 111.838 3.99747 -0.933415 0
M  V30 1283 H 110.499 3.13776 -0.142526 0
M  V30 1284 H 109.692 4.62551 -2.00155 0
M  V30 1285 H 109.294 2.9236 -2.33242 0
M  V30 1286 H 111.586 5.97656 -3.19083 0
M  V30 1287 H 112.529 5.38658 -4.59623 0
M  V30 1288 H 112.937 4.81135 -2.95245 0
M  V30 1289 N 112.336 1.25143 0.95797 0
M  V30 1290 C 113.747 1.08851 1.51685 0
M  V30 1291 C 114.098 -0.33687 1.93286 0
M  V30 1292 O 113.223 -1.22644 1.7829 0
M  V30 1293 C 113.818 1.96978 2.75654 0
M  V30 1294 C 112.377 1.84881 3.27866 0
M  V30 1295 C 111.524 1.91329 2.0072 0
M  V30 1296 H 114.475 1.38478 0.77522 0
M  V30 1297 H 114.496 1.5078 3.4935 0
M  V30 1298 H 114.008 3.00712 2.45345 0
M  V30 1299 H 112.109 0.840182 3.63004 0
M  V30 1300 H 112.222 2.6951 3.96107 0
M  V30 1301 H 110.586 1.35174 2.15871 0
M  V30 1302 H 111.369 2.96661 1.72764 0
M  V30 1303 N 113.814 -1.1601 1.06675 0
M  V30 1304 C 115.06 -1.86909 0.786945 0
M  V30 1305 C 115.393 -1.81717 -0.685018 0
M  V30 1306 O 114.668 -1.23551 -1.50218 0
M  V30 1307 C 114.951 -3.36313 1.28707 0
M  V30 1308 C 114.804 -3.50175 2.82308 0
M  V30 1309 C 116.123 -4.3084 0.898071 0
M  V30 1310 H 113.242 -0.678677 0.287343 0
M  V30 1311 H 115.884 -1.36336 1.32334 0
M  V30 1312 H 114.034 -3.79513 0.830768 0
M  V30 1313 H 115.706 -3.15886 3.36175 0
M  V30 1314 H 113.949 -2.91959 3.20847 0
M  V30 1315 H 114.62 -4.55116 3.12368 0
M  V30 1316 H 117.096 -3.95561 1.29114 0
M  V30 1317 H 115.972 -5.33876 1.27543 0
M  V30 1318 H 116.233 -4.41662 -0.196651 0
M  V30 1319 N 115.292 -0.849877 -1.32721 0
M  V30 1320 C 116.569 -0.372405 -1.92022 0
M  V30 1321 C 116.949 1.1435 -1.77447 0
M  V30 1322 O 116.297 1.96296 -1.16962 0
M  V30 1323 C 116.507 -0.831482 -3.3895 0
M  V30 1324 C 117.855 -0.845882 -4.16089 0
M  V30 1325 O 118.879 -0.775806 -3.47649 0
M  V30 1326 O 117.738 -0.943753 -5.38289 0
M  V30 1327 H 114.832 -0.107667 -0.819961 0
M  V30 1328 H 117.378 -0.93646 -1.41522 0
M  V30 1329 H 116.15 -1.87448 -3.4348 0
M  V30 1330 H 115.773 -0.24461 -3.96847 0
M  V30 1331 N 116.77 1.45427 -0.607355 0
M  V30 1332 C 118.018 2.01841 -0.102253 0
M  V30 1333 C 118.339 1.47832 1.27164 0
M  V30 1334 O 117.609 0.672497 1.83995 0
M  V30 1335 H 116.189 0.746188 -0.0348101 0
M  V30 1336 H 118.851 1.78229 -0.7887 0
M  V30 1337 H 117.947 3.12057 -0.0518585 0
M  V30 1338 N 118.248 0.346503 1.53744 0
M  V30 1339 C 119.478 -0.250047 2.05081 0
M  V30 1340 C 119.886 -1.44529 1.22098 0
M  V30 1341 O 119.229 -1.81992 0.249917 0
M  V30 1342 C 119.291 -0.725934 3.52094 0
M  V30 1343 C 118.955 0.350053 4.55657 0
M  V30 1344 C 119.952 1.19372 5.0601 0
M  V30 1345 C 117.637 0.504827 4.99757 0
M  V30 1346 C 119.631 2.17768 5.99046 0
M  V30 1347 C 117.318 1.49218 5.92602 0
M  V30 1348 C 118.316 2.32706 6.42135 0
M  V30 1349 O 118.004 3.2976 7.33153 0
M  V30 1350 H 117.736 -0.0515469 0.674032 0
M  V30 1351 H 120.29 0.497559 1.99282 0
M  V30 1352 H 118.52 -1.52483 3.55367 0
M  V30 1353 H 120.209 -1.24336 3.86388 0
M  V30 1354 H 120.975 1.08525 4.72702 0
M  V30 1355 H 116.854 -0.135178 4.60802 0
M  V30 1356 H 120.398 2.82971 6.37631 0
M  V30 1357 H 116.295 1.6012 6.25325 0
M  V30 1358 H 117.063 3.25265 7.51096 0
M  V30 1359 N 119.726 -1.57421 0.075193 0
M  V30 1360 C 120.975 -1.92794 -0.592731 0
M  V30 1361 C 121.288 -0.957478 -1.70563 0
M  V30 1362 O 122.494 -1.20417 -2.43335 0
M  V30 1363 C 120.95 -3.42495 -1.10569 0
M  V30 1364 C 120.558 -4.47994 -0.0236121 0
M  V30 1365 C 122.302 -3.86864 -1.74748 0
M  V30 1366 C 120.209 -5.88829 -0.550803 0
M  V30 1367 H 119.139 -0.719591 -0.225177 0
M  V30 1368 H 121.79 -1.82902 0.147978 0
M  V30 1369 H 120.172 -3.47471 -1.89947 0
M  V30 1370 H 121.346 -4.54637 0.751099 0
M  V30 1371 H 119.661 -4.13113 0.522159 0
M  V30 1372 H 122.258 -4.8947 -2.15229 0
M  V30 1373 H 122.601 -3.24417 -2.60882 0
M  V30 1374 H 123.134 -3.84504 -1.01986 0
M  V30 1375 H 119.873 -6.54929 0.273457 0
M  V30 1376 H 119.393 -5.85698 -1.29296 0
M  V30 1377 H 121.072 -6.38811 -1.02613 0
M  V30 1378 N 121.204 0.198386 -1.56346 0
M  V30 1379 C 122.429 0.939682 -1.84891 0
M  V30 1380 C 122.854 1.76202 -0.658369 0
M  V30 1381 O 122.212 1.76993 0.392851 0
M  V30 1382 C 122.26 1.81428 -3.11635 0
M  V30 1383 O 121.364 2.91265 -2.91956 0
M  V30 1384 H 120.705 0.264807 -0.608912 0
M  V30 1385 H 123.235 0.204695 -2.03573 0
M  V30 1386 H 123.245 2.21958 -3.42343 0
M  V30 1387 H 121.92 1.21004 -3.97908 0
M  V30 1388 H 120.497 2.54514 -2.72538 0
M  V30 1389 N 122.682 1.50554 0.465978 0
M  V30 1390 C 123.93 1.61479 1.21528 0
M  V30 1391 C 124.251 0.319596 1.92363 0
M  V30 1392 O 123.521 -0.663194 1.84333 0
M  V30 1393 H 122.101 0.595055 0.451573 0
M  V30 1394 H 124.763 1.87355 0.53704 0
M  V30 1395 H 123.859 2.42846 1.96042 0
M  V30 1396 N 124.16 -0.719506 1.40217 0
M  V30 1397 C 125.09 -1.8465 1.42922 0
M  V30 1398 C 126.071 -1.67599 0.29062 0
M  V30 1399 O 127.256 -1.87688 0.498677 0
M  V30 1400 C 124.386 -3.22565 1.28722 0
M  V30 1401 C 123.34 -3.54281 2.40144 0
M  V30 1402 C 122.666 -4.91298 2.11023 0
M  V30 1403 C 123.966 -3.55676 3.82481 0
M  V30 1404 H 125.66 -1.82644 2.37237 0
M  V30 1405 H 123.206 -0.877305 1.1419 0
M  V30 1406 H 125.159 -4.01095 1.29232 0
M  V30 1407 H 123.883 -3.25137 0.308811 0
M  V30 1408 H 122.542 -2.78088 2.38877 0
M  V30 1409 H 122.19 -4.90468 1.11582 0
M  V30 1410 H 121.89 -5.13485 2.8567 0
M  V30 1411 H 123.414 -5.72166 2.13209 0
M  V30 1412 H 124.828 -4.24254 3.85592 0
M  V30 1413 H 123.225 -3.89388 4.56614 0
M  V30 1414 H 124.295 -2.55144 4.12346 0
M  V30 1415 N 125.638 -1.25649 -0.95132 0
M  V30 1416 C 126.568 -1.08808 -2.06599 0
M  V30 1417 C 127.549 0.00382547 -1.701 0
M  V30 1418 O 128.734 -0.166325 -1.93486 0
M  V30 1419 C 125.864 -0.709542 -3.39975 0
M  V30 1420 C 124.818 -1.75206 -3.90496 0
M  V30 1421 C 124.144 -1.22811 -5.20405 0
M  V30 1422 C 125.444 -3.15153 -4.16504 0
M  V30 1423 H 127.138 -2.02048 -2.20946 0
M  V30 1424 H 124.684 -0.972835 -1.06169 0
M  V30 1425 H 126.637 -0.578649 -4.17408 0
M  V30 1426 H 125.361 0.258556 -3.25575 0
M  V30 1427 H 124.02 -1.87145 -3.15234 0
M  V30 1428 H 123.668 -0.250145 -5.02378 0
M  V30 1429 H 123.368 -1.92492 -5.55176 0
M  V30 1430 H 124.892 -1.10968 -6.00432 0
M  V30 1431 H 126.306 -3.06349 -4.84586 0
M  V30 1432 H 124.703 -3.82333 -4.62538 0
M  V30 1433 H 125.773 -3.61966 -3.22658 0
M  V30 1434 N 127.117 1.15442 -1.07289 0
M  V30 1435 C 128.065 2.22225 -0.686952 0
M  V30 1436 C 129.059 1.66688 0.30193 0
M  V30 1437 O 130.265 1.79236 0.165712 0
M  V30 1438 H 126.64 0.723783 -0.204064 0
M  V30 1439 H 128.611 2.52056 -1.5972 0
M  V30 1440 C 127.36 3.47556 -0.100149 0
M  V30 1441 H 126.683 3.90612 -0.852211 0
M  V30 1442 H 128.123 4.23794 0.132235 0
M  V30 1443 C 126.582 3.16337 1.159 0
M  V30 1444 O 127.112 3.33074 2.24555 0
M  V30 1445 N 125.318 2.70385 1.06491 0
M  V30 1446 H 124.865 2.56966 0.180668 0
M  V30 1447 H 124.823 2.49871 1.90819 0
M  V30 1448 N 128.595 0.856903 1.32268 0
M  V30 1449 C 129.872 0.382583 1.91822 0
M  V30 1450 C 130.252 -1.13407 1.78051 0
M  V30 1451 O 129.6 -1.95673 1.18001 0
M  V30 1452 C 129.81 0.849446 3.38505 0
M  V30 1453 C 131.158 0.867936 4.15634 0
M  V30 1454 O 132.182 0.794232 3.47232 0
M  V30 1455 O 131.041 0.972286 5.37781 0
M  V30 1456 H 128.135 0.112014 0.819379 0
M  V30 1457 H 130.681 0.943952 1.41024 0
M  V30 1458 H 129.453 1.89267 3.42482 0
M  V30 1459 H 129.076 0.265652 3.96712 0
M  V30 1460 N 130.073 -1.45103 0.615059 0
M  V30 1461 C 131.322 -2.01396 0.110718 0
M  V30 1462 C 131.635 -1.48834 -1.26916 0
M  V30 1463 O 132.841 -1.97152 -1.86664 0
M  V30 1464 C 131.297 -3.59599 0.14723 0
M  V30 1465 C 130.905 -4.21158 1.52743 0
M  V30 1466 C 132.649 -4.23428 -0.30148 0
M  V30 1467 C 130.556 -5.71535 1.51992 0
M  V30 1468 H 129.486 -0.753061 0.0376241 0
M  V30 1469 H 132.137 -1.66494 0.77149 0
M  V30 1470 H 130.519 -3.91724 -0.580339 0
M  V30 1471 H 131.693 -4.00594 2.2773 0
M  V30 1472 H 130.008 -3.69552 1.91886 0
M  V30 1473 H 132.605 -5.33703 -0.326392 0
M  V30 1474 H 132.948 -3.94629 -1.32565 0
M  V30 1475 H 133.481 -3.96047 0.373065 0
M  V30 1476 H 130.22 -6.05044 2.52193 0
M  V30 1477 H 129.74 -5.94268 0.81274 0
M  V30 1478 H 131.419 -6.34873 1.24681 0
M  V30 1479 N 131.551 -0.354651 -1.53558 0
M  V30 1480 C 132.483 0.5315 -2.22952 0
M  V30 1481 C 133.496 1.05503 -1.23988 0
M  V30 1482 O 134.685 0.963279 -1.50277 0
M  V30 1483 C 131.785 1.74538 -2.90499 0
M  V30 1484 C 130.958 1.35524 -4.15875 0
M  V30 1485 C 130.017 2.42999 -4.66731 0
M  V30 1486 O 129.043 2.05844 -5.30676 0
M  V30 1487 N 130.245 3.74423 -4.43608 0
M  V30 1488 H 133.01 -0.0628615 -2.99634 0
M  V30 1489 H 130.571 -0.179302 -1.60904 0
M  V30 1490 H 132.563 2.45892 -3.21433 0
M  V30 1491 H 131.133 2.24686 -2.17336 0
M  V30 1492 H 130.353 0.471998 -3.91364 0
M  V30 1493 H 131.641 1.07071 -4.97406 0
M  V30 1494 H 131.039 4.07391 -3.92491 0
M  V30 1495 H 129.596 4.41913 -4.7912 0
M  V30 1496 N 133.029 1.57378 -0.0835403 0
M  V30 1497 C 133.976 2.13384 0.879539 0
M  V30 1498 C 134.946 1.04936 1.28754 0
M  V30 1499 O 136.131 1.32662 1.37133 0
M  V30 1500 C 133.271 2.70932 2.13752 0
M  V30 1501 C 132.384 3.93575 1.7811 0
M  V30 1502 C 131.519 4.39326 2.98607 0
M  V30 1503 C 130.558 5.54587 2.59037 0
M  V30 1504 N 129.695 5.95243 3.72331 0
M  V30 1505 H 134.535 2.9537 0.395076 0
M  V30 1506 H 132.072 1.45953 0.183349 0
M  V30 1507 H 134.03 3.02411 2.87408 0
M  V30 1508 H 132.66 1.91693 2.59718 0
M  V30 1509 H 131.712 3.68483 0.94469 0
M  V30 1510 H 133.024 4.77258 1.45005 0
M  V30 1511 H 132.178 4.72528 3.80529 0
M  V30 1512 H 130.917 3.5452 3.34913 0
M  V30 1513 H 129.922 5.21024 1.75539 0
M  V30 1514 H 131.147 6.41133 2.23887 0
M  V30 1515 H 129.093 5.13385 4.08378 0
M  V30 1516 H 129.01 6.73694 3.43034 0
M  V30 1517 H 130.278 6.33072 4.54797 0
M  V30 1518 N 134.507 -0.190092 1.56449 0
M  V30 1519 C 135.437 -1.23816 1.97969 0
M  V30 1520 C 136.418 -1.47201 0.852395 0
M  V30 1521 O 137.603 -1.58854 1.1171 0
M  V30 1522 C 134.733 -2.5813 2.3235 0
M  V30 1523 C 133.687 -2.49348 3.47864 0
M  V30 1524 C 133.013 -3.8798 3.67934 0
M  V30 1525 C 134.313 -2.01424 4.81898 0
M  V30 1526 H 136.007 -0.89311 2.85769 0
M  V30 1527 H 133.553 -0.428177 1.37487 0
M  V30 1528 H 135.506 -3.31637 2.59991 0
M  V30 1529 H 134.23 -2.94386 1.41438 0
M  V30 1530 H 132.889 -1.78297 3.20321 0
M  V30 1531 H 132.537 -4.21597 2.74344 0
M  V30 1532 H 132.237 -3.82978 4.45648 0
M  V30 1533 H 133.761 -4.63101 3.97957 0
M  V30 1534 H 135.175 -2.64693 5.08538 0
M  V30 1535 H 133.572 -2.07413 5.63116 0
M  V30 1536 H 134.642 -0.967677 4.75146 0
M  V30 1537 N 135.985 -1.50799 -0.457987 0
M  V30 1538 C 137.21 -1.66496 -1.23668 0
M  V30 1539 C 137.635 -0.353288 -1.84752 0
M  V30 1540 O 136.993 0.684346 -1.67888 0
M  V30 1541 C 137.041 -2.76763 -2.3116 0
M  V30 1542 O 136.145 -2.38928 -3.36136 0
M  V30 1543 H 135.486 -0.555828 -0.363252 0
M  V30 1544 H 138.016 -1.9725 -0.543474 0
M  V30 1545 H 138.026 -3.00232 -2.76269 0
M  V30 1546 H 136.701 -3.71954 -1.86073 0
M  V30 1547 H 135.278 -2.25953 -2.96647 0
M  V30 1548 N 137.463 0.71206 -1.40597 0
M  V30 1549 C 138.709 1.47416 -1.39271 0
M  V30 1550 C 139.042 1.942 0.00388791 0
M  V30 1551 O 138.317 1.68403 0.973179 0
M  V30 1552 C 138.6 2.69774 -2.38525 0
M  V30 1553 C 138.453 2.28861 -3.87224 0
M  V30 1554 C 139.772 3.71939 -2.35264 0
M  V30 1555 H 136.891 0.534713 -0.5072 0
M  V30 1556 H 139.533 0.812375 -1.71757 0
M  V30 1557 H 137.683 3.26238 -2.10953 0
M  V30 1558 H 139.355 1.77852 -4.25636 0
M  V30 1559 H 137.598 1.60824 -4.02887 0
M  V30 1560 H 138.269 3.16584 -4.52193 0
M  V30 1561 H 140.745 3.25113 -2.59694 0
M  V30 1562 H 139.621 4.55186 -3.06753 0
M  V30 1563 H 139.882 4.20484 -1.36549 0
M  V30 1564 N 138.941 1.26152 0.944643 0
M  V30 1565 C 140.19 1.10883 1.68487 0
M  V30 1566 C 140.503 -0.348153 1.92477 0
M  V30 1567 O 141.709 -0.621459 2.64292 0
M  V30 1568 C 140.165 1.93624 3.03377 0
M  V30 1569 C 139.773 3.43875 2.87148 0
M  V30 1570 C 141.517 1.86954 3.81115 0
M  V30 1571 C 139.424 4.18875 4.1749 0
M  V30 1572 H 138.354 0.41135 0.631907 0
M  V30 1573 H 141.005 1.50433 1.05082 0
M  V30 1574 H 139.387 1.46904 3.67743 0
M  V30 1575 H 140.561 3.98338 2.31653 0
M  V30 1576 H 138.876 3.51744 2.22856 0
M  V30 1577 H 141.473 2.40275 4.77673 0
M  V30 1578 H 141.816 0.839518 4.07747 0
M  V30 1579 H 142.349 2.31477 3.23517 0
M  V30 1580 H 139.088 5.22332 3.96043 0
M  V30 1581 H 138.608 3.69193 4.72712 0
M  V30 1582 H 140.287 4.27134 4.85968 0
M  V30 1583 N 140.419 -1.14872 1.07899 0
M  V30 1584 C 141.644 -1.90202 0.826926 0
M  V30 1585 C 142.069 -1.77774 -0.614664 0
M  V30 1586 O 141.427 -1.11431 -1.43013 0
M  V30 1587 C 141.475 -3.38352 1.24702 0
M  V30 1588 O 140.579 -4.10497 0.39575 0
M  V30 1589 H 139.92 -0.591968 0.300782 0
M  V30 1590 H 142.45 -1.45437 1.43907 0
M  V30 1591 H 142.46 -3.89156 1.22563 0
M  V30 1592 H 141.135 -3.46715 2.29698 0
M  V30 1593 H 139.712 -3.69796 0.480117 0
M  V30 1594 N 141.898 -0.863906 -1.31812 0
M  V30 1595 C 143.123 -0.48527 -2.01643 0
M  V30 1596 C 143.548 0.913058 -1.64453 0
M  V30 1597 O 142.906 1.6014 -0.849985 0
M  V30 1598 C 142.954 -0.642625 -3.54828 0
M  V30 1599 O 142.058 0.320659 -4.11151 0
M  V30 1600 H 141.399 -0.193793 -0.635091 0
M  V30 1601 H 143.929 -1.16565 -1.68148 0
M  V30 1602 H 143.939 -0.533628 -4.04495 0
M  V30 1603 H 142.614 -1.66227 -3.81237 0
M  V30 1604 H 141.191 0.167126 -3.72525 0
M  V30 1605 N 143.376 1.44774 -0.622745 0
M  V30 1606 C 144.324 2.32387 0.0994683 0
M  V30 1607 C 145.318 1.46859 0.844326 0
M  V30 1608 O 146.524 1.63254 0.758174 0
M  V30 1609 H 142.899 0.750273 0.0509291 0
M  V30 1610 H 144.87 2.91062 -0.65767 0
M  V30 1611 C 143.619 3.30723 1.07319 0
M  V30 1612 H 142.942 3.96541 0.509462 0
M  V30 1613 H 144.382 3.94725 1.54817 0
M  V30 1614 C 142.841 2.59021 2.15429 0
M  V30 1615 O 143.371 2.38286 3.23393 0
M  V30 1616 N 141.577 2.189 1.91131 0
M  V30 1617 H 141.124 2.35964 1.03337 0
M  V30 1618 H 141.082 1.71251 2.63668 0
M  V30 1619 N 144.854 0.36279 1.53368 0
M  V30 1620 C 146.082 -0.228613 2.05633 0
M  V30 1621 C 146.497 -1.42676 1.23649 0
M  V30 1622 O 145.854 -1.80394 0.27647 0
M  V30 1623 C 145.905 -0.624845 3.56059 0
M  V30 1624 O 145.626 0.525675 4.34935 0
M  V30 1625 C 147.127 -1.27493 4.24571 0
M  V30 1626 H 144.347 -0.0407183 0.669763 0
M  V30 1627 H 146.891 0.520352 1.97769 0
M  V30 1628 H 145.046 -1.32373 3.64083 0
M  V30 1629 H 145.46 0.205969 5.24095 0
M  V30 1630 H 146.934 -1.50277 5.31151 0
M  V30 1631 H 147.411 -2.23439 3.78116 0
M  V30 1632 H 148.017 -0.617558 4.20792 0
M  V30 1633 N 146.332 -1.57332 0.0918853 0
M  V30 1634 C 147.262 -2.16872 -0.865371 0
M  V30 1635 C 148.243 -1.10118 -1.29646 0
M  V30 1636 O 149.428 -1.38242 -1.36392 0
M  V30 1637 C 146.558 -2.74649 -2.12569 0
M  V30 1638 C 145.512 -3.86747 -1.83333 0
M  V30 1639 C 144.838 -4.31212 -3.16166 0
M  V30 1640 C 146.138 -5.10089 -1.1228 0
M  V30 1641 H 147.832 -2.97114 -0.369307 0
M  V30 1642 H 145.378 -1.42918 -0.176194 0
M  V30 1643 H 147.331 -3.14952 -2.7997 0
M  V30 1644 H 146.055 -1.91657 -2.64452 0
M  V30 1645 H 144.714 -3.46978 -1.18331 0
M  V30 1646 H 144.362 -3.45115 -3.6593 0
M  V30 1647 H 144.062 -5.06788 -2.97388 0
M  V30 1648 H 145.586 -4.74146 -3.84731 0
M  V30 1649 H 147 -5.47582 -1.69785 0
M  V30 1650 H 145.397 -5.91073 -1.03693 0
M  V30 1651 H 146.467 -4.84786 -0.105041 0
M  V30 1652 N 147.81 0.181792 -1.56548 0
M  V30 1653 C 149.226 0.53316 -1.50431 0
M  V30 1654 C 149.426 1.85184 -0.794297 0
M  V30 1655 O 148.482 2.50058 -0.350318 0
M  V30 1656 C 149.795 0.575597 -2.9514 0
M  V30 1657 C 151.343 0.663519 -3.05886 0
M  V30 1658 C 151.818 0.736946 -4.52032 0
M  V30 1659 N 153.309 0.800118 -4.56237 0
M  V30 1660 C 154.044 0.877327 -5.66649 0
M  V30 1661 N 153.54 0.916016 -6.86718 0
M  V30 1662 N 155.333 0.915542 -5.54594 0
M  V30 1663 H 147.484 -0.683025 -2.01118 0
M  V30 1664 H 149.747 -0.244988 -0.915797 0
M  V30 1665 H 149.453 -0.324482 -3.502 0
M  V30 1666 H 149.327 1.42572 -3.49218 0
M  V30 1667 H 151.714 1.55403 -2.50867 0
M  V30 1668 H 151.795 -0.21307 -2.54911 0
M  V30 1669 H 151.439 -0.149262 -5.07681 0
M  V30 1670 H 151.369 1.62953 -5.00753 0
M  V30 1671 H 153.86 0.778926 -3.69785 0
M  V30 1672 H 154.173 0.975813 -7.66614 0
M  V30 1673 H 152.518 0.884469 -6.89349 0
M  V30 1674 H 155.709 0.882245 -4.59711 0
M  V30 1675 H 155.882 0.972253 -6.40665 0
M  V30 1676 N 149.288 1.51039 0.449983 0
M  V30 1677 C 150.536 1.62759 1.19808 0
M  V30 1678 C 150.857 0.339981 1.92013 0
M  V30 1679 O 150.127 -0.643606 1.85026 0
M  V30 1680 H 148.707 0.599811 0.445237 0
M  V30 1681 H 151.369 1.87914 0.517138 0
M  V30 1682 H 150.465 2.44911 1.93455 0
M  V30 1683 N 150.766 -0.704594 1.40972 0
M  V30 1684 C 152.182 -1.01406 1.23244 0
M  V30 1685 C 152.382 -2.01169 0.115399 0
M  V30 1686 O 151.438 -2.47021 -0.523147 0
M  V30 1687 C 152.751 -1.54728 2.57836 0
M  V30 1688 C 154.299 -1.66658 2.64942 0
M  V30 1689 C 154.774 -2.23383 3.9983 0
M  V30 1690 N 156.265 -2.30756 4.01629 0
M  V30 1691 C 157 -2.75655 5.02794 0
M  V30 1692 N 156.496 -3.20225 6.14352 0
M  V30 1693 N 158.289 -2.75138 4.90159 0
M  V30 1694 H 150.44 -0.0435285 2.12355 0
M  V30 1695 H 152.703 -0.0818951 0.944456 0
M  V30 1696 H 152.409 -0.888832 3.40283 0
M  V30 1697 H 152.283 -2.53084 2.79693 0
M  V30 1698 H 154.67 -2.31617 1.8286 0
M  V30 1699 H 154.751 -0.668717 2.46904 0
M  V30 1700 H 154.395 -1.59043 4.82357 0
M  V30 1701 H 154.325 -3.23904 4.15203 0
M  V30 1702 H 156.816 -1.99291 3.21079 0
M  V30 1703 H 157.129 -3.53084 6.87424 0
M  V30 1704 H 155.474 -3.18156 6.17901 0
M  V30 1705 H 158.665 -2.39661 4.02095 0
M  V30 1706 H 158.838 -3.09812 5.6914 0
M  V30 1707 N 152.244 -1.26651 -0.937939 0
M  V30 1708 C 153.469 -1.15279 -1.72411 0
M  V30 1709 C 153.894 0.287866 -1.85884 0
M  V30 1710 O 153.252 1.20855 -1.35143 0
M  V30 1711 C 153.3 -1.83028 -3.10698 0
M  V30 1712 O 152.404 -1.12128 -3.96864 0
M  V30 1713 H 151.745 -0.401504 -0.528858 0
M  V30 1714 H 154.275 -1.67531 -1.1745 0
M  V30 1715 H 154.285 -1.89981 -3.6107 0
M  V30 1716 H 152.96 -2.87833 -3.00208 0
M  V30 1717 H 151.537 -1.13173 -3.55312 0
M  V30 1718 N 153.722 1.14298 -1.08507 0
M  V30 1719 C 155.133 1.66926 -0.836227 0
M  V30 1720 C 155.484 1.85576 0.63686 0
M  V30 1721 O 154.609 1.56767 1.49175 0
M  V30 1722 C 155.204 3.03219 -1.51142 0
M  V30 1723 C 153.763 3.52876 -1.30979 0
M  V30 1724 C 152.91 2.2833 -1.57356 0
M  V30 1725 H 155.861 0.983491 -1.24552 0
M  V30 1726 H 155.882 3.68726 -0.939211 0
M  V30 1727 H 155.394 2.89612 -2.58353 0
M  V30 1728 H 153.495 3.71703 -0.258429 0
M  V30 1729 H 153.608 4.33586 -2.03814 0
M  V30 1730 H 151.972 2.34454 -0.995164 0
M  V30 1731 H 152.755 2.17298 -2.65775 0
M  V30 1732 N 155.201 0.870884 1.31352 0
M  V30 1733 C 156.429 0.49677 2.00848 0
M  V30 1734 C 156.844 -0.910998 1.65367 0
M  V30 1735 O 156.201 -1.59696 0.883374 0
M  V30 1736 C 156.252 0.645308 3.55694 0
M  V30 1737 O 155.973 1.99764 3.89905 0
M  V30 1738 C 157.474 0.272326 4.42463 0
M  V30 1739 H 154.694 0.193462 0.642506 0
M  V30 1740 H 157.238 1.1723 1.67563 0
M  V30 1741 H 155.393 0.0173176 3.87396 0
M  V30 1742 H 155.807 2.00607 4.84621 0
M  V30 1743 H 157.281 0.427208 5.50344 0
M  V30 1744 H 157.758 -0.788587 4.32062 0
M  V30 1745 H 158.364 0.876054 4.1618 0
M  V30 1746 N 156.679 -1.44442 0.630414 0
M  V30 1747 C 157.904 -2.06927 0.139944 0
M  V30 1748 C 158.329 -1.46795 -1.17613 0
M  V30 1749 O 157.687 -0.569144 -1.72135 0
M  V30 1750 C 157.735 -3.6058 0.0379581 0
M  V30 1751 O 156.839 -3.99937 -1.0062 0
M  V30 1752 H 156.18 -0.658608 0.0844483 0
M  V30 1753 H 158.71 -1.85327 0.866891 0
M  V30 1754 H 158.72 -4.07714 -0.152856 0
M  V30 1755 H 157.395 -4.03728 0.998809 0
M  V30 1756 H 155.972 -3.64436 -0.79001 0
M  V30 1757 N 158.157 -0.370918 -1.53173 0
M  V30 1758 C 159.573 -0.0200818 -1.59587 0
M  V30 1759 C 159.773 1.46279 -1.38581 0
M  V30 1760 O 158.829 2.22506 -1.19363 0
M  V30 1761 C 160.142 -0.4808 -2.96831 0
M  V30 1762 C 161.69 -0.435477 -3.09956 0
M  V30 1763 C 162.165 -0.872092 -4.4962 0
M  V30 1764 N 163.656 -0.827364 -4.55751 0
M  V30 1765 C 164.391 -1.13683 -5.62018 0
M  V30 1766 N 163.887 -1.51584 -6.76014 0
M  V30 1767 N 165.68 -1.05927 -5.52029 0
M  V30 1768 H 157.831 -1.33652 -1.65079 0
M  V30 1769 H 160.094 -0.546634 -0.774529 0
M  V30 1770 H 159.8 -1.51577 -3.1736 0
M  V30 1771 H 159.674 0.129796 -3.76977 0
M  V30 1772 H 162.061 0.590371 -2.89134 0
M  V30 1773 H 162.142 -1.08164 -2.31806 0
M  V30 1774 H 161.786 -1.89608 -4.71181 0
M  V30 1775 H 161.716 -0.203127 -5.26208 0
M  V30 1776 H 164.207 -0.548216 -3.73902 0
M  V30 1777 H 164.52 -1.73609 -7.53047 0
M  V30 1778 H 162.865 -1.55454 -6.77391 0
M  V30 1779 H 166.056 -0.762321 -4.61851 0
M  V30 1780 H 166.229 -1.30378 -6.34749 0
M  V30 1781 N 159.635 1.57281 -0.100228 0
M  V30 1782 C 161.051 1.57527 0.256416 0
M  V30 1783 C 161.251 1.11173 1.68056 0
M  V30 1784 O 160.307 0.79053 2.39806 0
M  V30 1785 C 161.62 3.00673 0.0401747 0
M  V30 1786 C 163.168 3.12815 0.107528 0
M  V30 1787 C 163.643 4.57929 -0.0807834 0
M  V30 1788 N 165.134 4.63193 -0.0261207 0
M  V30 1789 C 165.869 5.73212 -0.146999 0
M  V30 1790 N 165.365 6.92047 -0.322999 0
M  V30 1791 N 167.158 5.62031 -0.0879044 0
M  V30 1792 H 159.309 1.85718 -1.03065 0
M  V30 1793 H 161.572 0.857446 -0.404339 0
M  V30 1794 H 161.278 3.38804 -0.943649 0
M  V30 1795 H 161.152 3.69042 0.780262 0
M  V30 1796 H 163.539 2.74554 1.08186 0
M  V30 1797 H 163.62 2.47028 -0.664134 0
M  V30 1798 H 163.264 4.96886 -1.05201 0
M  V30 1799 H 163.194 5.21783 0.710635 0
M  V30 1800 H 165.685 3.77748 0.107161 0
M  V30 1801 H 165.998 7.7173 -0.406608 0
M  V30 1802 H 164.343 6.94074 -0.358733 0
M  V30 1803 H 167.534 4.68075 0.048498 0
M  V30 1804 H 167.707 6.47734 -0.185557 0
M  V30 1805 N 161.113 -0.173488 1.56642 0
M  V30 1806 C 162.529 -0.525174 1.50712 0
M  V30 1807 C 162.729 -1.8476 0.804107 0
M  V30 1808 O 161.785 -2.49869 0.363574 0
M  V30 1809 C 163.098 -0.559937 2.95441 0
M  V30 1810 C 164.646 -0.647288 3.06234 0
M  V30 1811 C 165.121 -0.712963 4.52417 0
M  V30 1812 N 166.612 -0.775911 4.56655 0
M  V30 1813 C 167.347 -0.847264 5.67106 0
M  V30 1814 N 166.843 -0.879585 6.87194 0
M  V30 1815 N 168.636 -0.886117 5.55071 0
M  V30 1816 H 160.787 0.693681 2.00753 0
M  V30 1817 H 163.05 0.249841 0.914485 0
M  V30 1818 H 162.756 0.343049 3.50023 0
M  V30 1819 H 162.63 -1.40718 3.49969 0
M  V30 1820 H 165.017 -1.5407 2.51687 0
M  V30 1821 H 165.098 0.226586 2.54794 0
M  V30 1822 H 164.742 0.176183 5.07594 0
M  V30 1823 H 164.672 -1.60295 5.0161 0
M  V30 1824 H 167.163 -0.759304 3.70193 0
M  V30 1825 H 167.476 -0.935144 7.67121 0
M  V30 1826 H 165.821 -0.847898 6.89808 0
M  V30 1827 H 169.012 -0.857853 4.60172 0
M  V30 1828 H 169.185 -0.938263 6.41171 0
M  V30 1829 N 162.591 -1.51276 -0.441967 0
M  V30 1830 C 163.554 -1.7167 -1.51862 0
M  V30 1831 C 164.554 -0.586793 -1.49711 0
M  V30 1832 O 165.744 -0.854276 -1.51815 0
M  V30 1833 C 162.876 -1.76889 -2.91416 0
M  V30 1834 H 164.069 -2.67754 -1.35084 0
M  V30 1835 H 161.622 -1.41196 -0.670333 0
M  V30 1836 H 162.357 -0.826026 -3.13604 0
M  V30 1837 H 162.142 -2.59001 -2.94382 0
M  V30 1838 H 163.632 -1.94522 -3.69528 0
M  V30 1839 N 164.069 0.697108 -1.41344 0
M  V30 1840 C 165.001 1.8224 -1.39001 0
M  V30 1841 C 166.014 1.60152 -0.292428 0
M  V30 1842 O 167.203 1.69684 -0.554048 0
M  V30 1843 C 164.303 3.18976 -1.14489 0
M  V30 1844 C 163.476 3.68105 -2.36258 0
M  V30 1845 C 162.535 4.83506 -2.07625 0
M  V30 1846 O 161.561 4.95201 -2.8065 0
M  V30 1847 N 162.763 5.70637 -1.06555 0
M  V30 1848 H 165.528 1.84742 -2.35988 0
M  V30 1849 H 163.089 0.87937 -1.35936 0
M  V30 1850 H 165.081 3.93801 -0.932885 0
M  V30 1851 H 163.651 3.11508 -0.261043 0
M  V30 1852 H 162.871 2.84204 -2.7317 0
M  V30 1853 H 164.159 3.97667 -3.17393 0
M  V30 1854 H 163.557 5.63817 -0.461125 0
M  V30 1855 H 162.114 6.45368 -0.913444 0
M  V30 1856 N 165.547 1.27147 0.931209 0
M  V30 1857 C 166.772 1.16191 1.71797 0
M  V30 1858 C 167.197 -0.278004 1.86034 0
M  V30 1859 O 166.555 -1.20137 1.35782 0
M  V30 1860 C 166.603 1.84673 3.09723 0
M  V30 1861 O 165.707 1.14231 3.96264 0
M  V30 1862 H 165.048 0.404303 0.526721 0
M  V30 1863 H 167.578 1.68152 1.1656 0
M  V30 1864 H 167.588 1.91893 3.60057 0
M  V30 1865 H 166.263 2.89421 2.98677 0
M  V30 1866 H 164.84 1.15056 3.54706 0
M  V30 1867 N 167.025 -1.13721 1.09112 0
M  V30 1868 C 167.955 -2.21148 0.749385 0
M  V30 1869 C 168.936 -1.6792 -0.271475 0
M  V30 1870 O 170.121 -1.93693 -0.140251 0
M  V30 1871 C 167.251 -3.46905 0.165659 0
M  V30 1872 C 166.205 -4.13203 1.11567 0
M  V30 1873 C 165.531 -5.33248 0.393809 0
M  V30 1874 C 166.831 -4.60912 2.45678 0
M  V30 1875 H 168.525 -2.4999 1.64758 0
M  V30 1876 H 166.071 -1.20156 0.793626 0
M  V30 1877 H 168.024 -4.21313 -0.085466 0
M  V30 1878 H 166.748 -3.17449 -0.767714 0
M  V30 1879 H 165.407 -3.40758 1.35202 0
M  V30 1880 H 165.055 -5.00054 -0.543599 0
M  V30 1881 H 164.755 -5.78552 1.02721 0
M  V30 1882 H 166.279 -6.10413 0.150908 0
M  V30 1883 H 167.693 -5.26759 2.26269 0
M  V30 1884 H 166.09 -5.16944 3.04776 0
M  V30 1885 H 167.16 -3.75603 3.06677 0
M  V30 1886 N 168.503 -0.877838 -1.30888 0
M  V30 1887 C 169.751 -0.491723 -1.96027 0
M  V30 1888 C 170.072 0.960827 -1.69685 0
M  V30 1889 O 169.342 1.67462 -1.01654 0
M  V30 1890 H 167.922 -0.17885 -0.725273 0
M  V30 1891 H 170.584 -1.11935 -1.59551 0
M  V30 1892 H 169.68 -0.656016 -3.05128 0
M  V30 1893 N 169.982 1.44106 -0.638065 0
M  V30 1894 C 170.912 2.33448 0.0494287 0
M  V30 1895 C 171.893 1.48606 0.827672 0
M  V30 1896 O 173.078 1.77308 0.792173 0
M  V30 1897 C 170.208 3.31771 1.02691 0
M  V30 1898 C 169.162 4.26485 0.359823 0
M  V30 1899 C 168.488 5.14729 1.44769 0
M  V30 1900 C 169.788 5.17056 -0.738296 0
M  V30 1901 H 171.482 2.91183 -0.696636 0
M  V30 1902 H 169.028 1.40014 -0.336456 0
M  V30 1903 H 170.981 3.93161 1.51666 0
M  V30 1904 H 169.705 2.7226 1.80395 0
M  V30 1905 H 168.364 3.66437 -0.10934 0
M  V30 1906 H 168.012 4.51566 2.21578 0
M  V30 1907 H 167.712 5.78913 1.00668 0
M  V30 1908 H 169.236 5.78991 1.93911 0
M  V30 1909 H 170.65 5.72342 -0.331354 0
M  V30 1910 H 169.047 5.89879 -1.10286 0
M  V30 1911 H 170.117 4.57652 -1.60258 0
M  V30 1912 N 171.46 0.379036 1.52974 0
M  V30 1913 C 172.39 -0.452706 2.29069 0
M  V30 1914 C 173.371 -1.07237 1.32039 0
M  V30 1915 O 174.556 -1.08708 1.60923 0
M  V30 1916 C 171.686 -1.5856 3.08992 0
M  V30 1917 C 170.64 -1.0925 4.13822 0
M  V30 1918 C 169.966 -2.31668 4.81907 0
M  V30 1919 C 171.266 -0.167702 5.22031 0
M  V30 1920 H 172.96 0.182181 2.98845 0
M  V30 1921 H 170.506 0.0890592 1.43724 0
M  V30 1922 H 172.459 -2.1742 3.6098 0
M  V30 1923 H 171.183 -2.24792 2.36931 0
M  V30 1924 H 169.842 -0.526494 3.628 0
M  V30 1925 H 169.49 -2.96386 4.06404 0
M  V30 1926 H 169.19 -1.9934 5.52754 0
M  V30 1927 H 170.714 -2.91189 5.36695 0
M  V30 1928 H 172.128 -0.664186 5.6944 0
M  V30 1929 H 170.525 0.0653265 6.00064 0
M  V30 1930 H 171.595 0.786347 4.78482 0
M  V30 1931 N 172.938 -1.57226 0.108567 0
M  V30 1932 C 174.186 -1.94448 -0.550853 0
M  V30 1933 C 174.507 -0.992074 -1.67878 0
M  V30 1934 O 173.777 -0.0465 -1.95845 0
M  V30 1935 H 172.357 -0.717897 -0.206479 0
M  V30 1936 H 175.019 -1.94112 0.175062 0
M  V30 1937 H 174.115 -2.97218 -0.952259 0
M  V30 1938 N 174.416 0.165178 -1.56732 0
M  V30 1939 C 175.693 0.908443 -1.73224 0
M  V30 1940 C 176.073 2.0013 -0.67165 0
M  V30 1941 O 175.421 2.26353 0.31253 0
M  V30 1942 C 175.631 1.46756 -3.16644 0
M  V30 1943 C 176.979 1.93809 -3.77787 0
M  V30 1944 O 178.003 1.56537 -3.1996 0
M  V30 1945 O 176.862 2.62486 -4.79336 0
M  V30 1946 H 173.956 0.428025 -0.707618 0
M  V30 1947 H 176.502 0.152526 -1.69013 0
M  V30 1948 H 175.274 0.68129 -3.85323 0
M  V30 1949 H 174.897 2.28749 -3.25207 0
M  V30 1950 N 175.894 1.51508 0.433938 0
M  V30 1951 C 176.804 1.75917 1.5521 0
M  V30 1952 C 177.82 0.643545 1.61662 0
M  V30 1953 O 178.996 0.926183 1.7884 0
M  V30 1954 C 176.061 1.88213 2.91164 0
M  V30 1955 C 175.122 3.12074 2.94802 0
M  V30 1956 C 174.355 3.23774 4.24271 0
M  V30 1957 O 174.578 2.4133 5.16833 0
M  V30 1958 O 173.512 4.16774 4.34262 0
M  V30 1959 H 177.338 2.70777 1.37527 0
M  V30 1960 H 174.923 1.36051 0.617293 0
M  V30 1961 H 176.805 1.98267 3.71845 0
M  V30 1962 H 175.48 0.965413 3.08968 0
M  V30 1963 H 174.387 3.07497 2.13065 0
M  V30 1964 H 175.72 4.03446 2.81943 0
M  V30 1965 N 177.372 -0.689602 1.41712 0
M  V30 1966 C 178.322 -1.79571 1.40493 0
M  V30 1967 C 179.306 -1.58473 0.278409 0
M  V30 1968 O 180.498 -1.69204 0.519532 0
M  V30 1969 C 177.627 -3.17923 1.29536 0
M  V30 1970 C 176.713 -3.44695 2.47075 0
M  V30 1971 N 177.104 -3.42132 3.72531 0
M  V30 1972 C 175.402 -3.75269 2.41017 0
M  V30 1973 C 176.103 -3.67976 4.50521 0
M  V30 1974 N 175.079 -3.88014 3.80718 0
M  V30 1975 H 178.881 -1.75961 2.35404 0
M  V30 1976 H 176.395 -0.889839 1.35851 0
M  V30 1977 H 178.392 -3.97167 1.26745 0
M  V30 1978 H 177.052 -3.22741 0.356153 0
M  V30 1979 H 178.063 -3.22375 4.05333 0
M  V30 1980 H 174.74 -3.87421 1.55599 0
M  V30 1981 H 176.13 -3.7208 5.59469 0
M  V30 1982 N 178.85 -1.27639 -0.924453 0
M  V30 1983 C 180.096 -1.15345 -1.67532 0
M  V30 1984 C 180.451 0.297096 -1.90092 0
M  V30 1985 O 179.744 1.21374 -1.48253 0
M  V30 1986 C 179.938 -1.87407 -3.04325 0
M  V30 1987 C 179.767 -3.3932 -2.95114 0
M  V30 1988 C 178.537 -4.08644 -2.97218 0
M  V30 1989 C 180.735 -4.35242 -2.73987 0
M  V30 1990 N 178.717 -5.47102 -2.78482 0
M  V30 1991 C 180.088 -5.6099 -2.63988 0
M  V30 1992 C 182.143 -4.25294 -2.589 0
M  V30 1993 C 180.846 -6.77924 -2.40442 0
M  V30 1994 C 182.872 -5.41952 -2.36731 0
M  V30 1995 C 182.234 -6.66658 -2.27478 0
M  V30 1996 H 178.333 -0.47696 -0.619704 0
M  V30 1997 H 180.917 -1.6115 -1.09265 0
M  V30 1998 H 179.088 -1.44053 -3.60699 0
M  V30 1999 H 180.82 -1.6759 -3.68369 0
M  V30 2000 H 177.575 -3.60136 -3.07569 0
M  V30 2001 H 177.999 -6.19852 -2.72236 0
M  V30 2002 H 182.641 -3.29598 -2.64811 0
M  V30 2003 H 180.359 -7.73699 -2.3327 0
M  V30 2004 H 183.945 -5.36137 -2.25938 0
M  V30 2005 H 182.825 -7.55405 -2.10555 0
M  V30 2006 N 180.328 1.1314 -1.09713 0
M  V30 2007 C 181.291 2.16831 -0.742751 0
M  V30 2008 C 182.291 1.59159 0.229129 0
M  V30 2009 O 183.481 1.74199 0.00693237 0
M  V30 2010 C 180.613 3.40756 -0.0989168 0
M  V30 2011 H 181.806 2.49695 -1.66109 0
M  V30 2012 H 179.359 1.2802 -0.896699 0
M  V30 2013 H 180.094 3.13485 0.830514 0
M  V30 2014 H 179.879 3.83888 -0.798265 0
M  V30 2015 H 181.369 4.17386 0.133524 0
M  V30 2016 N 181.806 0.884767 1.30421 0
M  V30 2017 C 183.034 0.518044 2.0031 0
M  V30 2018 C 183.449 -0.893408 1.66324 0
M  V30 2019 O 182.806 -1.5875 0.900262 0
M  V30 2020 C 182.857 0.682997 3.54989 0
M  V30 2021 O 182.578 2.03888 3.87764 0
M  V30 2022 C 184.079 0.31924 4.42149 0
M  V30 2023 H 181.299 0.200265 0.640418 0
M  V30 2024 H 183.843 1.19001 1.6631 0
M  V30 2025 H 181.998 0.0584052 3.87356 0
M  V30 2026 H 182.412 2.05735 4.82466 0
M  V30 2027 H 183.886 0.485555 5.4986 0
M  V30 2028 H 184.363 -0.742717 4.32875 0
M  V30 2029 H 184.969 0.920147 4.15227 0
M  V30 2030 N 183.284 -1.43765 0.645699 0
M  V30 2031 C 184.561 -1.9541 0.0862963 0
M  V30 2032 C 184.941 -1.58725 -1.39175 0
M  V30 2033 O 184.289 -0.868581 -2.11348 0
M  V30 2034 C 184.499 -3.47488 0.324565 0
M  V30 2035 C 185.847 -4.24001 0.225497 0
M  V30 2036 O 186.871 -3.55274 0.256715 0
M  V30 2037 O 185.73 -5.46313 0.142801 0
M  V30 2038 H 182.824 -0.826882 -0.0139483 0
M  V30 2039 H 185.37 -1.53743 0.718415 0
M  V30 2040 H 184.142 -3.67289 1.3496 0
M  V30 2041 H 183.765 -3.96135 -0.340987 0
M  V30 2042 N 184.763 -0.387143 -1.52771 0
M  V30 2043 C 186.174 0.0873634 -1.86495 0
M  V30 2044 C 186.525 1.46336 -1.30691 0
M  V30 2045 O 185.65 2.068 -0.637409 0
M  V30 2046 C 186.245 0.165305 -3.38396 0
M  V30 2047 C 184.804 0.584101 -3.7184 0
M  V30 2048 C 183.951 -0.255279 -2.76122 0
M  V30 2049 H 186.902 -0.605104 -1.46711 0
M  V30 2050 H 186.923 0.984848 -3.67534 0
M  V30 2051 H 186.435 -0.836301 -3.78982 0
M  V30 2052 H 184.536 1.59315 -3.36823 0
M  V30 2053 H 184.649 0.343749 -4.77865 0
M  V30 2054 H 183.013 0.279126 -2.53166 0
M  V30 2055 H 183.796 -1.25482 -3.19545 0
M  V30 2056 N 186.241 1.57166 -0.116904 0
M  V30 2057 C 187.518 1.86645 0.585049 0
M  V30 2058 C 187.898 1.0177 1.84949 0
M  V30 2059 O 187.246 0.0960379 2.28298 0
M  V30 2060 C 187.456 3.37736 0.879507 0
M  V30 2061 C 188.804 4.06289 1.23348 0
M  V30 2062 O 189.828 3.42743 0.969836 0
M  V30 2063 O 188.687 5.18455 1.7282 0
M  V30 2064 H 185.781 0.772593 0.295007 0
M  V30 2065 H 188.327 1.69025 -0.151249 0
M  V30 2066 H 187.099 3.91296 -0.0166136 0
M  V30 2067 H 186.722 3.6078 1.67103 0
M  V30 2068 N 187.719 -0.156864 1.56817 0
M  V30 2069 C 188.652 -1.22316 1.9265 0
M  V30 2070 C 189.63 -1.42059 0.791076 0
M  V30 2071 O 190.814 -1.56831 1.04576 0
M  V30 2072 C 187.941 -2.58375 2.18998 0
M  V30 2073 C 186.987 -2.55284 3.41661 0
M  V30 2074 S 187.82 -2.02946 4.95553 0
M  V30 2075 C 188.976 -3.40753 5.25013 0
M  V30 2076 H 189.209 -0.917403 2.82791 0
M  V30 2077 H 186.742 -0.362059 1.50095 0
M  V30 2078 H 188.7 -3.36677 2.34859 0
M  V30 2079 H 187.361 -2.86145 1.29538 0
M  V30 2080 H 186.554 -3.55418 3.57343 0
M  V30 2081 H 186.156 -1.85086 3.24991 0
M  V30 2082 H 188.448 -4.36819 5.17876 0
M  V30 2083 H 189.391 -3.29933 6.26538 0
M  V30 2084 H 189.799 -3.37433 4.52548 0
M  V30 2085 N 189.197 -1.51736 -0.425897 0
M  V30 2086 C 190.427 -1.68549 -1.19476 0
M  V30 2087 C 190.835 -0.387288 -1.85194 0
M  V30 2088 O 190.178 0.645142 -1.71999 0
M  V30 2089 C 190.24 -2.75275 -2.31223 0
M  V30 2090 C 189.904 -4.17534 -1.8578 0
M  V30 2091 C 190.901 -5.01936 -1.35485 0
M  V30 2092 C 188.586 -4.6369 -1.93123 0
M  V30 2093 C 190.58 -6.30559 -0.931347 0
M  V30 2094 C 188.267 -5.92307 -1.50384 0
M  V30 2095 C 189.265 -6.75569 -1.00473 0
M  V30 2096 O 188.953 -8.0178 -0.583452 0
M  V30 2097 H 188.685 -0.568525 -0.365725 0
M  V30 2098 H 191.239 -1.98982 -0.509444 0
M  V30 2099 H 189.469 -2.40182 -3.03067 0
M  V30 2100 H 191.158 -2.80853 -2.93047 0
M  V30 2101 H 191.924 -4.67475 -1.29197 0
M  V30 2102 H 187.803 -3.98997 -2.30916 0
M  V30 2103 H 191.347 -6.95498 -0.541084 0
M  V30 2104 H 187.244 -6.2628 -1.56346 0
M  V30 2105 H 188.012 -8.1543 -0.708275 0
M  V30 2106 N 190.675 0.682077 -1.42076 0
M  V30 2107 C 191.605 1.80796 -1.47767 0
M  V30 2108 C 192.586 1.6677 -0.334954 0
M  V30 2109 O 193.771 1.863 -0.548264 0
M  V30 2110 C 190.901 3.19038 -1.37229 0
M  V30 2111 C 189.855 3.47789 -2.49453 0
M  V30 2112 C 189.181 4.8553 -2.23975 0
M  V30 2113 C 190.481 3.45411 -3.91776 0
M  V30 2114 H 192.175 1.7629 -2.41997 0
M  V30 2115 H 189.721 0.846721 -1.16476 0
M  V30 2116 H 191.674 3.97528 -1.39821 0
M  V30 2117 H 190.398 3.24204 -0.394907 0
M  V30 2118 H 189.057 2.71657 -2.46166 0
M  V30 2119 H 188.705 4.87337 -1.24547 0
M  V30 2120 H 188.405 5.0573 -2.99184 0
M  V30 2121 H 189.929 5.66312 -2.28304 0
M  V30 2122 H 191.343 4.13882 -3.96705 0
M  V30 2123 H 189.74 3.77145 -4.66778 0
M  V30 2124 H 190.81 2.44122 -4.18966 0
M  V30 2125 N 192.153 1.28127 0.917671 0
M  V30 2126 C 193.085 1.07517 2.02417 0
M  V30 2127 C 194.098 0.0281099 1.62776 0
M  V30 2128 O 195.287 0.270748 1.76435 0
M  V30 2129 C 192.387 0.610957 3.33347 0
M  V30 2130 C 191.56 1.73255 4.01624 0
M  V30 2131 C 190.619 1.26238 5.10833 0
M  V30 2132 O 189.645 1.96389 5.34247 0
M  V30 2133 N 190.847 0.123448 5.80369 0
M  V30 2134 H 193.612 2.02806 2.20658 0
M  V30 2135 H 191.173 1.19827 1.08871 0
M  V30 2136 H 193.165 0.280101 4.0373 0
M  V30 2137 H 191.735 -0.24898 3.11607 0
M  V30 2138 H 190.955 2.23319 3.24842 0
M  V30 2139 H 192.243 2.48503 4.43986 0
M  V30 2140 H 191.641 -0.461847 5.63812 0
M  V30 2141 H 190.198 -0.148158 6.51632 0
M  V30 2142 N 193.631 -1.12557 1.10312 0
M  V30 2143 C 194.856 -1.88405 0.867085 0
M  V30 2144 C 195.281 -1.79038 -0.576817 0
M  V30 2145 O 194.639 -1.14439 -1.40618 0
M  V30 2146 C 194.687 -3.3563 1.31851 0
M  V30 2147 O 193.791 -4.09565 0.482734 0
M  V30 2148 H 193.132 -0.585455 0.313271 0
M  V30 2149 H 195.662 -1.42352 1.4696 0
M  V30 2150 H 195.672 -3.86469 1.3079 0
M  V30 2151 H 194.347 -3.41765 2.37001 0
M  V30 2152 H 192.924 -3.68695 0.558448 0
M  V30 2153 N 195.109 -0.891671 -1.2995 0
M  V30 2154 C 196.52 -0.563104 -1.78006 0
M  V30 2155 C 196.871 0.920978 -1.73241 0
M  V30 2156 O 195.996 1.71987 -1.31337 0
M  V30 2157 C 196.591 -1.01539 -3.23226 0
M  V30 2158 C 195.15 -0.738124 -3.69092 0
M  V30 2159 C 194.297 -1.19461 -2.50249 0
M  V30 2160 H 197.248 -1.07522 -1.16725 0
M  V30 2161 H 197.269 -0.347217 -3.78912 0
M  V30 2162 H 196.781 -2.09555 -3.26662 0
M  V30 2163 H 194.882 0.329766 -3.71138 0
M  V30 2164 H 194.995 -1.33037 -4.60259 0
M  V30 2165 H 193.359 -0.613787 -2.47194 0
M  V30 2166 H 194.142 -2.28265 -2.56417 0
M  V30 2167 N 196.587 1.43421 -0.653314 0
M  V30 2168 C 197.519 2.29071 0.0769134 0
M  V30 2169 C 198.532 1.42513 0.787017 0
M  V30 2170 O 199.721 1.66449 0.644757 0
M  V30 2171 C 196.821 3.19436 1.13199 0
M  V30 2172 C 195.994 4.34533 0.500006 0
M  V30 2173 C 195.053 5.05771 1.45198 0
M  V30 2174 O 194.079 5.61037 0.960538 0
M  V30 2175 N 195.281 5.0928 2.78594 0
M  V30 2176 H 198.046 2.92382 -0.658235 0
M  V30 2177 H 195.607 1.54112 -0.496104 0
M  V30 2178 H 197.599 3.63958 1.76964 0
M  V30 2179 H 196.169 2.57724 1.7691 0
M  V30 2180 H 195.389 3.92925 -0.316738 0
M  V30 2181 H 196.677 5.08766 0.0588345 0
M  V30 2182 H 196.075 4.65751 3.2108 0
M  V30 2183 H 194.632 5.57519 3.37662 0
M  V30 2184 N 198.065 0.39524 1.52563 0
M  V30 2185 C 199.29 -0.187456 2.06551 0
M  V30 2186 C 199.715 -1.39249 1.26457 0
M  V30 2187 O 199.073 -1.78947 0.291151 0
M  V30 2188 C 199.121 -0.529985 3.56684 0
M  V30 2189 O 198.225 -1.62307 3.79118 0
M  V30 2190 H 197.566 -0.0202537 0.663691 0
M  V30 2191 H 200.096 0.564426 1.96661 0
M  V30 2192 H 200.106 -0.792598 4.00227 0
M  V30 2193 H 198.781 0.350987 4.14416 0
M  V30 2194 H 197.358 -1.3537 3.47461 0
M  V30 2195 N 199.544 -1.57102 0.125237 0
M  V30 2196 C 200.454 -2.19191 -0.8362 0
M  V30 2197 C 201.47 -1.16985 -1.28805 0
M  V30 2198 O 202.646 -1.49479 -1.34974 0
M  V30 2199 C 199.711 -2.78407 -2.06617 0
M  V30 2200 C 198.772 -3.9567 -1.66565 0
M  V30 2201 C 198.005 -4.52052 -2.83698 0
M  V30 2202 O 198.228 -4.07326 -3.99302 0
M  V30 2203 O 197.162 -5.42645 -2.60423 0
M  V30 2204 H 200.988 -3.01816 -0.337776 0
M  V30 2205 H 198.573 -1.4906 -0.100695 0
M  V30 2206 H 200.455 -3.16129 -2.7864 0
M  V30 2207 H 199.13 -1.9881 -2.55453 0
M  V30 2208 H 198.037 -3.62705 -0.916296 0
M  V30 2209 H 199.37 -4.76722 -1.22464 0
M  V30 2210 N 201.022 0.148545 -1.56898 0
M  V30 2211 C 202.438 0.501131 -1.51528 0
M  V30 2212 C 202.638 1.83458 -0.833399 0
M  V30 2213 O 201.694 2.49259 -0.40328 0
M  V30 2214 C 203.007 0.512864 -2.96294 0
M  V30 2215 C 204.555 0.598487 -3.07225 0
M  V30 2216 C 205.03 0.640897 -4.53494 0
M  V30 2217 N 206.521 0.703163 -4.57832 0
M  V30 2218 C 207.256 0.756935 -5.68382 0
M  V30 2219 N 206.752 0.770147 -6.88506 0
M  V30 2220 N 208.545 0.797698 -5.56411 0
M  V30 2221 H 200.696 -0.725532 -1.99624 0
M  V30 2222 H 202.959 -0.264358 -0.910395 0
M  V30 2223 H 202.665 -0.398691 -3.49433 0
M  V30 2224 H 202.539 1.35133 -3.52163 0
M  V30 2225 H 204.926 1.50046 -2.54106 0
M  V30 2226 H 205.007 -0.267093 -2.54402 0
M  V30 2227 H 204.651 -0.256915 -5.0725 0
M  V30 2228 H 204.581 1.52295 -5.04097 0
M  V30 2229 H 207.072 0.700314 -3.71354 0
M  V30 2230 H 207.385 0.812983 -7.68512 0
M  V30 2231 H 205.73 0.738049 -6.9107 0
M  V30 2232 H 208.921 0.784535 -4.61479 0
M  V30 2233 H 209.094 0.83614 -6.42583 0
M  V30 2234 N 202.5 1.5196 0.417844 0
M  V30 2235 C 203.728 1.69426 1.18753 0
M  V30 2236 C 204.143 0.399955 1.84515 0
M  V30 2237 O 203.5 -0.623288 1.71527 0
M  V30 2238 C 203.551 2.82375 2.25714 0
M  V30 2239 O 203.272 4.06793 1.62638 0
M  V30 2240 C 204.773 3.11277 3.15628 0
M  V30 2241 H 201.993 0.568031 0.357186 0
M  V30 2242 H 204.537 1.98475 0.49273 0
M  V30 2243 H 202.692 2.5587 2.90877 0
M  V30 2244 H 203.106 4.69667 2.3348 0
M  V30 2245 H 204.58 3.93843 3.86771 0
M  V30 2246 H 205.057 2.24473 3.77503 0
M  V30 2247 H 205.663 3.39515 2.56144 0
M  V30 2248 N 203.978 -0.674533 1.42435 0
M  V30 2249 C 205.255 -1.4305 1.33402 0
M  V30 2250 C 205.635 -2.11081 -0.0284674 0
M  V30 2251 O 204.983 -2.03257 -1.04397 0
M  V30 2252 C 205.193 -2.43272 2.50239 0
M  V30 2253 C 206.541 -3.07907 2.92367 0
M  V30 2254 O 207.565 -2.53599 2.50132 0
M  V30 2255 O 206.424 -4.0632 3.65467 0
M  V30 2256 H 203.518 -0.638076 0.526106 0
M  V30 2257 H 206.064 -0.703235 1.54443 0
M  V30 2258 H 204.836 -1.91803 3.41068 0
M  V30 2259 H 204.459 -3.23479 2.31186 0
M  V30 2260 N 205.456 -1.28612 -0.910864 0
M  V30 2261 C 206.867 -1.14406 -1.47541 0
M  V30 2262 C 207.218 0.264901 -1.94403 0
M  V30 2263 O 206.343 1.15942 -1.82719 0
M  V30 2264 C 206.938 -2.07073 -2.68153 0
M  V30 2265 C 205.497 -1.96923 -3.20778 0
M  V30 2266 C 204.644 -1.98646 -1.93481 0
M  V30 2267 H 207.595 -1.41259 -0.723291 0
M  V30 2268 H 207.616 -1.63642 -3.43514 0
M  V30 2269 H 207.128 -3.09611 -2.34015 0
M  V30 2270 H 205.229 -0.97433 -3.59635 0
M  V30 2271 H 205.342 -2.84026 -3.85832 0
M  V30 2272 H 203.706 -1.43093 -2.10705 0
M  V30 2273 H 204.489 -3.02868 -1.61634 0
M  V30 2274 N 206.934 1.1197 -1.10907 0
M  V30 2275 C 207.884 2.15946 -0.731538 0
M  V30 2276 C 208.868 1.58758 0.261699 0
M  V30 2277 O 210.06 1.76863 0.0696722 0
M  V30 2278 C 207.189 3.42877 -0.170299 0
M  V30 2279 C 206.275 4.07037 -1.19087 0
M  V30 2280 N 206.666 4.46135 -2.38322 0
M  V30 2281 C 204.964 4.33884 -1.03252 0
M  V30 2282 C 205.665 4.96331 -3.03366 0
M  V30 2283 N 204.641 4.9214 -2.30865 0
M  V30 2284 H 208.443 2.43947 -1.63912 0
M  V30 2285 H 205.957 1.28927 -0.987505 0
M  V30 2286 H 207.954 4.16732 0.118271 0
M  V30 2287 H 206.614 3.16343 0.731935 0
M  V30 2288 H 207.625 4.38345 -2.75815 0
M  V30 2289 H 204.302 4.17084 -0.186256 0
M  V30 2290 H 205.692 5.36257 -4.04818 0
M  V30 2291 N 208.412 0.89855 1.29475 0
M  V30 2292 C 209.66 0.522847 1.9522 0
M  V30 2293 C 209.981 -0.93371 1.71192 0
M  V30 2294 O 209.251 -1.65823 1.04305 0
M  V30 2295 H 207.831 0.190366 0.722336 0
M  V30 2296 H 210.493 1.14459 1.5775 0
M  V30 2297 H 209.589 0.704476 3.04045 0
M  V30 2298 N 209.89 -1.43072 0.660911 0
M  V30 2299 C 210.82 -2.33497 -0.0122829 0
M  V30 2300 C 211.801 -1.49903 -0.803925 0
M  V30 2301 O 212.986 -1.78546 -0.763864 0
M  V30 2302 C 210.116 -3.33363 -0.973994 0
M  V30 2303 C 209.07 -4.27003 -0.291928 0
M  V30 2304 C 208.396 -5.16967 -1.36562 0
M  V30 2305 C 209.696 -5.15816 0.820462 0
M  V30 2306 H 211.39 -2.90038 0.742873 0
M  V30 2307 H 208.936 -1.39461 0.358688 0
M  V30 2308 H 210.889 -3.95524 -1.45392 0
M  V30 2309 H 209.613 -2.75095 -1.7604 0
M  V30 2310 H 208.272 -3.66217 0.167623 0
M  V30 2311 H 207.92 -4.55034 -2.14366 0
M  V30 2312 H 207.62 -5.80441 -0.914454 0
M  V30 2313 H 209.144 -5.82003 -1.84675 0
M  V30 2314 H 210.558 -5.71742 0.422366 0
M  V30 2315 H 208.955 -5.8805 1.19656 0
M  V30 2316 H 210.025 -4.55045 1.67518 0
M  V30 2317 N 211.368 -0.403325 -1.52352 0
M  V30 2318 C 212.598 0.17376 -2.05868 0
M  V30 2319 C 213.006 1.39898 -1.27378 0
M  V30 2320 O 212.349 1.80939 -0.31729 0
M  V30 2321 C 212.411 0.594756 -3.54546 0
M  V30 2322 C 212.075 -0.518926 -4.54044 0
M  V30 2323 C 213.072 -1.3807 -5.01231 0
M  V30 2324 C 210.757 -0.689961 -4.97539 0
M  V30 2325 C 212.751 -2.39852 -5.90551 0
M  V30 2326 C 210.438 -1.71109 -5.86656 0
M  V30 2327 C 211.436 -2.56378 -6.33056 0
M  V30 2328 O 211.124 -3.56743 -7.20409 0
M  V30 2329 H 210.856 0.0264951 -0.675481 0
M  V30 2330 H 213.41 -0.571179 -1.97299 0
M  V30 2331 H 211.64 1.39189 -3.60782 0
M  V30 2332 H 213.329 1.0991 -3.90736 0
M  V30 2333 H 214.095 -1.25994 -4.68349 0
M  V30 2334 H 209.974 -0.035939 -4.60986 0
M  V30 2335 H 213.518 -3.06441 -6.26689 0
M  V30 2336 H 209.415 -1.83218 -6.18952 0
M  V30 2337 H 210.183 -3.52918 -7.38506 0
M  V30 2338 N 212.846 1.57033 -0.133567 0
M  V30 2339 C 213.776 2.1909 0.807567 0
M  V30 2340 C 214.757 1.13517 1.26681 0
M  V30 2341 O 215.942 1.41809 1.32679 0
M  V30 2342 C 213.072 2.80188 2.05212 0
M  V30 2343 C 212.026 3.91471 1.73015 0
M  V30 2344 C 211.352 4.39443 3.04622 0
M  V30 2345 C 212.652 5.12886 0.987168 0
M  V30 2346 H 214.346 2.97988 0.290403 0
M  V30 2347 H 211.892 1.43335 0.138239 0
M  V30 2348 H 213.845 3.22264 2.71521 0
M  V30 2349 H 212.569 1.98601 2.59278 0
M  V30 2350 H 211.228 3.49993 1.0909 0
M  V30 2351 H 210.876 3.54695 3.56651 0
M  V30 2352 H 210.576 5.14495 2.83847 0
M  V30 2353 H 212.1 4.8418 3.72024 0
M  V30 2354 H 213.514 5.51891 1.55208 0
M  V30 2355 H 211.911 5.93615 0.87985 0
M  V30 2356 H 212.981 4.84894 -0.0235286 0
M  V30 2357 N 214.325 -0.140222 1.56975 0
M  V30 2358 C 215.55 -0.870414 1.88251 0
M  V30 2359 C 215.975 -1.73637 0.723312 0
M  V30 2360 O 215.333 -1.78329 -0.32689 0
M  V30 2361 C 215.381 -1.69737 3.18154 0
M  V30 2362 O 214.485 -2.80229 3.02565 0
M  V30 2363 H 213.826 -0.242025 0.61832 0
M  V30 2364 H 216.356 -0.128999 2.04193 0
M  V30 2365 H 216.366 -2.09099 3.50345 0
M  V30 2366 H 215.041 -1.06152 4.02125 0
M  V30 2367 H 213.618 -2.44224 2.81796 0
M  V30 2368 N 215.803 -1.52179 -0.40978 0
M  V30 2369 C 217.043 -1.67882 -1.16597 0
M  V30 2370 C 217.407 -0.399795 -1.87791 0
M  V30 2371 O 218.608 -0.43292 -2.65291 0
M  V30 2372 C 216.879 -2.86662 -2.13448 0
M  V30 2373 S 218.438 -3.22843 -2.97183 0
M  V30 2374 H 215.256 -0.59118 -0.395002 0
M  V30 2375 H 217.858 -1.9017 -0.453373 0
M  V30 2376 H 216.562 -3.77998 -1.59831 0
M  V30 2377 H 216.093 -2.66645 -2.89247 0
M  V30 2378 H 218.108 -2.71415 -4.15389 0
M  V30 2379 N 217.281 0.66697 -1.42791 0
M  V30 2380 C 218.229 1.80157 -1.47127 0
M  V30 2381 C 219.223 1.65825 -0.346199 0
M  V30 2382 O 220.429 1.72338 -0.519572 0
M  V30 2383 H 216.804 0.594158 -0.460956 0
M  V30 2384 H 218.775 1.73619 -2.42692 0
M  V30 2385 C 217.524 3.18351 -1.39813 0
M  V30 2386 H 216.847 3.3001 -2.25684 0
M  V30 2387 H 218.287 3.97736 -1.46908 0
M  V30 2388 C 216.746 3.36707 -0.11391 0
M  V30 2389 O 217.276 3.93027 0.830241 0
M  V30 2390 N 215.482 2.90586 -0.0285295 0
M  V30 2391 H 215.029 2.4494 -0.79764 0
M  V30 2392 H 214.987 3.03245 0.830063 0
M  V30 2393 N 218.759 1.29093 0.90403 0
M  V30 2394 C 220.007 1.16583 1.65085 0
M  V30 2395 C 220.328 -0.283933 1.92922 0
M  V30 2396 O 219.598 -1.19509 1.55224 0
M  V30 2397 H 218.178 0.428467 0.611903 0
M  V30 2398 H 220.84 1.61959 1.08422 0
M  V30 2399 H 219.936 1.71266 2.6091 0
M  V30 2400 N 220.237 -1.11381 1.11499 0
M  V30 2401 C 221.485 -1.8277 0.862524 0
M  V30 2402 C 221.806 -1.85097 -0.613534 0
M  V30 2403 O 221.076 -1.32198 -1.4457 0
M  V30 2404 H 219.656 -0.676823 0.316101 0
M  V30 2405 H 222.318 -1.34816 1.4075 0
M  V30 2406 H 221.414 -2.86614 1.23527 0
M  V30 2407 N 221.715 -0.905404 -1.28997 0
M  V30 2408 C 222.943 -0.549846 -1.9946 0
M  V30 2409 C 223.358 0.866834 -1.67724 0
M  V30 2410 O 222.715 1.57298 -0.925404 0
M  V30 2411 C 222.766 -0.739387 -3.53858 0
M  V30 2412 O 222.487 -2.10031 -3.84472 0
M  V30 2413 C 223.988 -0.389541 -4.41585 0
M  V30 2414 H 221.208 -0.210429 -0.637151 0
M  V30 2415 H 223.752 -1.21632 -1.64396 0
M  V30 2416 H 221.907 -0.120023 -3.87214 0
M  V30 2417 H 222.321 -2.13385 -4.79132 0
M  V30 2418 H 223.795 -0.572972 -5.49018 0
M  V30 2419 H 224.272 0.673756 -4.34001 0
M  V30 2420 H 224.878 -0.986089 -4.1371 0
M  V30 2421 N 223.193 1.4272 -0.668489 0
M  V30 2422 C 224.604 1.84793 -0.266151 0
M  V30 2423 C 224.955 1.55959 1.19043 0
M  V30 2424 O 224.08 1.01622 1.91055 0
M  V30 2425 C 224.675 3.35436 -0.476271 0
M  V30 2426 C 223.234 3.76182 -0.128113 0
M  V30 2427 C 222.381 2.66344 -0.771777 0
M  V30 2428 H 225.332 1.32656 -0.871098 0
M  V30 2429 H 225.353 3.79515 0.273561 0
M  V30 2430 H 224.865 3.5639 -1.53647 0
M  V30 2431 H 222.966 3.60836 0.928891 0
M  V30 2432 H 223.079 4.75766 -0.564231 0
M  V30 2433 H 221.443 2.53885 -0.203652 0
M  V30 2434 H 222.226 2.90123 -1.83531 0
M  V30 2435 N 224.671 0.411399 1.52136 0
M  V30 2436 C 225.634 -0.401089 2.25663 0
M  V30 2437 C 226.634 -0.971732 1.28117 0
M  V30 2438 O 227.824 -0.850254 1.52041 0
M  V30 2439 C 224.956 -1.56483 3.02863 0
M  V30 2440 H 226.149 0.24295 2.98914 0
M  V30 2441 H 223.702 0.163968 1.55438 0
M  V30 2442 H 224.437 -2.24567 2.33967 0
M  V30 2443 H 224.222 -1.16211 3.74483 0
M  V30 2444 H 225.712 -2.13951 3.58629 0
M  V30 2445 N 226.149 -1.5696 0.141893 0
M  V30 2446 C 227.397 -1.95573 -0.509484 0
M  V30 2447 C 227.718 -1.02746 -1.65736 0
M  V30 2448 O 226.988 -0.0880311 -1.95702 0
M  V30 2449 H 225.568 -0.722115 -0.191205 0
M  V30 2450 H 228.23 -1.93697 0.216196 0
M  V30 2451 H 227.326 -2.99171 -0.889 0
M  V30 2452 N 227.627 0.131896 -1.57047 0
M  V30 2453 C 228.577 1.1679 -1.95816 0
M  V30 2454 C 229.561 1.37756 -0.831393 0
M  V30 2455 O 230.753 1.39065 -1.09499 0
M  V30 2456 C 227.882 2.49778 -2.35512 0
M  V30 2457 C 226.968 2.32342 -3.54793 0
M  V30 2458 N 227.359 1.8469 -4.70875 0
M  V30 2459 C 225.657 2.63043 -3.60173 0
M  V30 2460 C 226.358 1.80656 -5.52936 0
M  V30 2461 N 225.334 2.24528 -4.95064 0
M  V30 2462 H 229.136 0.791818 -2.83033 0
M  V30 2463 H 226.65 0.339791 -1.58805 0
M  V30 2464 H 228.647 3.24692 -2.61498 0
M  V30 2465 H 227.307 2.88156 -1.49654 0
M  V30 2466 H 228.318 1.54429 -4.9434 0
M  V30 2467 H 224.995 3.05193 -2.84892 0
M  V30 2468 H 226.385 1.45178 -6.56028 0
M  V30 2469 N 229.106 1.52395 0.401703 0
M  V30 2470 C 230.053 1.76268 1.48991 0
M  V30 2471 C 231.023 0.605386 1.54675 0
M  V30 2472 O 232.208 0.843742 1.7113 0
M  V30 2473 C 229.348 1.92592 2.86361 0
M  V30 2474 C 228.461 3.20259 2.89928 0
M  V30 2475 C 227.596 3.26972 4.18644 0
M  V30 2476 C 226.635 4.48812 4.16214 0
M  V30 2477 N 225.772 4.52877 5.36514 0
M  V30 2478 H 230.612 2.6914 1.27935 0
M  V30 2479 H 228.149 1.33355 0.620871 0
M  V30 2480 H 230.107 2.0004 3.66115 0
M  V30 2481 H 228.737 1.03093 3.05895 0
M  V30 2482 H 227.789 3.21945 2.02621 0
M  V30 2483 H 229.101 4.10056 2.83999 0
M  V30 2484 H 228.255 3.33533 5.06794 0
M  V30 2485 H 226.994 2.35126 4.27278 0
M  V30 2486 H 225.999 4.4239 3.26453 0
M  V30 2487 H 227.224 5.41961 4.09213 0
M  V30 2488 H 225.17 3.63917 5.45802 0
M  V30 2489 H 225.087 5.36529 5.32609 0
M  V30 2490 H 226.355 4.63676 6.26597 0
M  V30 2491 N 230.584 -0.659388 1.43143 0
M  V30 2492 C 231.516 -1.7849 1.43784 0
M  V30 2493 C 232.529 -1.5932 0.334787 0
M  V30 2494 O 233.718 -1.68155 0.598842 0
M  V30 2495 C 230.818 -3.15828 1.22906 0
M  V30 2496 C 229.991 -3.61711 2.45934 0
M  V30 2497 C 229.05 -4.77831 2.20371 0
M  V30 2498 O 228.076 -4.87586 2.93681 0
M  V30 2499 N 229.278 -5.67611 1.21647 0
M  V30 2500 H 232.043 -1.7842 2.40803 0
M  V30 2501 H 229.604 -0.84302 1.3822 0
M  V30 2502 H 231.596 -3.91189 1.03697 0
M  V30 2503 H 230.166 -3.10707 0.343542 0
M  V30 2504 H 229.386 -2.76861 2.80609 0
M  V30 2505 H 230.674 -3.89112 3.27825 0
M  V30 2506 H 230.072 -5.62397 0.610449 0
M  V30 2507 H 228.629 -6.42719 1.08423 0
M  V30 2508 N 232.062 -1.29571 -0.897171 0
M  V30 2509 C 232.995 -1.0924 -2.00354 0
M  V30 2510 C 233.973 -0.00354011 -1.626 0
M  V30 2511 O 235.157 -0.15473 -1.87864 0
M  V30 2512 C 232.284 -0.66352 -3.32137 0
M  V30 2513 C 231.33 -1.75146 -3.88878 0
M  V30 2514 S 232.163 -3.35124 -4.17674 0
M  V30 2515 C 233.319 -2.9411 -5.52494 0
M  V30 2516 H 233.552 -2.02907 -2.17292 0
M  V30 2517 H 231.085 -1.13746 -1.04408 0
M  V30 2518 H 233.043 -0.422791 -4.08317 0
M  V30 2519 H 231.704 0.253588 -3.13075 0
M  V30 2520 H 230.897 -1.40337 -4.84068 0
M  V30 2521 H 230.499 -1.94584 -3.19395 0
M  V30 2522 H 232.791 -2.41312 -6.33068 0
M  V30 2523 H 233.734 -3.88161 -5.9223 0
M  V30 2524 H 234.142 -2.32332 -5.14473 0
M  V30 2525 N 233.54 1.10788 -1.12088 0
M  V30 2526 C 234.951 1.64181 -0.88891 0
M  V30 2527 C 235.302 1.87508 0.577498 0
M  V30 2528 O 234.427 1.61434 1.44112 0
M  V30 2529 C 235.022 2.98257 -1.60712 0
M  V30 2530 C 233.581 3.4853 -1.42139 0
M  V30 2531 C 232.728 2.23208 -1.6454 0
M  V30 2532 H 235.679 0.943368 -1.27618 0
M  V30 2533 H 235.7 3.65552 -1.05604 0
M  V30 2534 H 235.212 2.81246 -2.67436 0
M  V30 2535 H 233.313 3.70692 -0.376552 0
M  V30 2536 H 233.426 4.26882 -2.17505 0
M  V30 2537 H 231.79 2.31169 -1.06925 0
M  V30 2538 H 232.573 2.08733 -2.72554 0
M  V30 2539 N 235.018 0.912232 1.28515 0
M  V30 2540 C 236.264 0.554851 1.95686 0
M  V30 2541 C 236.619 -0.89138 1.70506 0
M  V30 2542 O 235.912 -1.62529 1.01464 0
M  V30 2543 C 236.106 0.798392 3.48368 0
M  V30 2544 C 235.935 2.26674 3.88393 0
M  V30 2545 C 234.705 2.91657 4.12631 0
M  V30 2546 C 236.903 3.24303 3.99164 0
M  V30 2547 N 234.885 4.28805 4.39317 0
M  V30 2548 C 236.256 4.4661 4.30046 0
M  V30 2549 C 238.311 3.19723 3.81683 0
M  V30 2550 C 237.014 5.64915 4.45268 0
M  V30 2551 C 239.04 4.37325 3.98121 0
M  V30 2552 C 238.402 5.58406 4.29375 0
M  V30 2553 H 234.501 0.252876 0.739985 0
M  V30 2554 H 237.085 1.17565 1.55199 0
M  V30 2555 H 235.256 0.20688 3.87849 0
M  V30 2556 H 236.988 0.405193 4.02666 0
M  V30 2557 H 233.743 2.42393 4.06869 0
M  V30 2558 H 234.167 4.99712 4.56746 0
M  V30 2559 H 238.809 2.27191 3.56573 0
M  V30 2560 H 236.527 6.57927 4.6921 0
M  V30 2561 H 240.113 4.35282 3.86033 0
M  V30 2562 H 238.993 6.47889 4.41825 0
M  V30 2563 N 236.496 -1.42363 0.676048 0
M  V30 2564 C 237.907 -1.84649 0.275948 0
M  V30 2565 C 238.258 -1.56588 -1.18214 0
M  V30 2566 O 237.383 -1.02634 -1.90513 0
M  V30 2567 C 237.978 -3.35178 0.494053 0
M  V30 2568 C 236.537 -3.76109 0.148061 0
M  V30 2569 C 235.684 -2.65931 0.785891 0
M  V30 2570 H 238.635 -1.32192 0.878121 0
M  V30 2571 H 238.656 -3.79655 -0.25343 0
M  V30 2572 H 238.168 -3.55571 1.55535 0
M  V30 2573 H 236.269 -3.61323 -0.909742 0
M  V30 2574 H 236.382 -4.7546 0.589454 0
M  V30 2575 H 234.746 -2.53773 0.217113 0
M  V30 2576 H 235.529 -2.89146 1.85067 0
M  V30 2577 N 237.974 -0.419461 -1.51915 0
M  V30 2578 C 238.884 0.407528 -2.31033 0
M  V30 2579 C 239.9 1.04413 -1.3919 0
M  V30 2580 O 241.076 1.0434 -1.72265 0
M  V30 2581 C 238.141 1.50365 -3.12396 0
M  V30 2582 C 237.202 0.889029 -4.19994 0
M  V30 2583 C 236.435 1.93291 -4.97468 0
M  V30 2584 O 236.658 3.15259 -4.75361 0
M  V30 2585 O 235.592 1.53339 -5.8204 0
M  V30 2586 H 239.418 -0.237865 -3.02767 0
M  V30 2587 H 237.003 -0.182413 -1.48282 0
M  V30 2588 H 238.885 2.13975 -3.63032 0
M  V30 2589 H 237.56 2.13345 -2.43445 0
M  V30 2590 H 236.467 0.215353 -3.7348 0
M  V30 2591 H 237.8 0.302991 -4.91267 0
M  V30 2592 N 239.452 1.56882 -0.150215 0
M  V30 2593 C 240.863 1.82995 0.370076 0
M  V30 2594 C 241.214 1.06907 1.64515 0
M  V30 2595 O 240.339 0.315369 2.1409 0
M  V30 2596 C 240.934 3.31942 0.678208 0
M  V30 2597 C 239.493 3.58625 1.14301 0
M  V30 2598 C 238.64 2.76792 0.167778 0
M  V30 2599 H 241.591 1.54209 -0.374858 0
M  V30 2600 H 241.612 3.48272 1.53254 0
M  V30 2601 H 241.124 3.87294 -0.249991 0
M  V30 2602 H 239.225 3.08664 2.08704 0
M  V30 2603 H 239.338 4.67073 1.06676 0
M  V30 2604 H 237.702 2.45972 0.661037 0
M  V30 2605 H 238.485 3.34916 -0.754069 0
M  V30 2606 N 240.93 -0.123565 1.57115 0
M  V30 2607 C 241.862 -1.17739 1.96648 0
M  V30 2608 C 242.875 -1.37906 0.865201 0
M  V30 2609 O 244.064 -1.37062 1.14351 0
M  V30 2610 C 241.164 -2.53821 2.24562 0
M  V30 2611 C 240.337 -2.54317 3.55867 0
M  V30 2612 C 239.396 -3.72112 3.72047 0
M  V30 2613 O 238.422 -3.55907 4.44206 0
M  V30 2614 N 239.624 -4.90498 3.10471 0
M  V30 2615 H 242.389 -0.841147 2.87654 0
M  V30 2616 H 239.95 -0.31289 1.58848 0
M  V30 2617 H 241.942 -3.31175 2.32606 0
M  V30 2618 H 240.512 -2.79645 1.39705 0
M  V30 2619 H 239.732 -1.62711 3.59053 0
M  V30 2620 H 241.02 -2.51701 4.42181 0
M  V30 2621 H 240.418 -5.06567 2.51806 0
M  V30 2622 H 238.975 -5.65544 3.24043 0
M  V30 2623 N 242.408 -1.52605 -0.393616 0
M  V30 2624 C 243.633 -1.71592 -1.16495 0
M  V30 2625 C 244.058 -0.43133 -1.83088 0
M  V30 2626 O 243.416 0.612523 -1.7064 0
M  V30 2627 C 243.464 -2.86318 -2.19213 0
M  V30 2628 O 242.568 -2.52969 -3.257 0
M  V30 2629 H 241.909 -0.570734 -0.33935 0
M  V30 2630 H 244.439 -1.99377 -0.459324 0
M  V30 2631 H 244.449 -3.1168 -2.63286 0
M  V30 2632 H 243.124 -3.79511 -1.7013 0
M  V30 2633 H 241.701 -2.38332 -2.86797 0
M  V30 2634 N 243.887 0.651787 -1.4349 0
M  V30 2635 C 245.298 1.233 -1.40193 0
M  V30 2636 C 245.649 1.9591 -0.106727 0
M  V30 2637 O 244.774 2.01316 0.793773 0
M  V30 2638 C 245.369 2.24257 -2.53957 0
M  V30 2639 C 243.928 2.77852 -2.5392 0
M  V30 2640 C 243.075 1.52517 -2.3159 0
M  V30 2641 H 246.026 0.443717 -1.52371 0
M  V30 2642 H 246.047 3.0646 -2.25528 0
M  V30 2643 H 245.559 1.71382 -3.4821 0
M  V30 2644 H 243.66 3.34786 -1.63551 0
M  V30 2645 H 243.773 3.25299 -3.51735 0
M  V30 2646 H 242.137 1.79915 -1.80285 0
M  V30 2647 H 242.92 1.01574 -3.27929 0
M  V30 2648 N 245.365 1.30045 0.890287 0
M  V30 2649 C 246.781 1.08261 1.17268 0
M  V30 2650 C 246.981 -0.160063 2.00863 0
M  V30 2651 O 246.037 -0.855181 2.37577 0
M  V30 2652 C 247.35 2.34323 1.8845 0
M  V30 2653 C 248.898 2.39735 2.01237 0
M  V30 2654 C 249.373 3.65625 2.7583 0
M  V30 2655 N 250.864 3.66402 2.83379 0
M  V30 2656 C 251.599 4.60498 3.41657 0
M  V30 2657 N 251.095 5.64933 4.01026 0
M  V30 2658 N 252.888 4.48051 3.39421 0
M  V30 2659 H 245.039 2.09777 0.332762 0
M  V30 2660 H 247.302 0.92446 0.209948 0
M  V30 2661 H 247.008 3.2498 1.34465 0
M  V30 2662 H 246.882 2.4256 2.88867 0
M  V30 2663 H 249.269 1.4956 2.54393 0
M  V30 2664 H 249.35 2.35476 0.999232 0
M  V30 2665 H 248.994 4.56156 2.23347 0
M  V30 2666 H 248.924 3.67144 3.77509 0
M  V30 2667 H 251.415 2.90896 2.41222 0
M  V30 2668 H 251.728 6.32841 4.43545 0
M  V30 2669 H 250.073 5.68732 3.99461 0
M  V30 2670 H 253.264 3.65649 2.92264 0
M  V30 2671 H 253.437 5.21565 3.84544 0
M  V30 2672 N 246.843 -1.10192 1.12674 0
M  V30 2673 C 248.089 -1.82475 0.884915 0
M  V30 2674 C 248.422 -1.85093 -0.58773 0
M  V30 2675 O 247.697 -1.3134 -1.43457 0
M  V30 2676 C 247.98 -3.29018 1.46353 0
M  V30 2677 C 247.833 -3.34718 3.00473 0
M  V30 2678 C 249.152 -4.25473 1.12519 0
M  V30 2679 H 246.271 -0.662492 0.322915 0
M  V30 2680 H 248.913 -1.2913 1.39375 0
M  V30 2681 H 247.063 -3.74576 1.03077 0
M  V30 2682 H 248.735 -2.97622 3.52447 0
M  V30 2683 H 246.978 -2.74541 3.35872 0
M  V30 2684 H 247.649 -4.37918 3.36053 0
M  V30 2685 H 250.125 -3.88161 1.499 0
M  V30 2686 H 249.001 -5.26365 1.55663 0
M  V30 2687 H 249.262 -4.42084 0.0377407 0
M  V30 2688 N 248.321 -0.919034 -1.28029 0
M  V30 2689 C 249.251 -0.428581 -2.29533 0
M  V30 2690 C 250.232 0.50659 -1.62381 0
M  V30 2691 O 251.417 0.413195 -1.89753 0
M  V30 2692 C 248.547 0.327388 -3.45753 0
M  V30 2693 C 247.501 -0.519137 -4.2484 0
M  V30 2694 C 246.827 0.365486 -5.33449 0
M  V30 2695 C 248.127 -1.77914 -4.91064 0
M  V30 2696 H 249.821 -1.27687 -2.70807 0
M  V30 2697 H 247.367 -0.615428 -1.30186 0
M  V30 2698 H 249.32 0.681378 -4.15855 0
M  V30 2699 H 248.044 1.20963 -3.03374 0
M  V30 2700 H 246.703 -0.855717 -3.56473 0
M  V30 2701 H 246.351 1.24642 -4.87312 0
M  V30 2702 H 246.051 -0.197356 -5.87268 0
M  V30 2703 H 247.575 0.715241 -6.06396 0
M  V30 2704 H 248.989 -1.49374 -5.53498 0
M  V30 2705 H 247.386 -2.2848 -5.54903 0
M  V30 2706 H 248.456 -2.50382 -4.15255 0
M  V30 2707 N 249.799 1.42003 -0.683588 0
M  V30 2708 C 251.21 1.84501 -0.285736 0
M  V30 2709 C 251.561 1.57213 1.17382 0
M  V30 2710 O 250.686 1.03642 1.89966 0
M  V30 2711 C 251.281 3.34912 -0.511821 0
M  V30 2712 C 249.84 3.76025 -0.168005 0
M  V30 2713 C 248.987 2.6551 -0.799983 0
M  V30 2714 H 251.938 1.31724 -0.885119 0
M  V30 2715 H 251.959 3.79784 0.233292 0
M  V30 2716 H 251.471 3.54741 -1.57418 0
M  V30 2717 H 249.572 3.61801 0.890567 0
M  V30 2718 H 249.685 4.75141 -0.614661 0
M  V30 2719 H 248.049 2.53654 -0.230568 0
M  V30 2720 H 248.832 2.8816 -1.86597 0
M  V30 2721 N 251.277 0.427512 1.51691 0
M  V30 2722 C 252.225 -0.403359 2.29076 0
M  V30 2723 C 253.219 -1.02962 1.34518 0
M  V30 2724 O 254.425 -0.965715 1.51901 0
M  V30 2725 H 250.8 -0.148879 0.737115 0
M  V30 2726 H 252.771 0.270295 2.97173 0
M  V30 2727 C 251.52 -1.49763 3.13794 0
M  V30 2728 H 250.843 -1.02508 3.86435 0
M  V30 2729 H 252.283 -2.05244 3.71014 0
M  V30 2730 C 250.742 -2.47536 2.28533 0
M  V30 2731 O 251.272 -3.51848 1.93819 0
M  V30 2732 N 249.478 -2.18187 1.91945 0
M  V30 2733 H 249.025 -1.33389 2.20375 0
M  V30 2734 H 248.983 -2.83848 1.35195 0
M  V30 2735 N 252.755 -1.56801 0.158532 0
M  V30 2736 C 254.003 -1.96102 -0.488712 0
M  V30 2737 C 254.324 -1.04498 -1.64636 0
M  V30 2738 O 253.594 -0.108783 -1.95598 0
M  V30 2739 H 252.174 -0.724102 -0.183535 0
M  V30 2740 H 254.836 -1.93457 0.236728 0
M  V30 2741 H 253.932 -3.00097 -0.857219 0
M  V30 2742 N 254.233 0.115231 -1.57178 0
M  V30 2743 C 255.163 1.1423 -2.03651 0
M  V30 2744 C 256.144 1.42967 -0.921655 0
M  V30 2745 O 257.329 1.53343 -1.19162 0
M  V30 2746 C 254.459 2.4675 -2.44401 0
M  V30 2747 C 253.413 2.32467 -3.59365 0
M  V30 2748 C 252.739 3.69984 -3.86026 0
M  V30 2749 C 254.039 1.78203 -4.90959 0
M  V30 2750 H 255.733 0.755749 -2.89705 0
M  V30 2751 H 253.279 0.362093 -1.39373 0
M  V30 2752 H 255.232 3.18854 -2.75517 0
M  V30 2753 H 253.956 2.87302 -1.55322 0
M  V30 2754 H 252.615 1.62811 -3.28463 0
M  V30 2755 H 252.263 4.08028 -2.94147 0
M  V30 2756 H 251.963 3.61279 -4.63412 0
M  V30 2757 H 253.487 4.43587 -4.19599 0
M  V30 2758 H 254.901 2.40128 -5.20587 0
M  V30 2759 H 253.298 1.8031 -5.72371 0
M  V30 2760 H 254.368 0.739876 -4.79222 0
M  V30 2761 N 255.711 1.52812 0.385517 0
M  V30 2762 C 256.674 1.77188 1.45386 0
M  V30 2763 C 257.674 0.641953 1.4743 0
M  V30 2764 O 258.864 0.910033 1.4854 0
M  V30 2765 C 255.996 1.87582 2.8465 0
M  V30 2766 H 257.189 2.72583 1.25054 0
M  V30 2767 H 254.742 1.43586 0.617467 0
M  V30 2768 H 255.477 0.941849 3.10322 0
M  V30 2769 H 255.262 2.69748 2.84567 0
M  V30 2770 H 256.752 2.08102 3.62054 0
M  V30 2771 N 257.189 -0.644168 1.43834 0
M  V30 2772 C 258.152 -1.73857 1.49353 0
M  V30 2773 C 259.152 -1.56315 0.377112 0
M  V30 2774 O 260.342 -1.62048 0.639226 0
M  V30 2775 C 257.474 -3.12819 1.35488 0
M  V30 2776 H 258.667 -1.70342 2.46827 0
M  V30 2777 H 256.22 -0.856652 1.30733 0
M  V30 2778 H 256.955 -3.2194 0.390569 0
M  V30 2779 H 256.74 -3.26958 2.16428 0
M  V30 2780 H 258.23 -3.92606 1.42302 0
M  V30 2781 N 258.668 -1.30515 -0.883378 0
M  V30 2782 C 259.615 -1.17032 -1.98927 0
M  V30 2783 C 260.585 -0.0594241 -1.65994 0
M  V30 2784 O 261.77 -0.229895 -1.8941 0
M  V30 2785 C 258.91 -0.869777 -3.33959 0
M  V30 2786 C 258.023 -2.06271 -3.79574 0
M  V30 2787 C 257.158 -1.70011 -5.03259 0
M  V30 2788 C 256.197 -2.8579 -5.41286 0
M  V30 2789 N 255.334 -2.49816 -6.56153 0
M  V30 2790 H 260.174 -2.1164 -2.09792 0
M  V30 2791 H 257.711 -1.05296 -1.02719 0
M  V30 2792 H 259.669 -0.676138 -4.11685 0
M  V30 2793 H 258.299 0.0394332 -3.22776 0
M  V30 2794 H 257.351 -2.36755 -2.97744 0
M  V30 2795 H 258.663 -2.92971 -4.03694 0
M  V30 2796 H 257.817 -1.47032 -5.88614 0
M  V30 2797 H 256.556 -0.804829 -4.81013 0
M  V30 2798 H 255.561 -3.09434 -4.54456 0
M  V30 2799 H 256.786 -3.76008 -5.65504 0
M  V30 2800 H 254.732 -1.62795 -6.35479 0
M  V30 2801 H 254.649 -3.30048 -6.8015 0
M  V30 2802 H 255.917 -2.30197 -7.44735 0
M  V30 2803 N 260.146 1.09593 -1.13257 0
M  V30 2804 C 261.109 2.14359 -0.811358 0
M  V30 2805 C 262.109 1.59808 0.178377 0
M  V30 2806 O 263.299 1.74132 -0.0484911 0
M  V30 2807 C 260.431 3.40269 -0.207276 0
M  V30 2808 H 261.624 2.44284 -1.73969 0
M  V30 2809 H 259.177 1.25102 -0.936973 0
M  V30 2810 H 259.912 3.15969 0.73036 0
M  V30 2811 H 259.697 3.81154 -0.919992 0
M  V30 2812 H 261.187 4.176 0.000667944 0
M  V30 2813 N 261.624 0.925811 1.2754 0
M  V30 2814 C 262.556 0.380753 2.26015 0
M  V30 2815 C 263.569 -0.487485 1.5533 0
M  V30 2816 O 264.758 -0.300413 1.75954 0
M  V30 2817 C 261.858 -0.473259 3.35579 0
M  V30 2818 C 261.031 0.375249 4.35787 0
M  V30 2819 C 260.09 -0.415809 5.24555 0
M  V30 2820 O 259.116 0.175834 5.68928 0
M  V30 2821 N 260.318 -1.71607 5.54555 0
M  V30 2822 H 263.083 1.22725 2.73421 0
M  V30 2823 H 260.644 0.793037 1.41147 0
M  V30 2824 H 262.636 -1.00949 3.91907 0
M  V30 2825 H 261.206 -1.2205 2.87789 0
M  V30 2826 H 260.426 1.09279 3.7875 0
M  V30 2827 H 261.714 0.955399 4.99749 0
M  V30 2828 H 261.112 -2.2191 5.20358 0
M  V30 2829 H 259.669 -2.19887 6.1359 0
M  V30 2830 N 263.102 -1.41638 0.69111 0
M  V30 2831 C 264.327 -2.06148 0.227583 0
M  V30 2832 C 264.752 -1.51652 -1.11281 0
M  V30 2833 O 264.11 -0.64164 -1.69566 0
M  V30 2834 C 264.158 -3.60095 0.190858 0
M  V30 2835 O 263.262 -4.03845 -0.835664 0
M  V30 2836 H 262.603 -0.654434 0.112306 0
M  V30 2837 H 265.133 -1.81484 0.944714 0
M  V30 2838 H 265.143 -4.07995 0.020207 0
M  V30 2839 H 263.818 -3.99129 1.16915 0
M  V30 2840 H 262.395 -3.67458 -0.63473 0
M  V30 2841 N 264.58 -0.43555 -1.51462 0
M  V30 2842 C 265.51 0.367376 -2.30592 0
M  V30 2843 C 266.491 1.02263 -1.35928 0
M  V30 2844 O 267.676 1.02661 -1.64847 0
M  V30 2845 C 264.806 1.46983 -3.14664 0
M  V30 2846 C 263.76 0.938161 -4.17591 0
M  V30 2847 C 263.086 2.13622 -4.90173 0
M  V30 2848 C 264.386 -0.0261621 -5.22293 0
M  V30 2849 H 266.08 -0.292969 -2.97963 0
M  V30 2850 H 263.626 -0.14234 -1.43295 0
M  V30 2851 H 265.579 2.03873 -3.688 0
M  V30 2852 H 264.303 2.15843 -2.4511 0
M  V30 2853 H 262.962 0.391481 -3.64504 0
M  V30 2854 H 262.61 2.81098 -4.17124 0
M  V30 2855 H 262.31 1.78688 -5.59772 0
M  V30 2856 H 263.834 2.7107 -5.47132 0
M  V30 2857 H 265.248 0.452384 -5.71512 0
M  V30 2858 H 263.645 -0.287992 -5.99409 0
M  V30 2859 H 264.715 -0.963391 -4.75233 0
M  V30 2860 N 266.058 1.56714 -0.166846 0
M  V30 2861 C 267.306 1.96358 0.478305 0
M  V30 2862 C 267.627 1.0537 1.6408 0
M  V30 2863 O 266.897 0.119154 1.95537 0
M  V30 2864 H 265.477 0.725065 0.179692 0
M  V30 2865 H 268.139 1.93329 -0.246985 0
M  V30 2866 H 267.235 3.00547 0.841292 0
M  V30 2867 N 267.536 -0.106894 1.57237 0
M  V30 2868 C 268.947 -0.662723 1.74542 0
M  V30 2869 C 269.298 -1.7971 0.787319 0
M  V30 2870 O 268.423 -2.16368 -0.0369636 0
M  V30 2871 C 269.018 -1.20896 3.16496 0
M  V30 2872 C 267.577 -1.71096 3.35266 0
M  V30 2873 C 266.724 -0.615642 2.7038 0
M  V30 2874 H 269.675 0.119106 1.58252 0
M  V30 2875 H 269.696 -2.07847 3.18716 0
M  V30 2876 H 269.208 -0.383122 3.86204 0
M  V30 2877 H 267.309 -2.56119 2.70618 0
M  V30 2878 H 267.422 -1.81208 4.43509 0
M  V30 2879 H 265.786 -1.05222 2.31949 0
M  V30 2880 H 266.569 0.199419 3.4272 0
M  V30 2881 N 269.014 -1.53014 -0.377408 0
M  V30 2882 C 269.977 -1.77957 -1.44444 0
M  V30 2883 C 270.977 -0.649763 -1.47087 0
M  V30 2884 O 272.167 -0.917897 -1.48055 0
M  V30 2885 C 269.299 -1.89089 -2.83651 0
M  V30 2886 H 270.492 -2.73243 -1.23606 0
M  V30 2887 H 268.045 -1.43912 -0.609844 0
M  V30 2888 H 268.78 -0.958293 -3.09818 0
M  V30 2889 H 268.565 -2.71254 -2.83132 0
M  V30 2890 H 270.055 -2.1002 -3.60945 0
M  V30 2891 N 270.492 0.636531 -1.44174 0
M  V30 2892 C 271.402 1.77754 -1.53103 0
M  V30 2893 C 272.418 1.68928 -0.417034 0
M  V30 2894 O 273.594 1.89801 -0.6736 0
M  V30 2895 C 270.659 3.14115 -1.46741 0
M  V30 2896 C 269.72 3.34612 -2.68948 0
M  V30 2897 C 268.953 4.64467 -2.6288 0
M  V30 2898 O 269.176 5.44919 -1.68581 0
M  V30 2899 O 268.11 4.87049 -3.53648 0
M  V30 2900 H 271.936 1.73174 -2.49489 0
M  V30 2901 H 269.521 0.79709 -1.2636 0
M  V30 2902 H 271.403 3.95412 -1.45696 0
M  V30 2903 H 270.078 3.19249 -0.534975 0
M  V30 2904 H 268.985 2.53014 -2.75562 0
M  V30 2905 H 270.318 3.34336 -3.61221 0
M  V30 2906 N 271.97 1.30982 0.876444 0
M  V30 2907 C 273.217 1.20296 1.62896 0
M  V30 2908 C 273.545 -0.240395 1.93009 0
M  V30 2909 O 272.8 -1.18733 1.55567 0
M  V30 2910 C 273.099 1.98572 2.9716 0
M  V30 2911 C 272.765 3.48125 2.86566 0
M  V30 2912 C 271.427 3.88905 2.83383 0
M  V30 2913 C 273.779 4.43322 2.74071 0
M  V30 2914 C 271.107 5.2316 2.65556 0
M  V30 2915 C 273.459 5.77695 2.57781 0
M  V30 2916 C 272.123 6.17704 2.52979 0
M  V30 2917 H 271.393 0.440193 0.59608 0
M  V30 2918 H 274.04 1.62177 1.01837 0
M  V30 2919 H 272.345 1.49352 3.62217 0
M  V30 2920 H 274.042 1.8769 3.54364 0
M  V30 2921 H 270.632 3.15723 2.89856 0
M  V30 2922 H 274.816 4.12752 2.75589 0
M  V30 2923 H 270.072 5.53241 2.60259 0
M  V30 2924 H 274.246 6.51091 2.47089 0
M  V30 2925 H 271.873 7.21678 2.38924 0
M  V30 2926 N 273.449 -1.08991 1.13837 0
M  V30 2927 C 274.381 -2.15606 0.777612 0
M  V30 2928 C 275.394 -1.61533 -0.202739 0
M  V30 2929 O 276.583 -1.78491 0.0181055 0
M  V30 2930 C 273.683 -3.3864 0.132623 0
M  V30 2931 C 272.856 -4.22115 1.1462 0
M  V30 2932 C 271.915 -5.23564 0.526074 0
M  V30 2933 O 270.941 -5.56678 1.18735 0
M  V30 2934 N 272.143 -5.76266 -0.699866 0
M  V30 2935 H 274.908 -2.47159 1.69506 0
M  V30 2936 H 272.469 -1.24747 1.03198 0
M  V30 2937 H 274.461 -4.03626 -0.29459 0
M  V30 2938 H 273.031 -3.04938 -0.687849 0
M  V30 2939 H 272.251 -3.53199 1.75055 0
M  V30 2940 H 273.539 -4.74709 1.83109 0
M  V30 2941 H 272.937 -5.51585 -1.25581 0
M  V30 2942 H 271.494 -6.42963 -1.06968 0
M  V30 2943 N 274.927 -0.932562 -1.27047 0
M  V30 2944 C 276.175 -0.574422 -1.93765 0
M  V30 2945 C 276.496 0.887993 -1.73608 0
M  V30 2946 O 275.766 1.62999 -1.08665 0
M  V30 2947 H 274.346 -0.209451 -0.717035 0
M  V30 2948 H 277.008 -1.18601 -1.5466 0
M  V30 2949 H 276.104 -0.784841 -3.02071 0
M  V30 2950 N 276.405 1.4127 -0.698611 0
M  V30 2951 C 277.368 2.29158 -0.044132 0
M  V30 2952 C 278.368 1.44529 0.704841 0
M  V30 2953 O 279.558 1.65643 0.539276 0
M  V30 2954 C 276.69 3.27459 0.947809 0
M  V30 2955 H 277.883 2.88529 -0.817994 0
M  V30 2956 H 275.436 1.49307 -0.46228 0
M  V30 2957 H 276.171 2.73073 1.74933 0
M  V30 2958 H 275.956 3.8991 0.41385 0
M  V30 2959 H 277.446 3.93311 1.40344 0
M  V30 2960 N 277.883 0.443576 1.51229 0
M  V30 2961 C 279.108 -0.121648 2.07043 0
M  V30 2962 C 279.533 -1.35156 1.30823 0
M  V30 2963 O 278.891 -1.7793 0.347934 0
M  V30 2964 C 278.939 -0.41624 3.5819 0
M  V30 2965 O 278.043 -1.50163 3.8409 0
M  V30 2966 H 277.384 0.000871367 0.663999 0
M  V30 2967 H 279.914 0.626706 1.94765 0
M  V30 2968 H 279.924 -0.664867 4.02546 0
M  V30 2969 H 278.599 0.482653 4.1309 0
M  V30 2970 H 277.176 -1.24248 3.51592 0
M  V30 2971 N 279.361 -1.56624 0.175154 0
M  V30 2972 C 280.293 -2.15333 -0.785128 0
M  V30 2973 C 281.306 -1.1099 -1.19101 0
M  V30 2974 O 282.495 -1.38162 -1.13019 0
M  V30 2975 C 279.595 -2.68427 -2.06882 0
M  V30 2976 C 278.768 -3.97466 -1.8259 0
M  V30 2977 C 277.827 -4.35585 -2.95215 0
M  V30 2978 O 276.853 -5.03389 -2.65684 0
M  V30 2979 N 278.055 -3.97457 -4.23094 0
M  V30 2980 H 280.82 -2.98359 -0.283187 0
M  V30 2981 H 278.381 -1.61898 -0.00749817 0
M  V30 2982 H 280.373 -2.90924 -2.81328 0
M  V30 2983 H 278.943 -1.89968 -2.48256 0
M  V30 2984 H 278.163 -3.83307 -0.920287 0
M  V30 2985 H 279.451 -4.81736 -1.63733 0
M  V30 2986 H 278.849 -3.42878 -4.49945 0
M  V30 2987 H 277.406 -4.24947 -4.9423 0
M  V30 2988 N 280.839 0.0985539 -1.57292 0
M  V30 2989 C 282.255 0.45267 -1.53046 0
M  V30 2990 C 282.455 1.80713 -0.891342 0
M  V30 2991 O 281.511 2.4785 -0.482375 0
M  V30 2992 C 282.824 0.418341 -2.97776 0
M  V30 2993 C 284.372 0.500443 -3.08973 0
M  V30 2994 C 284.847 0.496297 -4.55303 0
M  V30 2995 N 286.338 0.557151 -4.59837 0
M  V30 2996 C 287.073 0.575726 -5.70502 0
M  V30 2997 N 286.569 0.550714 -6.90608 0
M  V30 2998 N 288.362 0.620277 -5.58667 0
M  V30 2999 H 280.513 -0.788673 -1.97215 0
M  V30 3000 H 282.776 -0.293188 -0.901524 0
M  V30 3001 H 282.482 -0.509659 -3.47988 0
M  V30 3002 H 282.356 1.2386 -3.56284 0
M  V30 3003 H 284.743 1.41886 -2.58751 0
M  V30 3004 H 284.824 -0.347894 -2.53423 0
M  V30 3005 H 284.468 -0.418162 -5.06176 0
M  V30 3006 H 284.398 1.3618 -5.08687 0
M  V30 3007 H 286.889 0.581816 -3.73394 0
M  V30 3008 H 287.202 0.568075 -7.70709 0
M  V30 3009 H 285.547 0.517816 -6.93068 0
M  V30 3010 H 288.738 0.637322 -4.63741 0
M  V30 3011 H 288.911 0.631283 -6.44918 0
M  V30 3012 N 282.317 1.53212 0.369288 0
M  V30 3013 C 283.557 1.70915 1.12105 0
M  V30 3014 C 283.921 0.449444 1.86665 0
M  V30 3015 O 285.122 0.503105 2.6405 0
M  V30 3016 C 283.393 2.9222 2.05772 0
M  V30 3017 S 284.952 3.30609 2.88519 0
M  V30 3018 H 281.77 0.601445 0.379189 0
M  V30 3019 H 284.372 1.91306 0.402794 0
M  V30 3020 H 283.076 3.82103 1.49752 0
M  V30 3021 H 282.607 2.7422 2.82076 0
M  V30 3022 H 284.622 2.82333 4.08047 0
M  V30 3023 N 283.795 -0.628877 1.44509 0
M  V30 3024 C 284.725 -1.75187 1.54376 0
M  V30 3025 C 285.706 -1.65411 0.396618 0
M  V30 3026 O 286.891 -1.84137 0.617031 0
M  V30 3027 C 284.021 -3.13725 1.48976 0
M  V30 3028 C 282.975 -3.38291 2.62189 0
M  V30 3029 C 282.301 -4.76883 2.41841 0
M  V30 3030 C 283.601 -3.30632 4.04326 0
M  V30 3031 H 285.295 -1.67187 2.48373 0
M  V30 3032 H 282.841 -0.802909 1.19538 0
M  V30 3033 H 284.794 -3.92064 1.54478 0
M  V30 3034 H 283.518 -3.22515 0.514961 0
M  V30 3035 H 282.177 -2.62334 2.56079 0
M  V30 3036 H 281.825 -4.82378 1.42548 0
M  V30 3037 H 281.525 -4.94278 3.17747 0
M  V30 3038 H 283.049 -5.57449 2.49165 0
M  V30 3039 H 284.463 -3.98873 4.11793 0
M  V30 3040 H 282.86 -3.59561 4.80454 0
M  V30 3041 H 283.93 -2.28404 4.27738 0
M  V30 3042 N 285.273 -1.31445 -0.869486 0
M  V30 3043 C 286.205 -1.14955 -1.98287 0
M  V30 3044 C 287.218 -0.0885037 -1.62559 0
M  V30 3045 O 288.407 -0.336044 -1.75308 0
M  V30 3046 C 285.507 -0.734255 -3.3085 0
M  V30 3047 C 284.68 -1.88042 -3.94917 0
M  V30 3048 C 283.739 -1.4511 -5.05796 0
M  V30 3049 O 282.765 -2.16082 -5.2659 0
M  V30 3050 N 283.967 -0.338763 -5.79511 0
M  V30 3051 H 286.732 -2.10856 -2.12979 0
M  V30 3052 H 284.293 -1.23786 -1.04349 0
M  V30 3053 H 286.285 -0.42975 -4.02412 0
M  V30 3054 H 284.855 0.133158 -3.12316 0
M  V30 3055 H 284.075 -2.35222 -3.1633 0
M  V30 3056 H 285.363 -2.6481 -4.34457 0
M  V30 3057 H 284.761 0.252274 -5.65137 0
M  V30 3058 H 283.318 -0.0937925 -6.51733 0
M  V30 3059 N 286.751 1.08385 -1.14413 0
M  V30 3060 C 287.681 2.17321 -0.854044 0
M  V30 3061 C 288.662 1.69024 0.191049 0
M  V30 3062 O 289.847 1.94141 0.0476779 0
M  V30 3063 C 286.977 3.45719 -0.330983 0
M  V30 3064 C 285.931 4.07409 -1.31155 0
M  V30 3065 C 285.257 5.30762 -0.64778 0
M  V30 3066 C 286.557 4.48665 -2.67388 0
M  V30 3067 H 288.251 2.41845 -1.76498 0
M  V30 3068 H 285.797 1.16233 -0.850051 0
M  V30 3069 H 287.75 4.21241 -0.115645 0
M  V30 3070 H 286.474 3.2075 0.615381 0
M  V30 3071 H 285.133 3.33919 -1.51306 0
M  V30 3072 H 284.781 5.02078 0.304398 0
M  V30 3073 H 284.481 5.72992 -1.30207 0
M  V30 3074 H 286.005 6.08998 -0.441972 0
M  V30 3075 H 287.419 5.15364 -2.51143 0
M  V30 3076 H 285.816 5.01814 -3.29093 0
M  V30 3077 H 286.886 3.60543 -3.24248 0
M  V30 3078 N 288.23 0.939286 1.26551 0
M  V30 3079 C 289.478 0.58469 1.93457 0
M  V30 3080 C 289.799 -0.878774 1.74076 0
M  V30 3081 O 289.069 -1.62421 1.09528 0
M  V30 3082 H 287.649 0.21325 0.715914 0
M  V30 3083 H 290.311 1.1942 1.54029 0
M  V30 3084 H 289.407 0.800849 3.0165 0
M  V30 3085 N 289.708 -1.40897 0.706093 0
M  V30 3086 C 290.671 -2.29131 0.0562841 0
M  V30 3087 C 291.671 -1.44901 -0.697166 0
M  V30 3088 O 292.861 -1.65926 -0.530484 0
M  V30 3089 C 289.993 -3.27957 -0.93043 0
M  V30 3090 H 291.186 -2.88091 0.833284 0
M  V30 3091 H 288.739 -1.4906 0.470192 0
M  V30 3092 H 289.474 -2.73997 -1.73482 0
M  V30 3093 H 289.259 -3.90124 -0.393166 0
M  V30 3094 H 290.749 -3.94049 -1.38256 0
M  V30 3095 N 291.186 -0.45159 -1.50991 0
M  V30 3096 C 292.426 0.109066 -2.04109 0
M  V30 3097 C 292.79 1.38716 -1.32747 0
M  V30 3098 O 293.991 2.02896 -1.76314 0
M  V30 3099 C 292.262 0.308354 -3.56067 0
M  V30 3100 S 293.821 0.830369 -4.30872 0
M  V30 3101 H 290.639 0.0251531 -0.710555 0
M  V30 3102 H 293.241 -0.614264 -1.85599 0
M  V30 3103 H 291.945 -0.627962 -4.05567 0
M  V30 3104 H 291.476 1.05836 -3.78896 0
M  V30 3105 H 293.491 2.10626 -4.49279 0
M  V30 3106 N 292.664 1.56529 -0.183458 0
M  V30 3107 C 293.594 2.21549 0.737456 0
M  V30 3108 C 294.575 1.17489 1.23005 0
M  V30 3109 O 295.76 1.45959 1.281 0
M  V30 3110 C 292.89 2.86575 1.96194 0
M  V30 3111 C 291.844 3.96778 1.60473 0
M  V30 3112 C 291.17 4.48911 2.90487 0
M  V30 3113 C 292.47 5.15767 0.823497 0
M  V30 3114 H 294.164 2.98761 0.195453 0
M  V30 3115 H 291.71 1.43702 0.0925686 0
M  V30 3116 H 293.663 3.30739 2.61131 0
M  V30 3117 H 292.387 2.06749 2.52828 0
M  V30 3118 H 291.046 3.53286 0.978997 0
M  V30 3119 H 290.694 3.65862 3.45186 0
M  V30 3120 H 290.394 5.23265 2.67335 0
M  V30 3121 H 291.918 4.95771 3.56432 0
M  V30 3122 H 293.332 5.56549 1.37571 0
M  V30 3123 H 291.729 5.96114 0.690551 0
M  V30 3124 H 292.799 4.84574 -0.177782 0
M  V30 3125 N 294.142 -0.090211 1.57342 0
M  V30 3126 C 295.074 -1.13541 1.99101 0
M  V30 3127 C 296.087 -1.3604 0.894258 0
M  V30 3128 O 297.276 -1.34606 1.17233 0
M  V30 3129 C 294.376 -2.49001 2.29895 0
M  V30 3130 C 293.549 -2.46712 3.61182 0
M  V30 3131 C 292.608 -3.64136 3.79857 0
M  V30 3132 O 291.634 -3.46405 4.51655 0
M  V30 3133 N 292.836 -4.83802 3.20806 0
M  V30 3134 H 295.601 -0.779942 2.89373 0
M  V30 3135 H 293.162 -0.279125 1.59476 0
M  V30 3136 H 295.154 -3.26166 2.39578 0
M  V30 3137 H 293.724 -2.76619 1.45605 0
M  V30 3138 H 292.944 -1.55058 3.62423 0
M  V30 3139 H 294.232 -2.42265 4.4742 0
M  V30 3140 H 293.63 -5.01112 2.62494 0
M  V30 3141 H 292.187 -5.58543 3.35966 0
M  V30 3142 N 295.62 -1.53406 -0.361157 0
M  V30 3143 C 296.845 -1.74024 -1.12829 0
M  V30 3144 C 297.27 -0.470069 -1.82132 0
M  V30 3145 O 296.628 0.57619 -1.719 0
M  V30 3146 C 296.676 -2.90903 -2.13091 0
M  V30 3147 O 295.78 -2.59821 -3.20261 0
M  V30 3148 H 295.121 -0.577804 -0.327168 0
M  V30 3149 H 297.651 -2.00307 -0.41693 0
M  V30 3150 H 297.661 -3.17194 -2.56616 0
M  V30 3151 H 296.336 -3.83034 -1.62042 0
M  V30 3152 H 294.913 -2.44362 -2.81677 0
M  V30 3153 N 297.098 0.621204 -1.44841 0
M  V30 3154 C 298.323 1.41244 -1.51871 0
M  V30 3155 C 298.748 1.87519 -0.147764 0
M  V30 3156 O 298.106 1.59334 0.865 0
M  V30 3157 C 298.154 2.60221 -2.49634 0
M  V30 3158 O 297.258 3.60395 -2.00473 0
M  V30 3159 H 296.599 0.42223 -0.512463 0
M  V30 3160 H 299.129 0.757305 -1.90069 0
M  V30 3161 H 299.139 3.0764 -2.67996 0
M  V30 3162 H 297.814 2.25887 -3.4921 0
M  V30 3163 H 296.391 3.19717 -1.91925 0
M  V30 3164 N 298.576 1.31904 0.862503 0
M  V30 3165 C 299.987 1.19803 1.43193 0
M  V30 3166 C 300.338 -0.192567 1.95253 0
M  V30 3167 O 299.463 -1.09081 1.86896 0
M  V30 3168 C 300.058 2.16883 2.60283 0
M  V30 3169 C 298.617 2.08692 3.13248 0
M  V30 3170 C 297.764 2.05691 1.85975 0
M  V30 3171 H 300.715 1.43846 0.670365 0
M  V30 3172 H 300.736 1.76278 3.37204 0
M  V30 3173 H 300.248 3.18083 2.22363 0
M  V30 3174 H 298.349 1.10713 3.55771 0
M  V30 3175 H 298.462 2.9815 3.75025 0
M  V30 3176 H 296.826 1.50814 2.05249 0
M  V30 3177 H 297.609 3.08659 1.50282 0
M  V30 3178 N 300.054 -1.07777 1.14986 0
M  V30 3179 C 301.465 -1.61766 0.932127 0
M  V30 3180 C 301.816 -1.88974 -0.527581 0
M  V30 3181 O 300.941 -1.65198 -1.39781 0
M  V30 3182 C 301.536 -2.93891 1.68563 0
M  V30 3183 C 300.095 -3.44639 1.5133 0
M  V30 3184 C 299.242 -2.18767 1.704 0
M  V30 3185 H 302.193 -0.909201 1.30074 0
M  V30 3186 H 302.214 -3.62623 1.15259 0
M  V30 3187 H 301.726 -2.74057 2.74799 0
M  V30 3188 H 299.827 -3.69564 0.474702 0
M  V30 3189 H 299.94 -4.20966 2.28746 0
M  V30 3190 H 298.304 -2.28253 1.13016 0
M  V30 3191 H 299.087 -2.01433 2.77992 0
M  V30 3192 N 301.532 -0.945985 -1.26051 0
M  V30 3193 C 302.78 -0.594941 -1.93145 0
M  V30 3194 C 303.101 0.86953 -1.7454 0
M  V30 3195 O 302.371 1.61838 -1.10387 0
M  V30 3196 H 300.951 -0.217044 -0.714773 0
M  V30 3197 H 303.613 -1.20235 -1.53393 0
M  V30 3198 H 302.709 -0.816835 -3.01221 0
M  V30 3199 N 303.011 1.40521 -0.713556 0
M  V30 3200 C 303.974 2.29098 -0.0684347 0
M  V30 3201 C 304.974 1.45268 0.689472 0
M  V30 3202 O 306.164 1.66205 0.521677 0
M  V30 3203 C 303.296 3.28446 0.913024 0
M  V30 3204 H 304.489 2.87645 -0.84855 0
M  V30 3205 H 302.042 1.48809 -0.47809 0
M  V30 3206 H 302.777 2.74913 1.72027 0
M  V30 3207 H 302.562 3.90327 0.372472 0
M  V30 3208 H 304.052 3.94777 1.36165 0
M  V30 3209 N 304.489 0.459591 1.5075 0
M  V30 3210 C 305.714 -0.0996819 2.0716 0
M  V30 3211 C 306.139 -1.33761 1.32249 0
M  V30 3212 O 305.497 -1.77551 0.366786 0
M  V30 3213 C 305.545 -0.378226 3.58611 0
M  V30 3214 O 304.649 -1.46081 3.85661 0
M  V30 3215 H 303.99 0.00791392 0.663953 0
M  V30 3216 H 306.52 0.647329 1.9409 0
M  V30 3217 H 306.53 -0.622135 4.03229 0
M  V30 3218 H 305.205 0.526439 4.12555 0
M  V30 3219 H 303.782 -1.20511 3.5289 0
M  V30 3220 N 305.967 -1.56429 0.191757 0
M  V30 3221 C 307.378 -1.83912 -0.321428 0
M  V30 3222 C 307.729 -1.11231 -1.61623 0
M  V30 3223 O 306.854 -0.37202 -2.13178 0
M  V30 3224 C 307.449 -3.33624 -0.589961 0
M  V30 3225 C 306.008 -3.6153 -1.04753 0
M  V30 3226 C 305.155 -2.7714 -0.0943327 0
M  V30 3227 H 308.106 -1.53161 0.415612 0
M  V30 3228 H 308.127 -3.52213 -1.43966 0
M  V30 3229 H 307.639 -3.86495 0.352588 0
M  V30 3230 H 305.74 -3.14089 -2.00447 0
M  V30 3231 H 305.853 -4.69737 -0.942549 0
M  V30 3232 H 304.217 -2.47638 -0.595589 0
M  V30 3233 H 305 -3.32799 0.842601 0
M  V30 3234 N 307.445 0.0818655 -1.57387 0
M  V30 3235 C 308.856 0.634871 -1.75574 0
M  V30 3236 C 309.207 1.78435 -0.815809 0
M  V30 3237 O 308.332 2.164 0.0025366 0
M  V30 3238 C 308.927 1.15845 -3.18379 0
M  V30 3239 C 307.486 1.65741 -3.37945 0
M  V30 3240 C 306.633 0.572549 -2.71325 0
M  V30 3241 H 309.584 -0.144268 -1.58043 0
M  V30 3242 H 309.605 2.02751 -3.21982 0
M  V30 3243 H 309.117 0.321631 -3.86765 0
M  V30 3244 H 307.218 2.51781 -2.74658 0
M  V30 3245 H 307.331 1.74129 -4.46336 0
M  V30 3246 H 305.695 1.01518 -2.33594 0
M  V30 3247 H 306.478 -0.253918 -3.4236 0
M  V30 3248 N 308.923 1.53595 0.353017 0
M  V30 3249 C 310.151 1.74311 1.1146 0
M  V30 3250 C 310.566 0.477854 1.82653 0
M  V30 3251 O 309.923 -0.549977 1.74016 0
M  V30 3252 C 309.974 2.91694 2.13534 0
M  V30 3253 O 309.695 4.13325 1.45238 0
M  V30 3254 C 311.196 3.24384 3.02142 0
M  V30 3255 H 308.416 0.582669 0.332773 0
M  V30 3256 H 310.96 2.00386 0.408107 0
M  V30 3257 H 309.115 2.67977 2.79763 0
M  V30 3258 H 309.529 4.79148 2.13349 0
M  V30 3259 H 311.003 4.09893 3.69718 0
M  V30 3260 H 311.48 2.40282 3.67643 0
M  V30 3261 H 312.086 3.50073 2.41514 0
M  V30 3262 N 310.401 -0.613514 1.45168 0
M  V30 3263 C 311.649 -1.36997 1.48581 0
M  V30 3264 C 311.97 -1.94589 0.126545 0
M  V30 3265 O 311.24 -1.76816 -0.843372 0
M  V30 3266 H 309.82 -0.508558 0.547154 0
M  V30 3267 H 312.482 -0.720853 1.81079 0
M  V30 3268 H 311.578 -2.1924 2.22127 0
M  V30 3269 N 311.879 -1.3236 -0.855495 0
M  V30 3270 C 313.107 -1.2587 -1.64208 0
M  V30 3271 C 313.522 0.173457 -1.88002 0
M  V30 3272 O 312.879 1.11027 -1.44842 0
M  V30 3273 C 312.93 -2.01424 -3.00184 0
M  V30 3274 O 312.651 -3.39051 -2.77445 0
M  V30 3275 C 314.152 -2.01948 -3.94629 0
M  V30 3276 H 311.372 -0.434318 -0.511477 0
M  V30 3277 H 313.916 -1.74469 -1.0668 0
M  V30 3278 H 312.071 -1.56549 -3.5436 0
M  V30 3279 H 312.485 -3.77711 -3.63916 0
M  V30 3280 H 313.959 -2.59297 -4.87308 0
M  V30 3281 H 314.436 -1.00554 -4.27534 0
M  V30 3282 H 315.042 -2.46767 -3.4639 0
M  V30 3283 N 313.357 1.07166 -1.15556 0
M  V30 3284 C 314.305 2.16517 -0.8499 0
M  V30 3285 C 315.299 1.68468 0.177454 0
M  V30 3286 O 316.505 1.79971 0.0323026 0
M  V30 3287 H 312.88 0.706652 -0.25719 0
M  V30 3288 H 314.851 2.39514 -1.77976 0
M  V30 3289 C 313.6 3.45855 -0.357682 0
M  V30 3290 H 312.923 3.83214 -1.13961 0
M  V30 3291 H 314.363 4.23607 -0.182489 0
M  V30 3292 C 312.822 3.24062 0.921152 0
M  V30 3293 O 313.352 3.48813 1.9923 0
M  V30 3294 N 311.558 2.77539 0.86141 0
M  V30 3295 H 311.105 2.57598 -0.0104408 0
M  V30 3296 H 311.063 2.63337 1.71758 0
M  V30 3297 N 314.835 0.952656 1.25548 0
M  V30 3298 C 316.251 0.656769 1.4546 0
M  V30 3299 C 316.451 -0.78633 1.85524 0
M  V30 3300 O 315.507 -1.56183 1.98402 0
M  V30 3301 C 316.82 1.62801 2.52817 0
M  V30 3302 C 318.368 1.63897 2.66659 0
M  V30 3303 C 318.843 2.5978 3.77198 0
M  V30 3304 N 320.334 2.58133 3.84606 0
M  V30 3305 C 321.069 3.29003 4.69621 0
M  V30 3306 N 320.565 4.09339 5.58939 0
M  V30 3307 N 322.358 3.179 4.63569 0
M  V30 3308 H 314.509 1.88526 0.978344 0
M  V30 3309 H 316.772 0.810815 0.491206 0
M  V30 3310 H 316.478 2.65869 2.30232 0
M  V30 3311 H 316.352 1.38898 3.50695 0
M  V30 3312 H 318.739 0.615481 2.8861 0
M  V30 3313 H 318.82 1.91858 1.69187 0
M  V30 3314 H 318.464 3.62254 3.55997 0
M  V30 3315 H 318.394 2.29105 4.7415 0
M  V30 3316 H 320.885 1.99809 3.20757 0
M  V30 3317 H 321.198 4.6034 6.20731 0
M  V30 3318 H 319.543 4.13438 5.58654 0
M  V30 3319 H 322.734 2.54612 3.92798 0
M  V30 3320 H 322.907 3.73398 5.29602 0
M  V30 3321 N 316.313 -1.40141 0.720998 0
M  V30 3322 C 317.263 -2.27949 0.0482544 0
M  V30 3323 C 318.247 -1.43538 -0.727021 0
M  V30 3324 O 319.439 -1.6658 -0.598332 0
M  V30 3325 C 316.568 -3.32126 -0.868729 0
M  V30 3326 C 315.654 -4.24008 -0.0883515 0
M  V30 3327 N 316.045 -4.97154 0.931226 0
M  V30 3328 C 314.343 -4.4485 -0.320105 0
M  V30 3329 C 315.044 -5.64587 1.4006 0
M  V30 3330 N 314.02 -5.38787 0.721752 0
M  V30 3331 H 317.822 -2.81948 0.829609 0
M  V30 3332 H 315.336 -1.52656 0.554067 0
M  V30 3333 H 317.333 -3.93884 -1.36605 0
M  V30 3334 H 315.993 -2.79687 -1.6494 0
M  V30 3335 H 317.004 -5.01 1.31222 0
M  V30 3336 H 313.681 -4.03378 -1.07668 0
M  V30 3337 H 315.071 -6.33175 2.24808 0
M  V30 3338 N 317.792 -0.46758 -1.50504 0
M  V30 3339 C 319.04 0.0884469 -2.01906 0
M  V30 3340 C 319.361 1.40532 -1.35188 0
M  V30 3341 O 318.631 1.89515 -0.496079 0
M  V30 3342 H 317.211 0.0356765 -0.746148 0
M  V30 3343 H 319.873 -0.6172 -1.84869 0
M  V30 3344 H 318.969 0.2425 -3.11156 0
M  V30 3345 N 319.27 1.56325 -0.20005 0
M  V30 3346 C 320.203 2.15234 0.758267 0
M  V30 3347 C 321.181 1.09046 1.20614 0
M  V30 3348 O 322.365 1.37186 1.29276 0
M  V30 3349 C 319.492 2.71524 2.02466 0
M  V30 3350 C 318.538 3.90345 1.71852 0
M  V30 3351 S 319.371 5.28513 0.862249 0
M  V30 3352 C 320.527 5.88227 2.13868 0
M  V30 3353 H 320.76 2.96183 0.2575 0
M  V30 3354 H 318.293 1.54393 0.0150099 0
M  V30 3355 H 320.251 3.04598 2.75191 0
M  V30 3356 H 318.912 1.90607 2.49655 0
M  V30 3357 H 318.105 4.28158 2.65888 0
M  V30 3358 H 317.707 3.58306 1.07205 0
M  V30 3359 H 319.999 6.02891 3.09076 0
M  V30 3360 H 320.942 6.84714 1.80479 0
M  V30 3361 H 321.35 5.16874 2.2694 0
M  V30 3362 N 320.748 -0.0735177 1.57428 0
M  V30 3363 C 321.695 -1.08756 2.0357 0
M  V30 3364 C 322.665 -1.38559 0.916 0
M  V30 3365 O 323.85 -1.49656 1.18354 0
M  V30 3366 C 320.99 -2.39657 2.48311 0
M  V30 3367 C 320.103 -2.16399 3.73892 0
M  V30 3368 C 319.238 -3.40852 4.07423 0
M  V30 3369 C 318.277 -3.1295 5.2605 0
M  V30 3370 N 317.414 -4.29729 5.55228 0
M  V30 3371 H 322.254 -0.687104 2.8997 0
M  V30 3372 H 319.791 -0.327709 1.43403 0
M  V30 3373 H 321.749 -3.16081 2.72303 0
M  V30 3374 H 320.379 -2.77508 1.64891 0
M  V30 3375 H 319.431 -1.30676 3.57251 0
M  V30 3376 H 320.743 -1.91788 4.60455 0
M  V30 3377 H 319.897 -4.25671 4.32306 0
M  V30 3378 H 318.636 -3.68537 3.19425 0
M  V30 3379 H 317.641 -2.26526 5.00965 0
M  V30 3380 H 318.866 -2.86589 6.15665 0
M  V30 3381 H 316.812 -4.57448 4.70188 0
M  V30 3382 H 316.729 -4.08385 6.36206 0
M  V30 3383 H 317.997 -5.1555 5.84661 0
M  V30 3384 N 322.226 -1.5378 -0.344866 0
M  V30 3385 C 323.189 -1.80981 -1.40637 0
M  V30 3386 C 324.189 -0.680816 -1.45676 0
M  V30 3387 O 325.379 -0.949095 -1.46075 0
M  V30 3388 C 322.511 -1.95063 -2.79577 0
M  V30 3389 H 323.704 -2.75803 -1.17783 0
M  V30 3390 H 321.257 -1.45173 -0.579181 0
M  V30 3391 H 321.992 -1.02379 -3.07716 0
M  V30 3392 H 321.777 -2.77198 -2.77315 0
M  V30 3393 H 323.267 -2.17629 -3.56409 0
M  V30 3394 N 323.704 0.605807 -1.45491 0
M  V30 3395 C 324.667 1.69836 -1.5391 0
M  V30 3396 C 325.667 1.55261 -0.418424 0
M  V30 3397 O 326.857 1.60296 -0.681965 0
M  V30 3398 C 323.989 3.09117 -1.43734 0
M  V30 3399 H 325.182 1.63738 -2.51257 0
M  V30 3400 H 322.735 0.821689 -1.32959 0
M  V30 3401 H 323.47 3.20791 -0.475788 0
M  V30 3402 H 323.255 3.21104 -2.25021 0
M  V30 3403 H 324.745 3.88696 -1.52661 0
M  V30 3404 N 325.182 1.32811 0.848464 0
M  V30 3405 C 326.129 1.22265 1.95755 0
M  V30 3406 C 327.099 0.103413 1.65778 0
M  V30 3407 O 328.284 0.280033 1.88734 0
M  V30 3408 C 325.424 0.958014 3.31536 0
M  V30 3409 C 324.537 2.16262 3.73971 0
M  V30 3410 C 323.672 1.83295 4.98575 0
M  V30 3411 C 322.711 3.00041 5.33518 0
M  V30 3412 N 321.848 2.67125 6.49299 0
M  V30 3413 H 326.688 2.17128 2.04107 0
M  V30 3414 H 324.225 1.07982 0.998913 0
M  V30 3415 H 326.183 0.785052 4.09747 0
M  V30 3416 H 324.813 0.046159 3.22767 0
M  V30 3417 H 323.865 2.44565 2.91362 0
M  V30 3418 H 325.177 3.03572 3.95785 0
M  V30 3419 H 324.331 1.62586 5.84509 0
M  V30 3420 H 323.07 0.932078 4.7871 0
M  V30 3421 H 322.075 3.21374 4.46093 0
M  V30 3422 H 323.3 3.90869 5.55336 0
M  V30 3423 H 321.246 1.79586 6.3094 0
M  V30 3424 H 321.163 3.47965 6.71161 0
M  V30 3425 H 322.431 2.49861 7.3837 0
M  V30 3426 N 326.66 -1.06551 1.16123 0
M  V30 3427 C 327.61 -2.12209 0.833736 0
M  V30 3428 C 328.594 -1.59825 -0.185656 0
M  V30 3429 O 329.786 -1.76994 0.0147906 0
M  V30 3430 C 326.915 -3.41674 0.333697 0
M  V30 3431 C 326.001 -4.00892 1.38372 0
M  V30 3432 N 326.392 -4.34256 2.59337 0
M  V30 3433 C 324.69 -4.28463 1.23836 0
M  V30 3434 C 325.391 -4.81291 3.26701 0
M  V30 3435 N 324.367 -4.80565 2.54083 0
M  V30 3436 H 328.169 -2.35849 1.75364 0
M  V30 3437 H 325.683 -1.24068 1.04789 0
M  V30 3438 H 327.68 -4.16822 0.0806918 0
M  V30 3439 H 326.34 -3.19475 -0.58017 0
M  V30 3440 H 327.351 -4.24687 2.96415 0
M  V30 3441 H 324.028 -4.15721 0.38504 0
M  V30 3442 H 325.418 -5.16332 4.29943 0
M  V30 3443 N 328.138 -0.959301 -1.25041 0
M  V30 3444 C 329.386 -0.615393 -1.92503 0
M  V30 3445 C 329.707 0.850969 -1.75452 0
M  V30 3446 O 328.977 1.60658 -1.12098 0
M  V30 3447 H 327.557 -0.224613 -0.712431 0
M  V30 3448 H 330.219 -1.21855 -1.5211 0
M  V30 3449 H 329.315 -0.848738 -3.00338 0
M  V30 3450 N 329.616 1.39756 -0.72842 0
M  V30 3451 C 330.841 2.05472 -0.282159 0
M  V30 3452 C 331.266 1.54549 1.07221 0
M  V30 3453 O 330.624 0.686372 1.67805 0
M  V30 3454 C 330.672 3.59462 -0.286264 0
M  V30 3455 O 329.776 4.05918 0.728298 0
M  V30 3456 H 329.117 0.651226 -0.129618 0
M  V30 3457 H 331.647 1.78915 -0.992499 0
M  V30 3458 H 331.657 4.07798 -0.128373 0
M  V30 3459 H 330.332 3.95889 -1.27456 0
M  V30 3460 H 328.909 3.69012 0.537081 0
M  V30 3461 N 331.094 0.475555 1.50254 0
M  V30 3462 C 332.004 -0.321501 2.32387 0
M  V30 3463 C 333.02 -0.991755 1.42969 0
M  V30 3464 O 334.196 -0.978747 1.76018 0
M  V30 3465 C 331.261 -1.38667 3.17762 0
M  V30 3466 C 330.322 -0.732538 4.23004 0
M  V30 3467 C 329.555 -1.74695 5.04299 0
M  V30 3468 O 329.778 -2.97399 4.86734 0
M  V30 3469 O 328.712 -1.31631 5.8733 0
M  V30 3470 H 332.538 0.350071 3.01676 0
M  V30 3471 H 330.123 0.237321 1.47503 0
M  V30 3472 H 332.005 -2.00354 3.70724 0
M  V30 3473 H 330.68 -2.04163 2.51196 0
M  V30 3474 H 329.587 -0.0765902 3.74022 0
M  V30 3475 H 330.92 -0.120452 4.92053 0
M  V30 3476 N 332.573 -1.56217 0.208337 0
M  V30 3477 C 333.483 -2.23316 -0.718836 0
M  V30 3478 C 334.499 -1.23648 -1.22422 0
M  V30 3479 O 335.675 -1.56423 -1.26861 0
M  V30 3480 C 332.74 -2.88968 -1.91568 0
M  V30 3481 C 331.801 -4.03943 -1.45357 0
M  V30 3482 C 331.034 -4.66455 -2.59337 0
M  V30 3483 O 331.257 -4.27919 -3.77149 0
M  V30 3484 O 330.191 -5.55686 -2.31293 0
M  V30 3485 H 334.017 -3.03182 -0.177315 0
M  V30 3486 H 331.602 -1.49384 -0.0215402 0
M  V30 3487 H 333.484 -3.30455 -2.61491 0
M  V30 3488 H 332.159 -2.12071 -2.44556 0
M  V30 3489 H 331.066 -3.67052 -0.722746 0
M  V30 3490 H 332.399 -4.82543 -0.970219 0
M  V30 3491 N 334.051 0.0651679 -1.57465 0
M  V30 3492 C 335.014 1.06117 -2.03155 0
M  V30 3493 C 336.014 1.31204 -0.929632 0
M  V30 3494 O 337.204 1.26813 -1.19432 0
M  V30 3495 C 334.336 2.4032 -2.41783 0
M  V30 3496 H 335.529 0.667231 -2.92383 0
M  V30 3497 H 333.082 0.311075 -1.53173 0
M  V30 3498 H 333.817 2.84532 -1.55601 0
M  V30 3499 H 333.602 2.23451 -3.22199 0
M  V30 3500 H 335.092 3.11898 -2.77685 0
M  V30 3501 N 335.529 1.53961 0.336706 0
M  V30 3502 C 336.945 1.44378 0.680241 0
M  V30 3503 C 337.145 0.606034 1.9217 0
M  V30 3504 O 336.201 0.099688 2.52303 0
M  V30 3505 C 337.514 2.87945 0.8665 0
M  V30 3506 C 339.062 2.97763 0.964682 0
M  V30 3507 C 339.537 4.42453 1.18321 0
M  V30 3508 N 341.028 4.46008 1.25025 0
M  V30 3509 C 341.763 5.55102 1.43697 0
M  V30 3510 N 341.259 6.7419 1.59498 0
M  V30 3511 N 343.052 5.42727 1.463 0
M  V30 3512 H 335.203 2.06918 -0.479455 0
M  V30 3513 H 337.466 0.935634 -0.152619 0
M  V30 3514 H 337.172 3.51691 0.0256937 0
M  V30 3515 H 337.046 3.33293 1.76623 0
M  V30 3516 H 339.433 2.34153 1.796 0
M  V30 3517 H 339.514 2.55766 0.041708 0
M  V30 3518 H 339.158 5.06645 0.356788 0
M  V30 3519 H 339.088 4.82048 2.11985 0
M  V30 3520 H 341.579 3.60196 1.14312 0
M  V30 3521 H 341.892 7.53095 1.734 0
M  V30 3522 H 340.237 6.77123 1.56621 0
M  V30 3523 H 343.428 4.48647 1.33543 0
M  V30 3524 H 343.601 6.27806 1.6051 0
M  V30 3525 N 337.007 -0.598083 1.45811 0
M  V30 3526 C 338.418 -1.18011 1.44673 0
M  V30 3527 C 338.769 -1.95378 0.179364 0
M  V30 3528 O 337.894 -2.04124 -0.718509 0
M  V30 3529 C 338.489 -2.14677 2.62105 0
M  V30 3530 C 337.048 -2.68236 2.64057 0
M  V30 3531 C 336.195 -1.43816 2.37091 0
M  V30 3532 H 339.146 -0.38686 1.53913 0
M  V30 3533 H 339.167 -2.97878 2.36746 0
M  V30 3534 H 338.679 -1.5834 3.5433 0
M  V30 3535 H 336.78 -3.28486 1.75864 0
M  V30 3536 H 336.893 -3.12021 3.63566 0
M  V30 3537 H 335.257 -1.731 1.86838 0
M  V30 3538 H 336.04 -0.893333 3.31473 0
M  V30 3539 N 338.485 -1.33259 -0.841409 0
M  V30 3540 C 339.417 -1.19136 -1.95804 0
M  V30 3541 C 340.43 -0.122965 -1.62335 0
M  V30 3542 O 341.619 -0.373154 -1.74556 0
M  V30 3543 C 338.719 -0.804268 -3.29218 0
M  V30 3544 C 337.892 -1.96376 -3.90839 0
M  V30 3545 C 336.951 -1.55806 -5.02604 0
M  V30 3546 O 335.977 -2.27203 -5.21888 0
M  V30 3547 N 337.179 -0.461609 -5.78662 0
M  V30 3548 H 339.944 -2.15326 -2.08458 0
M  V30 3549 H 337.505 -1.25971 -1.017 0
M  V30 3550 H 339.497 -0.51501 -4.0141 0
M  V30 3551 H 338.067 0.0668809 -3.12528 0
M  V30 3552 H 337.287 -2.41879 -3.11269 0
M  V30 3553 H 338.575 -2.73966 -4.28742 0
M  V30 3554 H 337.973 0.132343 -5.65545 0
M  V30 3555 H 336.53 -0.232013 -6.51387 0
M  V30 3556 N 339.963 1.05934 -1.16686 0
M  V30 3557 C 341.188 1.83029 -0.975455 0
M  V30 3558 C 341.613 1.82096 0.471452 0
M  V30 3559 O 340.971 1.22443 1.33706 0
M  V30 3560 C 341.019 3.27372 -1.51195 0
M  V30 3561 O 340.123 4.06054 -0.720701 0
M  V30 3562 H 339.464 0.566194 -0.346872 0
M  V30 3563 H 341.994 1.33541 -1.55009 0
M  V30 3564 H 342.004 3.78186 -1.53099 0
M  V30 3565 H 340.679 3.27366 -2.56523 0
M  V30 3566 H 339.256 3.64812 -0.772458 0
M  V30 3567 N 341.441 0.965919 1.2453 0
M  V30 3568 C 342.681 0.634656 1.94297 0
M  V30 3569 C 343.045 -0.814822 1.73852 0
M  V30 3570 O 344.246 -1.25622 2.3764 0
M  V30 3571 C 342.517 0.99702 3.43212 0
M  V30 3572 S 344.076 0.780038 4.31811 0
M  V30 3573 H 340.894 0.232893 0.671775 0
M  V30 3574 H 343.496 1.24249 1.50938 0
M  V30 3575 H 342.2 2.04886 3.55598 0
M  V30 3576 H 341.731 0.379888 3.91562 0
M  V30 3577 H 343.746 -0.343512 4.9501 0
M  V30 3578 N 342.919 -1.39368 0.735821 0
M  V30 3579 C 343.849 -2.33234 0.111506 0
M  V30 3580 C 344.83 -1.53954 -0.723334 0
M  V30 3581 O 346.015 -1.82344 -0.668147 0
M  V30 3582 C 343.145 -3.38057 -0.795917 0
M  V30 3583 C 342.099 -4.2795 -0.065172 0
M  V30 3584 C 341.425 -5.23479 -1.08967 0
M  V30 3585 C 342.725 -5.10741 1.09273 0
M  V30 3586 H 344.419 -2.85692 0.895571 0
M  V30 3587 H 341.965 -1.37364 0.432109 0
M  V30 3588 H 343.918 -4.02675 -1.24221 0
M  V30 3589 H 342.642 -2.8404 -1.61211 0
M  V30 3590 H 341.301 -3.64813 0.361511 0
M  V30 3591 H 340.949 -4.65758 -1.89944 0
M  V30 3592 H 340.649 -5.84472 -0.605489 0
M  V30 3593 H 342.173 -5.90974 -1.53565 0
M  V30 3594 H 343.587 -5.68699 0.724841 0
M  V30 3595 H 341.984 -5.8088 1.50659 0
M  V30 3596 H 343.054 -4.45525 1.91404 0
M  V30 3597 N 344.397 -0.483516 -1.5 0
M  V30 3598 C 345.643 0.0672592 -2.02688 0
M  V30 3599 C 345.976 1.38247 -1.36387 0
M  V30 3600 O 345.251 1.88131 -0.493675 0
M  V30 3601 C 345.534 0.238109 -3.59312 0
M  V30 3602 C 345.387 -1.099 -4.36168 0
M  V30 3603 C 346.706 0.986916 -4.28892 0
M  V30 3604 H 343.825 0.0229696 -0.736642 0
M  V30 3605 H 346.467 -0.631527 -1.79197 0
M  V30 3606 H 344.617 0.8333 -3.79458 0
M  V30 3607 H 346.289 -1.73172 -4.27562 0
M  V30 3608 H 344.532 -1.69261 -3.99416 0
M  V30 3609 H 345.203 -0.932954 -5.44059 0
M  V30 3610 H 347.679 0.482302 -4.13295 0
M  V30 3611 H 346.555 1.07527 -5.38265 0
M  V30 3612 H 346.816 2.0265 -3.92919 0
M  V30 3613 N 345.875 1.56104 -0.216619 0
M  V30 3614 C 347.123 1.97781 0.415593 0
M  V30 3615 C 347.444 1.10536 1.60645 0
M  V30 3616 O 346.714 0.181303 1.95059 0
M  V30 3617 H 345.294 0.730415 0.156534 0
M  V30 3618 H 347.956 1.92445 -0.308366 0
M  V30 3619 H 347.052 3.03072 0.74525 0
M  V30 3620 N 347.353 -0.0568162 1.57498 0
M  V30 3621 C 348.578 -0.769402 1.92601 0
M  V30 3622 C 349.003 -1.69559 0.814336 0
M  V30 3623 O 348.361 -1.79811 -0.231903 0
M  V30 3624 C 348.409 -1.52634 3.26704 0
M  V30 3625 O 347.513 -2.63797 3.16994 0
M  V30 3626 H 346.854 -0.208909 0.63028 0
M  V30 3627 H 349.384 -0.0205798 2.0459 0
M  V30 3628 H 349.394 -1.90234 3.60936 0
M  V30 3629 H 348.069 -0.846875 4.07186 0
M  V30 3630 H 346.646 -2.28943 2.94346 0
M  V30 3631 N 348.832 -1.54138 -0.328536 0
M  V30 3632 C 349.795 -1.82462 -1.38709 0
M  V30 3633 C 350.795 -0.696229 -1.44946 0
M  V30 3634 O 351.985 -0.964535 -1.4506 0
M  V30 3635 C 349.117 -1.98018 -2.77492 0
M  V30 3636 H 350.31 -2.77037 -1.14851 0
M  V30 3637 H 347.863 -1.45779 -0.563751 0
M  V30 3638 H 348.598 -1.05637 -3.06613 0
M  V30 3639 H 348.383 -2.80124 -2.74359 0
M  V30 3640 H 349.873 -2.21396 -3.54081 0
M  V30 3641 N 350.31 0.590341 -1.46126 0
M  V30 3642 C 351.538 1.37504 -1.54597 0
M  V30 3643 C 351.953 1.87897 -0.184447 0
M  V30 3644 O 351.31 1.63192 0.816984 0
M  V30 3645 C 351.361 2.56779 -2.54454 0
M  V30 3646 O 351.082 2.08476 -3.85317 0
M  V30 3647 C 352.583 3.49427 -2.72792 0
M  V30 3648 H 349.803 0.420325 -0.523037 0
M  V30 3649 H 352.347 0.718383 -1.91467 0
M  V30 3650 H 350.502 3.1845 -2.20609 0
M  V30 3651 H 350.916 2.86097 -4.396 0
M  V30 3652 H 352.39 4.29619 -3.466 0
M  V30 3653 H 352.867 4.00876 -1.79429 0
M  V30 3654 H 353.473 2.93598 -3.07702 0
M  V30 3655 N 351.788 1.33704 0.83433 0
M  V30 3656 C 353.036 1.25169 1.58673 0
M  V30 3657 C 353.357 -0.18127 1.94156 0
M  V30 3658 O 352.627 -1.11113 1.6134 0
M  V30 3659 H 351.207 0.4603 0.58833 0
M  V30 3660 H 353.869 1.67478 0.996847 0
M  V30 3661 H 352.965 1.84856 2.51465 0
M  V30 3662 N 353.266 -1.05314 1.17247 0
M  V30 3663 C 354.682 -1.30452 0.919473 0
M  V30 3664 C 354.882 -1.9703 -0.42209 0
M  V30 3665 O 353.938 -2.24311 -1.15935 0
M  V30 3666 C 355.251 -2.17551 2.07586 0
M  V30 3667 C 356.799 -2.30937 2.11275 0
M  V30 3668 C 357.274 -3.21396 3.26296 0
M  V30 3669 N 358.765 -3.28981 3.26076 0
M  V30 3670 C 359.5 -3.99095 4.11716 0
M  V30 3671 N 358.996 -4.71648 5.07465 0
M  V30 3672 N 360.789 -3.95247 3.9967 0
M  V30 3673 H 352.94 -0.604988 2.03602 0
M  V30 3674 H 355.203 -0.329368 0.888944 0
M  V30 3675 H 354.909 -1.75921 3.0454 0
M  V30 3676 H 354.783 -3.18182 2.02584 0
M  V30 3677 H 357.17 -2.71809 1.14907 0
M  V30 3678 H 357.251 -1.2994 2.20339 0
M  V30 3679 H 356.895 -2.81238 4.22927 0
M  V30 3680 H 356.825 -4.22395 3.14467 0
M  V30 3681 H 359.316 -2.77286 2.5675 0
M  V30 3682 H 359.629 -5.22705 5.6921 0
M  V30 3683 H 357.974 -4.70594 5.11435 0
M  V30 3684 H 361.165 -3.37691 3.24164 0
M  V30 3685 H 361.338 -4.4962 4.66632 0
M  V30 3686 N 354.744 -0.972509 -1.24016 0
M  V30 3687 C 356.155 -0.67517 -1.74064 0
M  V30 3688 C 356.506 0.808939 -1.78747 0
M  V30 3689 O 355.631 1.63286 -1.42009 0
M  V30 3690 C 356.226 -1.21889 -3.16115 0
M  V30 3691 C 354.785 -0.971358 -3.6365 0
M  V30 3692 C 353.932 -1.35134 -2.42145 0
M  V30 3693 H 356.883 -1.14727 -1.09651 0
M  V30 3694 H 356.904 -0.587489 -3.75937 0
M  V30 3695 H 356.416 -2.29906 -3.12674 0
M  V30 3696 H 354.517 0.0930686 -3.72484 0
M  V30 3697 H 354.63 -1.62039 -4.50866 0
M  V30 3698 H 352.994 -0.769751 -2.4279 0
M  V30 3699 H 353.777 -2.4411 -2.41381 0
M  V30 3700 N 356.222 1.38976 -0.743202 0
M  V30 3701 C 357.47 1.99948 -0.29417 0
M  V30 3702 C 357.791 1.59279 1.12495 0
M  V30 3703 O 357.061 0.844808 1.76748 0
M  V30 3704 H 355.641 0.739473 -0.105774 0
M  V30 3705 H 358.303 1.699 -0.954986 0
M  V30 3706 H 357.399 3.10142 -0.349056 0
M  V30 3707 N 357.7 0.491464 1.49741 0
M  V30 3708 C 358.948 -0.0563141 2.02022 0
M  V30 3709 C 359.269 -1.38363 1.37407 0
M  V30 3710 O 358.539 -1.88702 0.526166 0
M  V30 3711 H 357.119 -0.0238014 0.746621 0
M  V30 3712 H 359.781 0.646533 1.83864 0
M  V30 3713 H 358.877 -0.192967 3.11503 0
M  V30 3714 N 359.178 -1.55987 0.224894 0
M  V30 3715 C 360.088 -2.24066 -0.69511 0
M  V30 3716 C 361.104 -1.24939 -1.21104 0
M  V30 3717 O 362.28 -1.5776 -1.25195 0
M  V30 3718 C 359.345 -2.90983 -1.88493 0
M  V30 3719 C 358.406 -4.05462 -1.41064 0
M  V30 3720 C 357.639 -4.69179 -2.54375 0
M  V30 3721 O 357.862 -4.31895 -3.72589 0
M  V30 3722 O 356.796 -5.58108 -2.25386 0
M  V30 3723 H 360.622 -3.03353 -0.145149 0
M  V30 3724 H 358.207 -1.49399 -0.00569476 0
M  V30 3725 H 360.089 -3.33209 -2.57972 0
M  V30 3726 H 358.764 -2.14653 -2.42293 0
M  V30 3727 H 357.671 -3.67798 -0.683774 0
M  V30 3728 H 359.004 -4.83545 -0.918985 0
M  V30 3729 N 360.656 0.0484629 -1.57525 0
M  V30 3730 C 361.904 0.741657 -1.88 0
M  V30 3731 C 362.225 1.76918 -0.820054 0
M  V30 3732 O 361.495 1.95335 0.148661 0
M  V30 3733 H 360.075 0.276908 -0.69378 0
M  V30 3734 H 362.737 0.019013 -1.94891 0
M  V30 3735 H 361.833 1.24336 -2.86264 0
M  V30 3736 N 362.134 1.5431 0.320358 0
M  V30 3737 C 363.359 1.76954 1.08175 0
M  V30 3738 C 363.784 0.518193 1.80821 0
M  V30 3739 O 363.142 -0.530411 1.73368 0
M  V30 3740 C 363.19 2.96451 2.05303 0
M  V30 3741 O 362.294 2.68221 3.13259 0
M  V30 3742 H 361.635 0.586275 0.311733 0
M  V30 3743 H 364.165 2.01342 0.363676 0
M  V30 3744 H 364.175 3.23887 2.48116 0
M  V30 3745 H 362.85 3.87196 1.51829 0
M  V30 3746 H 361.427 2.51744 2.75099 0
M  V30 3747 N 363.613 -0.582584 1.46437 0
M  V30 3748 C 365.024 -1.1647 1.45916 0
M  V30 3749 C 365.375 -1.95177 0.200077 0
M  V30 3750 O 364.5 -2.04874 -0.696819 0
M  V30 3751 C 365.095 -2.11885 2.64367 0
M  V30 3752 C 363.654 -2.65421 2.66887 0
M  V30 3753 C 362.801 -1.41294 2.38603 0
M  V30 3754 H 365.752 -0.370514 1.54314 0
M  V30 3755 H 365.773 -2.9535 2.39892 0
M  V30 3756 H 365.285 -1.54573 3.5599 0
M  V30 3757 H 363.386 -3.26602 1.79338 0
M  V30 3758 H 363.499 -3.08147 3.66854 0
M  V30 3759 H 361.863 -1.71109 1.88663 0
M  V30 3760 H 362.646 -0.858125 3.32402 0
M  V30 3761 N 365.091 -1.34144 -0.827227 0
M  V30 3762 C 366.316 -1.29476 -1.62021 0
M  V30 3763 C 366.741 0.129292 -1.87655 0
M  V30 3764 O 366.099 1.08967 -1.449 0
M  V30 3765 C 366.147 -2.08702 -2.94068 0
M  V30 3766 O 365.251 -1.45359 -3.85933 0
M  V30 3767 H 364.592 -0.444881 -0.492927 0
M  V30 3768 H 367.122 -1.76882 -1.02829 0
M  V30 3769 H 367.132 -2.19898 -3.43669 0
M  V30 3770 H 365.807 -3.12241 -2.74734 0
M  V30 3771 H 364.384 -1.42879 -3.44442 0
M  V30 3772 N 366.569 1.04691 -1.17803 0
M  V30 3773 C 367.98 1.59238 -0.974689 0
M  V30 3774 C 368.331 1.90306 0.477292 0
M  V30 3775 O 367.456 1.68846 1.35352 0
M  V30 3776 C 368.051 2.89318 -1.76296 0
M  V30 3777 C 366.61 3.40506 -1.60414 0
M  V30 3778 C 365.757 2.14172 -1.76141 0
M  V30 3779 H 368.708 0.874395 -1.32439 0
M  V30 3780 H 368.729 3.5944 -1.24833 0
M  V30 3781 H 368.241 2.66675 -2.81968 0
M  V30 3782 H 366.342 3.68175 -0.572519 0
M  V30 3783 H 366.455 4.14753 -2.39827 0
M  V30 3784 H 364.819 2.25176 -1.19028 0
M  V30 3785 H 365.602 1.93992 -2.83235 0
M  V30 3786 N 368.047 0.979072 1.23499 0
M  V30 3787 C 368.994 0.517904 2.24914 0
M  V30 3788 C 369.964 -0.442525 1.60097 0
M  V30 3789 O 371.149 -0.350365 1.87556 0
M  V30 3790 C 368.289 -0.174813 3.44657 0
M  V30 3791 C 367.402 0.825721 4.24035 0
M  V30 3792 C 366.537 0.107946 5.3109 0
M  V30 3793 C 365.576 1.09778 6.02175 0
M  V30 3794 N 364.713 0.40925 7.00906 0
M  V30 3795 H 369.553 1.38751 2.63727 0
M  V30 3796 H 367.09 0.695303 1.2963 0
M  V30 3797 H 369.048 -0.593233 4.12961 0
M  V30 3798 H 367.678 -1.0083 3.06648 0
M  V30 3799 H 366.73 1.36253 3.55161 0
M  V30 3800 H 368.042 1.58005 4.73113 0
M  V30 3801 H 367.196 -0.367904 6.05583 0
M  V30 3802 H 365.935 -0.678994 4.8295 0
M  V30 3803 H 364.94 1.5844 5.26476 0
M  V30 3804 H 366.165 1.88536 6.52404 0
M  V30 3805 H 364.111 -0.358506 6.5502 0
M  V30 3806 H 364.028 1.10226 7.47921 0
M  V30 3807 H 365.296 -0.0442557 7.79487 0
M  V30 3808 N 369.525 -1.3858 0.750561 0
M  V30 3809 C 370.753 -2.04471 0.316098 0
M  V30 3810 C 371.168 -1.56606 -1.05452 0
M  V30 3811 O 370.525 -0.737784 -1.66922 0
M  V30 3812 C 370.576 -3.60025 0.326275 0
M  V30 3813 O 370.297 -4.06133 1.6428 0
M  V30 3814 C 371.798 -4.43131 -0.122429 0
M  V30 3815 H 369.018 -0.65717 0.135528 0
M  V30 3816 H 371.562 -1.77329 1.01857 0
M  V30 3817 H 369.717 -3.86014 -0.327431 0
M  V30 3818 H 370.131 -5.00547 1.56693 0
M  V30 3819 H 371.605 -5.51963 -0.0641473 0
M  V30 3820 H 372.082 -4.23333 -1.16988 0
M  V30 3821 H 372.688 -4.22323 0.50229 0
M  V30 3822 N 371.003 -0.499398 -1.49478 0
M  V30 3823 C 372.419 -0.155261 -1.58843 0
M  V30 3824 C 372.619 1.34008 -1.50479 0
M  V30 3825 O 371.675 2.11589 -1.37791 0
M  V30 3826 C 372.988 -0.730636 -2.91689 0
M  V30 3827 C 374.536 -0.696599 -3.0515 0
M  V30 3828 C 375.011 -1.25001 -4.40612 0
M  V30 3829 N 376.502 -1.21064 -4.47099 0
M  V30 3830 C 377.237 -1.60905 -5.50361 0
M  V30 3831 N 376.733 -2.08331 -6.60735 0
M  V30 3832 N 378.526 -1.52331 -5.41065 0
M  V30 3833 H 370.677 -1.47162 -1.53158 0
M  V30 3834 H 372.94 -0.610309 -0.725415 0
M  V30 3835 H 372.646 -1.77928 -3.03372 0
M  V30 3836 H 372.52 -0.190161 -3.7672 0
M  V30 3837 H 374.907 0.343204 -2.93097 0
M  V30 3838 H 374.988 -1.2742 -2.21806 0
M  V30 3839 H 374.632 -2.28859 -4.53416 0
M  V30 3840 H 374.562 -0.64836 -5.22593 0
M  V30 3841 H 377.053 -0.863128 -3.67911 0
M  V30 3842 H 377.366 -2.36805 -7.35624 0
M  V30 3843 H 375.711 -2.12304 -6.6178 0
M  V30 3844 H 378.902 -1.151 -4.53729 0
M  V30 3845 H 379.075 -1.83704 -6.21415 0
M  V30 3846 N 372.481 1.55866 -0.233164 0
M  V30 3847 C 373.391 2.24431 0.683217 0
M  V30 3848 C 374.407 1.2558 1.2044 0
M  V30 3849 O 375.583 1.58422 1.24356 0
M  V30 3850 C 372.648 2.91979 1.86947 0
M  V30 3851 C 371.709 4.06204 1.38912 0
M  V30 3852 C 370.942 4.70522 2.51883 0
M  V30 3853 O 371.165 4.33865 3.70293 0
M  V30 3854 O 370.099 5.59296 2.22423 0
M  V30 3855 H 373.925 3.03426 0.129059 0
M  V30 3856 H 371.51 1.494 -0.0022283 0
M  V30 3857 H 373.392 3.34573 2.56201 0
M  V30 3858 H 372.067 2.15935 2.41151 0
M  V30 3859 H 370.974 3.68155 0.664259 0
M  V30 3860 H 372.307 4.84025 0.893328 0
M  V30 3861 N 373.959 -0.0401083 1.57549 0
M  V30 3862 C 375.184 -0.748931 1.93406 0
M  V30 3863 C 375.609 -1.68686 0.832274 0
M  V30 3864 O 374.967 -1.80047 -0.212818 0
M  V30 3865 C 375.015 -1.4916 3.28304 0
M  V30 3866 O 374.119 -2.6042 3.19774 0
M  V30 3867 H 373.46 -0.202212 0.63246 0
M  V30 3868 H 375.99 0.00112086 2.046 0
M  V30 3869 H 376 -1.86395 3.62934 0
M  V30 3870 H 374.675 -0.80364 4.08062 0
M  V30 3871 H 373.252 -2.25808 2.96758 0
M  V30 3872 N 375.437 -1.54477 -0.31217 0
M  V30 3873 C 376.662 -1.77526 -1.07235 0
M  V30 3874 C 377.087 -0.527775 -1.80544 0
M  V30 3875 O 376.445 0.52121 -1.73646 0
M  V30 3876 C 376.493 -2.97535 -2.03728 0
M  V30 3877 O 375.597 -2.69878 -3.11833 0
M  V30 3878 H 374.938 -0.58792 -0.30862 0
M  V30 3879 H 377.468 -2.01532 -0.352993 0
M  V30 3880 H 377.478 -3.25198 -2.46395 0
M  V30 3881 H 376.153 -3.87996 -1.49774 0
M  V30 3882 H 374.73 -2.53199 -2.7376 0
M  V30 3883 N 376.915 0.57481 -1.46744 0
M  V30 3884 C 377.845 1.69337 -1.60771 0
M  V30 3885 C 378.826 1.63825 -0.457736 0
M  V30 3886 O 380.011 1.8172 -0.684947 0
M  V30 3887 C 377.141 3.0798 -1.60517 0
M  V30 3888 C 376.095 3.28327 -2.74564 0
M  V30 3889 C 375.421 4.67578 -2.59373 0
M  V30 3890 C 376.721 3.15398 -4.16319 0
M  V30 3891 H 378.415 1.57853 -2.54407 0
M  V30 3892 H 375.961 0.75799 -1.22436 0
M  V30 3893 H 377.914 3.86061 -1.68923 0
M  V30 3894 H 376.638 3.20381 -0.634305 0
M  V30 3895 H 375.297 2.52649 -2.65639 0
M  V30 3896 H 374.945 4.76755 -1.60353 0
M  V30 3897 H 374.645 4.82144 -3.35873 0
M  V30 3898 H 376.169 5.47817 -2.69682 0
M  V30 3899 H 377.583 3.83315 -4.26313 0
M  V30 3900 H 375.98 3.41482 -4.93468 0
M  V30 3901 H 377.05 2.12372 -4.3592 0
M  V30 3902 N 378.394 1.34581 0.820102 0
M  V30 3903 C 379.341 1.2639 1.93117 0
M  V30 3904 C 380.311 0.138554 1.65521 0
M  V30 3905 O 381.496 0.320004 1.88097 0
M  V30 3906 C 378.636 1.02812 3.29429 0
M  V30 3907 C 377.749 2.24146 3.693 0
M  V30 3908 C 376.884 1.93829 4.94574 0
M  V30 3909 C 375.923 3.1129 5.27034 0
M  V30 3910 N 375.06 2.80838 6.43486 0
M  V30 3911 H 379.9 2.21408 1.99455 0
M  V30 3912 H 377.437 1.10077 0.975784 0
M  V30 3913 H 379.395 0.871788 4.0799 0
M  V30 3914 H 378.025 0.114612 3.22596 0
M  V30 3915 H 377.077 2.50691 2.86109 0
M  V30 3916 H 378.389 3.11899 3.89257 0
M  V30 3917 H 377.543 1.74948 5.80929 0
M  V30 3918 H 376.282 1.03341 4.76626 0
M  V30 3919 H 375.287 3.30764 4.39175 0
M  V30 3920 H 376.512 4.02561 5.4692 0
M  V30 3921 H 374.458 1.92929 6.26988 0
M  V30 3922 H 374.375 3.62123 6.63629 0
M  V30 3923 H 375.643 2.65467 7.32903 0
M  V30 3924 N 379.872 -1.04064 1.18357 0
M  V30 3925 C 381.288 -1.2947 0.933258 0
M  V30 3926 C 381.488 -1.97466 -0.401169 0
M  V30 3927 O 380.544 -2.25528 -1.13549 0
M  V30 3928 C 381.857 -2.15337 2.09882 0
M  V30 3929 C 383.405 -2.28683 2.13712 0
M  V30 3930 C 383.88 -3.17917 3.29686 0
M  V30 3931 N 385.371 -3.25504 3.29547 0
M  V30 3932 C 386.106 -3.94706 4.15926 0
M  V30 3933 N 385.602 -4.66239 5.12439 0
M  V30 3934 N 387.395 -3.90986 4.0384 0
M  V30 3935 H 379.546 -0.583359 2.04232 0
M  V30 3936 H 381.809 -0.319921 0.892387 0
M  V30 3937 H 381.515 -1.72682 3.06389 0
M  V30 3938 H 381.389 -3.16015 2.05947 0
M  V30 3939 H 383.776 -2.70575 1.17784 0
M  V30 3940 H 383.857 -1.27596 2.21705 0
M  V30 3941 H 383.501 -2.76736 4.25887 0
M  V30 3942 H 383.431 -4.19036 3.1893 0
M  V30 3943 H 385.922 -2.74547 2.59677 0
M  V30 3944 H 386.235 -5.16638 5.74722 0
M  V30 3945 H 384.58 -4.65143 5.16398 0
M  V30 3946 H 387.771 -3.34234 3.27727 0
M  V30 3947 H 387.944 -4.44646 4.71375 0
M  V30 3948 N 381.35 -0.985608 -1.22978 0
M  V30 3949 C 382.766 -0.695104 -1.43668 0
M  V30 3950 C 382.966 0.736866 -1.87543 0
M  V30 3951 O 382.022 1.50868 -2.02473 0
M  V30 3952 C 383.335 -1.69447 -2.48412 0
M  V30 3953 C 384.883 -1.70909 -2.62219 0
M  V30 3954 C 385.358 -2.6969 -3.70178 0
M  V30 3955 N 386.849 -2.6824 -3.77626 0
M  V30 3956 C 387.584 -3.41339 -4.60733 0
M  V30 3957 N 387.08 -4.24015 -5.4789 0
M  V30 3958 N 388.873 -3.30079 -4.54977 0
M  V30 3959 H 381.024 -1.91054 -0.928016 0
M  V30 3960 H 383.287 -0.823553 -0.469536 0
M  V30 3961 H 382.993 -2.7188 -2.23102 0
M  V30 3962 H 382.867 -1.48147 -3.46889 0
M  V30 3963 H 385.254 -0.691785 -2.86877 0
M  V30 3964 H 385.335 -1.96276 -1.6404 0
M  V30 3965 H 384.979 -3.71566 -3.46268 0
M  V30 3966 H 384.909 -2.41595 -4.67909 0
M  V30 3967 H 387.4 -2.08243 -3.15346 0
M  V30 3968 H 387.713 -4.76636 -6.08308 0
M  V30 3969 H 386.058 -4.28104 -5.47496 0
M  V30 3970 H 389.249 -2.64937 -3.85909 0
M  V30 3971 H 389.422 -3.87308 -5.19516 0
M  V30 3972 N 382.828 1.3818 -0.7579 0
M  V30 3973 C 383.758 2.33027 -0.148597 0
M  V30 3974 C 384.739 1.55085 0.69875 0
M  V30 3975 O 385.924 1.83384 0.639053 0
M  V30 3976 C 383.054 3.3928 0.742034 0
M  V30 3977 C 382.008 4.28 -0.00291946 0
M  V30 3978 C 381.334 5.25146 1.00625 0
M  V30 3979 C 382.634 5.08938 -1.17385 0
M  V30 3980 H 384.328 2.84231 -0.940909 0
M  V30 3981 H 381.874 1.36659 -0.453908 0
M  V30 3982 H 383.827 4.046 1.17799 0
M  V30 3983 H 382.551 2.86569 1.56671 0
M  V30 3984 H 381.21 3.64192 -0.419504 0
M  V30 3985 H 380.858 4.68721 1.8251 0
M  V30 3986 H 380.558 5.85361 0.512428 0
M  V30 3987 H 382.082 5.93342 1.44143 0
M  V30 3988 H 383.496 5.67474 -0.815224 0
M  V30 3989 H 381.893 5.7841 -1.59882 0
M  V30 3990 H 382.963 4.42424 -1.98468 0
M  V30 3991 N 384.306 0.507319 1.49211 0
M  V30 3992 C 385.553 -0.0349529 2.0247 0
M  V30 3993 C 385.881 -1.36409 1.38647 0
M  V30 3994 O 385.136 -1.88841 0.513566 0
M  V30 3995 C 385.435 -0.229513 3.56662 0
M  V30 3996 C 385.101 1.02241 4.39156 0
M  V30 3997 C 383.763 1.36557 4.61417 0
M  V30 3998 C 386.115 1.85428 4.871 0
M  V30 3999 C 383.443 2.53999 5.28868 0
M  V30 4000 C 385.795 3.02028 5.55843 0
M  V30 4001 C 384.459 3.36717 5.76349 0
M  V30 4002 H 383.729 -0.0127902 0.74089 0
M  V30 4003 H 386.376 0.668756 1.79443 0
M  V30 4004 H 384.681 -1.0158 3.78403 0
M  V30 4005 H 386.378 -0.663641 3.9547 0
M  V30 4006 H 382.968 0.745124 4.22073 0
M  V30 4007 H 387.152 1.6023 4.69723 0
M  V30 4008 H 382.408 2.81105 5.42946 0
M  V30 4009 H 386.582 3.66808 5.91967 0
M  V30 4010 H 384.209 4.27821 6.28389 0
M  V30 4011 N 385.784 -1.5574 0.241426 0
M  V30 4012 C 387.2 -1.59196 -0.113548 0
M  V30 4013 C 387.4 -1.25852 -1.57364 0
M  V30 4014 O 386.456 -1.00322 -2.31715 0
M  V30 4015 C 387.769 -2.99814 0.230695 0
M  V30 4016 C 389.317 -3.12513 0.174547 0
M  V30 4017 C 389.792 -4.55342 0.492744 0
M  V30 4018 N 391.283 -4.61076 0.443043 0
M  V30 4019 C 392.018 -5.6956 0.662484 0
M  V30 4020 N 391.514 -6.86328 0.944761 0
M  V30 4021 N 393.307 -5.58957 0.593564 0
M  V30 4022 H 385.458 -1.75685 1.19368 0
M  V30 4023 H 387.721 -0.81756 0.479896 0
M  V30 4024 H 387.427 -3.28932 1.24485 0
M  V30 4025 H 387.301 -3.74568 -0.444833 0
M  V30 4026 H 389.688 -2.83179 -0.830277 0
M  V30 4027 H 389.769 -2.40045 0.883845 0
M  V30 4028 H 389.413 -4.85396 1.4951 0
M  V30 4029 H 389.343 -5.26062 -0.23797 0
M  V30 4030 H 391.834 -3.77179 0.233374 0
M  V30 4031 H 392.147 -7.64935 1.09977 0
M  V30 4032 H 390.492 -6.88025 0.982175 0
M  V30 4033 H 393.683 -4.66611 0.373123 0
M  V30 4034 H 393.856 -6.43433 0.767981 0
M  V30 4035 N 387.262 0.0317525 -1.57568 0
M  V30 4036 C 388.487 0.738664 -1.938 0
M  V30 4037 C 388.912 1.68242 -0.841208 0
M  V30 4038 O 388.27 1.80157 0.203267 0
M  V30 4039 C 388.318 1.47417 -3.29091 0
M  V30 4040 O 387.422 2.5872 -3.2115 0
M  V30 4041 H 386.763 0.198856 -0.633524 0
M  V30 4042 H 389.293 -0.0119713 -2.04596 0
M  V30 4043 H 389.303 1.84468 -3.63917 0
M  V30 4044 H 387.978 0.781988 -4.08482 0
M  V30 4045 H 386.555 2.24231 -2.97951 0
M  V30 4046 N 388.74 1.54641 0.303973 0
M  V30 4047 C 389.673 1.80263 1.3993 0
M  V30 4048 C 390.651 0.653657 1.48883 0
M  V30 4049 O 391.835 0.893284 1.6599 0
M  V30 4050 C 388.962 1.9367 2.77866 0
M  V30 4051 C 388.008 3.16078 2.86351 0
M  V30 4052 S 388.841 4.74219 2.4875 0
M  V30 4053 C 389.997 4.90558 3.88721 0
M  V30 4054 H 390.23 2.72886 1.17986 0
M  V30 4055 H 387.763 1.46014 0.501918 0
M  V30 4056 H 389.721 2.0208 3.57315 0
M  V30 4057 H 388.382 1.01991 2.9708 0
M  V30 4058 H 387.575 3.22252 3.87517 0
M  V30 4059 H 387.177 3.06099 2.14893 0
M  V30 4060 H 389.469 4.74398 4.83687 0
M  V30 4061 H 390.412 5.92651 3.87518 0
M  V30 4062 H 390.82 4.18728 3.78585 0
M  V30 4063 N 390.218 -0.567019 1.47046 0
M  V30 4064 C 391.465 -1.32462 1.53167 0
M  V30 4065 C 391.793 -1.93571 0.189841 0
M  V30 4066 O 391.048 -1.77865 -0.816243 0
M  V30 4067 C 391.347 -2.4623 2.59047 0
M  V30 4068 C 391.013 -2.03014 4.02612 0
M  V30 4069 C 389.675 -1.90944 4.41694 0
M  V30 4070 C 392.027 -1.69895 4.92732 0
M  V30 4071 C 389.355 -1.44035 5.68745 0
M  V30 4072 C 391.707 -1.2446 6.20236 0
M  V30 4073 C 390.371 -1.10979 6.5821 0
M  V30 4074 H 389.641 -0.484713 0.560477 0
M  V30 4075 H 392.288 -0.636888 1.80599 0
M  V30 4076 H 390.593 -3.20517 2.25335 0
M  V30 4077 H 392.29 -3.04427 2.61008 0
M  V30 4078 H 388.88 -2.13348 3.71726 0
M  V30 4079 H 393.064 -1.78098 4.63244 0
M  V30 4080 H 388.32 -1.32254 5.96925 0
M  V30 4081 H 392.494 -0.978924 6.89485 0
M  V30 4082 H 390.121 -0.744078 7.5655 0
M  V30 4083 N 391.696 -1.35014 -0.812953 0
M  V30 4084 C 392.626 -1.30069 -1.93919 0
M  V30 4085 C 393.607 -0.176275 -1.69184 0
M  V30 4086 O 394.792 -0.370227 -1.90638 0
M  V30 4087 C 391.922 -1.06547 -3.30552 0
M  V30 4088 C 390.876 -2.15561 -3.69753 0
M  V30 4089 C 390.202 -1.77214 -5.04479 0
M  V30 4090 C 391.502 -3.57476 -3.808 0
M  V30 4091 H 393.196 -2.24303 -1.98314 0
M  V30 4092 H 390.742 -1.07977 -0.952736 0
M  V30 4093 H 392.695 -1.01729 -4.08937 0
M  V30 4094 H 391.419 -0.0875719 -3.26483 0
M  V30 4095 H 390.078 -2.19466 -2.9365 0
M  V30 4096 H 389.726 -0.780589 -4.96906 0
M  V30 4097 H 389.426 -2.50184 -5.31678 0
M  V30 4098 H 390.95 -1.7391 -5.8531 0
M  V30 4099 H 392.364 -3.55929 -4.4943 0
M  V30 4100 H 390.761 -4.29152 -4.19462 0
M  V30 4101 H 391.831 -3.94091 -2.82525 0
M  V30 4102 N 393.175 1.03435 -1.18907 0
M  V30 4103 C 394.4 1.80919 -1.01406 0
M  V30 4104 C 394.825 1.83055 0.432721 0
M  V30 4105 O 394.183 1.25252 1.31079 0
M  V30 4106 C 394.231 3.24091 -1.58105 0
M  V30 4107 O 393.335 4.04434 -0.806669 0
M  V30 4108 H 392.676 0.558709 -0.358803 0
M  V30 4109 H 395.206 1.30223 -1.57807 0
M  V30 4110 H 395.216 3.74853 -1.61087 0
M  V30 4111 H 393.891 3.21851 -2.6341 0
M  V30 4112 H 392.468 3.63091 -0.849666 0
M  V30 4113 N 394.653 0.992116 1.22453 0
M  V30 4114 C 395.881 0.685944 1.95198 0
M  V30 4115 C 396.296 -0.749233 1.73297 0
M  V30 4116 O 395.653 -1.50549 1.03156 0
M  V30 4117 C 395.704 0.981395 3.47924 0
M  V30 4118 O 395.425 2.36018 3.6909 0
M  V30 4119 C 396.926 0.692815 4.37853 0
M  V30 4120 H 394.146 0.253821 0.621141 0
M  V30 4121 H 396.69 1.32668 1.55626 0
M  V30 4122 H 394.845 0.386481 3.85467 0
M  V30 4123 H 395.259 2.45884 4.63294 0
M  V30 4124 H 396.733 0.949818 5.43767 0
M  V30 4125 H 397.21 -0.373181 4.37612 0
M  V30 4126 H 397.816 1.26874 4.05935 0
M  V30 4127 N 396.131 -1.37776 0.765217 0
M  V30 4128 C 397.094 -2.28686 0.153416 0
M  V30 4129 C 398.094 -1.47727 -0.635081 0
M  V30 4130 O 399.284 -1.68027 -0.459632 0
M  V30 4131 C 396.416 -3.31608 -0.790495 0
M  V30 4132 H 397.609 -2.84297 0.954723 0
M  V30 4133 H 395.162 -1.46932 0.53299 0
M  V30 4134 H 395.897 -2.81109 -1.61705 0
M  V30 4135 H 395.682 -3.9144 -0.227348 0
M  V30 4136 H 397.172 -3.99559 -1.21419 0
M  V30 4137 N 397.609 -0.515225 -1.4894 0
M  V30 4138 C 398.572 0.244681 -2.2789 0
M  V30 4139 C 399.572 0.881166 -1.34507 0
M  V30 4140 O 400.762 0.743497 -1.57537 0
M  V30 4141 C 397.894 1.35247 -3.12923 0
M  V30 4142 H 399.087 -0.448289 -2.96531 0
M  V30 4143 H 396.64 -0.270656 -1.53939 0
M  V30 4144 H 397.375 2.07916 -2.48881 0
M  V30 4145 H 397.16 0.901374 -3.81599 0
M  V30 4146 H 398.65 1.88737 -3.72516 0
M  V30 4147 N 399.087 1.5561 -0.249682 0
M  V30 4148 C 400.315 2.03411 0.378352 0
M  V30 4149 C 400.73 1.12886 1.51335 0
M  V30 4150 O 400.087 0.143833 1.81932 0
M  V30 4151 C 400.138 3.50537 0.88351 0
M  V30 4152 O 399.859 4.37614 -0.20626 0
M  V30 4153 C 401.36 4.14113 1.58195 0
M  V30 4154 H 398.58 0.664994 0.08958 0
M  V30 4155 H 401.124 2.01044 -0.374357 0
M  V30 4156 H 399.279 3.5343 1.58639 0
M  V30 4157 H 399.693 5.24199 0.177782 0
M  V30 4158 H 401.167 5.18741 1.8871 0
M  V30 4159 H 401.644 3.60767 2.50487 0
M  V30 4160 H 402.25 4.15151 0.923573 0
M  V30 4161 N 400.565 -0.0233959 1.57583 0
M  V30 4162 C 401.528 -1.00693 2.05897 0
M  V30 4163 C 402.528 -1.28693 0.964092 0
M  V30 4164 O 403.718 -1.23602 1.22753 0
M  V30 4165 C 400.85 -2.33825 2.4807 0
M  V30 4166 H 402.043 -0.589476 2.9405 0
M  V30 4167 H 399.596 -0.270354 1.53944 0
M  V30 4168 H 400.331 -2.80307 1.6309 0
M  V30 4169 H 400.116 -2.1483 3.2801 0
M  V30 4170 H 401.606 -3.04426 2.85857 0
M  V30 4171 N 402.043 -1.548 -0.295768 0
M  V30 4172 C 403.454 -1.65274 -0.868411 0
M  V30 4173 C 403.805 -0.56481 -1.87894 0
M  V30 4174 O 402.93 0.29767 -2.14343 0
M  V30 4175 C 403.525 -2.99603 -1.58188 0
M  V30 4176 C 402.084 -3.12181 -2.10286 0
M  V30 4177 C 401.231 -2.6098 -0.93727 0
M  V30 4178 H 404.182 -1.58534 -0.0726422 0
M  V30 4179 H 404.203 -2.91319 -2.44772 0
M  V30 4180 H 403.715 -3.78764 -0.846151 0
M  V30 4181 H 401.816 -2.3775 -2.8689 0
M  V30 4182 H 401.929 -4.18415 -2.33379 0
M  V30 4183 H 400.293 -2.17564 -1.32431 0
M  V30 4184 H 401.076 -3.42623 -0.215414 0
M  V30 4185 N 403.521 0.559213 -1.47345 0
M  V30 4186 C 404.932 1.14134 -1.47751 0
M  V30 4187 C 405.283 1.94834 -0.231103 0
M  V30 4188 O 404.408 2.05957 0.664137 0
M  V30 4189 C 405.003 2.07653 -2.67705 0
M  V30 4190 C 403.562 2.61141 -2.71076 0
M  V30 4191 C 402.709 1.3748 -2.40821 0
M  V30 4192 H 405.66 0.345917 -1.54884 0
M  V30 4193 H 405.681 2.91497 -2.44561 0
M  V30 4194 H 405.193 1.4889 -3.58404 0
M  V30 4195 H 403.294 3.23707 -1.84511 0
M  V30 4196 H 403.407 3.02272 -3.7171 0
M  V30 4197 H 401.771 1.68086 -1.91362 0
M  V30 4198 H 402.554 0.805135 -3.33725 0
M  V30 4199 N 404.999 1.35443 0.805782 0
M  V30 4200 C 406.224 1.32037 1.59941 0
M  V30 4201 C 406.649 -0.0994215 1.87837 0
M  V30 4202 O 406.007 -1.06648 1.46615 0
M  V30 4203 C 406.055 2.13354 2.90711 0
M  V30 4204 O 405.159 1.5148 3.83572 0
M  V30 4205 H 404.5 0.452666 0.485787 0
M  V30 4206 H 407.03 1.78496 1.00002 0
M  V30 4207 H 407.04 2.25338 3.40128 0
M  V30 4208 H 405.715 3.16572 2.69732 0
M  V30 4209 H 404.292 1.4834 3.42125 0
M  V30 4210 N 406.477 -1.02803 1.19454 0
M  V30 4211 C 407.702 -1.80378 1.02364 0
M  V30 4212 C 408.127 -1.83282 -0.423007 0
M  V30 4213 O 407.485 -1.25945 -1.30413 0
M  V30 4214 C 407.533 -3.23248 1.59821 0
M  V30 4215 O 406.637 -4.04 0.828105 0
M  V30 4216 H 405.978 -0.556799 0.361761 0
M  V30 4217 H 408.508 -1.29385 1.58495 0
M  V30 4218 H 408.518 -3.73994 1.63073 0
M  V30 4219 H 407.193 -3.2045 2.65113 0
M  V30 4220 H 405.77 -3.62635 0.86891 0
M  V30 4221 N 407.956 -0.998596 -1.21925 0
M  V30 4222 C 409.181 -0.696015 -1.95372 0
M  V30 4223 C 409.606 0.733826 -1.73195 0
M  V30 4224 O 408.964 1.50242 -1.01474 0
M  V30 4225 C 409.012 -1.01466 -3.4603 0
M  V30 4226 O 408.116 -0.116415 -4.12236 0
M  V30 4227 H 407.457 -0.259938 -0.611006 0
M  V30 4228 H 409.987 -1.33711 -1.54863 0
M  V30 4229 H 409.997 -0.958855 -3.96573 0
M  V30 4230 H 408.672 -2.05653 -3.61497 0
M  V30 4231 H 407.249 -0.228193 -3.72201 0
M  V30 4232 N 409.434 1.37368 -0.772513 0
M  V30 4233 C 410.381 2.30262 -0.157488 0
M  V30 4234 C 411.351 1.51137 0.688965 0
M  V30 4235 O 412.536 1.79704 0.641168 0
M  V30 4236 C 409.676 3.37611 0.715045 0
M  V30 4237 C 408.789 4.31746 -0.148098 0
M  V30 4238 C 407.924 5.26171 0.729213 0
M  V30 4239 C 406.963 6.11948 -0.136418 0
M  V30 4240 N 406.1 6.98613 0.698914 0
M  V30 4241 H 410.94 2.82277 -0.955179 0
M  V30 4242 H 408.477 1.38957 -0.482631 0
M  V30 4243 H 410.435 3.98479 1.23575 0
M  V30 4244 H 409.065 2.86959 1.47833 0
M  V30 4245 H 408.117 3.72178 -0.786613 0
M  V30 4246 H 409.429 4.92084 -0.81579 0
M  V30 4247 H 408.583 5.92247 1.31637 0
M  V30 4248 H 407.322 4.66246 1.43059 0
M  V30 4249 H 406.327 5.4485 -0.736102 0
M  V30 4250 H 407.552 6.73945 -0.835134 0
M  V30 4251 H 405.498 6.41215 1.38489 0
M  V30 4252 H 405.415 7.55948 0.0885358 0
M  V30 4253 H 406.683 7.69077 1.27044 0
M  V30 4254 N 410.912 0.523116 1.48665 0
M  V30 4255 C 412.323 0.0808997 1.86525 0
M  V30 4256 C 412.674 -1.33975 1.43336 0
M  V30 4257 O 411.799 -2.00221 0.821009 0
M  V30 4258 C 412.394 0.140037 3.3851 0
M  V30 4259 C 410.953 -0.246948 3.75589 0
M  V30 4260 C 410.1 0.502845 2.72703 0
M  V30 4261 H 413.051 0.734736 1.40667 0
M  V30 4262 H 413.072 -0.649945 3.74908 0
M  V30 4263 H 412.584 1.17412 3.69914 0
M  V30 4264 H 410.685 -1.28343 3.49798 0
M  V30 4265 H 410.798 0.0878859 4.79019 0
M  V30 4266 H 409.162 -0.0500581 2.54651 0
M  V30 4267 H 409.945 1.53743 3.0695 0
M  V30 4268 N 412.39 -1.55475 0.257931 0
M  V30 4269 C 413.638 -1.98813 -0.363009 0
M  V30 4270 C 413.959 -1.14757 -1.57657 0
M  V30 4271 O 413.229 -0.232956 -1.9451 0
M  V30 4272 H 411.809 -0.734308 -0.137113 0
M  V30 4273 H 414.471 -1.9156 0.359281 0
M  V30 4274 H 413.567 -3.04941 -0.664634 0
M  V30 4275 N 413.868 0.0150385 -1.57593 0
M  V30 4276 C 415.279 0.559832 -1.78109 0
M  V30 4277 C 415.63 1.74814 -0.890756 0
M  V30 4278 O 414.755 2.16216 -0.0892482 0
M  V30 4279 C 415.35 1.02238 -3.23006 0
M  V30 4280 C 413.909 1.51258 -3.44671 0
M  V30 4281 C 413.056 0.456955 -2.73509 0
M  V30 4282 H 416.007 -0.211169 -1.57289 0
M  V30 4283 H 416.028 1.88912 -3.30292 0
M  V30 4284 H 415.54 0.157302 -3.87781 0
M  V30 4285 H 413.641 2.39905 -2.8509 0
M  V30 4286 H 413.754 1.55042 -4.5332 0
M  V30 4287 H 412.118 0.915196 -2.37689 0
M  V30 4288 H 412.901 -0.398896 -3.40975 0
M  V30 4289 N 415.346 1.54954 0.287554 0
M  V30 4290 C 416.757 1.65732 0.859634 0
M  V30 4291 C 417.108 0.574767 1.87592 0
M  V30 4292 O 416.233 -0.286299 2.14498 0
M  V30 4293 C 416.828 3.00438 1.56597 0
M  V30 4294 C 415.387 3.13292 2.08627 0
M  V30 4295 C 414.534 2.61473 0.923416 0
M  V30 4296 H 417.485 1.5857 0.0642338 0
M  V30 4297 H 417.506 2.92613 2.43224 0
M  V30 4298 H 417.018 3.79207 0.826053 0
M  V30 4299 H 415.119 2.39268 2.85625 0
M  V30 4300 H 415.232 4.19647 2.31157 0
M  V30 4301 H 413.596 2.18264 1.31275 0
M  V30 4302 H 414.379 3.42733 0.197241 0
M  V30 4303 N 416.824 -0.551391 1.4764 0
M  V30 4304 C 418.235 -1.13349 1.48354 0
M  V30 4305 C 418.586 -1.94709 0.241432 0
M  V30 4306 O 417.711 -2.06306 -0.653205 0
M  V30 4307 C 418.306 -2.0623 2.68802 0
M  V30 4308 C 416.865 -2.597 2.72457 0
M  V30 4309 C 416.012 -1.36201 2.41546 0
M  V30 4310 H 418.963 -0.337698 1.55065 0
M  V30 4311 H 418.984 -2.90196 2.46103 0
M  V30 4312 H 418.496 -1.46987 3.59188 0
M  V30 4313 H 416.597 -3.22724 1.86225 0
M  V30 4314 H 416.71 -3.00296 3.73308 0
M  V30 4315 H 415.074 -1.67068 1.9225 0
M  V30 4316 H 415.857 -0.787425 3.34147 0
M  V30 4317 N 418.302 -1.35869 -0.798587 0
M  V30 4318 C 419.234 -1.25305 -1.91915 0
M  V30 4319 C 420.247 -0.174548 -1.61862 0
M  V30 4320 O 421.436 -0.428499 -1.73281 0
M  V30 4321 C 418.536 -0.9086 -3.26493 0
M  V30 4322 C 417.709 -2.08711 -3.84394 0
M  V30 4323 C 416.768 -1.71717 -4.97393 0
M  V30 4324 O 415.794 -2.43692 -5.14396 0
M  V30 4325 N 416.996 -0.645473 -5.769 0
M  V30 4326 H 419.761 -2.21849 -2.01502 0
M  V30 4327 H 417.322 -1.29143 -0.976408 0
M  V30 4328 H 419.314 -0.642455 -3.99568 0
M  V30 4329 H 417.884 -0.0325815 -3.12583 0
M  V30 4330 H 417.104 -2.51659 -3.03416 0
M  V30 4331 H 418.392 -2.87468 -4.19809 0
M  V30 4332 H 417.79 -0.047648 -5.6568 0
M  V30 4333 H 416.347 -0.43913 -6.50319 0
M  V30 4334 N 419.78 1.02168 -1.19998 0
M  V30 4335 C 421.005 1.79833 -1.03319 0
M  V30 4336 C 421.43 1.83504 0.413281 0
M  V30 4337 O 420.788 1.26635 1.29743 0
M  V30 4338 C 420.836 3.22396 -1.61533 0
M  V30 4339 O 419.94 4.03555 -0.849519 0
M  V30 4340 H 419.281 0.554872 -0.364709 0
M  V30 4341 H 421.811 1.28542 -1.59179 0
M  V30 4342 H 421.821 3.73124 -1.65054 0
M  V30 4343 H 420.496 3.19039 -2.66809 0
M  V30 4344 H 419.073 3.62169 -0.888129 0
M  V30 4345 N 421.258 1.00505 1.21394 0
M  V30 4346 C 422.205 0.565496 2.23765 0
M  V30 4347 C 423.175 -0.408466 1.60999 0
M  V30 4348 O 424.36 -0.310503 1.88257 0
M  V30 4349 C 421.5 -0.101667 3.4495 0
M  V30 4350 C 420.613 0.915479 4.22188 0
M  V30 4351 C 419.748 0.220574 5.30742 0
M  V30 4352 C 418.787 1.22527 5.99711 0
M  V30 4353 N 417.924 0.557831 6.9988 0
M  V30 4354 H 422.764 1.44314 2.60725 0
M  V30 4355 H 420.301 0.722643 1.28126 0
M  V30 4356 H 422.259 -0.505504 4.14126 0
M  V30 4357 H 420.889 -0.94303 3.08718 0
M  V30 4358 H 419.941 1.43756 3.52191 0
M  V30 4359 H 421.253 1.68005 4.69655 0
M  V30 4360 H 420.407 -0.239368 6.06228 0
M  V30 4361 H 419.146 -0.576401 4.84282 0
M  V30 4362 H 418.151 1.69571 5.22997 0
M  V30 4363 H 419.376 2.02332 6.48258 0
M  V30 4364 H 417.322 -0.219486 6.55633 0
M  V30 4365 H 417.239 1.26065 7.45415 0
M  V30 4366 H 418.507 0.121095 7.79406 0
M  V30 4367 N 422.737 -1.36956 0.779787 0
M  V30 4368 C 424.148 -1.82094 0.412156 0
M  V30 4369 C 424.499 -1.64926 -1.06273 0
M  V30 4370 O 423.624 -1.16483 -1.82375 0
M  V30 4371 C 424.219 -3.3059 0.741319 0
M  V30 4372 C 422.778 -3.73974 0.426641 0
M  V30 4373 C 421.925 -2.59368 0.980987 0
M  V30 4374 H 424.876 -1.25314 0.973758 0
M  V30 4375 H 424.897 -3.80489 0.028887 0
M  V30 4376 H 424.409 -3.43054 1.81482 0
M  V30 4377 H 422.51 -3.67076 -0.639215 0
M  V30 4378 H 422.623 -4.69778 0.940515 0
M  V30 4379 H 420.987 -2.51463 0.404757 0
M  V30 4380 H 421.77 -2.74621 2.06005 0
M  V30 4381 N 424.215 -0.530993 -1.48385 0
M  V30 4382 C 425.163 0.244595 -2.3131 0
M  V30 4383 C 426.157 0.93451 -1.41291 0
M  V30 4384 O 427.363 0.85878 -1.58193 0
M  V30 4385 H 423.738 0.0977472 -0.74562 0
M  V30 4386 H 425.709 -0.474369 -2.94605 0
M  V30 4387 C 424.458 1.2779 -3.23365 0
M  V30 4388 H 423.781 0.756439 -3.92579 0
M  V30 4389 H 425.221 1.79198 -3.84271 0
M  V30 4390 C 423.68 2.31205 -2.45042 0
M  V30 4391 O 424.21 3.37661 -2.17596 0
M  V30 4392 N 422.416 2.04446 -2.0652 0
M  V30 4393 H 421.963 1.17891 -2.2904 0
M  V30 4394 H 421.921 2.73861 -1.54427 0
M  V30 4395 N 425.693 1.55336 -0.266172 0
M  V30 4396 C 426.918 2.04258 0.359661 0
M  V30 4397 C 427.343 1.14359 1.49344 0
M  V30 4398 O 426.701 0.140369 1.80756 0
M  V30 4399 C 426.749 3.50997 0.826635 0
M  V30 4400 O 425.853 3.64204 1.93466 0
M  V30 4401 H 425.194 0.659668 0.075727 0
M  V30 4402 H 427.724 2.00694 -0.39786 0
M  V30 4403 H 427.734 3.9219 1.12477 0
M  V30 4404 H 426.409 4.159 -0.00293032 0
M  V30 4405 H 424.986 3.34913 1.63974 0
M  V30 4406 N 427.171 -0.0066808 1.57599 0
M  V30 4407 C 428.396 -0.707738 1.94951 0
M  V30 4408 C 428.821 -1.66882 0.867868 0
M  V30 4409 O 428.179 -1.80457 -0.17458 0
M  V30 4410 C 428.227 -1.42162 3.31394 0
M  V30 4411 O 427.331 -2.53578 3.25226 0
M  V30 4412 H 426.672 -0.188752 0.636607 0
M  V30 4413 H 429.202 0.0445193 2.04552 0
M  V30 4414 H 429.212 -1.78655 3.66806 0
M  V30 4415 H 427.887 -0.716903 4.09675 0
M  V30 4416 H 426.464 -2.19463 3.01481 0
M  V30 4417 N 428.649 -1.55105 -0.279332 0
M  V30 4418 C 429.896 -1.75412 -1.01177 0
M  V30 4419 C 430.224 -0.551728 -1.86511 0
M  V30 4420 O 429.479 0.465919 -1.90073 0
M  V30 4421 C 429.778 -3.0086 -1.92919 0
M  V30 4422 C 429.444 -4.33689 -1.23387 0
M  V30 4423 C 428.106 -4.69792 -1.04159 0
M  V30 4424 C 430.458 -5.15941 -0.738562 0
M  V30 4425 C 427.786 -5.85707 -0.341166 0
M  V30 4426 C 430.138 -6.32579 -0.0517636 0
M  V30 4427 C 428.802 -6.67326 0.152292 0
M  V30 4428 H 428.072 -0.641879 -0.370233 0
M  V30 4429 H 430.719 -1.89373 -0.284627 0
M  V30 4430 H 429.024 -2.81773 -2.72234 0
M  V30 4431 H 430.721 -3.13768 -2.49701 0
M  V30 4432 H 427.311 -4.05309 -1.39364 0
M  V30 4433 H 431.495 -4.8853 -0.874764 0
M  V30 4434 H 426.751 -6.11157 -0.172287 0
M  V30 4435 H 430.925 -6.9557 0.339828 0
M  V30 4436 H 428.552 -7.56998 0.697014 0
M  V30 4437 N 430.127 0.543554 -1.4793 0
M  V30 4438 C 431.543 0.870806 -1.3375 0
M  V30 4439 C 431.743 1.9864 -0.338261 0
M  V30 4440 O 430.799 2.51305 0.245371 0
M  V30 4441 C 432.112 1.25114 -2.73435 0
M  V30 4442 C 433.66 1.3618 -2.81823 0
M  V30 4443 C 434.135 1.77563 -4.22179 0
M  V30 4444 N 435.626 1.8469 -4.24787 0
M  V30 4445 C 436.361 2.18067 -5.30315 0
M  V30 4446 N 435.857 2.49963 -6.46135 0
M  V30 4447 N 437.65 2.18958 -5.17701 0
M  V30 4448 H 429.801 -0.19275 -2.11524 0
M  V30 4449 H 432.064 -0.0235777 -0.947707 0
M  V30 4450 H 431.77 0.50514 -3.48053 0
M  V30 4451 H 431.644 2.20431 -3.06088 0
M  V30 4452 H 434.031 2.09859 -2.07468 0
M  V30 4453 H 434.112 0.390169 -2.52807 0
M  V30 4454 H 433.756 1.04449 -4.97044 0
M  V30 4455 H 433.686 2.75753 -4.48629 0
M  V30 4456 H 436.177 1.62372 -3.41239 0
M  V30 4457 H 436.49 2.74497 -7.22406 0
M  V30 4458 H 434.835 2.47513 -6.49432 0
M  V30 4459 H 438.026 1.93488 -4.2624 0
M  V30 4460 H 438.199 2.44639 -6.00047 0
M  V30 4461 N 431.605 1.3629 0.791371 0
M  V30 4462 C 433.016 1.27225 1.36641 0
M  V30 4463 C 433.367 -0.0887968 1.95999 0
M  V30 4464 O 432.492 -0.990207 1.92416 0
M  V30 4465 C 433.087 2.30375 2.48421 0
M  V30 4466 C 431.646 2.25004 3.01746 0
M  V30 4467 C 430.793 2.15259 1.7481 0
M  V30 4468 H 433.744 1.47198 0.593173 0
M  V30 4469 H 433.765 1.93905 3.27385 0
M  V30 4470 H 433.277 3.29422 2.05189 0
M  V30 4471 H 431.378 1.29417 3.49403 0
M  V30 4472 H 431.491 3.1761 3.58693 0
M  V30 4473 H 429.855 1.61482 1.96966 0
M  V30 4474 H 430.638 3.16191 1.33709 0
M  V30 4475 N 433.083 -1.0153 1.20538 0
M  V30 4476 C 434.494 -1.56598 1.01657 0
M  V30 4477 C 434.845 -1.91505 -0.426668 0
M  V30 4478 O 433.97 -1.72375 -1.30827 0
M  V30 4479 C 434.565 -2.84542 1.83905 0
M  V30 4480 C 433.124 -3.36133 1.69386 0
M  V30 4481 C 432.271 -2.09427 1.81757 0
M  V30 4482 H 435.222 -0.838974 1.34711 0
M  V30 4483 H 435.243 -3.56004 1.34319 0
M  V30 4484 H 434.755 -2.59105 2.8894 0
M  V30 4485 H 432.856 -3.66528 0.669933 0
M  V30 4486 H 432.969 -4.08248 2.50739 0
M  V30 4487 H 431.333 -2.21941 1.24957 0
M  V30 4488 H 432.116 -1.86414 2.88279 0
M  V30 4489 N 434.561 -1.01147 -1.20859 0
M  V30 4490 C 435.493 -0.535546 -2.22855 0
M  V30 4491 C 436.506 0.379323 -1.58319 0
M  V30 4492 O 437.695 0.178489 -1.77605 0
M  V30 4493 C 434.795 0.240962 -3.38042 0
M  V30 4494 C 433.968 -0.674562 -4.32167 0
M  V30 4495 C 433.027 0.053467 -5.26173 0
M  V30 4496 O 432.053 -0.567339 -5.66366 0
M  V30 4497 N 433.255 1.32997 -5.65059 0
M  V30 4498 H 436.02 -1.41268 -2.64317 0
M  V30 4499 H 433.581 -0.888386 -1.35349 0
M  V30 4500 H 435.573 0.737115 -3.97931 0
M  V30 4501 H 434.143 1.01935 -2.95513 0
M  V30 4502 H 433.363 -1.35111 -3.70322 0
M  V30 4503 H 434.651 -1.2974 -4.91981 0
M  V30 4504 H 434.049 1.85536 -5.34409 0
M  V30 4505 H 432.606 1.77095 -6.2728 0
M  V30 4506 N 436.039 1.36541 -0.78704 0
M  V30 4507 C 436.986 2.30082 -0.181901 0
M  V30 4508 C 437.956 1.5186 0.672896 0
M  V30 4509 O 439.141 1.80374 0.622072 0
M  V30 4510 C 436.281 3.3835 0.679197 0
M  V30 4511 C 435.394 4.31565 -0.193882 0
M  V30 4512 C 434.529 5.26915 0.673364 0
M  V30 4513 C 433.568 6.11769 -0.201315 0
M  V30 4514 N 432.705 6.99315 0.624777 0
M  V30 4515 H 437.545 2.81248 -0.985064 0
M  V30 4516 H 435.082 1.38437 -0.497342 0
M  V30 4517 H 437.04 3.99767 1.19341 0
M  V30 4518 H 435.67 2.8851 1.44781 0
M  V30 4519 H 434.722 3.71323 -0.826044 0
M  V30 4520 H 436.034 4.91191 -0.867937 0
M  V30 4521 H 435.188 5.9361 1.25348 0
M  V30 4522 H 433.927 4.67737 1.38105 0
M  V30 4523 H 432.932 5.44039 -0.793849 0
M  V30 4524 H 434.157 6.73022 -0.906568 0
M  V30 4525 H 432.103 6.42648 1.3168 0
M  V30 4526 H 432.02 7.56 0.00835237 0
M  V30 4527 H 433.288 7.70382 1.18879 0
M  V30 4528 N 437.518 0.538854 1.48102 0
M  V30 4529 C 438.795 -0.0568108 1.95517 0
M  V30 4530 C 439.175 -1.50408 1.48124 0
M  V30 4531 O 438.523 -2.17133 0.711727 0
M  V30 4532 C 438.733 0.0696262 3.48931 0
M  V30 4533 C 440.081 -0.0851202 4.24515 0
M  V30 4534 O 441.105 -0.0037347 3.562 0
M  V30 4535 O 439.964 -0.257025 5.45895 0
M  V30 4536 H 437.058 -0.0743695 0.823649 0
M  V30 4537 H 439.604 0.604081 1.58584 0
M  V30 4538 H 438.376 1.07744 3.76174 0
M  V30 4539 H 437.999 -0.629714 3.92582 0
M  V30 4540 N 438.996 -1.55193 0.274407 0
M  V30 4541 C 439.944 -2.23924 -0.629362 0
M  V30 4542 C 440.938 -1.23602 -1.1584 0
M  V30 4543 O 442.144 -1.41535 -1.11211 0
M  V30 4544 H 438.519 -0.718637 -0.221507 0
M  V30 4545 H 440.49 -2.98388 -0.0268322 0
M  V30 4546 C 439.239 -2.97329 -1.80252 0
M  V30 4547 H 438.562 -3.74313 -1.40462 0
M  V30 4548 H 440.002 -3.48743 -2.41152 0
M  V30 4549 C 438.461 -2.0276 -2.69054 0
M  V30 4550 O 438.991 -1.57836 -3.69392 0
M  V30 4551 N 437.197 -1.69275 -2.36208 0
M  V30 4552 H 436.744 -2.06004 -1.54661 0
M  V30 4553 H 436.702 -1.06271 -2.95895 0
M  V30 4554 N 440.474 -0.00167713 -1.576 0
M  V30 4555 C 441.885 0.54091 -1.78693 0
M  V30 4556 C 442.236 1.7386 -0.909247 0
M  V30 4557 O 441.361 2.16109 -0.112176 0
M  V30 4558 C 441.956 0.98806 -3.24072 0
M  V30 4559 C 440.515 1.47594 -3.46256 0
M  V30 4560 C 439.662 0.42792 -2.73978 0
M  V30 4561 H 442.613 -0.22784 -1.57056 0
M  V30 4562 H 442.634 1.85398 -3.32277 0
M  V30 4563 H 442.146 0.116164 -3.87926 0
M  V30 4564 H 440.247 2.36868 -2.87618 0
M  V30 4565 H 440.36 1.50225 -4.54939 0
M  V30 4566 H 438.724 0.889934 -2.38647 0
M  V30 4567 H 439.507 -0.435038 -3.40532 0
M  V30 4568 N 441.952 1.55251 0.271103 0
M  V30 4569 C 443.363 1.66635 0.842007 0
M  V30 4570 C 443.714 0.594631 1.86972 0
M  V30 4571 O 442.839 -0.263532 2.14789 0
M  V30 4572 C 443.434 3.02082 1.53401 0
M  V30 4573 C 441.993 3.15487 2.05293 0
M  V30 4574 C 441.14 2.62438 0.895631 0
M  V30 4575 H 444.091 1.58629 0.0474117 0
M  V30 4576 H 444.112 2.95176 2.40107 0
M  V30 4577 H 443.624 3.80062 0.785786 0
M  V30 4578 H 441.725 2.42284 2.83071 0
M  V30 4579 H 441.838 4.22075 2.26693 0
M  V30 4580 H 440.202 2.19644 1.28953 0
M  V30 4581 H 440.985 3.42923 0.160878 0
M  V30 4582 N 443.43 -0.535701 1.48216 0
M  V30 4583 C 444.655 -1.32149 1.59848 0
M  V30 4584 C 445.08 -1.86338 0.256842 0
M  V30 4585 O 444.438 -1.64107 -0.770632 0
M  V30 4586 C 444.486 -2.45224 2.64381 0
M  V30 4587 O 443.59 -3.48093 2.21144 0
M  V30 4588 H 442.931 -0.391634 0.536208 0
M  V30 4589 H 445.461 -0.645202 1.94161 0
M  V30 4590 H 445.471 -2.91491 2.85476 0
M  V30 4591 H 444.146 -2.05143 3.61786 0
M  V30 4592 H 442.723 -3.07984 2.10239 0
M  V30 4593 N 444.908 -1.36708 -0.784132 0
M  V30 4594 C 445.838 -1.34153 -1.91116 0
M  V30 4595 C 446.819 -0.212121 -1.68772 0
M  V30 4596 O 448.004 -0.410581 -1.8981 0
M  V30 4597 C 445.134 -1.13535 -3.28218 0
M  V30 4598 C 444.088 -2.23356 -3.65097 0
M  V30 4599 C 443.414 -1.87875 -5.00607 0
M  V30 4600 C 444.714 -3.65473 -3.73131 0
M  V30 4601 H 446.408 -2.28459 -1.93512 0
M  V30 4602 H 443.954 -1.09973 -0.929618 0
M  V30 4603 H 445.907 -1.10381 -4.06687 0
M  V30 4604 H 444.631 -0.156804 -3.26223 0
M  V30 4605 H 443.29 -2.25645 -2.88929 0
M  V30 4606 H 442.938 -0.885814 -4.95139 0
M  V30 4607 H 442.638 -2.61406 -5.26252 0
M  V30 4608 H 444.162 -1.86286 -5.81489 0
M  V30 4609 H 445.576 -3.65382 -4.41779 0
M  V30 4610 H 443.973 -4.37953 -4.10265 0
M  V30 4611 H 445.043 -3.99995 -2.74102 0
M  V30 4612 N 446.386 1.0089 -1.21074 0
M  V30 4613 C 447.632 1.74866 -1.02712 0
M  V30 4614 C 447.965 1.89178 0.438787 0
M  V30 4615 O 447.24 1.42325 1.32567 0
M  V30 4616 C 447.523 3.16347 -1.72036 0
M  V30 4617 C 447.376 3.09782 -3.26121 0
M  V30 4618 C 448.695 4.15187 -1.45973 0
M  V30 4619 H 445.814 0.634736 -0.374539 0
M  V30 4620 H 448.456 1.17646 -1.49196 0
M  V30 4621 H 446.606 3.65201 -1.32517 0
M  V30 4622 H 448.278 2.68673 -3.74983 0
M  V30 4623 H 446.521 2.46982 -3.56626 0
M  V30 4624 H 447.192 4.09829 -3.6979 0
M  V30 4625 H 449.668 3.75022 -1.80272 0
M  V30 4626 H 448.544 5.12331 -1.96999 0
M  V30 4627 H 448.805 4.40386 -0.388924 0
M  V30 4628 N 447.864 1.01787 1.20321 0
M  V30 4629 C 448.827 0.593972 2.2137 0
M  V30 4630 C 449.827 -0.336553 1.57239 0
M  V30 4631 O 451.017 -0.125069 1.7375 0
M  V30 4632 C 448.149 -0.132433 3.40643 0
M  V30 4633 H 449.342 1.48791 2.60387 0
M  V30 4634 H 446.895 0.807803 1.33807 0
M  V30 4635 H 447.63 -1.04123 3.0713 0
M  V30 4636 H 447.415 0.53605 3.88418 0
M  V30 4637 H 448.905 -0.416314 4.1552 0
M  V30 4638 N 449.342 -1.36122 0.79427 0
M  V30 4639 C 450.289 -2.29982 0.194101 0
M  V30 4640 C 451.259 -1.52214 -0.664833 0
M  V30 4641 O 452.444 -1.80702 -0.612498 0
M  V30 4642 C 449.584 -3.38706 -0.661244 0
M  V30 4643 C 448.697 -4.31456 0.216766 0
M  V30 4644 C 447.832 -5.27265 -0.645411 0
M  V30 4645 C 446.871 -6.11653 0.233756 0
M  V30 4646 N 446.008 -6.99636 -0.587682 0
M  V30 4647 H 450.848 -2.80722 0.999965 0
M  V30 4648 H 448.385 -1.38172 0.504677 0
M  V30 4649 H 450.343 -4.00394 -1.17219 0
M  V30 4650 H 448.973 -2.89274 -1.43249 0
M  V30 4651 H 448.025 -3.7088 0.845724 0
M  V30 4652 H 449.337 -4.90724 0.893973 0
M  V30 4653 H 448.491 -5.94266 -1.22198 0
M  V30 4654 H 447.23 -4.68463 -1.35623 0
M  V30 4655 H 446.235 -5.4361 0.82269 0
M  V30 4656 H 447.46 -6.72531 0.942247 0
M  V30 4657 H 445.406 -6.43337 -1.2827 0
M  V30 4658 H 445.323 -7.55993 0.0317402 0
M  V30 4659 H 446.591 -7.71001 -1.14792 0
M  V30 4660 N 450.82 -0.546701 -1.47814 0
M  V30 4661 C 451.783 0.196287 -2.28358 0
M  V30 4662 C 452.783 0.852437 -1.36346 0
M  V30 4663 O 453.973 0.709913 -1.59078 0
M  V30 4664 C 451.105 1.28579 -3.15722 0
M  V30 4665 H 452.298 -0.511086 -2.95513 0
M  V30 4666 H 449.851 -0.303248 -1.5333 0
M  V30 4667 H 450.586 2.0259 -2.53235 0
M  V30 4668 H 450.371 0.820229 -3.83425 0
M  V30 4669 H 451.861 1.80793 -3.76435 0
M  V30 4670 N 452.299 1.55045 -0.282633 0
M  V30 4671 C 453.231 2.2023 0.634924 0
M  V30 4672 C 454.244 1.18931 1.11172 0
M  V30 4673 O 455.433 1.4562 1.03233 0
M  V30 4674 C 452.533 2.82041 1.87899 0
M  V30 4675 C 451.706 4.091 1.54776 0
M  V30 4676 C 450.765 4.54887 2.64507 0
M  V30 4677 O 449.791 5.20496 2.30375 0
M  V30 4678 N 450.993 4.25659 3.94709 0
M  V30 4679 H 453.758 2.99601 0.0769811 0
M  V30 4680 H 451.319 1.61565 -0.104048 0
M  V30 4681 H 453.311 3.09613 2.60619 0
M  V30 4682 H 451.881 2.06618 2.3458 0
M  V30 4683 H 451.101 3.88736 0.654049 0
M  V30 4684 H 452.389 4.9187 1.30158 0
M  V30 4685 H 451.787 3.7306 4.25256 0
M  V30 4686 H 450.344 4.57984 4.63782 0
M  V30 4687 N 453.777 0.010035 1.57597 0
M  V30 4688 C 455.002 -0.687021 1.95691 0
M  V30 4689 C 455.427 -1.65952 0.885519 0
M  V30 4690 O 454.785 -1.80633 -0.15543 0
M  V30 4691 C 454.833 -1.3864 3.32884 0
M  V30 4692 O 453.937 -2.50115 3.27897 0
M  V30 4693 H 453.278 -0.181989 0.638573 0
M  V30 4694 H 455.808 0.0662122 2.04493 0
M  V30 4695 H 455.818 -1.74754 3.6868 0
M  V30 4696 H 454.493 -0.673411 4.10412 0
M  V30 4697 H 453.07 -2.16253 3.03791 0
M  V30 4698 N 455.255 -1.55392 -0.262866 0
M  V30 4699 C 456.185 -1.91978 -1.32917 0
M  V30 4700 C 457.166 -0.7828 -1.51017 0
M  V30 4701 O 458.351 -1.04178 -1.63892 0
M  V30 4702 C 455.481 -2.20055 -2.68687 0
M  V30 4703 C 454.435 -3.35854 -2.65304 0
M  V30 4704 C 453.761 -3.49435 -4.04721 0
M  V30 4705 C 455.061 -4.71977 -2.23685 0
M  V30 4706 H 456.755 -2.81292 -1.02544 0
M  V30 4707 H 454.301 -1.3534 -0.491846 0
M  V30 4708 H 456.254 -2.44237 -3.43404 0
M  V30 4709 H 454.978 -1.27551 -3.00663 0
M  V30 4710 H 453.637 -3.11655 -1.93045 0
M  V30 4711 H 453.285 -2.54379 -4.33936 0
M  V30 4712 H 452.985 -4.27297 -4.0335 0
M  V30 4713 H 454.509 -3.7592 -4.81161 0
M  V30 4714 H 455.923 -4.95637 -2.88127 0
M  V30 4715 H 454.32 -5.52828 -2.33456 0
M  V30 4716 H 455.39 -4.70115 -1.18827 0
M  V30 4717 N 456.733 0.527833 -1.48498 0
M  V30 4718 C 458.144 1.10975 -1.50138 0
M  V30 4719 C 458.495 1.943 -0.272378 0
M  V30 4720 O 457.62 2.07319 0.620301 0
M  V30 4721 C 458.215 2.01927 -2.72049 0
M  V30 4722 C 456.774 2.55332 -2.76554 0
M  V30 4723 C 455.921 1.32341 -2.43683 0
M  V30 4724 H 458.872 0.312986 -1.55583 0
M  V30 4725 H 458.893 2.86244 -2.50689 0
M  V30 4726 H 458.405 1.41254 -3.61481 0
M  V30 4727 H 456.506 3.19721 -1.91336 0
M  V30 4728 H 456.619 2.94319 -3.78038 0
M  V30 4729 H 454.983 1.63989 -1.94884 0
M  V30 4730 H 455.766 0.734165 -3.35358 0
M  V30 4731 N 458.211 1.37122 0.776871 0
M  V30 4732 C 459.436 1.354 1.57104 0
M  V30 4733 C 459.861 -0.0595562 1.88006 0
M  V30 4734 O 459.219 -1.03514 1.48844 0
M  V30 4735 C 459.267 2.19472 2.8612 0
M  V30 4736 O 458.371 1.59582 3.80273 0
M  V30 4737 H 457.712 0.462869 0.476076 0
M  V30 4738 H 460.242 1.80577 0.961932 0
M  V30 4739 H 460.252 2.32502 3.35271 0
M  V30 4740 H 458.927 3.22222 2.62956 0
M  V30 4741 H 457.504 1.55564 3.38902 0
M  V30 4742 N 459.689 -1.00246 1.21608 0
M  V30 4743 C 460.966 -1.71336 0.943568 0
M  V30 4744 C 461.346 -2.03972 -0.543943 0
M  V30 4745 O 460.694 -1.71545 -1.50946 0
M  V30 4746 C 460.904 -2.97094 1.83128 0
M  V30 4747 C 462.252 -3.70071 2.08165 0
M  V30 4748 O 463.276 -3.07081 1.80498 0
M  V30 4749 O 462.135 -4.83376 2.54971 0
M  V30 4750 H 459.229 -0.747386 0.354039 0
M  V30 4751 H 461.775 -1.05967 1.32549 0
M  V30 4752 H 460.547 -2.69407 2.83788 0
M  V30 4753 H 460.17 -3.70204 1.45034 0
M  V30 4754 N 461.167 -1.02423 -1.1978 0
M  V30 4755 C 462.099 -0.559152 -2.22275 0
M  V30 4756 C 463.112 0.36251 -1.58713 0
M  V30 4757 O 464.301 0.159641 -1.77785 0
M  V30 4758 C 461.401 0.205094 -3.38279 0
M  V30 4759 C 460.574 -0.720361 -4.31427 0
M  V30 4760 C 459.633 -0.00234368 -5.262 0
M  V30 4761 O 458.659 -0.627378 -5.65732 0
M  V30 4762 N 459.861 1.26996 -5.66438 0
M  V30 4763 H 462.626 -1.44064 -2.62804 0
M  V30 4764 H 460.187 -0.902692 -1.34399 0
M  V30 4765 H 462.179 0.694868 -3.9869 0
M  V30 4766 H 460.749 0.987947 -2.96578 0
M  V30 4767 H 459.969 -1.39031 -3.68869 0
M  V30 4768 H 461.257 -1.3495 -4.90577 0
M  V30 4769 H 460.655 1.79858 -5.36347 0
M  V30 4770 H 459.212 1.70432 -6.29123 0
M  V30 4771 N 462.645 1.35699 -0.801477 0
M  V30 4772 C 464.056 1.81415 -0.441073 0
M  V30 4773 C 464.407 1.66595 1.03636 0
M  V30 4774 O 463.532 1.19369 1.80499 0
M  V30 4775 C 464.127 3.29369 -0.793819 0
M  V30 4776 C 462.686 3.73248 -0.486083 0
M  V30 4777 C 461.833 2.57775 -1.02213 0
M  V30 4778 H 464.784 1.23749 -0.993572 0
M  V30 4779 H 464.805 3.80395 -0.0894158 0
M  V30 4780 H 464.317 3.40123 -1.86917 0
M  V30 4781 H 462.418 3.68046 0.580735 0
M  V30 4782 H 462.531 4.68222 -1.01513 0
M  V30 4783 H 460.895 2.50788 -0.444712 0
M  V30 4784 H 461.678 2.71309 -2.10348 0
M  V30 4785 N 464.123 0.554532 1.47522 0
M  V30 4786 C 465.369 0.0295227 2.02779 0
M  V30 4787 C 465.702 -1.31582 1.42828 0
M  V30 4788 O 464.977 -1.85561 0.582872 0
M  V30 4789 C 465.26 -0.0664057 3.60039 0
M  V30 4790 C 465.113 1.30585 4.30427 0
M  V30 4791 C 466.432 -0.781162 4.33112 0
M  V30 4792 H 463.551 0.0122027 0.736899 0
M  V30 4793 H 466.193 0.716305 1.7598 0
M  V30 4794 H 464.343 -0.651307 3.83002 0
M  V30 4795 H 466.015 1.93374 4.18813 0
M  V30 4796 H 464.258 1.88125 3.90886 0
M  V30 4797 H 464.929 1.19147 5.38988 0
M  V30 4798 H 467.405 -0.284565 4.15126 0
M  V30 4799 H 466.281 -0.817237 5.42782 0
M  V30 4800 H 466.542 -1.83672 4.0214 0
M  V30 4801 N 465.601 -1.54893 0.290851 0
M  V30 4802 C 466.849 -1.99538 -0.320756 0
M  V30 4803 C 467.17 -1.18075 -1.55188 0
M  V30 4804 O 466.44 -0.274162 -1.93972 0
M  V30 4805 H 465.02 -0.737052 -0.121507 0
M  V30 4806 H 467.682 -1.90755 0.399832 0
M  V30 4807 H 466.778 -3.06282 -0.599802 0
M  V30 4808 N 467.08 -0.0183926 -1.57589 0
M  V30 4809 C 468.308 0.673046 -1.95647 0
M  V30 4810 C 468.723 1.66275 -0.894312 0
M  V30 4811 O 468.08 1.82072 0.124975 0
M  V30 4812 C 468.131 1.38884 -3.33756 0
M  V30 4813 O 467.852 0.438806 -4.35897 0
M  V30 4814 C 469.353 2.1731 -3.86383 0
M  V30 4815 H 466.573 0.186292 -0.644621 0
M  V30 4816 H 469.117 -0.0749748 -2.04363 0
M  V30 4817 H 467.272 2.08835 -3.26293 0
M  V30 4818 H 467.686 0.945869 -5.15901 0
M  V30 4819 H 469.16 2.62863 -4.85394 0
M  V30 4820 H 469.637 3.00764 -3.20059 0
M  V30 4821 H 470.243 1.52339 -3.97081 0
M  V30 4822 N 468.558 1.5553 0.254621 0
M  V30 4823 C 469.805 1.77 0.983736 0
M  V30 4824 C 470.133 0.58133 1.85609 0
M  V30 4825 O 469.388 -0.435621 1.9079 0
M  V30 4826 C 469.687 3.03891 1.88109 0
M  V30 4827 C 469.353 4.35597 1.16472 0
M  V30 4828 C 468.015 4.7139 0.966714 0
M  V30 4829 C 470.367 5.1705 0.656387 0
M  V30 4830 C 467.695 5.86176 0.247942 0
M  V30 4831 C 470.047 6.32581 -0.0488807 0
M  V30 4832 C 468.711 6.67 -0.258438 0
M  V30 4833 H 467.981 0.647688 0.359974 0
M  V30 4834 H 470.628 1.89802 0.254463 0
M  V30 4835 H 468.933 2.86068 2.67717 0
M  V30 4836 H 470.63 3.17701 2.44677 0
M  V30 4837 H 467.22 4.07475 1.32899 0
M  V30 4838 H 471.404 4.8986 0.796933 0
M  V30 4839 H 466.66 6.11354 0.075035 0
M  V30 4840 H 470.834 6.94942 -0.450444 0
M  V30 4841 H 468.461 7.55793 -0.817358 0
M  V30 4842 N 470.036 -0.519951 1.48776 0
M  V30 4843 C 471.261 -1.30447 1.6124 0
M  V30 4844 C 471.686 -1.86055 0.276591 0
M  V30 4845 O 471.044 -1.64915 -0.753183 0
M  V30 4846 C 471.092 -2.42406 2.66967 0
M  V30 4847 O 470.196 -3.45728 2.24824 0
M  V30 4848 H 469.537 -0.385924 0.540332 0
M  V30 4849 H 472.067 -0.624572 1.94834 0
M  V30 4850 H 472.077 -2.88447 2.88552 0
M  V30 4851 H 470.752 -2.01294 3.63941 0
M  V30 4852 H 469.329 -3.05737 2.13494 0
M  V30 4853 N 471.514 -1.37532 -0.769588 0
M  V30 4854 C 472.925 -1.29382 -1.346 0
M  V30 4855 C 473.276 0.0576039 -1.96115 0
M  V30 4856 O 472.401 0.95947 -1.93967 0
M  V30 4857 C 472.996 -2.34298 -2.44724 0
M  V30 4858 C 471.555 -2.29776 -2.98128 0
M  V30 4859 C 470.702 -2.18013 -1.71364 0
M  V30 4860 H 473.653 -1.48123 -0.56968 0
M  V30 4861 H 473.674 -1.99089 -3.24259 0
M  V30 4862 H 473.186 -3.32645 -1.99922 0
M  V30 4863 H 471.287 -1.34959 -3.47299 0
M  V30 4864 H 471.4 -3.23276 -3.53595 0
M  V30 4865 H 469.764 -1.64595 -1.94372 0
M  V30 4866 H 470.547 -3.18278 -1.28662 0
M  V30 4867 N 472.992 0.995999 -1.22138 0
M  V30 4868 C 473.922 2.10387 -1.01289 0
M  V30 4869 C 474.903 1.69975 0.0651454 0
M  V30 4870 O 476.088 1.9396 -0.0964628 0
M  V30 4871 C 473.218 3.42312 -0.586517 0
M  V30 4872 C 472.172 3.96558 -1.61014 0
M  V30 4873 C 471.498 5.24494 -1.0397 0
M  V30 4874 C 472.798 4.27595 -2.99933 0
M  V30 4875 H 474.492 2.28086 -1.93951 0
M  V30 4876 H 472.038 1.09607 -0.933928 0
M  V30 4877 H 473.991 4.19223 -0.427793 0
M  V30 4878 H 472.715 3.24431 0.375761 0
M  V30 4879 H 471.374 3.21776 -1.75658 0
M  V30 4880 H 471.022 5.02953 -0.0688703 0
M  V30 4881 H 470.722 5.61755 -1.72352 0
M  V30 4882 H 472.246 6.04042 -0.892494 0
M  V30 4883 H 473.66 4.95315 -2.8868 0
M  V30 4884 H 472.057 4.76021 -3.6541 0
M  V30 4885 H 473.127 3.35498 -3.50099 0
M  V30 4886 N 474.47 1.03057 1.19235 0
M  V30 4887 C 475.698 0.747697 1.92917 0
M  V30 4888 C 476.113 -0.69372 1.75593 0
M  V30 4889 O 475.47 -1.47191 1.07894 0
M  V30 4890 C 475.521 1.09159 3.44625 0
M  V30 4891 O 475.242 2.47641 3.61394 0
M  V30 4892 C 476.743 0.831763 4.35427 0
M  V30 4893 H 473.963 0.273453 0.612751 0
M  V30 4894 H 476.507 1.37552 1.51327 0
M  V30 4895 H 474.662 0.508919 3.84043 0
M  V30 4896 H 475.076 2.60499 4.55237 0
M  V30 4897 H 476.55 1.12233 5.4047 0
M  V30 4898 H 477.027 -0.233769 4.38577 0
M  V30 4899 H 477.633 1.39725 4.01693 0
M  V30 4900 N 475.948 -1.35272 0.808662 0
M  V30 4901 C 477.176 -2.02946 0.402537 0
M  V30 4902 C 477.591 -1.60937 -0.987147 0
M  V30 4903 O 476.948 -0.807917 -1.63643 0
M  V30 4904 C 476.999 -3.58317 0.47868 0
M  V30 4905 O 476.72 -3.98799 1.81358 0
M  V30 4906 C 478.221 -4.43251 0.0656281 0
M  V30 4907 H 475.441 -0.650831 0.163279 0
M  V30 4908 H 477.985 -1.72849 1.09286 0
M  V30 4909 H 476.14 -3.87055 -0.163415 0
M  V30 4910 H 476.554 -4.93451 1.77781 0
M  V30 4911 H 478.028 -5.51738 0.170017 0
M  V30 4912 H 478.505 -4.27913 -0.989278 0
M  V30 4913 H 479.111 -4.19813 0.68096 0
M  V30 4914 N 477.426 -0.562348 -1.47226 0
M  V30 4915 C 478.651 -0.0432632 -2.07355 0
M  V30 4916 C 479.076 1.24332 -1.41149 0
M  V30 4917 O 478.434 1.74603 -0.488226 0
M  V30 4918 C 478.482 0.130288 -3.60365 0
M  V30 4919 O 477.586 1.19166 -3.94808 0
M  V30 4920 H 476.927 -0.0536334 -0.66183 0
M  V30 4921 H 479.457 -0.779495 -1.89169 0
M  V30 4922 H 479.467 0.342881 -4.06557 0
M  V30 4923 H 478.142 -0.809389 -4.07948 0
M  V30 4924 H 476.719 0.959153 -3.60354 0
M  V30 4925 N 478.904 1.54736 -0.299062 0
M  V30 4926 C 480.181 1.92187 0.363802 0
M  V30 4927 C 480.561 1.22607 1.71845 0
M  V30 4928 O 479.909 0.361141 2.25628 0
M  V30 4929 C 480.119 3.45678 0.480377 0
M  V30 4930 C 481.467 4.17885 0.752147 0
M  V30 4931 O 482.491 3.51702 0.564264 0
M  V30 4932 O 481.35 5.35048 1.11294 0
M  V30 4933 H 478.444 0.801681 0.203066 0
M  V30 4934 H 480.99 1.66115 -0.346978 0
M  V30 4935 H 479.762 3.88443 -0.471999 0
M  V30 4936 H 479.385 3.77779 1.2397 0
M  V30 4937 N 480.382 0.0267497 1.57577 0
M  V30 4938 C 481.61 -0.662661 1.96001 0
M  V30 4939 C 482.025 -1.65799 0.903117 0
M  V30 4940 O 481.382 -1.82135 -0.115317 0
M  V30 4941 C 481.433 -1.37112 3.34488 0
M  V30 4942 O 481.154 -0.415683 4.36123 0
M  V30 4943 C 482.655 -2.15257 3.8753 0
M  V30 4944 H 479.875 -0.18287 0.6456 0
M  V30 4945 H 482.419 0.0858116 2.0432 0
M  V30 4946 H 480.574 -2.07101 3.27395 0
M  V30 4947 H 480.988 -0.918496 5.16395 0
M  V30 4948 H 482.462 -2.60285 4.86781 0
M  V30 4949 H 482.939 -2.99063 3.21649 0
M  V30 4950 H 483.545 -1.50231 3.97883 0
M  V30 4951 N 481.861 -1.55662 -0.24637 0
M  V30 4952 C 483.086 -1.81914 -0.996093 0
M  V30 4953 C 483.511 -0.603875 -1.78143 0
M  V30 4954 O 482.869 0.447091 -1.75701 0
M  V30 4955 C 482.917 -3.05908 -1.90925 0
M  V30 4956 O 482.021 -2.82861 -3.00105 0
M  V30 4957 H 481.362 -0.600481 -0.283406 0
M  V30 4958 H 483.892 -2.02848 -0.267199 0
M  V30 4959 H 483.902 -3.35356 -2.3238 0
M  V30 4960 H 482.577 -3.93999 -1.33183 0
M  V30 4961 H 481.154 -2.64583 -2.62775 0
M  V30 4962 N 483.339 0.512053 -1.4905 0
M  V30 4963 C 484.564 1.2959 -1.6193 0
M  V30 4964 C 484.989 1.85906 -0.286454 0
M  V30 4965 O 484.347 1.65312 0.744426 0
M  V30 4966 C 484.395 2.40987 -2.68249 0
M  V30 4967 O 483.499 3.44531 -2.26654 0
M  V30 4968 H 482.84 0.383053 -0.542371 0
M  V30 4969 H 485.37 0.614231 -1.95162 0
M  V30 4970 H 485.38 2.86913 -2.90078 0
M  V30 4971 H 484.055 1.99361 -3.65004 0
M  V30 4972 H 482.632 3.046 -2.15112 0
M  V30 4973 N 484.817 1.37938 0.762283 0
M  V30 4974 C 486.228 1.30094 1.33912 0
M  V30 4975 C 486.579 -0.0472026 1.96143 0
M  V30 4976 O 485.704 -0.94917 1.94473 0
M  V30 4977 C 486.299 2.35592 2.43478 0
M  V30 4978 C 484.858 2.31353 2.96905 0
M  V30 4979 C 484.005 2.18919 1.70205 0
M  V30 4980 H 486.956 1.48423 0.561816 0
M  V30 4981 H 486.977 2.00806 3.23199 0
M  V30 4982 H 486.489 3.33701 1.98155 0
M  V30 4983 H 484.59 1.36799 3.46579 0
M  V30 4984 H 484.703 3.25147 3.51875 0
M  V30 4985 H 483.067 1.65624 1.93496 0
M  V30 4986 H 483.85 3.18956 1.26973 0
M  V30 4987 N 486.295 -0.989507 1.22664 0
M  V30 4988 C 487.227 -2.0824 0.957542 0
M  V30 4989 C 488.24 -1.6267 -0.0651098 0
M  V30 4990 O 489.429 -1.77695 0.169312 0
M  V30 4991 C 486.529 -3.36298 0.419145 0
M  V30 4992 C 485.702 -4.10882 1.49982 0
M  V30 4993 C 484.761 -5.17221 0.967904 0
M  V30 4994 O 483.787 -5.44613 1.65487 0
M  V30 4995 N 484.989 -5.80124 -0.20896 0
M  V30 4996 H 487.754 -2.31904 1.89843 0
M  V30 4997 H 485.315 -1.15552 1.13399 0
M  V30 4998 H 487.307 -4.04671 0.0485451 0
M  V30 4999 H 485.877 -3.09671 -0.426937 0
M  V30 5000 H 485.097 -3.37092 2.04359 0
M  V30 5001 H 486.385 -4.57482 2.22682 0
M  V30 5002 H 485.783 -5.60244 -0.783818 0
M  V30 5003 H 484.34 -6.49715 -0.520913 0
M  V30 5004 N 487.773 -1.03688 -1.18687 0
M  V30 5005 C 488.72 -0.624624 -2.22187 0
M  V30 5006 C 489.69 0.365636 -1.62026 0
M  V30 5007 O 490.875 0.260481 -1.89014 0
M  V30 5008 C 488.015 0.0101738 -3.45099 0
M  V30 5009 C 487.128 -1.02709 -4.19613 0
M  V30 5010 C 486.263 -0.361213 -5.2997 0
M  V30 5011 C 485.302 -1.38384 -5.96252 0
M  V30 5012 N 484.439 -0.743196 -6.98155 0
M  V30 5013 H 489.279 -1.51176 -2.56807 0
M  V30 5014 H 486.816 -0.75636 -1.26165 0
M  V30 5015 H 488.774 0.395528 -4.15321 0
M  V30 5016 H 487.404 0.860848 -3.1111 0
M  V30 5017 H 486.456 -1.53043 -3.48256 0
M  V30 5018 H 487.768 -1.80398 -4.65036 0
M  V30 5019 H 486.922 0.0785537 -6.06649 0
M  V30 5020 H 485.661 0.447799 -4.8564 0
M  V30 5021 H 484.666 -1.83378 -5.18317 0
M  V30 5022 H 485.891 -2.19448 -6.42666 0
M  V30 5023 H 483.837 0.0455789 -6.55984 0
M  V30 5024 H 483.754 -1.45784 -7.41811 0
M  V30 5025 H 485.022 -0.327698 -7.78811 0
M  V30 5026 N 489.251 1.34841 -0.815825 0
M  V30 5027 C 490.476 2.03261 -0.41226 0
M  V30 5028 C 490.901 1.61055 0.971751 0
M  V30 5029 O 490.259 0.7917 1.63101 0
M  V30 5030 C 490.307 3.56914 -0.514289 0
M  V30 5031 O 489.411 4.09728 0.468675 0
M  V30 5032 H 488.752 0.641664 -0.170771 0
M  V30 5033 H 491.282 1.72241 -1.10427 0
M  V30 5034 H 491.292 4.06156 -0.387457 0
M  V30 5035 H 489.967 3.86982 -1.52375 0
M  V30 5036 H 488.544 3.71681 0.301316 0
M  V30 5037 N 490.729 0.570148 1.46925 0
M  V30 5038 C 491.659 -0.158274 2.32963 0
M  V30 5039 C 492.64 -0.896093 1.44583 0
M  V30 5040 O 493.825 -0.874022 1.7342 0
M  V30 5041 C 490.955 -1.18055 3.26619 0
M  V30 5042 C 489.909 -0.558379 4.24342 0
M  V30 5043 C 489.235 -1.68623 5.07415 0
M  V30 5044 C 490.535 0.496295 5.19937 0
M  V30 5045 H 492.229 0.560046 2.94115 0
M  V30 5046 H 489.775 0.270775 1.41431 0
M  V30 5047 H 491.728 -1.69841 3.85658 0
M  V30 5048 H 490.452 -1.92899 2.63548 0
M  V30 5049 H 489.111 -0.0617157 3.66548 0
M  V30 5050 H 488.759 -2.42402 4.40738 0
M  V30 5051 H 488.459 -1.27564 5.73586 0
M  V30 5052 H 489.983 -2.20709 5.69315 0
M  V30 5053 H 491.397 0.0640052 5.73264 0
M  V30 5054 H 489.794 0.82649 5.94381 0
M  V30 5055 H 490.864 1.38735 4.6463 0
M  V30 5056 N 492.207 -1.54576 0.307264 0
M  V30 5057 C 493.623 -1.59534 -0.0459251 0
M  V30 5058 C 493.823 -1.32414 -1.51884 0
M  V30 5059 O 492.879 -1.1006 -2.27251 0
M  V30 5060 C 494.192 -2.98566 0.357649 0
M  V30 5061 C 495.74 -3.11491 0.306937 0
M  V30 5062 C 496.215 -4.52842 0.685427 0
M  V30 5063 N 497.706 -4.58782 0.638203 0
M  V30 5064 C 498.441 -5.66238 0.903458 0
M  V30 5065 N 497.937 -6.81703 1.23501 0
M  V30 5066 N 499.73 -5.55937 0.830102 0
M  V30 5067 H 491.881 -1.70464 1.26712 0
M  V30 5068 H 494.144 -0.79647 0.514139 0
M  V30 5069 H 493.85 -3.23356 1.38325 0
M  V30 5070 H 493.724 -3.76117 -0.285565 0
M  V30 5071 H 496.111 -2.86446 -0.709424 0
M  V30 5072 H 496.192 -2.36081 0.984861 0
M  V30 5073 H 495.836 -4.78618 1.69963 0
M  V30 5074 H 495.766 -5.26598 -0.0146346 0
M  V30 5075 H 498.257 -3.75849 0.393138 0
M  V30 5076 H 498.57 -7.59582 1.42322 0
M  V30 5077 H 496.915 -6.8324 1.27311 0
M  V30 5078 H 500.106 -4.64608 0.570693 0
M  V30 5079 H 500.279 -6.39597 1.04019 0
M  V30 5080 N 493.685 -0.035106 -1.57561 0
M  V30 5081 C 494.913 0.652258 -1.9635 0
M  V30 5082 C 495.328 1.65317 -0.911897 0
M  V30 5083 O 494.685 1.82194 0.105657 0
M  V30 5084 C 494.736 1.35337 -3.35211 0
M  V30 5085 O 494.457 0.392548 -4.36338 0
M  V30 5086 C 495.958 2.13199 -3.88666 0
M  V30 5087 H 493.178 0.179444 -0.646561 0
M  V30 5088 H 495.722 -0.0966459 -2.04271 0
M  V30 5089 H 493.877 2.05362 -3.28489 0
M  V30 5090 H 494.291 0.891097 -5.16875 0
M  V30 5091 H 495.765 2.577 -4.88154 0
M  V30 5092 H 496.242 2.97353 -3.23231 0
M  V30 5093 H 496.848 1.48118 -3.98674 0
M  V30 5094 N 495.163 1.55791 0.238111 0
M  V30 5095 C 496.126 1.90239 1.27835 0
M  V30 5096 C 497.126 0.779552 1.4064 0
M  V30 5097 O 498.316 1.04747 1.3919 0
M  V30 5098 C 495.448 2.13859 2.65475 0
M  V30 5099 H 496.641 2.83262 0.985034 0
M  V30 5100 H 494.194 1.48818 0.477799 0
M  V30 5101 H 494.929 1.23334 2.99932 0
M  V30 5102 H 494.714 2.95643 2.57561 0
M  V30 5103 H 496.204 2.41664 3.40571 0
M  V30 5104 N 496.642 -0.504142 1.49319 0
M  V30 5105 C 498.053 -1.08572 1.51885 0
M  V30 5106 C 498.404 -1.93842 0.303255 0
M  V30 5107 O 497.529 -2.0828 -0.58724 0
M  V30 5108 C 498.124 -1.97574 2.75227 0
M  V30 5109 C 496.683 -2.509 2.80581 0
M  V30 5110 C 495.83 -1.28447 2.45757 0
M  V30 5111 H 498.781 -0.288194 1.56061 0
M  V30 5112 H 498.802 -2.82219 2.55211 0
M  V30 5113 H 498.314 -1.35486 3.63683 0
M  V30 5114 H 496.415 -3.16636 1.96398 0
M  V30 5115 H 496.528 -2.88268 3.82673 0
M  V30 5116 H 494.892 -1.60868 1.97468 0
M  V30 5117 H 495.675 -0.68072 3.36483 0
M  V30 5118 N 498.12 -1.38341 -0.754957 0
M  V30 5119 C 499.083 -1.35262 -1.85032 0
M  V30 5120 C 500.083 -0.253393 -1.58791 0
M  V30 5121 O 501.273 -0.510205 -1.66561 0
M  V30 5122 C 498.405 -1.10544 -3.22479 0
M  V30 5123 H 499.598 -2.32712 -1.8917 0
M  V30 5124 H 497.151 -1.23614 -0.956515 0
M  V30 5125 H 497.886 -0.136952 -3.24011 0
M  V30 5126 H 497.671 -1.90127 -3.4292 0
M  V30 5127 H 499.161 -1.11082 -4.02555 0
M  V30 5128 N 499.598 0.982988 -1.23187 0
M  V30 5129 C 500.826 1.75921 -1.08901 0
M  V30 5130 C 501.241 1.85341 0.359719 0
M  V30 5131 O 500.598 1.33072 1.24892 0
M  V30 5132 C 500.649 3.18742 -1.70545 0
M  V30 5133 O 500.37 3.09814 -3.09753 0
M  V30 5134 C 501.871 4.1277 -1.61667 0
M  V30 5135 H 499.091 0.552166 -0.381252 0
M  V30 5136 H 501.635 1.23516 -1.62985 0
M  V30 5137 H 499.79 3.68182 -1.20501 0
M  V30 5138 H 500.204 3.99703 -3.39614 0
M  V30 5139 H 501.678 5.10697 -2.09506 0
M  V30 5140 H 502.155 4.3542 -0.575009 0
M  V30 5141 H 502.761 3.69232 -2.11064 0
M  V30 5142 N 501.076 1.04316 1.18135 0
M  V30 5143 C 502.324 0.746542 1.87806 0
M  V30 5144 C 502.645 -0.728082 1.80898 0
M  V30 5145 O 501.915 -1.52554 1.22899 0
M  V30 5146 H 500.495 0.273157 0.695265 0
M  V30 5147 H 503.157 1.32044 1.43354 0
M  V30 5148 H 502.253 1.05362 2.93778 0
M  V30 5149 N 502.554 -1.34406 0.822964 0
M  V30 5150 C 503.486 -2.28305 0.202375 0
M  V30 5151 C 504.499 -1.5103 -0.60777 0
M  V30 5152 O 505.688 -1.73057 -0.437444 0
M  V30 5153 C 502.788 -3.30836 -0.734911 0
M  V30 5154 C 501.961 -4.37388 0.0324177 0
M  V30 5155 C 501.02 -5.1968 -0.825803 0
M  V30 5156 O 500.046 -5.68556 -0.270771 0
M  V30 5157 N 501.248 -5.39393 -2.14558 0
M  V30 5158 H 504.013 -2.82201 1.00909 0
M  V30 5159 H 501.574 -1.4693 0.67993 0
M  V30 5160 H 503.566 -3.82786 -1.31365 0
M  V30 5161 H 502.136 -2.77334 -1.44238 0
M  V30 5162 H 501.356 -3.86152 0.792469 0
M  V30 5163 H 502.644 -5.05702 0.560633 0
M  V30 5164 H 502.042 -5.01357 -2.62025 0
M  V30 5165 H 500.599 -5.94461 -2.67318 0
M  V30 5166 N 504.032 -0.577932 -1.46621 0
M  V30 5167 C 504.962 0.145917 -2.33044 0
M  V30 5168 C 505.943 0.888412 -1.45056 0
M  V30 5169 O 507.128 0.864812 -1.73881 0
M  V30 5170 C 504.258 1.16322 -3.27241 0
M  V30 5171 C 503.212 0.535868 -4.24632 0
M  V30 5172 C 502.538 1.65929 -5.08303 0
M  V30 5173 C 503.838 -0.523861 -5.19666 0
M  V30 5174 H 505.532 -0.575636 -2.93814 0
M  V30 5175 H 503.078 -0.278272 -1.41286 0
M  V30 5176 H 505.031 1.67793 -3.86553 0
M  V30 5177 H 503.755 1.91498 -2.64567 0
M  V30 5178 H 502.414 0.0422759 -3.66576 0
M  V30 5179 H 502.062 2.40061 -4.42018 0
M  V30 5180 H 501.762 1.2452 -5.74255 0
M  V30 5181 H 503.286 2.17686 -5.70478 0
M  V30 5182 H 504.7 -0.0944059 -5.73222 0
M  V30 5183 H 503.097 -0.858 -5.93935 0
M  V30 5184 H 504.167 -1.41197 -4.63887 0
M  V30 5185 N 505.51 1.54411 -0.315457 0
M  V30 5186 C 506.921 1.85885 0.174265 0
M  V30 5187 C 507.272 1.23723 1.52273 0
M  V30 5188 O 506.397 0.540246 2.09548 0
M  V30 5189 C 506.992 3.37257 0.322981 0
M  V30 5190 C 505.551 3.68711 0.756922 0
M  V30 5191 C 504.698 2.77013 -0.126195 0
M  V30 5192 H 507.649 1.49374 -0.536007 0
M  V30 5193 H 507.67 3.62539 1.15522 0
M  V30 5194 H 507.182 3.82471 -0.658602 0
M  V30 5195 H 505.283 3.29024 1.74854 0
M  V30 5196 H 505.396 4.75741 0.566291 0
M  V30 5197 H 503.76 2.51588 0.39692 0
M  V30 5198 H 504.543 3.25051 -1.1044 0
M  V30 5199 N 506.988 0.0434614 1.5754 0
M  V30 5200 C 508.236 -0.630786 1.92004 0
M  V30 5201 C 508.557 -1.71836 0.921807 0
M  V30 5202 O 507.827 -1.9587 -0.034522 0
M  V30 5203 H 506.407 -0.235988 0.708745 0
M  V30 5204 H 509.069 0.0946462 1.9467 0
M  V30 5205 H 508.165 -1.07434 2.93026 0
M  V30 5206 N 508.466 -1.55915 -0.229846 0
M  V30 5207 C 509.882 -1.48721 -0.579166 0
M  V30 5208 C 510.082 -0.736976 -1.87539 0
M  V30 5209 O 509.138 -0.273258 -2.51017 0
M  V30 5210 C 510.451 -2.9323 -0.666082 0
M  V30 5211 C 511.999 -3.03701 -0.757267 0
M  V30 5212 C 512.474 -4.49552 -0.8756 0
M  V30 5213 N 513.965 -4.53561 -0.940035 0
M  V30 5214 C 514.7 -5.63683 -1.05116 0
M  V30 5215 N 514.196 -6.83576 -1.12675 0
M  V30 5216 N 515.989 -5.51516 -1.08565 0
M  V30 5217 H 508.14 -2.03123 0.620857 0
M  V30 5218 H 510.403 -0.922898 0.21671 0
M  V30 5219 H 510.109 -3.51032 0.21664 0
M  V30 5220 H 509.983 -3.44668 -1.53243 0
M  V30 5221 H 512.37 -2.45969 -1.63043 0
M  V30 5222 H 512.451 -2.55446 0.134583 0
M  V30 5223 H 512.095 -5.079 -0.00692351 0
M  V30 5224 H 512.025 -4.95506 -1.78274 0
M  V30 5225 H 514.516 -3.67215 -0.892269 0
M  V30 5226 H 514.829 -7.63251 -1.21109 0
M  V30 5227 H 513.174 -6.86303 -1.09603 0
M  V30 5228 H 516.365 -4.5678 -1.02319 0
M  V30 5229 H 516.538 -6.37372 -1.1688 0
M  V30 5230 N 509.944 0.496216 -1.49584 0
M  V30 5231 C 511.169 1.27865 -1.63295 0
M  V30 5232 C 511.594 1.85592 -0.306156 0
M  V30 5233 O 510.952 1.66092 0.726851 0
M  V30 5234 C 511 2.38128 -2.7079 0
M  V30 5235 O 510.104 3.42108 -2.30296 0
M  V30 5236 H 509.445 0.377279 -0.546403 0
M  V30 5237 H 511.975 0.593497 -1.95803 0
M  V30 5238 H 511.985 2.8382 -2.93104 0
M  V30 5239 H 510.66 1.95479 -3.67098 0
M  V30 5240 H 509.237 3.02301 -2.18331 0
M  V30 5241 N 511.423 1.38739 0.74761 0
M  V30 5242 C 512.648 1.38702 1.54197 0
M  V30 5243 C 513.073 -0.019664 1.8809 0
M  V30 5244 O 512.431 -1.00333 1.51006 0
M  V30 5245 C 512.479 2.25492 2.814 0
M  V30 5246 O 511.583 1.67613 3.76802 0
M  V30 5247 H 510.924 0.472863 0.466151 0
M  V30 5248 H 513.454 1.82577 0.923413 0
M  V30 5249 H 513.464 2.39561 3.30264 0
M  V30 5250 H 512.139 3.27727 2.56062 0
M  V30 5251 H 510.716 1.62718 3.35526 0
M  V30 5252 N 512.901 -0.976442 1.23707 0
M  V30 5253 C 514.312 -1.53284 1.06587 0
M  V30 5254 C 514.663 -1.92765 -0.365526 0
M  V30 5255 O 513.788 -1.7645 -1.25277 0
M  V30 5256 C 514.383 -2.78548 1.92864 0
M  V30 5257 C 512.942 -3.30574 1.79994 0
M  V30 5258 C 512.089 -2.03538 1.88328 0
M  V30 5259 H 515.04 -0.795692 1.37311 0
M  V30 5260 H 515.061 -3.5155 1.45577 0
M  V30 5261 H 514.573 -2.49782 2.97037 0
M  V30 5262 H 512.674 -3.64211 0.786202 0
M  V30 5263 H 512.787 -4.00065 2.636 0
M  V30 5264 H 511.151 -2.17853 1.31954 0
M  V30 5265 H 511.934 -1.77149 2.94063 0
M  V30 5266 N 514.379 -1.04941 -1.1758 0
M  V30 5267 C 515.342 -0.652456 -2.19717 0
M  V30 5268 C 516.342 0.294745 -1.58076 0
M  V30 5269 O 517.532 0.0789579 -1.74021 0
M  V30 5270 C 514.664 0.0420712 -3.40874 0
M  V30 5271 H 515.857 -1.55642 -2.5635 0
M  V30 5272 H 513.41 -0.842995 -1.31618 0
M  V30 5273 H 514.145 0.95943 -3.09783 0
M  V30 5274 H 513.93 -0.638844 -3.86861 0
M  V30 5275 H 515.42 0.306 -4.16477 0
M  V30 5276 N 515.857 1.33968 -0.830081 0
M  V30 5277 C 517.105 1.97672 -0.420734 0
M  V30 5278 C 517.426 1.66111 1.02138 0
M  V30 5279 O 516.696 0.955503 1.71017 0
M  V30 5280 H 515.276 0.73125 -0.152587 0
M  V30 5281 H 517.938 1.63483 -1.0611 0
M  V30 5282 H 517.034 3.07294 -0.545588 0
M  V30 5283 N 517.335 0.585699 1.46312 0
M  V30 5284 C 518.56 0.0762461 2.0726 0
M  V30 5285 C 518.985 -1.22071 1.43109 0
M  V30 5286 O 518.343 -1.73804 0.515942 0
M  V30 5287 C 518.391 -0.0729404 3.60526 0
M  V30 5288 O 517.495 -1.1287 3.96654 0
M  V30 5289 H 516.836 0.0641558 0.660893 0
M  V30 5290 H 519.366 0.809492 1.87905 0
M  V30 5291 H 519.376 -0.278158 4.07051 0
M  V30 5292 H 518.051 0.874188 4.06609 0
M  V30 5293 H 516.628 -0.901703 3.61834 0
M  V30 5294 N 518.813 -1.54241 0.323641 0
M  V30 5295 C 520.224 -1.85975 -0.164405 0
M  V30 5296 C 520.575 -1.24529 -1.51615 0
M  V30 5297 O 519.7 -0.551351 -2.09258 0
M  V30 5298 C 520.295 -3.37424 -0.305091 0
M  V30 5299 C 518.854 -3.69107 -0.737358 0
M  V30 5300 C 518.001 -2.76942 0.140884 0
M  V30 5301 H 520.952 -1.49088 0.543922 0
M  V30 5302 H 520.973 -3.63147 -1.13598 0
M  V30 5303 H 520.485 -3.82116 0.678876 0
M  V30 5304 H 518.586 -3.29947 -1.73107 0
M  V30 5305 H 518.699 -4.76035 -0.541053 0
M  V30 5306 H 517.063 -2.51795 -0.383572 0
M  V30 5307 H 517.846 -3.24461 1.12162 0
M  V30 5308 N 520.291 -0.0518155 -1.57515 0
M  V30 5309 C 521.707 0.304735 -1.56664 0
M  V30 5310 C 521.907 1.71395 -1.05953 0
M  V30 5311 O 520.963 2.42123 -0.716414 0
M  V30 5312 C 522.276 0.132614 -3.00407 0
M  V30 5313 C 523.824 0.20367 -3.12337 0
M  V30 5314 C 524.299 0.0600706 -4.57961 0
M  V30 5315 N 525.79 0.116326 -4.63054 0
M  V30 5316 C 526.525 0.0293363 -5.73392 0
M  V30 5317 N 526.021 -0.110038 -6.92713 0
M  V30 5318 N 527.814 0.0849651 -5.62036 0
M  V30 5319 H 519.965 -0.973056 -1.888 0
M  V30 5320 H 522.228 -0.377781 -0.869474 0
M  V30 5321 H 521.934 -0.839019 -3.41546 0
M  V30 5322 H 521.808 0.893376 -3.66468 0
M  V30 5323 H 524.195 1.16578 -2.71097 0
M  V30 5324 H 524.276 -0.587857 -2.48954 0
M  V30 5325 H 523.92 -0.898715 -4.99886 0
M  V30 5326 H 523.85 0.87075 -5.19351 0
M  V30 5327 H 526.341 0.22327 -3.7724 0
M  V30 5328 H 526.654 -0.169104 -7.72615 0
M  V30 5329 H 524.999 -0.145132 -6.94848 0
M  V30 5330 H 528.19 0.192411 -4.67704 0
M  V30 5331 H 528.363 0.0137131 -6.47999 0
M  V30 5332 N 521.769 1.56035 0.221574 0
M  V30 5333 C 522.997 1.8313 0.962864 0
M  V30 5334 C 523.412 0.630934 1.77946 0
M  V30 5335 O 522.769 -0.400519 1.78051 0
M  V30 5336 C 522.82 3.08742 1.88045 0
M  V30 5337 O 522.541 4.24147 1.09686 0
M  V30 5338 C 524.042 3.48824 2.73563 0
M  V30 5339 H 521.262 0.608775 0.282194 0
M  V30 5340 H 523.806 2.03124 0.23681 0
M  V30 5341 H 521.961 2.90723 2.56045 0
M  V30 5342 H 522.375 4.95505 1.71974 0
M  V30 5343 H 523.849 4.39752 3.3365 0
M  V30 5344 H 524.326 2.70575 3.45956 0
M  V30 5345 H 524.932 3.69282 2.10976 0
M  V30 5346 N 523.247 -0.488276 1.49845 0
M  V30 5347 C 524.493 -1.24065 1.61182 0
M  V30 5348 C 524.848 -1.9004 0.300435 0
M  V30 5349 O 524.141 -1.78341 -0.700365 0
M  V30 5350 C 524.335 -2.32152 2.71735 0
M  V30 5351 C 524.164 -1.76778 4.13497 0
M  V30 5352 C 522.934 -1.57513 4.80123 0
M  V30 5353 C 525.132 -1.27242 4.98311 0
M  V30 5354 N 523.114 -0.972015 6.06156 0
M  V30 5355 C 524.485 -0.791457 6.14928 0
M  V30 5356 C 526.54 -1.15934 4.84214 0
M  V30 5357 C 525.243 -0.208593 7.18997 0
M  V30 5358 C 527.269 -0.590436 5.88445 0
M  V30 5359 C 526.631 -0.119767 7.04298 0
M  V30 5360 H 522.73 -0.443487 0.644083 0
M  V30 5361 H 525.314 -0.545551 1.86901 0
M  V30 5362 H 523.485 -2.99108 2.47768 0
M  V30 5363 H 525.217 -2.99187 2.72523 0
M  V30 5364 H 521.972 -1.82247 4.37131 0
M  V30 5365 H 522.396 -0.689367 6.73481 0
M  V30 5366 H 527.038 -1.5092 3.94947 0
M  V30 5367 H 524.756 0.153501 8.07954 0
M  V30 5368 H 528.342 -0.505548 5.79599 0
M  V30 5369 H 527.222 0.313568 7.83573 0
M  V30 5370 N 524.725 -1.39134 -0.740242 0
M  V30 5371 C 525.675 -1.33928 -1.84519 0
M  V30 5372 C 526.659 -0.221097 -1.59374 0
M  V30 5373 O 527.851 -0.458195 -1.70967 0
M  V30 5374 C 524.98 -1.17991 -3.22387 0
M  V30 5375 C 524.066 -2.34488 -3.53378 0
M  V30 5376 N 524.457 -3.59954 -3.5534 0
M  V30 5377 C 522.755 -2.27331 -3.83714 0
M  V30 5378 C 523.456 -4.36962 -3.83978 0
M  V30 5379 N 522.432 -3.66482 -4.01487 0
M  V30 5380 H 526.234 -2.28907 -1.84333 0
M  V30 5381 H 523.748 -1.32555 -0.938237 0
M  V30 5382 H 525.745 -1.12345 -4.01478 0
M  V30 5383 H 524.405 -0.23957 -3.23815 0
M  V30 5384 H 525.416 -3.93448 -3.36778 0
M  V30 5385 H 522.093 -1.41531 -3.92779 0
M  V30 5386 H 523.483 -5.45692 -3.92008 0
M  V30 5387 N 526.204 0.969867 -1.24223 0
M  V30 5388 C 527.167 2.04564 -1.03373 0
M  V30 5389 C 528.167 1.60798 0.00819206 0
M  V30 5390 O 529.357 1.72641 -0.232567 0
M  V30 5391 C 526.489 3.36163 -0.566343 0
M  V30 5392 H 527.682 2.24494 -1.98853 0
M  V30 5393 H 525.235 1.1448 -1.06415 0
M  V30 5394 H 525.97 3.21925 0.391751 0
M  V30 5395 H 525.755 3.69273 -1.31834 0
M  V30 5396 H 527.245 4.1526 -0.441435 0
M  V30 5397 N 527.682 1.05563 1.17022 0
M  V30 5398 C 528.614 0.617888 2.20714 0
M  V30 5399 C 529.627 -0.320303 1.59618 0
M  V30 5400 O 530.816 -0.112449 1.78145 0
M  V30 5401 C 527.916 -0.115333 3.38704 0
M  V30 5402 C 527.089 0.834493 4.29366 0
M  V30 5403 C 526.148 0.141855 5.26009 0
M  V30 5404 O 525.174 0.777151 5.6387 0
M  V30 5405 N 526.376 -1.11934 5.69606 0
M  V30 5406 H 529.141 1.50981 2.58892 0
M  V30 5407 H 526.702 0.938008 1.31958 0
M  V30 5408 H 528.694 -0.588918 4.00392 0
M  V30 5409 H 527.264 -0.908967 2.99093 0
M  V30 5410 H 526.484 1.48762 3.65053 0
M  V30 5411 H 527.772 1.4791 4.86827 0
M  V30 5412 H 527.17 -1.65574 5.40927 0
M  V30 5413 H 525.727 -1.53692 6.33421 0
M  V30 5414 N 529.16 -1.33526 0.837174 0
M  V30 5415 C 530.409 -1.97098 0.428387 0
M  V30 5416 C 530.722 -1.67062 -1.01734 0
M  V30 5417 O 531.928 -2.24235 -1.53072 0
M  V30 5418 C 530.384 -3.52725 0.715075 0
M  V30 5419 C 529.992 -3.9164 2.17537 0
M  V30 5420 C 531.736 -4.22857 0.373154 0
M  V30 5421 C 529.643 -5.40237 2.40619 0
M  V30 5422 H 528.573 -0.737589 0.156455 0
M  V30 5423 H 531.224 -1.52169 1.02552 0
M  V30 5424 H 529.606 -3.95971 0.0475904 0
M  V30 5425 H 530.78 -3.59456 2.88319 0
M  V30 5426 H 529.095 -3.34485 2.4801 0
M  V30 5427 H 531.692 -5.32133 0.523264 0
M  V30 5428 H 532.035 -4.10647 -0.683708 0
M  V30 5429 H 532.568 -3.85135 0.995801 0
M  V30 5430 H 529.307 -5.57449 3.44864 0
M  V30 5431 H 528.827 -5.73887 1.74396 0
M  V30 5432 H 530.506 -6.07102 2.23688 0
M  V30 5433 N 530.638 -0.59345 -1.46 0
M  V30 5434 C 531.863 -0.0872365 -2.07216 0
M  V30 5435 C 532.288 1.2131 -1.43755 0
M  V30 5436 O 531.646 1.73528 -0.525152 0
M  V30 5437 C 531.694 0.0538197 -3.6056 0
M  V30 5438 O 530.798 1.10765 -3.97247 0
M  V30 5439 H 530.139 -0.0676598 -0.660544 0
M  V30 5440 H 532.669 -0.819445 -1.87473 0
M  V30 5441 H 532.679 0.256567 -4.07193 0
M  V30 5442 H 531.354 -0.895739 -4.0614 0
M  V30 5443 H 529.931 0.882501 -3.62307 0
M  V30 5444 N 532.116 1.54067 -0.331816 0
M  V30 5445 C 533.344 2.05131 0.269996 0
M  V30 5446 C 533.759 1.20749 1.45138 0
M  V30 5447 O 533.116 0.240069 1.80914 0
M  V30 5448 C 533.167 3.54728 0.696456 0
M  V30 5449 O 532.888 4.35906 -0.43794 0
M  V30 5450 C 534.389 4.21916 1.36021 0
M  V30 5451 H 531.609 0.668807 0.0542042 0
M  V30 5452 H 534.153 1.98777 -0.4804 0
M  V30 5453 H 532.308 3.61342 1.39681 0
M  V30 5454 H 532.722 5.24404 -0.100334 0
M  V30 5455 H 534.196 5.28015 1.60947 0
M  V30 5456 H 534.673 3.73538 2.31011 0
M  V30 5457 H 535.279 4.19463 0.702212 0
M  V30 5458 N 533.594 0.0601682 1.57485 0
M  V30 5459 C 534.819 -0.624416 1.97777 0
M  V30 5460 C 535.244 -1.63051 0.937867 0
M  V30 5461 O 534.602 -1.81036 -0.0978845 0
M  V30 5462 C 534.65 -1.27979 3.37126 0
M  V30 5463 O 533.754 -2.39556 3.35688 0
M  V30 5464 H 533.095 -0.161581 0.64404 0
M  V30 5465 H 535.625 0.131237 2.04179 0
M  V30 5466 H 535.635 -1.62937 3.74053 0
M  V30 5467 H 534.31 -0.542501 4.12347 0
M  V30 5468 H 532.887 -2.06478 3.10517 0
M  V30 5469 N 535.072 -1.5615 -0.213296 0
M  V30 5470 C 536.02 -1.93953 -1.28394 0
M  V30 5471 C 537.014 -0.822592 -1.48087 0
M  V30 5472 O 538.22 -1.00748 -1.49164 0
M  V30 5473 H 534.595 -0.61648 -0.430646 0
M  V30 5474 H 536.566 -2.83275 -0.937977 0
M  V30 5475 C 535.315 -2.27969 -2.62537 0
M  V30 5476 H 534.638 -3.13432 -2.48194 0
M  V30 5477 H 536.078 -2.58297 -3.36242 0
M  V30 5478 C 534.537 -1.10775 -3.18167 0
M  V30 5479 O 535.067 -0.373201 -3.99963 0
M  V30 5480 N 533.273 -0.889377 -2.76656 0
M  V30 5481 H 532.82 -1.48843 -2.10246 0
M  V30 5482 H 532.778 -0.107 -3.14218 0
M  V30 5483 N 536.55 0.480323 -1.50102 0
M  V30 5484 C 537.48 1.58769 -1.71215 0
M  V30 5485 C 538.461 1.60583 -0.560997 0
M  V30 5486 O 539.646 1.76996 -0.799127 0
M  V30 5487 C 536.776 2.97148 -1.79778 0
M  V30 5488 C 535.73 3.10201 -2.94888 0
M  V30 5489 C 535.056 4.50137 -2.88584 0
M  V30 5490 C 536.356 2.88283 -4.35534 0
M  V30 5491 H 538.05 1.41354 -2.6393 0
M  V30 5492 H 535.596 0.678591 -1.27008 0
M  V30 5493 H 537.549 3.74536 -1.93133 0
M  V30 5494 H 536.273 3.15699 -0.836772 0
M  V30 5495 H 534.932 2.35244 -2.81169 0
M  V30 5496 H 534.58 4.65593 -1.90349 0
M  V30 5497 H 534.28 4.59808 -3.65856 0
M  V30 5498 H 535.804 5.29558 -3.03976 0
M  V30 5499 H 537.218 3.55427 -4.49827 0
M  V30 5500 H 535.615 3.09408 -5.14186 0
M  V30 5501 H 536.685 1.84219 -4.48544 0
M  V30 5502 N 538.028 1.39524 0.732853 0
M  V30 5503 C 539.258 1.3994 1.51988 0
M  V30 5504 C 539.666 -0.00727973 1.89199 0
M  V30 5505 O 539.009 -0.989521 1.54771 0
M  V30 5506 C 539.071 2.21026 2.83527 0
M  V30 5507 C 538.735 3.69633 2.68738 0
M  V30 5508 C 539.732 4.62665 2.37143 0
M  V30 5509 C 537.417 4.13244 2.85542 0
M  V30 5510 C 539.411 5.97291 2.22536 0
M  V30 5511 C 537.098 5.47945 2.70554 0
M  V30 5512 C 538.096 6.39783 2.39097 0
M  V30 5513 O 537.784 7.72002 2.24204 0
M  V30 5514 H 537.516 0.479795 0.476206 0
M  V30 5515 H 540.07 1.8399 0.913054 0
M  V30 5516 H 538.3 1.71728 3.46477 0
M  V30 5517 H 539.989 2.13594 3.45156 0
M  V30 5518 H 540.755 4.30272 2.2381 0
M  V30 5519 H 536.634 3.42094 3.09019 0
M  V30 5520 H 540.178 6.68939 1.97905 0
M  V30 5521 H 536.075 5.79928 2.83466 0
M  V30 5522 H 536.843 7.8275 2.39258 0
M  V30 5523 N 539.506 -0.963266 1.24736 0
M  V30 5524 C 540.436 -2.07628 1.06832 0
M  V30 5525 C 541.417 -1.70088 -0.0200566 0
M  V30 5526 O 542.602 -1.93636 0.147854 0
M  V30 5527 C 539.732 -3.40636 0.677069 0
M  V30 5528 C 538.686 -3.9215 1.71471 0
M  V30 5529 C 538.012 -5.21553 1.1784 0
M  V30 5530 C 539.312 -4.19493 3.11164 0
M  V30 5531 H 541.006 -2.22864 1.9993 0
M  V30 5532 H 538.552 -1.07093 0.96266 0
M  V30 5533 H 540.505 -4.17941 0.538792 0
M  V30 5534 H 539.229 -3.25313 -0.289612 0
M  V30 5535 H 537.888 -3.17005 1.84128 0
M  V30 5536 H 537.536 -5.02593 0.202195 0
M  V30 5537 H 537.236 -5.56988 1.87185 0
M  V30 5538 H 538.76 -6.01463 1.05233 0
M  V30 5539 H 540.174 -4.87487 3.01711 0
M  V30 5540 H 538.571 -4.66165 3.77902 0
M  V30 5541 H 539.641 -3.26097 3.58871 0
M  V30 5542 N 540.985 -1.06182 -1.16461 0
M  V30 5543 C 542.396 -0.802426 -1.68576 0
M  V30 5544 C 542.747 0.67412 -1.84255 0
M  V30 5545 O 541.872 1.52303 -1.5373 0
M  V30 5546 C 542.467 -1.45002 -3.06202 0
M  V30 5547 C 541.026 -1.23843 -3.55443 0
M  V30 5548 C 540.173 -1.52724 -2.31454 0
M  V30 5549 H 543.124 -1.22545 -1.00839 0
M  V30 5550 H 543.145 -0.864731 -3.70544 0
M  V30 5551 H 542.657 -2.52466 -2.94759 0
M  V30 5552 H 540.758 -0.183487 -3.72148 0
M  V30 5553 H 540.871 -1.95036 -4.37604 0
M  V30 5554 H 539.235 -0.947726 -2.36411 0
M  V30 5555 H 540.018 -2.61343 -2.22609 0
M  V30 5556 N 542.463 1.3308 -0.844243 0
M  V30 5557 C 543.395 2.27954 -0.238671 0
M  V30 5558 C 544.408 1.51978 0.583665 0
M  V30 5559 O 545.597 1.73731 0.409857 0
M  V30 5560 C 542.697 3.31963 0.682185 0
M  V30 5561 C 541.87 4.37281 -0.101998 0
M  V30 5562 C 540.929 5.20928 0.743022 0
M  V30 5563 O 539.955 5.68914 0.180285 0
M  V30 5564 N 541.157 5.42738 2.0595 0
M  V30 5565 H 543.922 2.8056 -1.05386 0
M  V30 5566 H 541.483 1.4583 -0.70322 0
M  V30 5567 H 543.475 3.84828 1.25259 0
M  V30 5568 H 542.045 2.79594 1.39808 0
M  V30 5569 H 541.265 3.84843 -0.853802 0
M  V30 5570 H 542.553 5.04746 -0.641015 0
M  V30 5571 H 541.951 5.05463 2.54016 0
M  V30 5572 H 540.508 5.98639 2.57827 0
M  V30 5573 N 543.941 0.601185 1.45683 0
M  V30 5574 C 545.218 0.0261659 1.95582 0
M  V30 5575 C 545.598 -1.4399 1.5437 0
M  V30 5576 O 544.946 -2.13919 0.80318 0
M  V30 5577 C 545.156 0.217557 3.48321 0
M  V30 5578 C 546.504 0.0950076 4.24494 0
M  V30 5579 O 547.528 0.147345 3.55895 0
M  V30 5580 O 546.387 -0.025261 5.46494 0
M  V30 5581 H 543.481 -0.0393688 0.826062 0
M  V30 5582 H 546.027 0.670798 1.55879 0
M  V30 5583 H 544.799 1.23601 3.71266 0
M  V30 5584 H 544.422 -0.46264 3.94899 0
M  V30 5585 N 545.419 -1.53889 0.339982 0
M  V30 5586 C 546.83 -1.86139 -0.144671 0
M  V30 5587 C 547.181 -1.2613 -1.50285 0
M  V30 5588 O 546.306 -0.573515 -2.08662 0
M  V30 5589 C 546.901 -3.37728 -0.269285 0
M  V30 5590 C 545.46 -3.69868 -0.698168 0
M  V30 5591 C 544.607 -2.76777 0.170249 0
M  V30 5592 H 547.558 -1.48503 0.559704 0
M  V30 5593 H 547.579 -3.64331 -1.0974 0
M  V30 5594 H 547.091 -3.81375 0.719366 0
M  V30 5595 H 545.192 -3.31764 -1.69597 0
M  V30 5596 H 545.305 -4.76582 -0.490533 0
M  V30 5597 H 543.669 -2.52188 -0.356844 0
M  V30 5598 H 544.452 -3.23253 1.15597 0
M  V30 5599 N 546.897 -0.0685191 -1.57451 0
M  V30 5600 C 548.125 0.610462 -1.97689 0
M  V30 5601 C 548.54 1.63346 -0.946758 0
M  V30 5602 O 547.897 1.82377 0.0669868 0
M  V30 5603 C 547.948 1.28196 -3.38006 0
M  V30 5604 O 547.669 0.299906 -4.37072 0
M  V30 5605 C 549.17 2.04907 -3.931 0
M  V30 5606 H 546.39 0.165689 -0.650222 0
M  V30 5607 H 548.934 -0.139953 -2.04021 0
M  V30 5608 H 547.089 1.98348 -3.32771 0
M  V30 5609 H 547.503 0.78126 -5.18649 0
M  V30 5610 H 548.977 2.47287 -4.93511 0
M  V30 5611 H 549.454 2.9043 -3.29465 0
M  V30 5612 H 550.06 1.39629 -4.01726 0
M  V30 5613 N 548.375 1.56261 0.205012 0
M  V30 5614 C 549.621 1.80306 0.9283 0
M  V30 5615 C 549.954 0.640932 1.83319 0
M  V30 5616 O 549.229 -0.359032 1.91158 0
M  V30 5617 C 549.512 3.14547 1.75306 0
M  V30 5618 C 549.365 4.41236 0.873562 0
M  V30 5619 C 550.684 3.45382 2.72762 0
M  V30 5620 H 547.803 0.655929 0.336044 0
M  V30 5621 H 550.445 1.88984 0.196211 0
M  V30 5622 H 548.595 3.0728 2.37721 0
M  V30 5623 H 550.267 4.60539 0.264887 0
M  V30 5624 H 548.51 4.33427 0.179773 0
M  V30 5625 H 549.181 5.31639 1.48541 0
M  V30 5626 H 551.657 3.52884 2.20481 0
M  V30 5627 H 550.533 4.40449 3.2756 0
M  V30 5628 H 550.794 2.68377 3.51321 0
M  V30 5629 N 549.853 -0.472356 1.50355 0
M  V30 5630 C 550.816 -1.5529 1.68576 0
M  V30 5631 C 551.816 -1.50863 0.556511 0
M  V30 5632 O 553.006 -1.53505 0.823516 0
M  V30 5633 C 550.138 -2.94921 1.70981 0
M  V30 5634 H 551.331 -1.40451 2.64978 0
M  V30 5635 H 548.884 -0.698645 1.39816 0
M  V30 5636 H 549.619 -3.15204 0.762675 0
M  V30 5637 H 549.404 -2.99541 2.53017 0
M  V30 5638 H 550.894 -3.73372 1.87037 0
M  V30 5639 N 551.331 -1.39911 -0.725443 0
M  V30 5640 C 552.278 -1.39393 -1.83952 0
M  V30 5641 C 553.248 -0.252249 -1.64173 0
M  V30 5642 O 554.433 -0.44882 -1.85446 0
M  V30 5643 C 551.573 -1.25262 -3.21564 0
M  V30 5644 C 550.686 -2.49054 -3.52982 0
M  V30 5645 C 549.821 -2.27439 -4.80047 0
M  V30 5646 C 548.86 -3.46857 -5.04338 0
M  V30 5647 N 547.997 -3.24499 -6.22611 0
M  V30 5648 H 552.837 -2.34622 -1.83729 0
M  V30 5649 H 550.374 -1.16537 -0.897636 0
M  V30 5650 H 552.332 -1.15077 -4.01015 0
M  V30 5651 H 550.962 -0.33657 -3.21041 0
M  V30 5652 H 550.014 -2.69805 -2.6816 0
M  V30 5653 H 551.326 -3.37973 -3.66846 0
M  V30 5654 H 550.48 -2.14551 -5.67497 0
M  V30 5655 H 549.219 -1.35929 -4.68374 0
M  V30 5656 H 548.224 -3.60232 -4.15346 0
M  V30 5657 H 549.449 -4.3928 -5.17889 0
M  V30 5658 H 547.395 -2.35663 -6.12208 0
M  V30 5659 H 547.312 -4.06978 -6.37106 0
M  V30 5660 H 548.58 -3.15325 -7.12875 0
M  V30 5661 N 552.809 0.956637 -1.25245 0
M  V30 5662 C 554.057 1.69764 -1.09657 0
M  V30 5663 C 554.378 1.91583 0.363464 0
M  V30 5664 O 553.648 1.50149 1.25825 0
M  V30 5665 H 552.228 0.629097 -0.402798 0
M  V30 5666 H 554.89 1.15026 -1.57337 0
M  V30 5667 H 553.986 2.67769 -1.60331 0
M  V30 5668 N 554.287 1.06798 1.15896 0
M  V30 5669 C 555.25 0.687328 2.18651 0
M  V30 5670 C 556.25 -0.269559 1.58524 0
M  V30 5671 O 557.44 -0.0512627 1.74125 0
M  V30 5672 C 554.572 0.0121642 3.40898 0
M  V30 5673 H 555.765 1.59701 2.53842 0
M  V30 5674 H 553.318 0.863828 1.3026 0
M  V30 5675 H 554.053 -0.910025 3.1127 0
M  V30 5676 H 553.838 0.700309 3.85795 0
M  V30 5677 H 555.328 -0.239703 4.16911 0
M  V30 5678 N 555.766 -1.3263 0.851289 0
M  V30 5679 C 556.696 -2.31449 0.308771 0
M  V30 5680 C 557.677 -1.59531 -0.590255 0
M  V30 5681 O 558.862 -1.87351 -0.511205 0
M  V30 5682 C 555.992 -3.43586 -0.506548 0
M  V30 5683 C 554.946 -4.26963 0.297753 0
M  V30 5684 C 554.272 -5.30831 -0.642094 0
M  V30 5685 C 555.572 -4.99643 1.52166 0
M  V30 5686 H 557.266 -2.77074 1.13447 0
M  V30 5687 H 554.812 -1.33207 0.546971 0
M  V30 5688 H 556.765 -4.11754 -0.896474 0
M  V30 5689 H 555.489 -2.96681 -1.36558 0
M  V30 5690 H 554.148 -3.60437 0.669391 0
M  V30 5691 H 553.796 -4.8018 -1.49788 0
M  V30 5692 H 553.496 -5.87501 -0.107968 0
M  V30 5693 H 555.02 -6.01862 -1.02927 0
M  V30 5694 H 556.434 -5.6051 1.20421 0
M  V30 5695 H 554.831 -5.66022 1.99347 0
M  V30 5696 H 555.901 -4.27701 2.28474 0
M  V30 5697 N 557.244 -0.608902 -1.45362 0
M  V30 5698 C 558.207 0.0992563 -2.28985 0
M  V30 5699 C 559.207 0.793841 -1.39838 0
M  V30 5700 O 560.397 0.641804 -1.61946 0
M  V30 5701 C 557.529 1.15073 -3.20891 0
M  V30 5702 H 558.722 -0.635964 -2.93079 0
M  V30 5703 H 556.275 -0.368007 -1.51906 0
M  V30 5704 H 557.01 1.91667 -2.616 0
M  V30 5705 H 556.795 0.656867 -3.86559 0
M  V30 5706 H 558.285 1.64665 -3.83765 0
M  V30 5707 N 558.722 1.53707 -0.348139 0
M  V30 5708 C 559.97 2.00591 0.246478 0
M  V30 5709 C 560.291 1.23753 1.50699 0
M  V30 5710 O 559.561 0.345964 1.92821 0
M  V30 5711 H 558.141 0.741053 0.0940679 0
M  V30 5712 H 560.803 1.89139 -0.470354 0
M  V30 5713 H 559.899 3.08297 0.485714 0
M  V30 5714 N 560.2 0.0768682 1.57412 0
M  V30 5715 C 561.11 -0.903207 2.16516 0
M  V30 5716 C 562.126 -1.32341 1.12968 0
M  V30 5717 O 563.302 -1.39507 1.45258 0
M  V30 5718 C 560.367 -2.1508 2.71922 0
M  V30 5719 C 559.428 -1.78653 3.90361 0
M  V30 5720 C 558.661 -2.97465 4.43114 0
M  V30 5721 O 558.884 -4.11638 3.94854 0
M  V30 5722 O 557.818 -2.76987 5.3438 0
M  V30 5723 H 561.644 -0.430427 3.00634 0
M  V30 5724 H 559.229 -0.146485 1.4868 0
M  V30 5725 H 561.111 -2.8823 3.07411 0
M  V30 5726 H 559.786 -2.61446 1.9086 0
M  V30 5727 H 558.693 -1.0274 3.59716 0
M  V30 5728 H 560.026 -1.37066 4.7273 0
M  V30 5729 N 561.678 -1.56367 -0.196722 0
M  V30 5730 C 562.955 -1.71359 -0.943159 0
M  V30 5731 C 563.335 -0.631192 -2.01443 0
M  V30 5732 O 562.683 0.358071 -2.25677 0
M  V30 5733 C 562.893 -3.13623 -1.53106 0
M  V30 5734 C 564.241 -3.73806 -2.01381 0
M  V30 5735 O 565.265 -3.16742 -1.62951 0
M  V30 5736 O 564.124 -4.73951 -2.7209 0
M  V30 5737 H 561.218 -0.698851 -0.442195 0
M  V30 5738 H 563.764 -1.68672 -0.186547 0
M  V30 5739 H 562.536 -3.83873 -0.758785 0
M  V30 5740 H 562.159 -3.20532 -2.35255 0
M  V30 5741 N 563.156 0.464375 -1.50603 0
M  V30 5742 C 564.384 1.23907 -1.65695 0
M  V30 5743 C 564.799 1.85658 -0.343027 0
M  V30 5744 O 564.156 1.69529 0.675739 0
M  V30 5745 C 564.207 2.3429 -2.75301 0
M  V30 5746 O 563.928 1.7507 -4.01599 0
M  V30 5747 C 565.429 3.25051 -3.01424 0
M  V30 5748 H 562.649 0.374485 -0.556778 0
M  V30 5749 H 565.193 0.55353 -1.96866 0
M  V30 5750 H 563.348 2.98607 -2.46804 0
M  V30 5751 H 563.762 2.47812 -4.62266 0
M  V30 5752 H 565.236 3.98699 -3.81763 0
M  V30 5753 H 565.713 3.84227 -2.12758 0
M  V30 5754 H 566.319 2.66463 -3.31477 0
M  V30 5755 N 564.634 1.40294 0.718013 0
M  V30 5756 C 565.882 1.38167 1.47494 0
M  V30 5757 C 566.203 -0.01607 1.94993 0
M  V30 5758 O 565.473 -0.970396 1.70177 0
M  V30 5759 H 564.053 0.508505 0.547203 0
M  V30 5760 H 566.715 1.75324 0.851322 0
M  V30 5761 H 565.811 2.05503 2.34894 0
M  V30 5762 N 566.112 -0.949982 1.2575 0
M  V30 5763 C 567.358 -1.69766 1.10938 0
M  V30 5764 C 567.691 -1.91056 -0.348028 0
M  V30 5765 O 566.966 -1.48488 -1.25625 0
M  V30 5766 C 567.249 -3.07779 1.86933 0
M  V30 5767 C 567.102 -2.9387 3.4053 0
M  V30 5768 C 568.421 -4.07749 1.65616 0
M  V30 5769 H 565.54 -0.616144 0.404396 0
M  V30 5770 H 568.182 -1.10394 1.54639 0
M  V30 5771 H 566.332 -3.58462 1.4979 0
M  V30 5772 H 568.004 -2.50476 3.87375 0
M  V30 5773 H 566.247 -2.29686 3.68004 0
M  V30 5774 H 566.918 -3.91719 3.88922 0
M  V30 5775 H 569.394 -3.65994 1.97959 0
M  V30 5776 H 568.27 -5.02348 2.21218 0
M  V30 5777 H 568.531 -4.38029 0.598595 0
M  V30 5778 N 567.59 -1.07411 -1.15328 0
M  V30 5779 C 568.836 -0.798831 -1.86404 0
M  V30 5780 C 569.169 0.673433 -1.8215 0
M  V30 5781 O 568.444 1.49428 -1.24505 0
M  V30 5782 C 568.727 -1.30846 -3.35487 0
M  V30 5783 C 568.58 -2.84532 -3.4837 0
M  V30 5784 C 569.899 -0.925486 -4.30259 0
M  V30 5785 H 567.018 -0.291659 -0.676834 0
M  V30 5786 H 569.66 -1.332 -1.35491 0
M  V30 5787 H 567.81 -0.854916 -3.78977 0
M  V30 5788 H 569.482 -3.3818 -3.13739 0
M  V30 5789 H 567.725 -3.22699 -2.8991 0
M  V30 5790 H 568.396 -3.15259 -4.53118 0
M  V30 5791 H 570.872 -1.3163 -3.94731 0
M  V30 5792 H 569.748 -1.3094 -5.33053 0
M  V30 5793 H 570.009 0.168525 -4.41779 0
M  V30 5794 N 569.068 1.32177 -0.85831 0
M  V30 5795 C 570.296 2.01313 -0.477582 0
M  V30 5796 C 570.711 1.6449 0.926736 0
M  V30 5797 O 570.068 0.868096 1.60531 0
M  V30 5798 C 570.119 3.56293 -0.611337 0
M  V30 5799 O 569.84 3.91794 -1.96034 0
M  V30 5800 C 571.341 4.42702 -0.230093 0
M  V30 5801 H 568.561 0.644323 -0.187322 0
M  V30 5802 H 571.105 1.68674 -1.15626 0
M  V30 5803 H 569.26 3.87395 0.0196494 0
M  V30 5804 H 569.674 4.86513 -1.95973 0
M  V30 5805 H 571.148 5.50727 -0.374674 0
M  V30 5806 H 571.625 4.3129 0.829779 0
M  V30 5807 H 572.231 4.16997 -0.836302 0
M  V30 5808 N 570.547 0.616602 1.45037 0
M  V30 5809 C 571.497 -0.118543 2.27692 0
M  V30 5810 C 572.481 -0.830025 1.37838 0
M  V30 5811 O 573.673 -0.718528 1.6176 0
M  V30 5812 C 570.802 -1.10924 3.24886 0
M  V30 5813 C 569.888 -0.398134 4.22227 0
M  V30 5814 N 570.279 0.565233 5.02632 0
M  V30 5815 C 568.577 -0.644506 4.41319 0
M  V30 5816 C 569.278 0.984043 5.73316 0
M  V30 5817 N 568.254 0.325879 5.42622 0
M  V30 5818 H 572.056 0.621239 2.87259 0
M  V30 5819 H 569.57 0.440968 1.56299 0
M  V30 5820 H 571.567 -1.65038 3.82842 0
M  V30 5821 H 570.227 -1.84948 2.66879 0
M  V30 5822 H 571.238 0.942395 5.09254 0
M  V30 5823 H 567.915 -1.36873 3.94426 0
M  V30 5824 H 569.305 1.77911 6.47918 0
M  V30 5825 N 572.025 -1.5352 0.356285 0
M  V30 5826 C 572.935 -2.29151 -0.502712 0
M  V30 5827 C 573.951 -1.34753 -1.1008 0
M  V30 5828 O 575.127 -1.67803 -1.11374 0
M  V30 5829 C 572.192 -3.05911 -1.63154 0
M  V30 5830 C 571.253 -4.15958 -1.06194 0
M  V30 5831 C 570.486 -4.8905 -2.13696 0
M  V30 5832 O 570.709 -4.61919 -3.34645 0
M  V30 5833 O 569.643 -5.75202 -1.77275 0
M  V30 5834 H 573.469 -3.03492 0.112466 0
M  V30 5835 H 571.054 -1.4891 0.120942 0
M  V30 5836 H 572.936 -3.53874 -2.28804 0
M  V30 5837 H 571.611 -2.34415 -2.23229 0
M  V30 5838 H 570.518 -3.7227 -0.369603 0
M  V30 5839 H 571.851 -4.89593 -0.505872 0
M  V30 5840 N 573.503 -0.0852151 -1.57369 0
M  V30 5841 C 574.435 0.907099 -2.10486 0
M  V30 5842 C 575.448 1.25259 -1.03991 0
M  V30 5843 O 576.637 1.20743 -1.31467 0
M  V30 5844 C 573.737 2.21908 -2.56145 0
M  V30 5845 C 572.91 2.05042 -3.86363 0
M  V30 5846 C 571.969 3.19664 -4.17973 0
M  V30 5847 O 570.995 2.94062 -4.87356 0
M  V30 5848 N 572.197 4.45151 -3.72587 0
M  V30 5849 H 574.962 0.453505 -2.96249 0
M  V30 5850 H 572.523 0.100157 -1.6159 0
M  V30 5851 H 574.515 2.97519 -2.74343 0
M  V30 5852 H 573.085 2.58723 -1.75446 0
M  V30 5853 H 572.305 1.13819 -3.77411 0
M  V30 5854 H 573.593 1.91039 -4.71574 0
M  V30 5855 H 572.991 4.68834 -3.16561 0
M  V30 5856 H 571.548 5.17744 -3.9596 0
M  V30 5857 N 574.981 1.5647 0.188427 0
M  V30 5858 C 576.228 1.81013 0.907779 0
M  V30 5859 C 576.556 0.65953 1.82977 0
M  V30 5860 O 575.811 -0.354308 1.92466 0
M  V30 5861 C 576.11 3.11596 1.7505 0
M  V30 5862 C 575.776 4.40145 0.978922 0
M  V30 5863 C 574.438 4.75066 0.765912 0
M  V30 5864 C 576.79 5.19369 0.436498 0
M  V30 5865 C 574.118 5.867 -0.00089868 0
M  V30 5866 C 576.47 6.31805 -0.317136 0
M  V30 5867 C 575.134 6.65303 -0.541103 0
M  V30 5868 H 574.404 0.662373 0.33218 0
M  V30 5869 H 577.051 1.9071 0.173732 0
M  V30 5870 H 575.356 2.97165 2.55343 0
M  V30 5871 H 577.053 3.27793 2.30983 0
M  V30 5872 H 573.643 4.12745 1.15497 0
M  V30 5873 H 577.827 4.92799 0.588449 0
M  V30 5874 H 573.083 6.11122 -0.184329 0
M  V30 5875 H 577.257 6.92406 -0.744788 0
M  V30 5876 H 574.884 7.51646 -1.13718 0
M  V30 5877 N 576.459 -0.456382 1.50847 0
M  V30 5878 C 577.406 -1.55249 1.70782 0
M  V30 5879 C 578.376 -1.56757 0.549231 0
M  V30 5880 O 579.561 -1.74061 0.7815 0
M  V30 5881 C 576.701 -2.93118 1.82143 0
M  V30 5882 C 575.814 -3.01285 3.09598 0
M  V30 5883 C 574.949 -4.30159 3.11667 0
M  V30 5884 C 573.988 -4.32124 4.33515 0
M  V30 5885 N 573.125 -5.52492 4.3324 0
M  V30 5886 H 577.965 -1.37555 2.64353 0
M  V30 5887 H 575.502 -0.668543 1.3103 0
M  V30 5888 H 577.46 -3.73088 1.86711 0
M  V30 5889 H 576.09 -3.09413 0.919978 0
M  V30 5890 H 575.142 -2.14096 3.14431 0
M  V30 5891 H 576.454 -2.98597 3.99551 0
M  V30 5892 H 575.608 -5.18489 3.15046 0
M  V30 5893 H 574.347 -4.35477 2.1957 0
M  V30 5894 H 573.352 -3.42189 4.30333 0
M  V30 5895 H 574.577 -4.28485 5.26856 0
M  V30 5896 H 572.523 -5.58567 3.44004 0
M  V30 5897 H 572.44 -5.51605 5.16979 0
M  V30 5898 H 573.708 -6.42906 4.40786 0
M  V30 5899 N 577.937 -1.40673 -0.710563 0
M  V30 5900 C 578.9 -1.4108 -1.80635 0
M  V30 5901 C 579.9 -0.303783 -1.57904 0
M  V30 5902 O 581.09 -0.562937 -1.64853 0
M  V30 5903 C 578.222 -1.20748 -3.18799 0
M  V30 5904 H 579.415 -2.38612 -1.81671 0
M  V30 5905 H 576.968 -1.26595 -0.916704 0
M  V30 5906 H 577.703 -0.239964 -3.23411 0
M  V30 5907 H 577.488 -2.00941 -3.36698 0
M  V30 5908 H 578.978 -1.23833 -3.98817 0
M  V30 5909 N 579.415 0.9433 -1.26252 0
M  V30 5910 C 580.378 2.02326 -1.07689 0
M  V30 5911 C 581.378 1.60779 -0.0259174 0
M  V30 5912 O 582.568 1.72108 -0.269134 0
M  V30 5913 C 579.7 3.34886 -0.63752 0
M  V30 5914 H 580.893 2.20225 -2.0357 0
M  V30 5915 H 578.446 1.12197 -1.08819 0
M  V30 5916 H 579.181 3.22684 0.323377 0
M  V30 5917 H 578.966 3.66393 -1.39637 0
M  V30 5918 H 580.456 4.14231 -0.529418 0
M  V30 5919 N 580.893 1.08022 1.14757 0
M  V30 5920 C 581.823 0.728248 2.21853 0
M  V30 5921 C 582.804 -0.287486 1.67653 0
M  V30 5922 O 583.989 -0.158727 1.9355 0
M  V30 5923 C 581.119 0.132549 3.47047 0
M  V30 5924 C 580.073 1.07619 4.14249 0
M  V30 5925 C 579.399 0.342907 5.33599 0
M  V30 5926 C 580.699 2.41268 4.63235 0
M  V30 5927 H 582.393 1.62365 2.51551 0
M  V30 5928 H 579.939 0.782125 1.20908 0
M  V30 5929 H 581.892 -0.125665 4.21213 0
M  V30 5930 H 580.616 -0.797971 3.16702 0
M  V30 5931 H 579.275 1.31944 3.42033 0
M  V30 5932 H 578.923 -0.59129 4.99513 0
M  V30 5933 H 578.623 0.971955 5.79506 0
M  V30 5934 H 580.147 0.0926538 6.1053 0
M  V30 5935 H 581.561 2.21232 5.28894 0
M  V30 5936 H 579.958 2.9983 5.19829 0
M  V30 5937 H 581.028 3.03079 3.78512 0
M  V30 5938 N 582.371 -1.3172 0.865308 0
M  V30 5939 C 583.787 -1.4958 0.556596 0
M  V30 5940 C 583.987 -1.79763 -0.910353 0
M  V30 5941 O 583.043 -1.87351 -1.6928 0
M  V30 5942 C 584.356 -2.63277 1.45279 0
M  V30 5943 C 585.904 -2.77161 1.45433 0
M  V30 5944 C 586.379 -3.93949 2.33598 0
M  V30 5945 N 587.87 -4.01228 2.31453 0
M  V30 5946 C 588.605 -4.90855 2.96393 0
M  V30 5947 N 588.101 -5.85416 3.70486 0
M  V30 5948 N 589.894 -4.84063 2.85726 0
M  V30 5949 H 582.045 -1.10396 1.81456 0
M  V30 5950 H 584.308 -0.54507 0.775631 0
M  V30 5951 H 584.014 -2.47734 2.49641 0
M  V30 5952 H 583.888 -3.59309 1.14792 0
M  V30 5953 H 586.275 -2.9212 0.41831 0
M  V30 5954 H 586.356 -1.8181 1.79941 0
M  V30 5955 H 586 -3.79748 3.37274 0
M  V30 5956 H 585.93 -4.88598 1.96417 0
M  V30 5957 H 588.421 -3.3357 1.77593 0
M  V30 5958 H 588.734 -6.50525 4.17178 0
M  V30 5959 H 587.079 -5.85409 3.74594 0
M  V30 5960 H 590.27 -4.09163 2.27384 0
M  V30 5961 H 590.443 -5.53708 3.36617 0
M  V30 5962 N 583.85 -0.624285 -1.44708 0
M  V30 5963 C 584.783 0.133905 -2.27807 0
M  V30 5964 C 585.76 0.857794 -1.38133 0
M  V30 5965 O 586.945 0.863277 -1.6757 0
M  V30 5966 C 584.072 1.19541 -3.16903 0
M  V30 5967 C 583.118 0.572813 -4.22636 0
M  V30 5968 S 583.951 -0.631953 -5.31758 0
M  V30 5969 C 585.106 0.429733 -6.24423 0
M  V30 5970 H 585.34 -0.571072 -2.91764 0
M  V30 5971 H 582.873 -0.412261 -1.48794 0
M  V30 5972 H 584.831 1.80293 -3.68788 0
M  V30 5973 H 583.492 1.87255 -2.5218 0
M  V30 5974 H 582.685 1.37205 -4.84965 0
M  V30 5975 H 582.287 0.0400641 -3.73979 0
M  V30 5976 H 584.579 1.30421 -6.64828 0
M  V30 5977 H 585.522 -0.157804 -7.07924 0
M  V30 5978 H 585.93 0.75256 -5.59461 0
M  V30 5979 N 585.328 1.53329 -0.364422 0
M  V30 5980 C 586.574 2.01537 0.225969 0
M  V30 5981 C 586.907 1.25128 1.48515 0
M  V30 5982 O 586.182 0.344653 1.91422 0
M  V30 5983 C 586.465 3.56339 0.519092 0
M  V30 5984 C 586.318 4.43441 -0.753639 0
M  V30 5985 C 587.637 4.19833 1.32015 0
M  V30 5986 H 584.756 0.732573 0.0806548 0
M  V30 5987 H 587.398 1.83597 -0.489084 0
M  V30 5988 H 585.548 3.71756 1.12825 0
M  V30 5989 H 587.22 4.39823 -1.39116 0
M  V30 5990 H 585.463 4.11457 -1.37424 0
M  V30 5991 H 586.134 5.49699 -0.503517 0
M  V30 5992 H 588.61 4.08242 0.804859 0
M  V30 5993 H 587.486 5.28177 1.49399 0
M  V30 5994 H 587.747 3.75821 2.32832 0
M  V30 5995 N 586.806 0.0935595 1.57322 0
M  V30 5996 C 588.052 -0.571355 1.94585 0
M  V30 5997 C 588.385 -1.67929 0.975366 0
M  V30 5998 O 587.66 -1.94498 0.00816206 0
M  V30 5999 C 587.943 -1.12797 3.41978 0
M  V30 6000 C 587.796 -0.0251881 4.49793 0
M  V30 6001 C 589.115 -2.02682 3.90651 0
M  V30 6002 H 586.234 -0.206223 0.70756 0
M  V30 6003 H 588.876 0.163956 1.89291 0
M  V30 6004 H 587.026 -1.75461 3.4662 0
M  V30 6005 H 588.698 0.608979 4.57263 0
M  V30 6006 H 586.941 0.641399 4.29032 0
M  V30 6007 H 587.612 -0.455433 5.50118 0
M  V30 6008 H 590.088 -1.49925 3.88152 0
M  V30 6009 H 588.964 -2.38555 4.94351 0
M  V30 6010 H 589.225 -2.94362 3.29854 0
M  V30 6011 N 588.284 -1.56567 -0.180126 0
M  V30 6012 C 589.561 -1.7235 -0.924931 0
M  V30 6013 C 589.941 -0.652523 -2.00762 0
M  V30 6014 O 589.289 0.334115 -2.26044 0
M  V30 6015 C 589.499 -3.1523 -1.49771 0
M  V30 6016 C 590.847 -3.75921 -1.97405 0
M  V30 6017 O 591.871 -3.18452 -1.59583 0
M  V30 6018 O 590.73 -4.7681 -2.67048 0
M  V30 6019 H 587.824 -0.703502 -0.434758 0
M  V30 6020 H 590.37 -1.6886 -0.168647 0
M  V30 6021 H 589.142 -3.84656 -0.718027 0
M  V30 6022 H 588.765 -3.23009 -2.31842 0
M  V30 6023 N 589.762 0.448376 -1.51087 0
M  V30 6024 C 590.694 1.56146 -1.67783 0
M  V30 6025 C 591.707 1.52913 -0.55871 0
M  V30 6026 O 592.896 1.57889 -0.83267 0
M  V30 6027 C 589.996 2.95057 -1.66716 0
M  V30 6028 C 589.169 3.22915 -2.95033 0
M  V30 6029 C 588.228 4.41495 -2.86302 0
M  V30 6030 O 587.254 4.40688 -3.60254 0
M  V30 6031 N 588.456 5.44443 -2.014 0
M  V30 6032 H 591.221 1.42232 -2.638 0
M  V30 6033 H 588.782 0.637153 -1.48835 0
M  V30 6034 H 590.774 3.72388 -1.58458 0
M  V30 6035 H 589.344 3.02624 -0.783403 0
M  V30 6036 H 588.564 2.33985 -3.17245 0
M  V30 6037 H 589.852 3.38349 -3.79996 0
M  V30 6038 H 589.25 5.4793 -1.40674 0
M  V30 6039 H 587.807 6.2067 -1.99029 0
M  V30 6040 N 591.24 1.41047 0.703093 0
M  V30 6041 C 592.488 1.39723 1.4602 0
M  V30 6042 C 592.809 0.00461257 1.94999 0
M  V30 6043 O 592.079 -0.952292 1.71196 0
M  V30 6044 H 590.659 0.514281 0.541779 0
M  V30 6045 H 593.321 1.76217 0.832678 0
M  V30 6046 H 592.417 2.07982 2.32701 0
M  V30 6047 N 592.718 -0.936591 1.26751 0
M  V30 6048 C 593.995 -1.66094 1.03306 0
M  V30 6049 C 594.375 -2.06568 -0.435058 0
M  V30 6050 O 593.723 -1.79305 -1.41641 0
M  V30 6051 C 593.933 -2.86969 1.98619 0
M  V30 6052 C 595.281 -3.58516 2.27489 0
M  V30 6053 O 596.305 -2.97082 1.96522 0
M  V30 6054 O 595.164 -4.69181 2.80235 0
M  V30 6055 H 592.258 -0.727568 0.393158 0
M  V30 6056 H 594.804 -0.987914 1.3798 0
M  V30 6057 H 593.576 -2.53985 2.9767 0
M  V30 6058 H 593.199 -3.61996 1.64454 0
M  V30 6059 N 594.196 -1.08629 -1.14182 0
M  V30 6060 C 595.607 -0.838003 -1.66836 0
M  V30 6061 C 595.958 0.634885 -1.85644 0
M  V30 6062 O 595.083 1.49008 -1.56926 0
M  V30 6063 C 595.678 -1.51465 -3.03058 0
M  V30 6064 C 594.237 -1.31355 -3.52736 0
M  V30 6065 C 593.384 -1.57599 -2.28162 0
M  V30 6066 H 596.335 -1.24656 -0.982165 0
M  V30 6067 H 596.356 -0.943134 -3.68626 0
M  V30 6068 H 595.868 -2.58661 -2.89337 0
M  V30 6069 H 593.969 -0.262384 -3.71675 0
M  V30 6070 H 594.082 -2.04275 -4.33369 0
M  V30 6071 H 592.446 -0.997659 -2.34348 0
M  V30 6072 H 593.229 -2.66006 -2.17015 0
M  V30 6073 N 595.674 1.31259 -0.872281 0
M  V30 6074 C 597.09 1.49283 -0.564521 0
M  V30 6075 C 597.29 1.80243 0.900807 0
M  V30 6076 O 596.346 1.88246 1.68284 0
M  V30 6077 C 597.659 2.62503 -1.46673 0
M  V30 6078 C 599.207 2.76386 -1.46901 0
M  V30 6079 C 599.682 3.92705 -2.35684 0
M  V30 6080 N 601.173 3.99995 -2.33577 0
M  V30 6081 C 601.908 4.89276 -2.98992 0
M  V30 6082 N 601.404 5.83443 -3.73585 0
M  V30 6083 N 603.197 4.82541 -2.88289 0
M  V30 6084 H 595.348 1.09432 -1.82039 0
M  V30 6085 H 597.611 0.540949 -0.77851 0
M  V30 6086 H 597.317 2.46407 -2.50951 0
M  V30 6087 H 597.191 3.58695 -1.16696 0
M  V30 6088 H 599.578 2.91894 -0.433796 0
M  V30 6089 H 599.659 1.80853 -1.80903 0
M  V30 6090 H 599.303 3.77954 -3.39283 0
M  V30 6091 H 599.233 4.87549 -1.99006 0
M  V30 6092 H 601.724 3.32624 -1.7936 0
M  V30 6093 H 602.037 6.48303 -4.20622 0
M  V30 6094 H 600.382 5.83415 -3.77694 0
M  V30 6095 H 603.573 4.07951 -2.2955 0
M  V30 6096 H 603.746 5.51916 -3.39549 0
M  V30 6097 N 597.152 0.631951 1.44375 0
M  V30 6098 C 598.082 -0.0593243 2.33425 0
M  V30 6099 C 599.063 -0.833964 1.48253 0
M  V30 6100 O 600.248 -0.799682 1.76971 0
M  V30 6101 C 597.378 -1.04096 3.31333 0
M  V30 6102 C 596.332 -0.377899 4.26328 0
M  V30 6103 C 595.658 -1.4695 5.14111 0
M  V30 6104 C 596.958 0.716371 5.17364 0
M  V30 6105 H 598.652 0.684287 2.91475 0
M  V30 6106 H 596.198 0.330518 1.40156 0
M  V30 6107 H 598.151 -1.53331 3.92514 0
M  V30 6108 H 596.875 -1.81547 2.71493 0
M  V30 6109 H 595.534 0.0938054 3.6648 0
M  V30 6110 H 595.182 -2.2349 4.50623 0
M  V30 6111 H 594.882 -1.03121 5.78481 0
M  V30 6112 H 596.406 -1.96363 5.78164 0
M  V30 6113 H 597.82 0.307089 5.72477 0
M  V30 6114 H 596.217 1.07784 5.90341 0
M  V30 6115 H 597.287 1.58316 4.58327 0
M  V30 6116 N 598.631 -1.53133 0.372548 0
M  V30 6117 C 599.561 -2.28876 -0.462412 0
M  V30 6118 C 600.542 -1.31583 -1.07796 0
M  V30 6119 O 601.727 -1.60461 -1.09389 0
M  V30 6120 C 598.857 -3.08317 -1.59868 0
M  V30 6121 C 597.811 -4.13355 -1.11003 0
M  V30 6122 C 597.137 -4.8092 -2.33708 0
M  V30 6123 C 598.437 -5.21955 -0.18983 0
M  V30 6124 H 600.131 -2.9892 0.169511 0
M  V30 6125 H 597.677 -1.43761 0.0829658 0
M  V30 6126 H 599.63 -3.60055 -2.18949 0
M  V30 6127 H 598.354 -2.35976 -2.25794 0
M  V30 6128 H 597.013 -3.62573 -0.541869 0
M  V30 6129 H 596.661 -4.05144 -2.98106 0
M  V30 6130 H 596.361 -5.51904 -2.01682 0
M  V30 6131 H 597.885 -5.35455 -2.93462 0
M  V30 6132 H 599.299 -5.69153 -0.688319 0
M  V30 6133 H 597.696 -6.00087 0.0398887 0
M  V30 6134 H 598.766 -4.78811 0.766057 0
M  V30 6135 N 600.109 -0.101901 -1.5727 0
M  V30 6136 C 601.039 0.851544 -2.17419 0
M  V30 6137 C 602.02 1.28942 -1.10941 0
M  V30 6138 O 603.205 1.35509 -1.39107 0
M  V30 6139 C 600.335 2.10816 -2.75996 0
M  V30 6140 C 599.289 1.80867 -3.87906 0
M  V30 6141 C 598.615 3.13413 -4.33216 0
M  V30 6142 C 599.915 1.0903 -5.10793 0
M  V30 6143 H 601.609 0.350381 -2.97343 0
M  V30 6144 H 599.155 0.16709 -1.43027 0
M  V30 6145 H 601.108 2.77959 -3.16729 0
M  V30 6146 H 599.832 2.63227 -1.93337 0
M  V30 6147 H 598.491 1.16119 -3.47724 0
M  V30 6148 H 598.139 3.63725 -3.47438 0
M  V30 6149 H 597.839 2.94155 -5.08671 0
M  V30 6150 H 599.363 3.81704 -4.76586 0
M  V30 6151 H 600.777 1.66295 -5.48652 0
M  V30 6152 H 599.174 0.99927 -5.91722 0
M  V30 6153 H 600.244 0.0741704 -4.84843 0
M  V30 6154 N 601.587 1.56661 0.17182 0
M  V30 6155 C 602.864 1.72838 0.915778 0
M  V30 6156 C 603.244 0.66316 2.00413 0
M  V30 6157 O 602.592 -0.322123 2.26218 0
M  V30 6158 C 602.802 3.16019 1.48097 0
M  V30 6159 C 604.15 3.76962 1.95408 0
M  V30 6160 O 605.174 3.19294 1.57892 0
M  V30 6161 O 604.033 4.78219 2.64516 0
M  V30 6162 H 601.127 0.705797 0.431021 0
M  V30 6163 H 603.673 1.68947 0.159689 0
M  V30 6164 H 602.445 3.85031 0.697618 0
M  V30 6165 H 602.068 3.24234 2.30126 0
M  V30 6166 N 603.065 -0.440357 1.51323 0
M  V30 6167 C 604.29 -1.21716 1.67928 0
M  V30 6168 C 604.715 -1.84328 0.374826 0
M  V30 6169 O 604.073 -1.68675 -0.664706 0
M  V30 6170 C 604.121 -2.27914 2.79442 0
M  V30 6171 O 603.225 -3.33325 2.42834 0
M  V30 6172 H 602.566 -0.35674 0.560029 0
M  V30 6173 H 605.096 -0.520417 1.97871 0
M  V30 6174 H 605.106 -2.72746 3.03436 0
M  V30 6175 H 603.781 -1.8172 3.741 0
M  V30 6176 H 602.358 -2.9399 2.294 0
M  V30 6177 N 604.543 -1.41418 -0.695603 0
M  V30 6178 C 605.773 -1.43921 -1.48224 0
M  V30 6179 C 606.181 -0.0428855 -1.89151 0
M  V30 6180 O 605.524 0.948138 -1.5734 0
M  V30 6181 C 605.586 -2.28466 -2.77567 0
M  V30 6182 C 605.25 -3.76629 -2.58844 0
M  V30 6183 C 606.247 -4.6879 -2.24793 0
M  V30 6184 C 603.932 -4.2067 -2.74485 0
M  V30 6185 C 605.926 -6.02981 -2.06622 0
M  V30 6186 C 603.613 -5.54926 -2.55931 0
M  V30 6187 C 604.611 -6.45897 -2.2205 0
M  V30 6188 O 604.299 -7.77675 -2.03657 0
M  V30 6189 H 604.031 -0.492252 -0.463318 0
M  V30 6190 H 606.585 -1.86347 -0.863952 0
M  V30 6191 H 604.815 -1.80853 -3.41802 0
M  V30 6192 H 606.504 -2.2267 -3.39371 0
M  V30 6193 H 607.27 -4.36055 -2.12323 0
M  V30 6194 H 603.149 -3.50167 -2.9984 0
M  V30 6195 H 606.693 -6.73951 -1.80099 0
M  V30 6196 H 602.59 -5.8724 -2.67991 0
M  V30 6197 H 603.358 -7.88819 -2.1842 0
M  V30 6198 N 606.021 0.929856 -1.27246 0
M  V30 6199 C 607.267 1.6798 -1.13625 0
M  V30 6200 C 607.6 1.91586 0.317589 0
M  V30 6201 O 606.875 1.50467 1.23247 0
M  V30 6202 C 607.158 3.04766 -1.91806 0
M  V30 6203 C 607.011 2.88415 -3.45162 0
M  V30 6204 C 608.33 4.05063 -1.72082 0
M  V30 6205 H 605.449 0.609632 -0.414147 0
M  V30 6206 H 608.091 1.0792 -1.56376 0
M  V30 6207 H 606.241 3.56034 -1.55474 0
M  V30 6208 H 607.913 2.44282 -3.91311 0
M  V30 6209 H 606.156 2.23802 -3.71611 0
M  V30 6210 H 606.827 3.85482 -3.95105 0
M  V30 6211 H 609.303 3.62798 -2.03757 0
M  V30 6212 H 608.179 4.98765 -2.29182 0
M  V30 6213 H 608.44 4.37021 -0.668206 0
M  V30 6214 N 607.499 1.09233 1.13605 0
M  V30 6215 C 608.446 0.729921 2.18954 0
M  V30 6216 C 609.416 -0.287916 1.63586 0
M  V30 6217 O 610.601 -0.170003 1.90041 0
M  V30 6218 C 607.741 0.154489 3.44754 0
M  V30 6219 C 606.854 1.22613 4.14234 0
M  V30 6220 C 605.989 0.613657 5.27644 0
M  V30 6221 C 605.028 1.66674 5.8897 0
M  V30 6222 N 604.165 1.07545 6.93814 0
M  V30 6223 H 609.005 1.63257 2.49302 0
M  V30 6224 H 606.542 0.815693 1.22413 0
M  V30 6225 H 608.5 -0.196923 4.16735 0
M  V30 6226 H 607.13 -0.711433 3.14863 0
M  V30 6227 H 606.182 1.69485 3.40557 0
M  V30 6228 H 607.494 2.0238 4.55899 0
M  V30 6229 H 606.648 0.210976 6.06333 0
M  V30 6230 H 605.387 -0.215584 4.87223 0
M  V30 6231 H 604.392 2.07899 5.08978 0
M  V30 6232 H 605.617 2.49861 6.31464 0
M  V30 6233 H 603.563 0.267451 6.55455 0
M  V30 6234 H 603.48 1.81011 7.3401 0
M  V30 6235 H 604.748 0.698906 7.7636 0
M  V30 6236 N 608.977 -1.30795 0.87923 0
M  V30 6237 C 610.226 -1.95636 0.490875 0
M  V30 6238 C 610.539 -1.70214 -0.963674 0
M  V30 6239 O 611.745 -2.28991 -1.45861 0
M  V30 6240 C 610.201 -3.50271 0.826929 0
M  V30 6241 C 609.809 -3.84521 2.29886 0
M  V30 6242 C 611.553 -4.21456 0.507494 0
M  V30 6243 C 609.46 -5.32309 2.57685 0
M  V30 6244 H 608.39 -0.732238 0.179841 0
M  V30 6245 H 611.041 -1.48829 1.07341 0
M  V30 6246 H 609.423 -3.9562 0.173542 0
M  V30 6247 H 610.597 -3.50102 2.99609 0
M  V30 6248 H 608.912 -3.26425 2.58526 0
M  V30 6249 H 611.509 -5.30199 0.692293 0
M  V30 6250 H 611.852 -4.12614 -0.552718 0
M  V30 6251 H 612.385 -3.81772 1.11782 0
M  V30 6252 H 609.124 -5.46195 3.62424 0
M  V30 6253 H 608.644 -5.68048 1.92566 0
M  V30 6254 H 610.323 -5.99678 2.42889 0
M  V30 6255 N 610.455 -0.639598 -1.44038 0
M  V30 6256 C 611.703 -0.147188 -2.01563 0
M  V30 6257 C 612.024 1.2384 -1.50628 0
M  V30 6258 O 611.294 1.82452 -0.713316 0
M  V30 6259 H 609.874 -0.0514231 -0.745228 0
M  V30 6260 H 612.536 -0.828205 -1.76428 0
M  V30 6261 H 611.632 -0.121358 -3.11864 0
M  V30 6262 N 611.933 1.52934 -0.380664 0
M  V30 6263 C 612.843 2.29921 0.466192 0
M  V30 6264 C 613.859 1.36488 1.07922 0
M  V30 6265 O 615.035 1.69553 1.0869 0
M  V30 6266 C 612.1 3.08468 1.58266 0
M  V30 6267 C 611.161 4.17595 0.995627 0
M  V30 6268 C 610.394 4.92387 2.05889 0
M  V30 6269 O 610.617 4.67184 3.27254 0
M  V30 6270 O 609.551 5.77949 1.68102 0
M  V30 6271 H 613.377 3.03274 -0.160735 0
M  V30 6272 H 610.962 1.48698 -0.144617 0
M  V30 6273 H 612.844 3.57469 2.23145 0
M  V30 6274 H 611.519 2.37937 2.19471 0
M  V30 6275 H 610.426 3.72811 0.310332 0
M  V30 6276 H 611.759 4.90336 0.427918 0
M  V30 6277 N 613.412 0.11024 1.57214 0
M  V30 6278 C 614.66 -0.548783 1.94506 0
M  V30 6279 C 614.981 -1.67772 0.99386 0
M  V30 6280 O 614.251 -1.9584 0.0485841 0
M  V30 6281 H 612.831 -0.205715 0.718116 0
M  V30 6282 H 615.493 0.177127 1.94093 0
M  V30 6283 H 614.589 -0.949096 2.97319 0
M  V30 6284 N 614.89 -1.56749 -0.16351 0
M  V30 6285 C 616.115 -1.86938 -0.898264 0
M  V30 6286 C 616.54 -0.697456 -1.74692 0
M  V30 6287 O 615.898 0.353327 -1.77824 0
M  V30 6288 C 615.946 -3.15599 -1.74441 0
M  V30 6289 O 615.05 -2.98371 -2.8469 0
M  V30 6290 H 614.391 -0.614659 -0.251178 0
M  V30 6291 H 616.921 -2.03979 -0.159298 0
M  V30 6292 H 616.931 -3.47202 -2.14277 0
M  V30 6293 H 615.606 -4.00505 -1.1211 0
M  V30 6294 H 614.183 -2.7814 -2.4838 0
M  V30 6295 N 616.368 0.432326 -1.51554 0
M  V30 6296 C 617.596 1.20364 -1.68286 0
M  V30 6297 C 618.011 1.84888 -0.38233 0
M  V30 6298 O 617.368 1.70924 0.639627 0
M  V30 6299 C 617.419 2.28398 -2.80208 0
M  V30 6300 O 617.14 1.66512 -4.05223 0
M  V30 6301 C 618.641 3.18584 -3.08251 0
M  V30 6302 H 615.861 0.36259 -0.564596 0
M  V30 6303 H 618.405 0.511647 -1.97996 0
M  V30 6304 H 616.56 2.93305 -2.53083 0
M  V30 6305 H 616.974 2.37951 -4.67418 0
M  V30 6306 H 618.448 3.90511 -3.90135 0
M  V30 6307 H 618.925 3.79628 -2.2086 0
M  V30 6308 H 619.531 2.59372 -3.37055 0
M  V30 6309 N 617.846 1.41785 0.688094 0
M  V30 6310 C 619.094 1.41264 1.4453 0
M  V30 6311 C 619.415 0.0252946 1.94984 0
M  V30 6312 O 618.685 -0.934081 1.72197 0
M  V30 6313 H 617.265 0.519998 0.536294 0
M  V30 6314 H 619.927 1.7709 0.813941 0
M  V30 6315 H 619.023 2.10439 2.30482 0
M  V30 6316 N 619.324 -0.923095 1.27737 0
M  V30 6317 C 620.573 -1.66581 1.13727 0
M  V30 6318 C 620.886 -1.9304 -0.315433 0
M  V30 6319 O 622.092 -2.65309 -0.57651 0
M  V30 6320 C 620.548 -3.00047 1.98745 0
M  V30 6321 C 620.156 -2.8127 3.48699 0
M  V30 6322 C 621.9 -3.77887 1.93395 0
M  V30 6323 C 619.807 -4.1032 4.25901 0
M  V30 6324 H 618.737 -0.624834 0.422017 0
M  V30 6325 H 621.388 -1.02514 1.52194 0
M  V30 6326 H 619.77 -3.65197 1.53125 0
M  V30 6327 H 620.944 -2.24859 4.02213 0
M  V30 6328 H 619.259 -2.16854 3.55476 0
M  V30 6329 H 621.856 -4.73526 2.48348 0
M  V30 6330 H 622.199 -4.06264 0.908605 0
M  V30 6331 H 622.732 -3.19541 2.36935 0
M  V30 6332 H 619.471 -3.8712 5.28978 0
M  V30 6333 H 618.991 -4.66377 3.77163 0
M  V30 6334 H 620.67 -4.78648 4.35321 0
M  V30 6335 N 620.802 -1.09834 -1.13024 0
M  V30 6336 C 622.048 -0.83819 -1.84668 0
M  V30 6337 C 622.381 0.634645 -1.83537 0
M  V30 6338 O 621.656 1.46753 -1.27647 0
M  V30 6339 C 621.939 -1.37933 -3.32636 0
M  V30 6340 C 621.792 -2.91857 -3.42257 0
M  V30 6341 C 623.111 -1.01654 -4.28199 0
M  V30 6342 H 620.23 -0.30595 -0.670495 0
M  V30 6343 H 622.872 -1.36044 -1.32635 0
M  V30 6344 H 621.022 -0.935111 -3.77078 0
M  V30 6345 H 622.694 -3.44759 -3.06495 0
M  V30 6346 H 620.937 -3.28776 -2.83 0
M  V30 6347 H 621.608 -3.24799 -4.46329 0
M  V30 6348 H 624.084 -1.39973 -3.9185 0
M  V30 6349 H 622.96 -1.42217 -5.30156 0
M  V30 6350 H 623.221 0.0747794 -4.42037 0
M  V30 6351 N 622.28 1.30327 -0.886154 0
M  V30 6352 C 623.52 1.97886 -0.511912 0
M  V30 6353 C 623.884 1.68417 0.921944 0
M  V30 6354 O 625.085 2.29319 1.40237 0
M  V30 6355 C 623.356 3.48775 -0.780444 0
M  V30 6356 S 624.915 4.35844 -0.508482 0
M  V30 6357 H 621.733 0.685024 -0.190428 0
M  V30 6358 H 624.335 1.58413 -1.14567 0
M  V30 6359 H 623.039 3.67714 -1.82248 0
M  V30 6360 H 622.57 3.93171 -0.134284 0
M  V30 6361 H 624.585 4.91893 0.65239 0
M  V30 6362 N 623.758 0.647228 1.43697 0
M  V30 6363 C 624.688 -0.0345631 2.33474 0
M  V30 6364 C 625.669 -0.818193 1.4913 0
M  V30 6365 O 626.854 -0.780867 1.77809 0
M  V30 6366 C 623.984 -1.00576 3.32418 0
M  V30 6367 C 622.938 -0.33266 4.26705 0
M  V30 6368 C 622.264 -1.41489 5.1564 0
M  V30 6369 C 623.564 0.771204 5.16575 0
M  V30 6370 H 625.258 0.715163 2.90733 0
M  V30 6371 H 622.804 0.345364 1.39797 0
M  V30 6372 H 624.757 -1.49159 3.94119 0
M  V30 6373 H 623.481 -1.78657 2.73403 0
M  V30 6374 H 622.14 0.13267 3.6636 0
M  V30 6375 H 621.788 -2.18698 4.52968 0
M  V30 6376 H 621.488 -0.969799 5.79542 0
M  V30 6377 H 623.012 -1.9022 5.80214 0
M  V30 6378 H 624.426 0.36779 5.72119 0
M  V30 6379 H 622.823 1.1404 5.89165 0
M  V30 6380 H 623.893 1.63169 4.56622 0
M  V30 6381 N 625.236 -1.5273 0.388769 0
M  V30 6382 C 626.199 -2.25043 -0.434544 0
M  V30 6383 C 627.199 -1.26661 -0.990644 0
M  V30 6384 O 628.389 -1.50762 -0.872731 0
M  V30 6385 C 625.521 -3.00507 -1.60961 0
M  V30 6386 H 626.714 -2.99242 0.198549 0
M  V30 6387 H 624.267 -1.55664 0.140875 0
M  V30 6388 H 625.002 -2.30607 -2.28015 0
M  V30 6389 H 624.787 -3.72716 -1.21757 0
M  V30 6390 H 626.277 -3.55413 -2.19251 0
M  V30 6391 N 626.714 -0.118576 -1.57153 0
M  V30 6392 C 628.13 0.238014 -1.57815 0
M  V30 6393 C 628.33 1.66747 -1.13127 0
M  V30 6394 O 627.386 2.38867 -0.818462 0
M  V30 6395 C 628.699 0.00508207 -3.007 0
M  V30 6396 C 630.247 0.0710139 -3.12919 0
M  V30 6397 C 630.722 -0.13422 -4.57803 0
M  V30 6398 N 632.213 -0.0801755 -4.63131 0
M  V30 6399 C 632.948 -0.213885 -5.73001 0
M  V30 6400 N 632.444 -0.403742 -6.91623 0
M  V30 6401 N 634.237 -0.15349 -5.6189 0
M  V30 6402 H 626.388 -1.05226 -1.84503 0
M  V30 6403 H 628.651 -0.414318 -0.852669 0
M  V30 6404 H 628.357 -0.983125 -3.3768 0
M  V30 6405 H 628.231 0.73714 -3.69927 0
M  V30 6406 H 630.618 1.04975 -2.75798 0
M  V30 6407 H 630.699 -0.692918 -2.46236 0
M  V30 6408 H 630.343 -1.10992 -4.95624 0
M  V30 6409 H 630.273 0.649692 -5.22577 0
M  V30 6410 H 632.764 0.0630689 -3.77847 0
M  V30 6411 H 633.077 -0.496645 -7.71202 0
M  V30 6412 H 631.422 -0.43971 -6.93608 0
M  V30 6413 H 634.613 -0.00613174 -4.681 0
M  V30 6414 H 634.786 -0.261138 -6.47474 0
M  V30 6415 N 628.193 1.56834 0.155195 0
M  V30 6416 C 629.103 2.009 1.21146 0
M  V30 6417 C 630.119 0.923029 1.475 0
M  V30 6418 O 631.295 1.23189 1.59331 0
M  V30 6419 C 628.36 2.37378 2.52691 0
M  V30 6420 C 627.421 3.59883 2.34057 0
M  V30 6421 C 626.654 3.94612 3.59329 0
M  V30 6422 O 626.877 3.30104 4.65175 0
M  V30 6423 O 625.811 4.87895 3.52479 0
M  V30 6424 H 629.637 2.9105 0.867371 0
M  V30 6425 H 627.222 1.44916 0.363298 0
M  V30 6426 H 629.104 2.61737 3.3026 0
M  V30 6427 H 627.779 1.50385 2.86646 0
M  V30 6428 H 626.686 3.40722 1.54465 0
M  V30 6429 H 628.019 4.47468 2.0502 0
M  V30 6430 N 629.671 -0.424282 1.51781 0
M  V30 6431 C 630.618 -1.51591 1.74037 0
M  V30 6432 C 631.588 -1.55556 0.582358 0
M  V30 6433 O 632.773 -1.72364 0.818245 0
M  V30 6434 C 629.913 -2.89188 1.8832 0
M  V30 6435 C 629.026 -2.9465 3.1592 0
M  V30 6436 C 628.161 -4.23452 3.20721 0
M  V30 6437 C 627.2 -4.22831 4.42584 0
M  V30 6438 N 626.337 -5.43178 4.44862 0
M  V30 6439 H 631.177 -1.31917 2.67212 0
M  V30 6440 H 628.714 -0.640599 1.32419 0
M  V30 6441 H 630.672 -3.69044 1.94583 0
M  V30 6442 H 629.302 -3.07392 0.985402 0
M  V30 6443 H 628.354 -2.07378 3.18902 0
M  V30 6444 H 629.666 -2.90055 4.05795 0
M  V30 6445 H 628.82 -5.1169 3.25973 0
M  V30 6446 H 627.559 -4.30722 2.28757 0
M  V30 6447 H 626.564 -3.32984 4.37495 0
M  V30 6448 H 627.789 -4.17213 5.35826 0
M  V30 6449 H 625.735 -5.51145 3.55775 0
M  V30 6450 H 625.652 -5.40515 5.28563 0
M  V30 6451 H 626.92 -6.33412 4.54324 0
M  V30 6452 N 631.149 -1.42148 -0.680565 0
M  V30 6453 C 632.099 -1.41634 -1.78672 0
M  V30 6454 C 633.083 -0.288494 -1.58293 0
M  V30 6455 O 634.275 -0.530295 -1.68869 0
M  V30 6456 C 631.404 -1.31558 -3.17092 0
M  V30 6457 C 630.49 -2.49265 -3.43115 0
M  V30 6458 N 630.881 -3.74702 -3.39753 0
M  V30 6459 C 629.179 -2.43401 -3.73727 0
M  V30 6460 C 629.88 -4.52854 -3.651 0
M  V30 6461 N 628.856 -3.83181 -3.85582 0
M  V30 6462 H 632.658 -2.3652 -1.74458 0
M  V30 6463 H 630.172 -1.36415 -0.881171 0
M  V30 6464 H 632.169 -1.29272 -3.96351 0
M  V30 6465 H 630.829 -0.376696 -3.22508 0
M  V30 6466 H 631.84 -4.07378 -3.19787 0
M  V30 6467 H 628.517 -1.58062 -3.86423 0
M  V30 6468 H 629.907 -5.61827 -3.6851 0
M  V30 6469 N 632.627 0.916307 -1.28225 0
M  V30 6470 C 633.852 1.7043 -1.18188 0
M  V30 6471 C 634.277 1.86346 0.256274 0
M  V30 6472 O 633.635 1.37175 1.18544 0
M  V30 6473 C 633.683 3.07546 -1.88275 0
M  V30 6474 O 632.787 3.94904 -1.18848 0
M  V30 6475 H 632.128 0.521967 -0.410423 0
M  V30 6476 H 634.658 1.14589 -1.69501 0
M  V30 6477 H 634.668 3.57793 -1.96082 0
M  V30 6478 H 633.343 2.95279 -2.92887 0
M  V30 6479 H 631.92 3.53339 -1.19187 0
M  V30 6480 N 634.105 1.10431 1.1244 0
M  V30 6481 C 635.353 0.845045 1.83585 0
M  V30 6482 C 635.674 -0.631168 1.84503 0
M  V30 6483 O 634.944 -1.45825 1.30813 0
M  V30 6484 H 633.524 0.309628 0.679809 0
M  V30 6485 H 636.186 1.39458 1.36153 0
M  V30 6486 H 635.282 1.20786 2.8778 0
M  V30 6487 N 635.583 -1.29855 0.893053 0
M  V30 6488 C 636.999 -1.48366 0.588199 0
M  V30 6489 C 637.199 -1.81654 -0.872018 0
M  V30 6490 O 636.255 -1.909 -1.65268 0
M  V30 6491 C 637.568 -2.60136 1.5083 0
M  V30 6492 C 639.116 -2.74014 1.51279 0
M  V30 6493 C 639.591 -3.88905 2.41902 0
M  V30 6494 N 641.082 -3.96228 2.39911 0
M  V30 6495 C 641.817 -4.84458 3.06738 0
M  V30 6496 N 641.313 -5.77426 3.8282 0
M  V30 6497 N 643.106 -4.77894 2.95929 0
M  V30 6498 H 635.257 -1.06522 1.83757 0
M  V30 6499 H 637.52 -0.528495 0.787018 0
M  V30 6500 H 637.226 -2.42383 2.54839 0
M  V30 6501 H 637.1 -3.56793 1.22388 0
M  V30 6502 H 639.487 -2.91167 0.480179 0
M  V30 6503 H 639.568 -1.77952 1.83757 0
M  V30 6504 H 639.212 -3.72508 3.45253 0
M  V30 6505 H 639.142 -4.84322 2.06737 0
M  V30 6506 H 641.633 -3.29728 1.84629 0
M  V30 6507 H 641.946 -6.41529 4.30883 0
M  V30 6508 H 640.291 -5.77332 3.86927 0
M  V30 6509 H 643.482 -4.04248 2.36012 0
M  V30 6510 H 643.655 -5.46444 3.48286 0
M  V30 6511 N 637.061 -0.65484 -1.43351 0
M  V30 6512 C 637.993 0.0744757 -2.29079 0
M  V30 6513 C 639.006 0.7855 -1.42596 0
M  V30 6514 O 640.195 0.642986 -1.66517 0
M  V30 6515 C 637.295 1.12859 -3.19556 0
M  V30 6516 C 636.468 0.495381 -4.34586 0
M  V30 6517 C 635.527 1.44659 -5.05925 0
M  V30 6518 O 634.553 0.954567 -5.61139 0
M  V30 6519 N 635.755 2.78051 -5.09576 0
M  V30 6520 H 638.52 -0.661346 -2.92312 0
M  V30 6521 H 636.081 -0.497744 -1.54059 0
M  V30 6522 H 638.073 1.76577 -3.64147 0
M  V30 6523 H 636.643 1.76636 -2.57912 0
M  V30 6524 H 635.863 -0.32092 -3.92892 0
M  V30 6525 H 637.151 0.0534203 -5.08772 0
M  V30 6526 H 636.549 3.20584 -4.66093 0
M  V30 6527 H 635.106 3.37068 -5.57878 0
M  V30 6528 N 638.539 1.52521 -0.396863 0
M  V30 6529 C 639.785 2.01971 0.183169 0
M  V30 6530 C 640.118 1.2825 1.45827 0
M  V30 6531 O 639.393 0.385179 1.90648 0
M  V30 6532 C 639.676 3.5736 0.443391 0
M  V30 6533 C 639.529 4.41743 -0.84753 0
M  V30 6534 C 640.848 4.22539 1.2308 0
M  V30 6535 H 637.967 0.734119 0.0650976 0
M  V30 6536 H 640.609 1.82519 -0.527918 0
M  V30 6537 H 638.759 3.74066 1.04914 0
M  V30 6538 H 640.431 4.36773 -1.48414 0
M  V30 6539 H 638.674 4.0845 -1.4612 0
M  V30 6540 H 639.345 5.48507 -0.620003 0
M  V30 6541 H 641.821 4.09857 0.718084 0
M  V30 6542 H 640.697 5.31227 1.38162 0
M  V30 6543 H 640.958 3.80675 2.24808 0
M  V30 6544 N 640.017 0.126909 1.57088 0
M  V30 6545 C 640.98 -0.806097 2.14557 0
M  V30 6546 C 641.98 -1.18918 1.08236 0
M  V30 6547 O 643.17 -1.11339 1.33975 0
M  V30 6548 C 640.302 -2.09116 2.69227 0
M  V30 6549 H 641.495 -0.306522 2.98329 0
M  V30 6550 H 639.048 -0.122393 1.5582 0
M  V30 6551 H 639.783 -2.63486 1.89065 0
M  V30 6552 H 639.568 -1.82588 3.46993 0
M  V30 6553 H 641.058 -2.75794 3.13572 0
M  V30 6554 N 641.495 -1.56914 -0.146875 0
M  V30 6555 C 642.741 -1.83628 -0.860741 0
M  V30 6556 C 643.074 -0.708528 -1.80813 0
M  V30 6557 O 642.349 0.287838 -1.92358 0
M  V30 6558 C 642.632 -3.20836 -1.63511 0
M  V30 6559 C 642.485 -4.44174 -0.709199 0
M  V30 6560 C 643.804 -3.55268 -2.59756 0
M  V30 6561 H 640.923 -0.667949 -0.311468 0
M  V30 6562 H 643.565 -1.89582 -0.125936 0
M  V30 6563 H 641.715 -3.15891 -2.26153 0
M  V30 6564 H 643.387 -4.61205 -0.0937781 0
M  V30 6565 H 641.63 -4.33796 -0.0187856 0
M  V30 6566 H 642.301 -5.36785 -1.28707 0
M  V30 6567 H 644.777 -3.60824 -2.07232 0
M  V30 6568 H 643.653 -4.52303 -3.10987 0
M  V30 6569 H 643.914 -2.81231 -3.41118 0
M  V30 6570 N 642.974 0.416227 -1.52004 0
M  V30 6571 C 643.921 1.50666 -1.74838 0
M  V30 6572 C 644.891 1.55245 -0.590599 0
M  V30 6573 O 646.076 1.71928 -0.827374 0
M  V30 6574 C 643.216 2.88185 -1.89851 0
M  V30 6575 C 642.329 2.92971 -3.17478 0
M  V30 6576 C 641.464 4.21745 -3.22962 0
M  V30 6577 C 640.503 4.20478 -4.4482 0
M  V30 6578 N 639.64 5.40811 -4.47736 0
M  V30 6579 H 644.48 1.30498 -2.67907 0
M  V30 6580 H 642.017 0.633568 -1.32757 0
M  V30 6581 H 643.975 3.68007 -1.96537 0
M  V30 6582 H 642.605 3.06865 -1.00169 0
M  V30 6583 H 641.657 2.05684 -3.19997 0
M  V30 6584 H 642.969 2.87899 -4.07328 0
M  V30 6585 H 642.123 5.09954 -3.28682 0
M  V30 6586 H 640.862 4.29503 -2.31038 0
M  V30 6587 H 639.867 3.30659 -4.39254 0
M  V30 6588 H 641.092 4.14366 -5.38031 0
M  V30 6589 H 639.038 5.4925 -3.58692 0
M  V30 6590 H 638.955 5.37705 -5.31422 0
M  V30 6591 H 640.223 6.30993 -4.57676 0
M  V30 6592 N 644.452 1.42507 0.673017 0
M  V30 6593 C 645.385 1.40557 1.79774 0
M  V30 6594 C 646.363 0.269606 1.60349 0
M  V30 6595 O 647.547 0.460105 1.82798 0
M  V30 6596 C 644.674 1.19815 3.168 0
M  V30 6597 C 643.72 2.36429 3.5497 0
M  V30 6598 S 644.553 3.98963 3.57196 0
M  V30 6599 C 645.709 3.80567 4.9691 0
M  V30 6600 H 645.942 2.35734 1.81154 0
M  V30 6601 H 643.475 1.293 0.843846 0
M  V30 6602 H 645.433 1.08535 3.95892 0
M  V30 6603 H 644.094 0.262215 3.13004 0
M  V30 6604 H 643.287 2.17669 4.54573 0
M  V30 6605 H 642.889 2.44233 2.83242 0
M  V30 6606 H 645.181 3.41668 5.85038 0
M  V30 6607 H 646.124 4.79852 5.20718 0
M  V30 6608 H 646.532 3.13399 4.69512 0
M  V30 6609 N 645.93 -0.909495 1.28709 0
M  V30 6610 C 646.863 -2.01388 1.07323 0
M  V30 6611 C 647.841 -1.62596 -0.0119757 0
M  V30 6612 O 649.025 -1.88003 0.136796 0
M  V30 6613 C 646.152 -3.32755 0.631797 0
M  V30 6614 C 645.198 -3.90532 1.71428 0
M  V30 6615 S 646.031 -4.20853 3.31124 0
M  V30 6616 C 647.187 -5.55276 2.88825 0
M  V30 6617 H 647.42 -2.19219 2.00824 0
M  V30 6618 H 644.953 -1.05489 1.12745 0
M  V30 6619 H 646.911 -4.08702 0.38381 0
M  V30 6620 H 645.572 -3.12818 -0.283451 0
M  V30 6621 H 644.765 -4.85385 1.35712 0
M  V30 6622 H 644.367 -3.21237 1.91528 0
M  V30 6623 H 646.659 -6.35341 2.3526 0
M  V30 6624 H 647.602 -5.95907 3.82492 0
M  V30 6625 H 648.01 -5.16666 2.27412 0
M  V30 6626 N 647.408 -1.11026 -1.11852 0
M  V30 6627 C 648.685 -0.768347 -1.79877 0
M  V30 6628 C 649.065 0.744261 -1.97545 0
M  V30 6629 O 648.413 1.67271 -1.55669 0
M  V30 6630 C 648.623 -1.52648 -3.13846 0
M  V30 6631 C 649.971 -1.70297 -3.88953 0
M  V30 6632 O 650.995 -1.49037 -3.23522 0
M  V30 6633 O 649.854 -2.05593 -5.06353 0
M  V30 6634 H 646.948 -0.277891 -0.778913 0
M  V30 6635 H 649.494 -1.21343 -1.18633 0
M  V30 6636 H 648.266 -2.55564 -2.96315 0
M  V30 6637 H 647.889 -1.07466 -3.82801 0
M  V30 6638 N 648.886 1.2938 -0.899927 0
M  V30 6639 C 649.816 2.30144 -0.39446 0
M  V30 6640 C 650.797 1.61611 0.530639 0
M  V30 6641 O 651.982 1.89119 0.441319 0
M  V30 6642 C 649.112 3.45229 0.37868 0
M  V30 6643 C 648.066 4.25564 -0.456012 0
M  V30 6644 C 647.392 5.32848 0.444637 0
M  V30 6645 C 648.692 4.93651 -1.70605 0
M  V30 6646 H 650.386 2.72673 -1.23653 0
M  V30 6647 H 647.932 1.31086 -0.596034 0
M  V30 6648 H 649.885 4.14797 0.743037 0
M  V30 6649 H 648.609 3.01545 1.25453 0
M  V30 6650 H 647.268 3.57704 -0.802704 0
M  V30 6651 H 646.916 4.85408 1.31863 0
M  V30 6652 H 646.616 5.87497 -0.110154 0
M  V30 6653 H 648.14 6.05268 0.805182 0
M  V30 6654 H 649.554 5.55655 -1.41141 0
M  V30 6655 H 647.951 5.58233 -2.20217 0
M  V30 6656 H 649.021 4.18926 -2.4419 0
M  V30 6657 N 650.364 0.662433 1.43002 0
M  V30 6658 C 651.78 0.330835 1.56133 0
M  V30 6659 C 651.98 -1.16454 1.64441 0
M  V30 6660 O 651.036 -1.94964 1.60453 0
M  V30 6661 C 652.349 1.05029 2.81761 0
M  V30 6662 C 653.897 1.03142 2.95518 0
M  V30 6663 C 654.372 1.73196 4.2399 0
M  V30 6664 N 655.863 1.70004 4.30875 0
M  V30 6665 C 656.598 2.21074 5.29069 0
M  V30 6666 N 656.094 2.80473 6.33488 0
M  V30 6667 N 657.887 2.1152 5.20784 0
M  V30 6668 H 650.038 1.63272 1.35853 0
M  V30 6669 H 652.301 0.687149 0.653092 0
M  V30 6670 H 652.007 2.10542 2.81718 0
M  V30 6671 H 651.881 0.607664 3.72273 0
M  V30 6672 H 654.268 -0.0153339 2.95096 0
M  V30 6673 H 654.349 1.51282 2.0627 0
M  V30 6674 H 653.993 2.77833 4.25172 0
M  V30 6675 H 653.923 1.22515 5.1215 0
M  V30 6676 H 656.414 1.26667 3.56039 0
M  V30 6677 H 656.727 3.17094 7.04749 0
M  V30 6678 H 655.072 2.84538 6.34085 0
M  V30 6679 H 658.263 1.64814 4.38126 0
M  V30 6680 H 658.436 2.51629 5.97149 0
M  V30 6681 N 651.842 -1.52309 0.404946 0
M  V30 6682 C 652.789 -2.26898 -0.422597 0
M  V30 6683 C 653.759 -1.2914 -1.04461 0
M  V30 6684 O 654.944 -1.57996 -1.06967 0
M  V30 6685 C 652.084 -3.09053 -1.53559 0
M  V30 6686 C 651.197 -4.21762 -0.934908 0
M  V30 6687 C 650.332 -4.91283 -2.02025 0
M  V30 6688 C 649.371 -5.95962 -1.39628 0
M  V30 6689 N 648.508 -6.59017 -2.42159 0
M  V30 6690 H 653.348 -2.97188 0.219903 0
M  V30 6691 H 650.885 -1.46607 0.120282 0
M  V30 6692 H 652.843 -3.54987 -2.19181 0
M  V30 6693 H 651.473 -2.40942 -2.14818 0
M  V30 6694 H 650.525 -3.80029 -0.167854 0
M  V30 6695 H 651.837 -4.96864 -0.439073 0
M  V30 6696 H 650.991 -5.40601 -2.75383 0
M  V30 6697 H 649.73 -4.15741 -2.54973 0
M  V30 6698 H 648.735 -5.45968 -0.648023 0
M  V30 6699 H 649.96 -6.73445 -0.874553 0
M  V30 6700 H 647.906 -5.86306 -2.94247 0
M  V30 6701 H 647.823 -7.2978 -1.97376 0
M  V30 6702 H 649.091 -7.12974 -3.15099 0
M  V30 6703 N 653.32 -0.135238 -1.57019 0
M  V30 6704 C 654.252 0.839675 -2.13265 0
M  V30 6705 C 655.265 1.21887 -1.07923 0
M  V30 6706 O 656.454 1.16499 -1.35241 0
M  V30 6707 C 653.554 2.13647 -2.63075 0
M  V30 6708 C 652.727 1.92646 -3.92691 0
M  V30 6709 C 651.786 3.06205 -4.27931 0
M  V30 6710 O 650.812 2.78409 -4.96465 0
M  V30 6711 N 652.014 4.33072 -3.86561 0
M  V30 6712 H 654.779 0.359026 -2.97542 0
M  V30 6713 H 652.34 0.0486979 -1.61827 0
M  V30 6714 H 654.332 2.88641 -2.8367 0
M  V30 6715 H 652.902 2.5301 -1.83588 0
M  V30 6716 H 652.122 1.01754 -3.80841 0
M  V30 6717 H 653.41 1.75939 -4.77413 0
M  V30 6718 H 652.808 4.58526 -3.31316 0
M  V30 6719 H 651.365 5.04885 -4.12231 0
M  V30 6720 N 654.798 1.5699 0.138552 0
M  V30 6721 C 655.73 1.95515 1.1961 0
M  V30 6722 C 656.743 0.852002 1.38726 0
M  V30 6723 O 657.932 1.13038 1.38147 0
M  V30 6724 C 655.032 2.2213 2.55952 0
M  V30 6725 C 654.205 3.53424 2.57702 0
M  V30 6726 C 653.264 3.6848 3.75645 0
M  V30 6727 O 652.29 4.4079 3.60129 0
M  V30 6728 N 653.492 3.05777 4.93438 0
M  V30 6729 H 656.257 2.86838 0.868557 0
M  V30 6730 H 653.818 1.58542 0.328033 0
M  V30 6731 H 655.81 2.29435 3.33379 0
M  V30 6732 H 654.38 1.3703 2.80965 0
M  V30 6733 H 653.6 3.57484 1.6613 0
M  V30 6734 H 654.888 4.39759 2.55909 0
M  V30 6735 H 654.286 2.46961 5.08947 0
M  V30 6736 H 652.843 3.18631 5.6861 0
M  V30 6737 N 656.276 -0.40816 1.52223 0
M  V30 6738 C 657.692 -0.74685 1.41047 0
M  V30 6739 C 657.892 -1.94788 0.51573 0
M  V30 6740 O 656.948 -2.52494 -0.0181156 0
M  V30 6741 C 658.261 -0.999878 2.83589 0
M  V30 6742 C 659.809 -1.10253 2.92939 0
M  V30 6743 C 660.284 -1.38832 4.36451 0
M  V30 6744 N 661.775 -1.45694 4.3969 0
M  V30 6745 C 662.51 -1.69435 5.47795 0
M  V30 6746 N 662.006 -1.90774 6.66016 0
M  V30 6747 N 663.799 -1.71458 5.35312 0
M  V30 6748 H 655.95 0.382409 2.08929 0
M  V30 6749 H 658.213 0.108807 0.941735 0
M  V30 6750 H 657.919 -0.189723 3.51188 0
M  V30 6751 H 657.793 -1.91978 3.24691 0
M  V30 6752 H 660.18 -1.90328 2.2552 0
M  V30 6753 H 660.261 -0.160973 2.55293 0
M  V30 6754 H 659.905 -0.592741 5.04429 0
M  V30 6755 H 659.835 -2.34241 4.71634 0
M  V30 6756 H 662.326 -1.3099 3.54472 0
M  V30 6757 H 662.639 -2.08342 7.44186 0
M  V30 6758 H 660.984 -1.88037 6.69079 0
M  V30 6759 H 664.175 -1.54326 4.41929 0
M  V30 6760 H 664.348 -1.89621 6.19635 0
M  V30 6761 N 657.755 -1.42862 -0.66545 0
M  V30 6762 C 659.171 -1.25993 -0.979687 0
M  V30 6763 C 659.371 -0.170831 -2.00775 0
M  V30 6764 O 658.427 0.454827 -2.4837 0
M  V30 6765 C 659.74 -2.62005 -1.47559 0
M  V30 6766 C 661.288 -2.69437 -1.59288 0
M  V30 6767 C 661.763 -4.05838 -2.12272 0
M  V30 6768 N 663.254 -4.0784 -2.19592 0
M  V30 6769 C 663.989 -5.10205 -2.61684 0
M  V30 6770 N 663.485 -6.22949 -3.03161 0
M  V30 6771 N 665.278 -4.9756 -2.61516 0
M  V30 6772 H 657.429 -2.12395 0.0150493 0
M  V30 6773 H 659.692 -0.946355 -0.0558187 0
M  V30 6774 H 659.398 -3.42605 -0.794654 0
M  V30 6775 H 659.272 -2.86566 -2.45275 0
M  V30 6776 H 661.659 -1.89178 -2.26486 0
M  V30 6777 H 661.74 -2.48655 -0.600374 0
M  V30 6778 H 661.384 -4.86559 -1.4568 0
M  V30 6779 H 661.314 -4.23977 -3.12331 0
M  V30 6780 H 663.805 -3.26452 -1.90361 0
M  V30 6781 H 664.118 -6.96899 -3.33993 0
M  V30 6782 H 662.463 -6.2644 -3.00995 0
M  V30 6783 H 665.654 -4.08551 -2.28481 0
M  V30 6784 H 665.827 -5.77468 -2.93999 0
M  V30 6785 N 659.233 0.902656 -1.29189 0
M  V30 6786 C 660.143 2.03946 -1.15944 0
M  V30 6787 C 661.159 1.738 -0.0833803 0
M  V30 6788 O 662.335 1.9923 -0.29487 0
M  V30 6789 C 659.4 3.36519 -0.834006 0
M  V30 6790 C 658.461 3.80203 -1.9936 0
M  V30 6791 C 657.694 5.06449 -1.68359 0
M  V30 6792 O 657.917 5.67202 -0.603141 0
M  V30 6793 O 656.851 5.46114 -2.53067 0
M  V30 6794 H 660.677 2.18043 -2.11403 0
M  V30 6795 H 658.262 1.02584 -1.08613 0
M  V30 6796 H 660.144 4.16089 -0.666949 0
M  V30 6797 H 658.819 3.23573 0.0908245 0
M  V30 6798 H 657.726 3.01413 -2.21588 0
M  V30 6799 H 659.059 3.97729 -2.89952 0
M  V30 6800 N 660.711 1.11618 1.11262 0
M  V30 6801 C 661.641 0.79846 2.19424 0
M  V30 6802 C 662.622 -0.234003 1.68483 0
M  V30 6803 O 663.807 -0.0970704 1.93957 0
M  V30 6804 C 660.937 0.242892 3.4645 0
M  V30 6805 C 659.891 1.20744 4.10615 0
M  V30 6806 C 659.217 0.512494 5.32238 0
M  V30 6807 C 660.517 2.55884 4.55325 0
M  V30 6808 H 662.211 1.70286 2.46258 0
M  V30 6809 H 659.757 0.820195 1.18359 0
M  V30 6810 H 661.71 0.00840447 4.21399 0
M  V30 6811 H 660.434 -0.696811 3.1908 0
M  V30 6812 H 659.093 1.42759 3.37662 0
M  V30 6813 H 658.741 -0.432075 5.01141 0
M  V30 6814 H 658.441 1.15583 5.7612 0
M  V30 6815 H 659.965 0.286842 6.09926 0
M  V30 6816 H 661.379 2.37946 5.21588 0
M  V30 6817 H 659.776 3.16216 5.10027 0
M  V30 6818 H 660.846 3.14968 3.68678 0
M  V30 6819 N 662.189 -1.289 0.906776 0
M  V30 6820 C 663.119 -2.29932 0.406659 0
M  V30 6821 C 664.1 -1.6189 -0.522061 0
M  V30 6822 O 665.285 -1.8935 -0.431283 0
M  V30 6823 C 662.415 -3.45425 -0.360366 0
M  V30 6824 C 661.369 -4.25316 0.478574 0
M  V30 6825 C 660.695 -5.33076 -0.416373 0
M  V30 6826 C 661.995 -4.92739 1.7322 0
M  V30 6827 H 663.689 -2.72013 1.25097 0
M  V30 6828 H 661.235 -1.30768 0.602977 0
M  V30 6829 H 663.188 -4.15186 -0.721029 0
M  V30 6830 H 661.912 -3.02206 -1.23852 0
M  V30 6831 H 660.571 -3.57273 0.821662 0
M  V30 6832 H 660.219 -4.86101 -1.29287 0
M  V30 6833 H 659.919 -5.8743 0.141309 0
M  V30 6834 H 661.443 -6.05686 -0.773072 0
M  V30 6835 H 662.857 -5.54898 1.44086 0
M  V30 6836 H 661.254 -5.57057 2.23175 0
M  V30 6837 H 662.324 -4.17625 2.46408 0
M  V30 6838 N 663.667 -0.670007 -1.42649 0
M  V30 6839 C 664.914 -0.190286 -2.01604 0
M  V30 6840 C 665.242 1.20155 -1.52948 0
M  V30 6841 O 664.497 1.81964 -0.72026 0
M  V30 6842 C 664.796 -0.168298 -3.57004 0
M  V30 6843 C 664.462 -1.50415 -4.25072 0
M  V30 6844 C 663.124 -1.86992 -4.43382 0
M  V30 6845 C 665.476 -2.38414 -4.63474 0
M  V30 6846 C 662.804 -3.11203 -4.97363 0
M  V30 6847 C 665.156 -3.61933 -5.18833 0
M  V30 6848 C 663.82 -3.98685 -5.35356 0
M  V30 6849 H 663.09 -0.0696305 -0.737721 0
M  V30 6850 H 665.737 -0.864044 -1.70899 0
M  V30 6851 H 664.042 0.588958 -3.87348 0
M  V30 6852 H 665.739 0.22001 -4.00396 0
M  V30 6853 H 662.329 -1.20959 -4.11177 0
M  V30 6854 H 666.513 -2.11442 -4.49006 0
M  V30 6855 H 661.769 -3.39705 -5.08341 0
M  V30 6856 H 665.943 -4.30326 -5.47533 0
M  V30 6857 H 663.57 -4.95009 -5.76949 0
M  V30 6858 N 665.145 1.52092 -0.413018 0
M  V30 6859 C 666.093 2.28681 0.425199 0
M  V30 6860 C 667.087 1.3353 1.04241 0
M  V30 6861 O 668.293 1.50973 0.980166 0
M  V30 6862 H 664.668 0.735661 0.155906 0
M  V30 6863 H 666.639 2.97418 -0.241926 0
M  V30 6864 C 665.388 3.1235 1.5275 0
M  V30 6865 H 664.711 3.85439 1.06191 0
M  V30 6866 H 666.151 3.69038 2.08774 0
M  V30 6867 C 664.61 2.26161 2.49706 0
M  V30 6868 O 665.14 1.90452 3.53682 0
M  V30 6869 N 663.346 1.89854 2.20008 0
M  V30 6870 H 662.893 2.19092 1.35486 0
M  V30 6871 H 662.851 1.3248 2.85125 0
M  V30 6872 N 666.623 0.143563 1.56945 0
M  V30 6873 C 667.533 -0.810562 2.20152 0
M  V30 6874 C 668.549 -1.27431 1.1848 0
M  V30 6875 O 669.725 -1.33221 1.51044 0
M  V30 6876 C 666.79 -2.03353 2.80799 0
M  V30 6877 C 665.851 -1.61936 3.97587 0
M  V30 6878 C 665.084 -2.78403 4.55332 0
M  V30 6879 O 665.307 -3.94521 4.11958 0
M  V30 6880 O 664.241 -2.54073 5.45647 0
M  V30 6881 H 668.067 -0.30253 3.02189 0
M  V30 6882 H 665.652 -0.0832925 1.49168 0
M  V30 6883 H 667.534 -2.74932 3.19359 0
M  V30 6884 H 666.209 -2.53116 2.01777 0
M  V30 6885 H 665.116 -0.873904 3.6375 0
M  V30 6886 H 666.449 -1.16892 4.78118 0
M  V30 6887 N 668.101 -1.57061 -0.130224 0
M  V30 6888 C 669.347 -1.8453 -0.841216 0
M  V30 6889 C 669.68 -0.727666 -1.80052 0
M  V30 6890 O 668.955 0.267419 -1.92653 0
M  V30 6891 C 669.238 -3.22553 -1.60099 0
M  V30 6892 C 669.091 -4.44901 -0.662048 0
M  V30 6893 C 670.41 -3.58003 -2.55973 0
M  V30 6894 H 667.529 -0.671215 -0.304366 0
M  V30 6895 H 670.171 -1.89705 -0.105821 0
M  V30 6896 H 668.321 -3.18272 -2.22789 0
M  V30 6897 H 669.993 -4.61278 -0.0448559 0
M  V30 6898 H 668.236 -4.33791 0.0272253 0
M  V30 6899 H 668.907 -5.3812 -1.23006 0
M  V30 6900 H 671.383 -3.63002 -2.03393 0
M  V30 6901 H 670.259 -4.55576 -3.06172 0
M  V30 6902 H 670.52 -2.84833 -3.38116 0
M  V30 6903 N 669.579 0.400081 -1.52437 0
M  V30 6904 C 670.825 1.14788 -1.67187 0
M  V30 6905 C 671.158 1.89928 -0.405074 0
M  V30 6906 O 670.433 1.85118 0.596804 0
M  V30 6907 C 670.716 2.13507 -2.89977 0
M  V30 6908 C 670.569 1.42204 -4.2673 0
M  V30 6909 C 671.888 3.14069 -3.083 0
M  V30 6910 H 669.007 0.415939 -0.608411 0
M  V30 6911 H 671.649 0.432542 -1.85011 0
M  V30 6912 H 669.799 2.7451 -2.74912 0
M  V30 6913 H 671.471 0.842503 -4.53541 0
M  V30 6914 H 669.714 0.723939 -4.27717 0
M  V30 6915 H 670.385 2.14281 -5.08712 0
M  V30 6916 H 672.861 2.63148 -3.22323 0
M  V30 6917 H 671.737 3.80398 -3.95713 0
M  V30 6918 H 671.998 3.82309 -2.22018 0
M  V30 6919 N 671.057 1.43213 0.657864 0
M  V30 6920 C 672.306 1.43871 1.41365 0
M  V30 6921 C 672.619 0.064898 1.95492 0
M  V30 6922 O 673.825 -0.0510796 2.71452 0
M  V30 6923 C 672.281 2.53158 2.55811 0
M  V30 6924 C 671.889 3.96624 2.08311 0
M  V30 6925 C 673.633 2.63004 3.3321 0
M  V30 6926 C 671.54 4.97385 3.1994 0
M  V30 6927 H 670.47 0.535174 0.531136 0
M  V30 6928 H 673.121 1.69185 0.710543 0
M  V30 6929 H 671.503 2.21037 3.2857 0
M  V30 6930 H 672.677 4.38182 1.42593 0
M  V30 6931 H 670.992 3.90781 1.43804 0
M  V30 6932 H 673.589 3.3546 4.16378 0
M  V30 6933 H 673.932 1.67918 3.80932 0
M  V30 6934 H 674.465 2.94403 2.67529 0
M  V30 6935 H 671.204 5.94007 2.77192 0
M  V30 6936 H 670.724 4.60444 3.84385 0
M  V30 6937 H 672.403 5.19877 3.85145 0
M  V30 6938 N 672.536 -0.895792 1.29666 0
M  V30 6939 C 673.469 -2.00238 1.09453 0
M  V30 6940 C 674.447 -1.62599 0.00527044 0
M  V30 6941 O 675.631 -1.87847 0.156729 0
M  V30 6942 C 672.758 -3.32066 0.667054 0
M  V30 6943 C 671.804 -3.88691 1.7556 0
M  V30 6944 S 672.637 -4.17317 3.35569 0
M  V30 6945 C 673.793 -5.52181 2.94698 0
M  V30 6946 H 674.026 -2.17076 2.03138 0
M  V30 6947 H 671.559 -1.04287 1.13858 0
M  V30 6948 H 673.517 -4.08272 0.427136 0
M  V30 6949 H 672.178 -3.13101 -0.250256 0
M  V30 6950 H 671.371 -4.83918 1.40853 0
M  V30 6951 H 670.973 -3.19187 1.94924 0
M  V30 6952 H 673.265 -6.3281 2.41986 0
M  V30 6953 H 674.208 -5.91817 3.88791 0
M  V30 6954 H 674.616 -5.14225 2.32879 0
M  V30 6955 N 674.014 -1.12206 -1.10668 0
M  V30 6956 C 675.43 -0.857619 -1.346 0
M  V30 6957 C 675.63 0.513542 -1.94846 0
M  V30 6958 O 674.686 1.26273 -2.18658 0
M  V30 6959 C 675.999 -1.97212 -2.26998 0
M  V30 6960 C 677.547 -2.00272 -2.40542 0
M  V30 6961 C 678.022 -3.10948 -3.36267 0
M  V30 6962 N 679.513 -3.10375 -3.43834 0
M  V30 6963 C 680.248 -3.92651 -4.17867 0
M  V30 6964 N 679.744 -4.84911 -4.94807 0
M  V30 6965 N 681.537 -3.80798 -4.1346 0
M  V30 6966 H 673.688 -2.00558 -0.699306 0
M  V30 6967 H 675.951 -0.872612 -0.370477 0
M  V30 6968 H 675.657 -2.96002 -1.89936 0
M  V30 6969 H 675.531 -1.87521 -3.27286 0
M  V30 6970 H 677.918 -1.02103 -2.76874 0
M  V30 6971 H 677.999 -2.14037 -1.40077 0
M  V30 6972 H 677.643 -4.09348 -3.00661 0
M  V30 6973 H 677.573 -2.94421 -4.36605 0
M  V30 6974 H 680.064 -2.43536 -2.88961 0
M  V30 6975 H 680.377 -5.44207 -5.48688 0
M  V30 6976 H 678.722 -4.88926 -4.93939 0
M  V30 6977 H 681.913 -3.08058 -3.52445 0
M  V30 6978 H 682.086 -4.4515 -4.70898 0
M  V30 6979 N 675.492 1.28418 -0.913599 0
M  V30 6980 C 676.769 1.89977 -0.465619 0
M  V30 6981 C 677.149 1.82813 1.05559 0
M  V30 6982 O 676.497 1.26397 1.90358 0
M  V30 6983 C 676.707 3.34492 -0.995813 0
M  V30 6984 C 678.055 4.11468 -1.04782 0
M  V30 6985 O 679.079 3.43451 -0.944445 0
M  V30 6986 O 677.938 5.33046 -1.20518 0
M  V30 6987 H 675.032 0.813734 -0.147532 0
M  V30 6988 H 677.578 1.36786 -1.00437 0
M  V30 6989 H 676.35 3.33929 -2.03978 0
M  V30 6990 H 675.973 3.95181 -0.437878 0
M  V30 6991 N 676.97 0.677563 1.42291 0
M  V30 6992 C 678.2 0.209155 2.05539 0
M  V30 6993 C 678.608 -1.13987 1.51009 0
M  V30 6994 O 677.951 -1.71976 0.645764 0
M  V30 6995 C 678.013 0.0697758 3.59432 0
M  V30 6996 C 677.677 1.34795 4.36668 0
M  V30 6997 C 678.674 2.28201 4.67141 0
M  V30 6998 C 676.359 1.59632 4.76259 0
M  V30 6999 C 678.353 3.44718 5.36142 0
M  V30 7000 C 676.04 2.76437 5.45 0
M  V30 7001 C 677.038 3.68805 5.74867 0
M  V30 7002 O 676.726 4.83567 6.42198 0
M  V30 7003 H 676.458 0.0986202 0.668768 0
M  V30 7004 H 679.012 0.925483 1.83368 0
M  V30 7005 H 677.242 -0.702157 3.80272 0
M  V30 7006 H 678.931 -0.359115 4.04308 0
M  V30 7007 H 679.697 2.10264 4.37052 0
M  V30 7008 H 675.576 0.886073 4.52404 0
M  V30 7009 H 679.12 4.16833 5.59371 0
M  V30 7010 H 675.017 2.94299 5.74507 0
M  V30 7011 H 675.785 4.83147 6.6069 0
M  V30 7012 N 678.448 -1.51871 0.421078 0
M  V30 7013 C 679.38 -2.25052 -0.434065 0
M  V30 7014 C 680.393 -1.28458 -1.00013 0
M  V30 7015 O 681.582 -1.54323 -0.897033 0
M  V30 7016 C 678.682 -2.97813 -1.61743 0
M  V30 7017 C 677.855 -4.21374 -1.17315 0
M  V30 7018 C 676.914 -4.76854 -2.22478 0
M  V30 7019 O 675.94 -5.39123 -1.82577 0
M  V30 7020 N 677.142 -4.59467 -3.54782 0
M  V30 7021 H 679.907 -2.99077 0.193073 0
M  V30 7022 H 677.468 -1.59972 0.249088 0
M  V30 7023 H 679.46 -3.3182 -2.31685 0
M  V30 7024 H 678.03 -2.26899 -2.15024 0
M  V30 7025 H 677.25 -3.93046 -0.3014 0
M  V30 7026 H 678.538 -5.01591 -0.853444 0
M  V30 7027 H 677.936 -4.09832 -3.89941 0
M  V30 7028 H 676.493 -4.9788 -4.20665 0
M  V30 7029 N 679.926 -0.151884 -1.56866 0
M  V30 7030 C 680.876 0.797799 -2.13586 0
M  V30 7031 C 681.86 1.20613 -1.06496 0
M  V30 7032 O 683.052 1.17173 -1.32663 0
M  V30 7033 C 680.181 2.03493 -2.76488 0
M  V30 7034 C 679.267 1.64948 -3.90708 0
M  V30 7035 N 679.658 0.972513 -4.96363 0
M  V30 7036 C 677.956 1.94186 -4.01507 0
M  V30 7037 C 678.657 0.785661 -5.7637 0
M  V30 7038 N 677.633 1.32105 -5.27304 0
M  V30 7039 H 681.435 0.271403 -2.92644 0
M  V30 7040 H 678.949 0.049487 -1.62325 0
M  V30 7041 H 680.946 2.72532 -3.15487 0
M  V30 7042 H 679.606 2.56646 -1.98904 0
M  V30 7043 H 680.617 0.632724 -5.1402 0
M  V30 7044 H 677.294 2.49154 -3.35005 0
M  V30 7045 H 678.684 0.251749 -6.71428 0
M  V30 7046 N 681.404 1.57128 0.121893 0
M  V30 7047 C 682.651 1.847 0.830188 0
M  V30 7048 C 682.979 0.736543 1.80015 0
M  V30 7049 O 682.234 -0.272358 1.93796 0
M  V30 7050 C 682.533 3.1874 1.61677 0
M  V30 7051 C 682.199 4.43901 0.791361 0
M  V30 7052 C 680.861 4.77887 0.563731 0
M  V30 7053 C 683.213 5.20753 0.215823 0
M  V30 7054 C 680.541 5.86168 -0.249737 0
M  V30 7055 C 682.893 6.29891 -0.584821 0
M  V30 7056 C 681.557 6.6241 -0.822794 0
M  V30 7057 H 680.827 0.675866 0.303787 0
M  V30 7058 H 683.474 1.91276 0.0926894 0
M  V30 7059 H 681.779 3.07728 2.42509 0
M  V30 7060 H 683.476 3.37295 2.16872 0
M  V30 7061 H 680.066 4.17272 0.978867 0
M  V30 7062 H 684.25 4.94851 0.378907 0
M  V30 7063 H 679.506 6.0979 -0.44336 0
M  V30 7064 H 683.68 6.88624 -1.03779 0
M  V30 7065 H 681.307 7.46147 -1.45496 0
M  V30 7066 N 682.882 -0.391992 1.52647 0
M  V30 7067 C 683.83 -1.4991 1.77848 0
M  V30 7068 C 684.824 -1.56587 0.646282 0
M  V30 7069 O 686.03 -1.59789 0.828698 0
M  V30 7070 H 682.405 -0.498883 0.56269 0
M  V30 7071 H 684.376 -1.25847 2.70564 0
M  V30 7072 C 683.125 -2.87081 1.96163 0
M  V30 7073 H 682.448 -2.82692 2.82711 0
M  V30 7074 H 683.888 -3.63792 2.17787 0
M  V30 7075 C 682.347 -3.28822 0.733348 0
M  V30 7076 O 682.877 -4.01598 -0.0906481 0
M  V30 7077 N 681.083 -2.85068 0.564317 0
M  V30 7078 H 680.63 -2.26012 1.23598 0
M  V30 7079 H 680.588 -3.13355 -0.256166 0
M  V30 7080 N 684.36 -1.4356 -0.65026 0
M  V30 7081 C 685.606 -1.45549 -1.41221 0
M  V30 7082 C 685.939 -0.0805472 -1.94033 0
M  V30 7083 O 685.214 0.899043 -1.72475 0
M  V30 7084 C 685.497 -2.50028 -2.59148 0
M  V30 7085 C 685.35 -3.96808 -2.1181 0
M  V30 7086 C 686.669 -2.51212 -3.61359 0
M  V30 7087 H 683.788 -0.529967 -0.512156 0
M  V30 7088 H 686.43 -1.75127 -0.736933 0
M  V30 7089 H 684.58 -2.24937 -3.16758 0
M  V30 7090 H 686.252 -4.32966 -1.59178 0
M  V30 7091 H 684.495 -4.09498 -1.43156 0
M  V30 7092 H 685.166 -4.6553 -2.96625 0
M  V30 7093 H 687.642 -2.73583 -3.13515 0
M  V30 7094 H 686.518 -3.26252 -4.41419 0
M  V30 7095 H 686.779 -1.54701 -4.1415 0
M  V30 7096 N 685.838 0.888903 -1.30139 0
M  V30 7097 C 687.084 1.6428 -1.18912 0
M  V30 7098 C 687.417 1.92499 0.256477 0
M  V30 7099 O 686.692 1.54312 1.18397 0
M  V30 7100 C 686.975 2.9851 -2.01405 0
M  V30 7101 C 686.828 2.77288 -3.54163 0
M  V30 7102 C 688.147 3.99383 -1.84882 0
M  V30 7103 H 685.266 0.596148 -0.433333 0
M  V30 7104 H 687.908 1.0289 -1.5973 0
M  V30 7105 H 686.058 3.50907 -1.66722 0
M  V30 7106 H 687.73 2.31709 -3.98884 0
M  V30 7107 H 685.973 2.11867 -3.78543 0
M  V30 7108 H 686.644 3.72717 -4.07168 0
M  V30 7109 H 689.12 3.56132 -2.15196 0
M  V30 7110 H 687.996 4.91222 -2.44934 0
M  V30 7111 H 688.257 4.34674 -0.806902 0
M  V30 7112 N 687.317 1.12792 1.10072 0
M  V30 7113 C 688.227 0.812369 2.20086 0
M  V30 7114 C 689.243 -0.200349 1.72843 0
M  V30 7115 O 690.419 -0.0330262 2.01373 0
M  V30 7116 C 687.484 0.275685 3.45602 0
M  V30 7117 C 686.545 1.34881 4.07561 0
M  V30 7118 C 685.778 0.837639 5.27086 0
M  V30 7119 O 686.001 -0.327224 5.69461 0
M  V30 7120 O 684.935 1.60894 5.79997 0
M  V30 7121 H 688.761 1.73133 2.49517 0
M  V30 7122 H 686.346 0.904863 1.18881 0
M  V30 7123 H 688.228 -0.0185375 4.21396 0
M  V30 7124 H 686.903 -0.615783 3.17789 0
M  V30 7125 H 685.81 1.69625 3.33434 0
M  V30 7126 H 687.143 2.21418 4.39585 0
M  V30 7127 N 688.795 -1.27931 0.920396 0
M  V30 7128 C 689.728 -2.2537 0.358285 0
M  V30 7129 C 690.706 -1.53328 -0.541242 0
M  V30 7130 O 691.89 -1.82196 -0.483399 0
M  V30 7131 C 689.017 -3.35178 -0.487193 0
M  V30 7132 C 688.063 -4.25079 0.347881 0
M  V30 7133 S 688.896 -5.05792 1.75883 0
M  V30 7134 C 690.052 -6.19089 0.920832 0
M  V30 7135 H 690.285 -2.72701 1.18413 0
M  V30 7136 H 687.818 -1.36474 0.722088 0
M  V30 7137 H 689.776 -3.98895 -0.96916 0
M  V30 7138 H 688.437 -2.865 -1.28749 0
M  V30 7139 H 687.63 -5.03113 -0.298912 0
M  V30 7140 H 687.232 -3.66119 0.763748 0
M  V30 7141 H 689.524 -6.77326 0.15349 0
M  V30 7142 H 690.467 -6.8803 1.67394 0
M  V30 7143 H 690.875 -5.62573 0.466069 0
M  V30 7144 N 690.273 -0.685099 -1.4193 0
M  V30 7145 C 691.503 -0.220052 -2.05425 0
M  V30 7146 C 691.911 1.13185 -1.51611 0
M  V30 7147 O 691.254 1.71631 -0.654875 0
M  V30 7148 C 691.316 -0.0888364 -3.5939 0
M  V30 7149 C 690.98 -1.37109 -4.35947 0
M  V30 7150 C 691.977 -2.30675 -4.65924 0
M  V30 7151 C 689.662 -1.62155 -4.75406 0
M  V30 7152 C 691.656 -3.47556 -5.34306 0
M  V30 7153 C 689.343 -2.79324 -5.43527 0
M  V30 7154 C 690.341 -3.71848 -5.72903 0
M  V30 7155 O 690.029 -4.86966 -6.39624 0
M  V30 7156 H 689.761 -0.102165 -0.668235 0
M  V30 7157 H 692.315 -0.935194 -1.82875 0
M  V30 7158 H 690.545 0.681981 -3.80639 0
M  V30 7159 H 692.234 0.337669 -4.04493 0
M  V30 7160 H 693 -2.12579 -4.3593 0
M  V30 7161 H 688.879 -0.910053 -4.51928 0
M  V30 7162 H 692.423 -4.19794 -5.57153 0
M  V30 7163 H 688.32 -2.97342 -5.72938 0
M  V30 7164 H 689.088 -4.86644 -6.58118 0
M  V30 7165 N 691.751 1.51645 -0.429126 0
M  V30 7166 C 692.698 2.27542 0.386446 0
M  V30 7167 C 693.668 1.30786 1.02393 0
M  V30 7168 O 694.853 1.59678 1.0444 0
M  V30 7169 C 691.993 3.11457 1.48623 0
M  V30 7170 C 691.106 4.23196 0.867691 0
M  V30 7171 C 690.241 4.94435 1.94183 0
M  V30 7172 C 689.28 5.98108 1.30129 0
M  V30 7173 N 688.417 6.62786 2.31644 0
M  V30 7174 H 693.257 2.968 -0.267155 0
M  V30 7175 H 690.794 1.46397 -0.143591 0
M  V30 7176 H 692.752 3.58429 2.13506 0
M  V30 7177 H 691.382 2.44329 2.10957 0
M  V30 7178 H 690.434 3.80248 0.107373 0
M  V30 7179 H 691.746 4.97499 0.35997 0
M  V30 7180 H 690.9 5.44914 2.66747 0
M  V30 7181 H 689.639 4.19744 2.48326 0
M  V30 7182 H 688.644 5.4693 0.561082 0
M  V30 7183 H 689.869 6.74751 0.767303 0
M  V30 7184 H 687.815 5.90913 2.84883 0
M  V30 7185 H 687.732 7.32828 1.85741 0
M  V30 7186 H 689 7.17897 3.03717 0
M  V30 7187 N 693.229 0.160201 1.56784 0
M  V30 7188 C 694.454 -0.497373 2.01348 0
M  V30 7189 C 694.879 -1.56757 1.03966 0
M  V30 7190 O 694.237 -1.81292 0.0174455 0
M  V30 7191 C 694.285 -1.0628 3.44582 0
M  V30 7192 O 693.389 -2.17723 3.50244 0
M  V30 7193 H 692.73 -0.120295 0.653012 0
M  V30 7194 H 695.26 0.260821 2.02931 0
M  V30 7195 H 695.27 -1.38819 3.83658 0
M  V30 7196 H 693.945 -0.279166 4.14962 0
M  V30 7197 H 692.522 -1.86313 3.2302 0
M  V30 7198 N 694.707 -1.5719 -0.113559 0
M  V30 7199 C 695.937 -1.89053 -0.833212 0
M  V30 7200 C 696.345 -0.750139 -1.73694 0
M  V30 7201 O 695.688 0.287808 -1.81431 0
M  V30 7202 C 695.75 -3.15986 -1.71443 0
M  V30 7203 C 695.414 -4.46271 -0.984449 0
M  V30 7204 C 696.411 -5.18897 -0.322741 0
M  V30 7205 C 694.096 -4.92963 -0.964011 0
M  V30 7206 C 696.09 -6.3644 0.349646 0
M  V30 7207 C 693.777 -6.10422 -0.287828 0
M  V30 7208 C 694.775 -6.82009 0.36784 0
M  V30 7209 O 694.463 -7.97233 1.03322 0
M  V30 7210 H 694.195 -0.630225 -0.244526 0
M  V30 7211 H 696.749 -2.05152 -0.100847 0
M  V30 7212 H 694.979 -2.95984 -2.48858 0
M  V30 7213 H 696.668 -3.33826 -2.309 0
M  V30 7214 H 697.434 -4.83875 -0.330114 0
M  V30 7215 H 693.313 -4.37143 -1.46379 0
M  V30 7216 H 696.857 -6.92254 0.861996 0
M  V30 7217 H 692.754 -6.449 -0.278237 0
M  V30 7218 H 693.522 -8.13105 0.938247 0
M  V30 7219 N 696.185 0.383891 -1.52853 0
M  V30 7220 C 697.115 1.47559 -1.80965 0
M  V30 7221 C 698.096 1.5669 -0.661986 0
M  V30 7222 O 699.281 1.71556 -0.910072 0
M  V30 7223 C 696.411 2.85114 -1.98312 0
M  V30 7224 C 695.365 2.9082 -3.14019 0
M  V30 7225 C 694.691 4.30873 -3.16627 0
M  V30 7226 C 695.991 2.60001 -4.52986 0
M  V30 7227 H 697.685 1.24283 -2.72386 0
M  V30 7228 H 695.231 0.596445 -1.31067 0
M  V30 7229 H 697.184 3.61496 -2.16561 0
M  V30 7230 H 695.908 3.09738 -1.03585 0
M  V30 7231 H 694.567 2.16886 -2.9556 0
M  V30 7232 H 694.215 4.52545 -2.19573 0
M  V30 7233 H 693.915 4.3561 -3.94357 0
M  V30 7234 H 695.439 5.09154 -3.37038 0
M  V30 7235 H 696.853 3.261 -4.71521 0
M  V30 7236 H 695.25 2.76081 -5.32822 0
M  V30 7237 H 696.32 1.5532 -4.59351 0
M  V30 7238 N 697.663 1.43903 0.642637 0
M  V30 7239 C 698.909 1.46296 1.40447 0
M  V30 7240 C 699.242 0.0908361 1.93987 0
M  V30 7241 O 698.517 -0.889884 1.72949 0
M  V30 7242 C 698.8 2.51399 2.57819 0
M  V30 7243 C 698.653 3.97926 2.09702 0
M  V30 7244 C 699.972 2.53125 3.60022 0
M  V30 7245 H 697.091 0.532676 0.509338 0
M  V30 7246 H 699.733 1.75515 0.727635 0
M  V30 7247 H 697.883 2.26614 3.1556 0
M  V30 7248 H 699.555 4.33804 1.5688 0
M  V30 7249 H 697.798 4.10252 1.40982 0
M  V30 7250 H 698.469 4.67096 2.94152 0
M  V30 7251 H 700.945 2.75242 3.12059 0
M  V30 7252 H 699.821 3.28589 4.39682 0
M  V30 7253 H 700.082 1.56895 4.13324 0
M  V30 7254 N 699.141 -0.881989 1.30609 0
M  V30 7255 C 700.389 -1.63082 1.19368 0
M  V30 7256 C 700.71 -1.93376 -0.251147 0
M  V30 7257 O 699.98 -1.5723 -1.16857 0
M  V30 7258 H 698.56 -0.604542 0.438791 0
M  V30 7259 H 701.222 -1.05658 1.63776 0
M  V30 7260 H 700.318 -2.57966 1.7567 0
M  V30 7261 N 700.619 -1.13374 -1.09472 0
M  V30 7262 C 701.529 -0.824029 -2.19652 0
M  V30 7263 C 702.545 0.19118 -1.72947 0
M  V30 7264 O 703.721 0.0223464 -2.01388 0
M  V30 7265 C 700.786 -0.294009 -3.45451 0
M  V30 7266 C 699.847 -1.3704 -4.0684 0
M  V30 7267 C 699.08 -0.86558 -5.26634 0
M  V30 7268 O 699.303 0.29702 -5.69626 0
M  V30 7269 O 698.237 -1.63968 -5.79136 0
M  V30 7270 H 702.063 -1.74454 -2.48595 0
M  V30 7271 H 699.648 -0.911155 -1.18399 0
M  V30 7272 H 701.53 -0.00381039 -4.214 0
M  V30 7273 H 700.205 0.598921 -3.18111 0
M  V30 7274 H 699.112 -1.71391 -3.3253 0
M  V30 7275 H 700.445 -2.23746 -4.38405 0
M  V30 7276 N 702.098 1.27442 -0.927168 0
M  V30 7277 C 703.008 2.30599 -0.431448 0
M  V30 7278 C 704.024 1.67028 0.48761 0
M  V30 7279 O 705.2 1.97962 0.370546 0
M  V30 7280 C 702.265 3.45327 0.308292 0
M  V30 7281 C 701.326 4.24418 -0.645615 0
M  V30 7282 C 700.559 5.33667 0.0589164 0
M  V30 7283 O 700.782 5.5589 1.27838 0
M  V30 7284 O 699.716 5.98774 -0.612638 0
M  V30 7285 H 703.542 2.75036 -1.28797 0
M  V30 7286 H 701.127 1.32382 -0.692495 0
M  V30 7287 H 703.009 4.15107 0.725555 0
M  V30 7288 H 701.684 3.02945 1.14043 0
M  V30 7289 H 700.591 3.57174 -1.11255 0
M  V30 7290 H 701.924 4.70512 -1.44496 0
M  V30 7291 N 703.576 0.692616 1.41565 0
M  V30 7292 C 704.506 0.0397325 2.33466 0
M  V30 7293 C 705.487 -0.770334 1.51657 0
M  V30 7294 O 706.672 -0.723903 1.80203 0
M  V30 7295 C 703.802 -0.899495 3.3545 0
M  V30 7296 C 702.756 -0.196738 4.27548 0
M  V30 7297 C 702.082 -1.25012 5.19881 0
M  V30 7298 C 703.382 0.935158 5.1386 0
M  V30 7299 H 705.076 0.807296 2.88311 0
M  V30 7300 H 702.622 0.389665 1.38628 0
M  V30 7301 H 704.575 -1.36545 3.98665 0
M  V30 7302 H 703.299 -1.69869 2.78948 0
M  V30 7303 H 701.958 0.249158 3.65752 0
M  V30 7304 H 701.606 -2.04177 4.59696 0
M  V30 7305 H 701.306 -0.784931 5.82334 0
M  V30 7306 H 702.83 -1.71665 5.85972 0
M  V30 7307 H 704.244 0.549619 5.70659 0
M  V30 7308 H 702.641 1.32726 5.85238 0
M  V30 7309 H 703.711 1.77613 4.512 0
M  V30 7310 N 705.054 -1.51416 0.437162 0
M  V30 7311 C 706.3 -2.03035 -0.121818 0
M  V30 7312 C 706.655 -1.31551 -1.404 0
M  V30 7313 O 705.948 -0.421623 -1.86903 0
M  V30 7314 C 706.142 -3.55203 -0.39564 0
M  V30 7315 C 705.971 -4.4143 0.858452 0
M  V30 7316 C 704.741 -4.85751 1.39192 0
M  V30 7317 C 706.939 -4.83808 1.74454 0
M  V30 7318 N 704.921 -5.5619 2.59857 0
M  V30 7319 C 706.292 -5.53312 2.79724 0
M  V30 7320 C 708.347 -4.65795 1.75897 0
M  V30 7321 C 707.05 -6.06713 3.86383 0
M  V30 7322 C 709.076 -5.20112 2.81492 0
M  V30 7323 C 708.438 -5.89562 3.85482 0
M  V30 7324 H 704.537 -0.781981 -0.00541671 0
M  V30 7325 H 707.121 -1.85296 0.597792 0
M  V30 7326 H 705.292 -3.72958 -1.08429 0
M  V30 7327 H 707.024 -3.93489 -0.945963 0
M  V30 7328 H 703.779 -4.64058 0.945879 0
M  V30 7329 H 704.203 -5.96037 3.21044 0
M  V30 7330 H 708.845 -4.11562 0.968306 0
M  V30 7331 H 706.563 -6.6 4.66288 0
M  V30 7332 H 710.149 -5.08026 2.83551 0
M  V30 7333 H 709.029 -6.30838 4.65847 0
M  V30 7334 N 706.532 -0.168513 -1.56696 0
M  V30 7335 C 707.778 0.477865 -1.9709 0
M  V30 7336 C 708.111 1.63084 -1.05438 0
M  V30 7337 O 707.386 1.94238 -0.10095 0
M  V30 7338 C 707.669 0.963521 -3.4697 0
M  V30 7339 C 707.522 -0.189443 -4.49401 0
M  V30 7340 C 708.841 1.83813 -3.99876 0
M  V30 7341 H 705.96 0.172229 -0.716593 0
M  V30 7342 H 708.602 -0.254083 -1.88293 0
M  V30 7343 H 706.752 1.58724 -3.54597 0
M  V30 7344 H 708.424 -0.826451 -4.53836 0
M  V30 7345 H 706.667 -0.845366 -4.25483 0
M  V30 7346 H 707.338 0.192446 -5.51664 0
M  V30 7347 H 709.814 1.31235 -3.94863 0
M  V30 7348 H 708.69 2.14697 -5.0517 0
M  V30 7349 H 708.951 2.78289 -3.43523 0
M  V30 7350 N 708.01 1.57248 0.105221 0
M  V30 7351 C 708.94 2.04374 1.12931 0
M  V30 7352 C 709.921 0.93074 1.42377 0
M  V30 7353 O 711.106 1.20136 1.52581 0
M  V30 7354 C 708.236 2.45967 2.45189 0
M  V30 7355 C 707.19 3.60838 2.30174 0
M  V30 7356 C 706.516 3.88374 3.67518 0
M  V30 7357 C 707.816 4.92084 1.75073 0
M  V30 7358 H 709.51 2.9018 0.737287 0
M  V30 7359 H 707.056 1.39601 0.353211 0
M  V30 7360 H 709.009 2.77542 3.17094 0
M  V30 7361 H 707.733 1.57148 2.86308 0
M  V30 7362 H 706.392 3.29493 1.60716 0
M  V30 7363 H 706.04 2.96739 4.06147 0
M  V30 7364 H 705.74 4.65703 3.58321 0
M  V30 7365 H 707.264 4.22415 4.40906 0
M  V30 7366 H 708.678 5.22106 2.36809 0
M  V30 7367 H 707.075 5.73507 1.76662 0
M  V30 7368 H 708.145 4.79684 0.709347 0
M  V30 7369 N 709.488 -0.375779 1.53054 0
M  V30 7370 C 710.421 -1.48187 1.7354 0
M  V30 7371 C 711.399 -1.5177 0.583495 0
M  V30 7372 O 712.583 -1.69976 0.81488 0
M  V30 7373 C 709.71 -2.86598 1.80497 0
M  V30 7374 C 708.756 -3.00784 3.02376 0
M  V30 7375 S 709.589 -2.70601 4.62099 0
M  V30 7376 C 710.745 -4.11181 4.71891 0
M  V30 7377 H 710.978 -1.30587 2.67085 0
M  V30 7378 H 708.511 -0.569485 1.43514 0
M  V30 7379 H 710.469 -3.66353 1.85192 0
M  V30 7380 H 709.13 -3.01514 0.880217 0
M  V30 7381 H 708.323 -4.02128 3.03824 0
M  V30 7382 H 707.925 -2.28939 2.95742 0
M  V30 7383 H 710.217 -5.0529 4.51319 0
M  V30 7384 H 711.16 -4.14742 5.73929 0
M  V30 7385 H 711.568 -3.97706 4.00612 0
M  V30 7386 N 710.966 -1.44241 -0.634997 0
M  V30 7387 C 711.876 -1.53293 -1.77591 0
M  V30 7388 C 712.892 -0.418831 -1.68884 0
M  V30 7389 O 714.068 -0.675619 -1.8973 0
M  V30 7390 C 711.133 -1.47075 -3.13958 0
M  V30 7391 C 710.194 -2.69304 -3.34326 0
M  V30 7392 C 709.427 -2.63374 -4.64187 0
M  V30 7393 O 709.65 -1.69161 -5.44739 0
M  V30 7394 O 708.584 -3.54166 -4.86673 0
M  V30 7395 H 712.41 -2.49673 -1.72908 0
M  V30 7396 H 709.995 -1.26445 -0.795745 0
M  V30 7397 H 711.877 -1.46117 -3.95257 0
M  V30 7398 H 710.552 -0.538373 -3.19192 0
M  V30 7399 H 709.459 -2.75831 -2.52721 0
M  V30 7400 H 710.792 -3.61576 -3.33951 0
M  V30 7401 N 712.444 0.87505 -1.31075 0
M  V30 7402 C 713.691 1.62768 -1.20469 0
M  V30 7403 C 714.019 1.93034 0.23834 0
M  V30 7404 O 713.274 1.55693 1.18567 0
M  V30 7405 C 713.573 2.96948 -1.98888 0
M  V30 7406 C 713.239 2.86195 -3.4843 0
M  V30 7407 C 711.901 2.82969 -3.89207 0
M  V30 7408 C 714.253 2.73599 -4.43614 0
M  V30 7409 C 711.581 2.64999 -5.23443 0
M  V30 7410 C 713.933 2.57166 -5.77969 0
M  V30 7411 C 712.597 2.52321 -6.17973 0
M  V30 7412 H 711.867 0.595611 -0.440827 0
M  V30 7413 H 714.514 1.01665 -1.62285 0
M  V30 7414 H 712.819 3.62058 -1.49737 0
M  V30 7415 H 714.516 3.54164 -1.88067 0
M  V30 7416 H 711.106 2.8952 -3.16032 0
M  V30 7417 H 715.29 2.7515 -4.13045 0
M  V30 7418 H 710.546 2.5967 -5.53517 0
M  V30 7419 H 714.72 2.46396 -6.51354 0
M  V30 7420 H 712.347 2.38156 -7.21932 0
M  V30 7421 N 713.922 1.13953 1.08869 0
M  V30 7422 C 714.852 0.844824 2.17681 0
M  V30 7423 C 715.833 -0.198213 1.68941 0
M  V30 7424 O 717.018 -0.0559073 1.9412 0
M  V30 7425 C 714.148 0.316325 3.45856 0
M  V30 7426 C 713.102 1.29426 4.07962 0
M  V30 7427 C 712.428 0.625275 5.31031 0
M  V30 7428 C 713.728 2.65484 4.49795 0
M  V30 7429 H 715.422 1.75471 2.42591 0
M  V30 7430 H 712.968 0.845116 1.16592 0
M  V30 7431 H 714.921 0.0977876 4.21287 0
M  V30 7432 H 713.645 -0.628972 3.20486 0
M  V30 7433 H 712.304 1.49889 3.34558 0
M  V30 7434 H 711.952 -0.325678 5.01945 0
M  V30 7435 H 711.652 1.27777 5.73539 0
M  V30 7436 H 713.176 0.416152 6.0918 0
M  V30 7437 H 714.59 2.48957 5.16424 0
M  V30 7438 H 712.987 3.26963 5.03205 0
M  V30 7439 H 714.057 3.22717 3.61914 0
M  V30 7440 N 715.4 -1.26948 0.933913 0
M  V30 7441 C 716.332 -2.25768 0.395137 0
M  V30 7442 C 717.345 -1.55637 -0.477585 0
M  V30 7443 O 718.534 -1.76142 -0.289204 0
M  V30 7444 C 715.634 -3.35874 -0.451882 0
M  V30 7445 C 714.807 -4.3554 0.40299 0
M  V30 7446 C 713.866 -5.24809 -0.3824 0
M  V30 7447 O 712.892 -5.68805 0.212057 0
M  V30 7448 N 714.094 -5.55636 -1.68072 0
M  V30 7449 H 716.859 -2.72634 1.24463 0
M  V30 7450 H 714.42 -1.40639 0.802008 0
M  V30 7451 H 716.412 -3.92542 -0.984516 0
M  V30 7452 H 714.982 -2.8856 -1.20215 0
M  V30 7453 H 714.202 -3.78047 1.11688 0
M  V30 7454 H 715.49 -4.99131 0.987201 0
M  V30 7455 H 714.888 -5.2176 -2.18592 0
M  V30 7456 H 713.445 -6.14978 -2.15975 0
M  V30 7457 N 716.879 -0.700114 -1.41195 0
M  V30 7458 C 718.127 -0.232546 -2.00758 0
M  V30 7459 C 718.448 1.1734 -1.55745 0
M  V30 7460 O 717.718 1.79262 -0.790058 0
M  V30 7461 H 716.298 -0.0829845 -0.742376 0
M  V30 7462 H 718.96 -0.902289 -1.72756 0
M  V30 7463 H 718.056 -0.253521 -3.11069 0
M  V30 7464 N 718.357 1.51182 -0.445186 0
M  V30 7465 C 719.605 2.01753 0.11841 0
M  V30 7466 C 719.926 1.33087 1.42523 0
M  V30 7467 O 719.196 0.467891 1.9023 0
M  V30 7468 H 717.776 0.745536 0.0467492 0
M  V30 7469 H 720.438 1.85765 -0.589688 0
M  V30 7470 H 719.534 3.10762 0.288665 0
M  V30 7471 N 719.835 0.176821 1.56605 0
M  V30 7472 C 720.798 -0.737429 2.17013 0
M  V30 7473 C 721.798 -1.15414 1.11965 0
M  V30 7474 O 722.988 -1.0702 1.37449 0
M  V30 7475 C 720.12 -2.00445 2.75744 0
M  V30 7476 H 721.313 -0.211455 2.99154 0
M  V30 7477 H 718.866 -0.0727582 1.56131 0
M  V30 7478 H 719.601 -2.57338 1.97352 0
M  V30 7479 H 719.386 -1.71456 3.52626 0
M  V30 7480 H 720.876 -2.65679 3.22187 0
M  V30 7481 N 721.313 -1.57302 -0.09688 0
M  V30 7482 C 722.243 -2.0497 -1.11846 0
M  V30 7483 C 723.224 -0.938278 -1.41882 0
M  V30 7484 O 724.409 -1.20943 -1.51942 0
M  V30 7485 C 721.539 -2.47264 -2.43881 0
M  V30 7486 C 720.493 -3.62053 -2.28257 0
M  V30 7487 C 719.819 -3.90318 -3.65453 0
M  V30 7488 C 721.119 -4.93005 -1.72461 0
M  V30 7489 H 722.813 -2.90567 -0.721888 0
M  V30 7490 H 720.359 -1.39786 -0.345803 0
M  V30 7491 H 722.312 -2.7922 -3.15617 0
M  V30 7492 H 721.036 -1.58664 -2.8547 0
M  V30 7493 H 719.695 -3.30341 -1.58967 0
M  V30 7494 H 719.343 -2.98889 -4.04567 0
M  V30 7495 H 719.043 -4.67597 -3.55846 0
M  V30 7496 H 720.567 -4.24747 -4.3866 0
M  V30 7497 H 721.981 -5.23354 -2.34036 0
M  V30 7498 H 720.378 -5.74436 -1.73618 0
M  V30 7499 H 721.448 -4.80053 -0.683898 0
M  V30 7500 N 722.791 0.367657 -1.53252 0
M  V30 7501 C 724.019 1.13119 -1.73239 0
M  V30 7502 C 724.434 1.831 -0.460404 0
M  V30 7503 O 723.791 1.73483 0.566557 0
M  V30 7504 C 723.842 2.16308 -2.89643 0
M  V30 7505 O 723.563 1.49175 -4.1192 0
M  V30 7506 C 725.064 3.05224 -3.21486 0
M  V30 7507 H 722.284 0.338318 -0.579467 0
M  V30 7508 H 724.828 0.42721 -1.99988 0
M  V30 7509 H 722.983 2.82307 -2.65295 0
M  V30 7510 H 723.397 2.17912 -4.7709 0
M  V30 7511 H 724.871 3.73613 -4.06346 0
M  V30 7512 H 725.348 3.69919 -2.36763 0
M  V30 7513 H 725.954 2.44843 -3.47753 0
M  V30 7514 N 724.269 1.44576 0.627338 0
M  V30 7515 C 725.546 1.38033 1.38586 0
M  V30 7516 C 725.926 0.0409468 2.1106 0
M  V30 7517 O 725.274 -0.976582 2.0658 0
M  V30 7518 C 725.484 2.58102 2.34913 0
M  V30 7519 C 726.832 3.02332 2.98129 0
M  V30 7520 O 727.856 2.58334 2.45238 0
M  V30 7521 O 726.715 3.78628 3.94085 0
M  V30 7522 H 723.809 0.546801 0.620434 0
M  V30 7523 H 726.355 1.56672 0.652077 0
M  V30 7524 H 725.127 3.4719 1.80485 0
M  V30 7525 H 724.75 2.41696 3.15703 0
M  V30 7526 N 725.747 -0.868086 1.31537 0
M  V30 7527 C 726.996 -1.61607 1.20689 0
M  V30 7528 C 727.309 -1.94204 -0.233275 0
M  V30 7529 O 728.515 -2.67515 -0.463465 0
M  V30 7530 C 726.971 -2.91348 2.11292 0
M  V30 7531 C 726.579 -2.66227 3.60315 0
M  V30 7532 C 728.323 -3.69344 2.09249 0
M  V30 7533 C 726.23 -3.91887 4.42921 0
M  V30 7534 H 725.16 -0.606373 0.448138 0
M  V30 7535 H 727.811 -0.959666 1.56405 0
M  V30 7536 H 726.193 -3.58374 1.68477 0
M  V30 7537 H 727.367 -2.07597 4.11388 0
M  V30 7538 H 725.682 -2.01582 3.64354 0
M  V30 7539 H 728.279 -4.62567 2.68209 0
M  V30 7540 H 728.622 -4.02044 1.0801 0
M  V30 7541 H 729.155 -3.09205 2.50274 0
M  V30 7542 H 725.894 -3.64336 5.44922 0
M  V30 7543 H 725.414 -4.49961 3.96605 0
M  V30 7544 H 727.093 -4.59754 4.55231 0
M  V30 7545 N 727.225 -1.14528 -1.08264 0
M  V30 7546 C 728.471 -0.91576 -1.80947 0
M  V30 7547 C 728.804 0.55623 -1.86064 0
M  V30 7548 O 728.079 1.41207 -1.33756 0
M  V30 7549 C 728.362 -1.51917 -3.26486 0
M  V30 7550 C 728.215 -3.06111 -3.2957 0
M  V30 7551 C 729.534 -1.19724 -4.23502 0
M  V30 7552 H 726.653 -0.334113 -0.656915 0
M  V30 7553 H 729.295 -1.41547 -1.26746 0
M  V30 7554 H 727.445 -1.0942 -3.72773 0
M  V30 7555 H 729.117 -3.57448 -2.91597 0
M  V30 7556 H 727.36 -3.40483 -2.688 0
M  V30 7557 H 728.031 -3.43438 -4.32151 0
M  V30 7558 H 730.507 -1.56467 -3.85561 0
M  V30 7559 H 729.383 -1.64575 -5.23647 0
M  V30 7560 H 729.644 -0.112771 -4.41956 0
M  V30 7561 N 728.703 1.26451 -0.940633 0
M  V30 7562 C 729.928 1.98407 -0.60412 0
M  V30 7563 C 730.353 1.69584 0.81382 0
M  V30 7564 O 729.711 0.943553 1.54812 0
M  V30 7565 C 729.759 3.50387 -0.852136 0
M  V30 7566 O 728.863 4.1233 0.076013 0
M  V30 7567 H 728.204 0.622466 -0.231153 0
M  V30 7568 H 730.734 1.60932 -1.26342 0
M  V30 7569 H 730.744 4.00614 -0.772816 0
M  V30 7570 H 729.419 3.70696 -1.88566 0
M  V30 7571 H 727.996 3.7286 -0.0543187 0
M  V30 7572 N 730.181 0.707592 1.40822 0
M  V30 7573 C 731.113 0.0105968 2.29198 0
M  V30 7574 C 732.126 -0.732035 1.45414 0
M  V30 7575 O 733.315 -0.580741 1.68789 0
M  V30 7576 C 730.415 -1.00921 3.23525 0
M  V30 7577 C 729.588 -0.333747 4.36125 0
M  V30 7578 C 728.647 -1.25783 5.10945 0
M  V30 7579 O 727.673 -0.745646 5.64295 0
M  V30 7580 N 728.875 -2.58947 5.19545 0
M  V30 7581 H 731.64 0.76938 2.89656 0
M  V30 7582 H 729.201 0.554579 1.52105 0
M  V30 7583 H 731.193 -1.6294 3.70449 0
M  V30 7584 H 729.763 -1.66942 2.6429 0
M  V30 7585 H 728.983 0.466518 3.9143 0
M  V30 7586 H 730.271 0.135444 5.0862 0
M  V30 7587 H 729.669 -3.03065 4.7767 0
M  V30 7588 H 728.226 -3.16131 5.70004 0
M  V30 7589 N 731.66 -1.50943 0.453197 0
M  V30 7590 C 732.906 -2.02512 -0.108082 0
M  V30 7591 C 733.239 -1.33574 -1.40967 0
M  V30 7592 O 732.514 -0.455671 -1.89087 0
M  V30 7593 C 732.797 -3.58759 -0.310453 0
M  V30 7594 C 732.65 -4.38293 1.0109 0
M  V30 7595 C 733.969 -4.26816 -1.07313 0
M  V30 7596 H 731.088 -0.73603 -0.0378064 0
M  V30 7597 H 733.73 -1.80433 0.595295 0
M  V30 7598 H 731.88 -3.77702 -0.909582 0
M  V30 7599 H 733.552 -4.30964 1.64523 0
M  V30 7600 H 731.795 -4.02745 1.61179 0
M  V30 7601 H 732.466 -5.45828 0.82315 0
M  V30 7602 H 734.942 -4.1224 -0.565473 0
M  V30 7603 H 733.818 -5.35989 -1.1835 0
M  V30 7604 H 734.079 -3.88757 -2.10525 0
M  V30 7605 N 733.138 -0.185124 -1.56509 0
M  V30 7606 C 734.554 0.170865 -1.58683 0
M  V30 7607 C 734.754 1.61799 -1.20098 0
M  V30 7608 O 733.81 2.35181 -0.919038 0
M  V30 7609 C 735.123 -0.122459 -3.00451 0
M  V30 7610 C 736.671 -0.0617699 -3.12939 0
M  V30 7611 C 737.146 -0.328269 -4.56822 0
M  V30 7612 N 738.637 -0.276533 -4.62374 0
M  V30 7613 C 739.372 -0.456722 -5.71578 0
M  V30 7614 N 738.868 -0.69672 -6.89288 0
M  V30 7615 N 740.661 -0.391669 -5.60734 0
M  V30 7616 H 732.812 -1.12956 -1.79874 0
M  V30 7617 H 735.075 -0.45011 -0.834329 0
M  V30 7618 H 734.781 -1.12546 -3.33206 0
M  V30 7619 H 734.655 0.579578 -3.72721 0
M  V30 7620 H 737.042 0.931826 -2.80002 0
M  V30 7621 H 737.123 -0.796732 -2.43076 0
M  V30 7622 H 736.767 -1.31914 -4.9047 0
M  V30 7623 H 736.697 0.427465 -5.24862 0
M  V30 7624 H 739.188 -0.0972458 -3.77775 0
M  V30 7625 H 739.501 -0.823291 -7.68402 0
M  V30 7626 H 737.846 -0.733497 -6.91119 0
M  V30 7627 H 741.037 -0.204663 -4.67652 0
M  V30 7628 H 741.21 -0.535518 -6.45783 0
M  V30 7629 N 734.616 1.57351 0.0885366 0
M  V30 7630 C 735.546 2.05561 1.10757 0
M  V30 7631 C 736.527 0.945789 1.41382 0
M  V30 7632 O 737.712 1.21747 1.51299 0
M  V30 7633 C 734.842 2.48554 2.42566 0
M  V30 7634 C 733.796 3.63259 2.26334 0
M  V30 7635 C 733.122 3.9225 3.63378 0
M  V30 7636 C 734.422 4.93913 1.69844 0
M  V30 7637 H 736.116 2.90946 0.706468 0
M  V30 7638 H 733.662 1.39968 0.338385 0
M  V30 7639 H 735.615 2.8089 3.14132 0
M  V30 7640 H 734.339 1.60176 2.84625 0
M  V30 7641 H 732.998 3.31179 1.57213 0
M  V30 7642 H 732.646 3.0103 4.02976 0
M  V30 7643 H 732.346 4.69478 3.53362 0
M  V30 7644 H 733.87 4.27067 4.36401 0
M  V30 7645 H 735.284 5.24588 2.31258 0
M  V30 7646 H 733.681 5.75349 1.70569 0
M  V30 7647 H 734.751 4.80409 0.65843 0
M  V30 7648 N 736.094 -0.359525 1.53444 0
M  V30 7649 C 737.042 -1.46104 1.80987 0
M  V30 7650 C 738.036 -1.55181 0.679351 0
M  V30 7651 O 739.242 -1.57995 0.862405 0
M  V30 7652 H 735.617 -0.486835 0.573145 0
M  V30 7653 H 737.588 -1.2008 2.73173 0
M  V30 7654 C 736.337 -2.82855 2.02208 0
M  V30 7655 H 735.66 -2.76631 2.88644 0
M  V30 7656 H 737.1 -3.59091 2.25455 0
M  V30 7657 C 735.559 -3.27192 0.802931 0
M  V30 7658 O 736.089 -4.017 -0.00544286 0
M  V30 7659 N 734.295 -2.83807 0.624657 0
M  V30 7660 H 733.842 -2.23339 1.28364 0
M  V30 7661 H 733.8 -3.13828 -0.189641 0
M  V30 7662 N 737.572 -1.44907 -0.619662 0
M  V30 7663 C 738.482 -1.55168 -1.75955 0
M  V30 7664 C 739.498 -0.43672 -1.6843 0
M  V30 7665 O 740.674 -0.695704 -1.89002 0
M  V30 7666 C 737.739 -1.50397 -3.12381 0
M  V30 7667 C 736.8 -2.72835 -3.31451 0
M  V30 7668 C 736.033 -2.68283 -4.61368 0
M  V30 7669 O 736.256 -1.74929 -5.42914 0
M  V30 7670 O 735.19 -3.59308 -4.82889 0
M  V30 7671 H 739.016 -2.51493 -1.7025 0
M  V30 7672 H 736.601 -1.27282 -0.782289 0
M  V30 7673 H 738.483 -1.50301 -3.93685 0
M  V30 7674 H 737.158 -0.572197 -3.18603 0
M  V30 7675 H 736.065 -2.78496 -2.49781 0
M  V30 7676 H 737.398 -3.65098 -3.30098 0
M  V30 7677 N 739.05 0.861098 -1.31996 0
M  V30 7678 C 739.96 2.00154 -1.22374 0
M  V30 7679 C 740.976 1.73447 -0.138631 0
M  V30 7680 O 742.152 1.98191 -0.358104 0
M  V30 7681 C 739.217 3.33696 -0.940645 0
M  V30 7682 C 738.278 3.73668 -2.11355 0
M  V30 7683 C 737.511 5.00837 -1.84386 0
M  V30 7684 O 737.734 5.64996 -0.783287 0
M  V30 7685 O 736.668 5.37787 -2.70313 0
M  V30 7686 H 740.494 2.11207 -2.18233 0
M  V30 7687 H 738.079 0.990768 -1.11822 0
M  V30 7688 H 739.961 4.13756 -0.798987 0
M  V30 7689 H 738.636 3.23698 -0.0121636 0
M  V30 7690 H 737.543 2.94211 -2.31065 0
M  V30 7691 H 738.876 3.88303 -3.02459 0
M  V30 7692 N 740.528 1.15101 1.07655 0
M  V30 7693 C 741.46 0.802722 2.14684 0
M  V30 7694 C 742.473 -0.183874 1.61758 0
M  V30 7695 O 743.662 0.0389349 1.78458 0
M  V30 7696 C 740.762 0.172135 3.38463 0
M  V30 7697 C 739.935 1.19538 4.20749 0
M  V30 7698 C 738.994 0.58714 5.22914 0
M  V30 7699 O 738.02 1.25224 5.55255 0
M  V30 7700 N 739.222 -0.632566 5.77043 0
M  V30 7701 H 741.987 1.72379 2.45164 0
M  V30 7702 H 739.548 1.04647 1.23534 0
M  V30 7703 H 741.54 -0.247465 4.03943 0
M  V30 7704 H 740.11 -0.652214 3.0572 0
M  V30 7705 H 739.33 1.79165 3.51132 0
M  V30 7706 H 740.618 1.88636 4.7254 0
M  V30 7707 H 740.016 -1.19135 5.53013 0
M  V30 7708 H 738.573 -0.994566 6.44167 0
M  V30 7709 N 742.006 -1.2595 0.947325 0
M  V30 7710 C 743.255 -1.92759 0.593887 0
M  V30 7711 C 743.568 -1.75083 -0.872093 0
M  V30 7712 O 744.774 -2.36401 -1.33518 0
M  V30 7713 C 743.23 -3.45395 1.01144 0
M  V30 7714 C 742.838 -3.71795 2.49946 0
M  V30 7715 C 744.582 -4.18173 0.730185 0
M  V30 7716 C 742.489 -5.17901 2.85539 0
M  V30 7717 H 741.419 -0.721676 0.218403 0
M  V30 7718 H 744.07 -1.4293 1.15079 0
M  V30 7719 H 742.452 -3.94143 0.383007 0
M  V30 7720 H 743.626 -3.33728 3.17746 0
M  V30 7721 H 741.941 -3.12263 2.75465 0
M  V30 7722 H 744.538 -5.25784 0.972367 0
M  V30 7723 H 744.881 -4.14964 -0.333223 0
M  V30 7724 H 745.414 -3.75309 1.31862 0
M  V30 7725 H 742.153 -5.26216 3.90867 0
M  V30 7726 H 741.673 -5.57042 2.22406 0
M  V30 7727 H 743.352 -5.8596 2.74336 0
M  V30 7728 N 743.484 -0.715051 -1.40445 0
M  V30 7729 C 744.447 -0.0708726 -2.2909 0
M  V30 7730 C 745.447 0.687926 -1.45342 0
M  V30 7731 O 746.637 0.519908 -1.66261 0
M  V30 7732 C 743.769 0.909528 -3.28543 0
M  V30 7733 H 744.962 -0.851611 -2.87555 0
M  V30 7734 H 742.515 -0.479674 -1.48758 0
M  V30 7735 H 743.25 1.71734 -2.75096 0
M  V30 7736 H 743.035 0.368318 -3.90366 0
M  V30 7737 H 744.525 1.35744 -3.94922 0
M  V30 7738 N 744.962 1.50701 -0.461195 0
M  V30 7739 C 746.19 2.06681 0.0951756 0
M  V30 7740 C 746.605 1.32615 1.34382 0
M  V30 7741 O 745.962 0.392531 1.78229 0
M  V30 7742 C 746.013 3.59354 0.393316 0
M  V30 7743 O 745.734 4.30626 -0.805797 0
M  V30 7744 C 747.235 4.31926 0.997744 0
M  V30 7745 H 744.455 0.670995 -0.00267259 0
M  V30 7746 H 746.999 1.93991 -0.647137 0
M  V30 7747 H 745.154 3.7188 1.08555 0
M  V30 7748 H 745.568 5.21667 -0.544409 0
M  V30 7749 H 747.042 5.39756 1.15619 0
M  V30 7750 H 747.519 3.91772 1.98523 0
M  V30 7751 H 748.125 4.23905 0.344188 0
M  V30 7752 N 746.441 0.193421 1.56409 0
M  V30 7753 C 747.687 -0.446449 1.97825 0
M  V30 7754 C 748.02 -1.61386 1.08019 0
M  V30 7755 O 747.295 -1.94053 0.131839 0
M  V30 7756 C 747.578 -0.908199 3.48459 0
M  V30 7757 C 747.431 0.260914 4.49043 0
M  V30 7758 C 748.75 -1.77428 4.0275 0
M  V30 7759 H 745.869 -0.160807 0.719243 0
M  V30 7760 H 748.511 0.284006 1.87865 0
M  V30 7761 H 746.661 -1.53062 3.57077 0
M  V30 7762 H 748.333 0.898548 4.52464 0
M  V30 7763 H 746.576 0.912949 4.24085 0
M  V30 7764 H 747.247 -0.104657 5.51901 0
M  V30 7765 H 749.723 -1.24936 3.96901 0
M  V30 7766 H 748.599 -2.06633 5.08521 0
M  V30 7767 H 748.86 -2.72788 3.47907 0
M  V30 7768 N 747.919 -1.57396 -0.0801906 0
M  V30 7769 C 749.159 -1.88668 -0.786367 0
M  V30 7770 C 749.523 -0.786216 -1.75165 0
M  V30 7771 O 750.724 -0.981769 -2.50229 0
M  V30 7772 C 748.995 -3.25176 -1.48308 0
M  V30 7773 S 750.554 -3.78177 -2.22549 0
M  V30 7774 H 747.372 -0.661094 -0.261679 0
M  V30 7775 H 749.974 -1.95453 -0.0428196 0
M  V30 7776 H 748.678 -4.03176 -0.766629 0
M  V30 7777 H 748.209 -3.21567 -2.26623 0
M  V30 7778 H 750.224 -3.52789 -3.48934 0
M  V30 7779 N 749.397 0.351382 -1.53633 0
M  V30 7780 C 750.307 1.45471 -1.84052 0
M  V30 7781 C 751.323 1.57945 -0.730015 0
M  V30 7782 O 752.499 1.73571 -1.02153 0
M  V30 7783 C 749.564 2.80562 -2.03681 0
M  V30 7784 C 748.625 2.77497 -3.27558 0
M  V30 7785 C 747.858 4.06144 -3.46241 0
M  V30 7786 O 748.081 5.03028 -2.68922 0
M  V30 7787 O 747.015 4.11092 -4.39645 0
M  V30 7788 H 750.841 1.22684 -2.77817 0
M  V30 7789 H 748.426 0.542827 -1.3919 0
M  V30 7790 H 750.308 3.6058 -2.18082 0
M  V30 7791 H 748.983 3.03296 -1.13106 0
M  V30 7792 H 747.89 1.96126 -3.18568 0
M  V30 7793 H 749.223 2.59716 -4.18101 0
M  V30 7794 N 750.875 1.45233 0.611969 0
M  V30 7795 C 751.838 1.53189 1.70487 0
M  V30 7796 C 752.838 0.411839 1.55437 0
M  V30 7797 O 754.028 0.675164 1.60584 0
M  V30 7798 C 751.16 1.42422 3.09723 0
M  V30 7799 H 752.353 2.5056 1.64802 0
M  V30 7800 H 749.906 1.32609 0.827318 0
M  V30 7801 H 750.641 0.462185 3.2099 0
M  V30 7802 H 750.426 2.23658 3.22055 0
M  V30 7803 H 751.916 1.51012 3.89339 0
M  V30 7804 N 752.353 -0.854086 1.3245 0
M  V30 7805 C 753.599 -1.61069 1.23225 0
M  V30 7806 C 753.932 -1.93111 -0.205349 0
M  V30 7807 O 753.207 -1.57397 -1.14265 0
M  V30 7808 C 753.49 -2.93065 2.09249 0
M  V30 7809 C 753.343 -2.67801 3.6139 0
M  V30 7810 C 754.662 -3.94341 1.95406 0
M  V30 7811 H 751.781 -0.584449 0.448986 0
M  V30 7812 H 754.423 -0.986189 1.62402 0
M  V30 7813 H 752.573 -3.46364 1.75967 0
M  V30 7814 H 754.245 -2.21052 4.04887 0
M  V30 7815 H 752.488 -2.01756 3.84027 0
M  V30 7816 H 753.159 -3.6179 4.16907 0
M  V30 7817 H 755.635 -3.50301 2.24562 0
M  V30 7818 H 754.511 -4.84555 2.57872 0
M  V30 7819 H 754.772 -4.32382 0.921865 0
M  V30 7820 N 753.831 -1.1567 -1.07043 0
M  V30 7821 C 754.761 -0.879348 -2.16309 0
M  V30 7822 C 755.742 0.171311 -1.69235 0
M  V30 7823 O 756.927 0.0250175 -1.94184 0
M  V30 7824 C 754.057 -0.371307 -3.45309 0
M  V30 7825 C 753.011 -1.359 -4.05851 0
M  V30 7826 C 752.337 -0.709678 -5.29969 0
M  V30 7827 C 753.637 -2.72606 -4.45514 0
M  V30 7828 H 755.331 -1.79308 -2.39768 0
M  V30 7829 H 752.877 -0.863558 -1.15233 0
M  V30 7830 H 754.83 -0.164798 -4.21078 0
M  V30 7831 H 753.554 0.577906 -3.21446 0
M  V30 7832 H 752.213 -1.55193 -3.32131 0
M  V30 7833 H 751.861 0.245782 -5.02399 0
M  V30 7834 H 751.561 -1.36886 -5.71433 0
M  V30 7835 H 753.085 -0.513015 -6.08441 0
M  V30 7836 H 754.499 -2.57141 -5.12398 0
M  V30 7837 H 752.896 -3.34927 -4.97939 0
M  V30 7838 H 753.966 -3.28434 -3.56734 0
M  V30 7839 N 755.309 1.25446 -0.953992 0
M  V30 7840 C 756.241 2.25111 -0.431004 0
M  V30 7841 C 757.254 1.56377 0.452764 0
M  V30 7842 O 758.443 1.76579 0.261144 0
M  V30 7843 C 755.543 3.3655 0.39839 0
M  V30 7844 C 754.716 4.34843 -0.472229 0
M  V30 7845 C 753.775 5.25351 0.29886 0
M  V30 7846 O 752.801 5.68396 -0.302522 0
M  V30 7847 N 754.003 5.5824 1.59211 0
M  V30 7848 H 756.768 2.70619 -1.28785 0
M  V30 7849 H 754.329 1.39346 -0.824281 0
M  V30 7850 H 756.321 3.94059 0.921941 0
M  V30 7851 H 754.891 2.90436 1.15609 0
M  V30 7852 H 754.111 3.76222 -1.17689 0
M  V30 7853 H 755.399 4.97497 -1.06648 0
M  V30 7854 H 754.797 5.25172 2.10264 0
M  V30 7855 H 753.354 6.18336 2.06164 0
M  V30 7856 N 756.787 0.722489 1.40064 0
M  V30 7857 C 757.75 0.0830209 2.2905 0
M  V30 7858 C 758.75 -0.680208 1.45705 0
M  V30 7859 O 759.94 -0.511084 1.66534 0
M  V30 7860 C 757.072 -0.892092 3.29021 0
M  V30 7861 H 758.265 0.866848 2.87099 0
M  V30 7862 H 755.818 0.487556 1.48501 0
M  V30 7863 H 756.553 -1.70273 2.76003 0
M  V30 7864 H 756.338 -0.34761 3.90556 0
M  V30 7865 H 757.828 -1.33648 3.95636 0
M  V30 7866 N 758.265 -1.50454 0.469181 0
M  V30 7867 C 759.195 -2.31353 -0.31592 0
M  V30 7868 C 760.176 -1.38172 -0.992094 0
M  V30 7869 O 761.361 -1.67093 -0.989633 0
M  V30 7870 C 758.491 -3.1786 -1.39937 0
M  V30 7871 C 757.445 -4.19578 -0.844909 0
M  V30 7872 C 756.771 -4.9481 -2.0265 0
M  V30 7873 C 758.071 -5.22106 0.142499 0
M  V30 7874 H 759.765 -2.97237 0.359269 0
M  V30 7875 H 757.311 -1.42942 0.174224 0
M  V30 7876 H 759.264 -3.7325 -1.95607 0
M  V30 7877 H 757.988 -2.49858 -2.1033 0
M  V30 7878 H 756.647 -3.65285 -0.310189 0
M  V30 7879 H 756.295 -4.23282 -2.71737 0
M  V30 7880 H 755.995 -5.63613 -1.66174 0
M  V30 7881 H 757.519 -5.53035 -2.58815 0
M  V30 7882 H 758.933 -5.72378 -0.324966 0
M  V30 7883 H 757.33 -5.98618 0.421441 0
M  V30 7884 H 758.4 -4.7297 1.06901 0
M  V30 7885 N 759.743 -0.201713 -1.56304 0
M  V30 7886 C 760.706 0.702811 -2.18159 0
M  V30 7887 C 761.706 1.13619 -1.13787 0
M  V30 7888 O 762.896 1.0482 -1.39134 0
M  V30 7889 C 760.028 1.96032 -2.78898 0
M  V30 7890 H 761.221 0.163836 -2.99452 0
M  V30 7891 H 758.774 0.04791 -1.56227 0
M  V30 7892 H 759.509 2.54165 -2.01421 0
M  V30 7893 H 759.294 1.65824 -3.55309 0
M  V30 7894 H 760.784 2.60519 -3.26373 0
M  V30 7895 N 761.222 1.57436 0.0718424 0
M  V30 7896 C 762.452 1.91196 0.782795 0
M  V30 7897 C 762.86 0.795927 1.71644 0
M  V30 7898 O 762.203 -0.239604 1.82131 0
M  V30 7899 C 762.265 3.20421 1.63005 0
M  V30 7900 C 761.929 4.48724 0.865782 0
M  V30 7901 C 762.926 5.19571 0.185051 0
M  V30 7902 C 760.611 4.95345 0.832971 0
M  V30 7903 C 762.605 6.3529 -0.518264 0
M  V30 7904 C 760.292 6.1097 0.125884 0
M  V30 7905 C 761.29 6.80794 -0.548533 0
M  V30 7906 O 760.978 7.94213 -1.24423 0
M  V30 7907 H 760.71 0.636486 0.227731 0
M  V30 7908 H 763.264 2.05348 0.0464187 0
M  V30 7909 H 761.494 3.02478 2.40923 0
M  V30 7910 H 763.183 3.39831 2.21968 0
M  V30 7911 H 763.949 4.8458 0.201707 0
M  V30 7912 H 759.828 4.40871 1.34737 0
M  V30 7913 H 763.372 6.89725 -1.04523 0
M  V30 7914 H 759.269 6.45411 0.107155 0
M  V30 7915 H 760.037 8.10331 -1.1535 0
M  V30 7916 N 762.7 -0.34323 1.53817 0
M  V30 7917 C 763.63 -1.42709 1.84814 0
M  V30 7918 C 764.611 -1.5488 0.703297 0
M  V30 7919 O 765.796 -1.69082 0.955237 0
M  V30 7920 C 762.926 -2.79756 2.05801 0
M  V30 7921 C 761.88 -2.82392 3.21619 0
M  V30 7922 C 761.206 -4.22326 3.2794 0
M  V30 7923 C 762.506 -2.479 4.59721 0
M  V30 7924 H 764.2 -1.17018 2.75585 0
M  V30 7925 H 761.746 -0.561485 1.32602 0
M  V30 7926 H 763.699 -3.55627 2.26069 0
M  V30 7927 H 762.423 -3.06883 1.11761 0
M  V30 7928 H 761.082 -2.08974 3.01207 0
M  V30 7929 H 760.73 -4.46564 2.31494 0
M  V30 7930 H 760.43 -4.25001 4.05768 0
M  V30 7931 H 761.954 -5.00039 3.50419 0
M  V30 7932 H 763.368 -3.13484 4.80001 0
M  V30 7933 H 761.765 -2.61857 5.39954 0
M  V30 7934 H 762.835 -1.43087 4.63308 0
M  V30 7935 N 764.178 -1.45556 -0.604258 0
M  V30 7936 C 765.128 -1.50906 -1.70913 0
M  V30 7937 C 766.112 -0.371996 -1.56541 0
M  V30 7938 O 767.304 -0.619064 -1.65821 0
M  V30 7939 C 764.433 -1.48181 -3.09673 0
M  V30 7940 C 763.519 -2.67102 -3.2942 0
M  V30 7941 N 763.91 -3.92184 -3.19414 0
M  V30 7942 C 762.208 -2.6287 -3.60299 0
M  V30 7943 C 762.909 -4.71571 -3.40581 0
M  V30 7944 N 761.885 -4.03081 -3.64728 0
M  V30 7945 H 765.687 -2.45435 -1.61675 0
M  V30 7946 H 763.201 -1.40894 -0.807622 0
M  V30 7947 H 765.198 -1.501 -3.88942 0
M  V30 7948 H 763.858 -0.54712 -3.20057 0
M  V30 7949 H 764.869 -4.23756 -2.97743 0
M  V30 7950 H 761.546 -1.78324 -3.77501 0
M  V30 7951 H 762.936 -5.80571 -3.38211 0
M  V30 7952 N 765.656 0.84705 -1.32902 0
M  V30 7953 C 766.619 1.9378 -1.224 0
M  V30 7954 C 767.619 1.60144 -0.145108 0
M  V30 7955 O 768.809 1.69638 -0.396058 0
M  V30 7956 C 765.941 3.29234 -0.884174 0
M  V30 7957 H 767.134 2.04518 -2.19345 0
M  V30 7958 H 764.687 1.03816 -1.16842 0
M  V30 7959 H 765.422 3.24193 0.0831277 0
M  V30 7960 H 765.207 3.55026 -1.6643 0
M  V30 7961 H 766.697 4.09162 -0.835226 0
M  V30 7962 N 767.134 1.16236 1.06428 0
M  V30 7963 C 768.066 0.825446 2.1382 0
M  V30 7964 C 769.079 -0.166707 1.61944 0
M  V30 7965 O 770.268 0.0578606 1.78406 0
M  V30 7966 C 767.368 0.208023 3.38261 0
M  V30 7967 C 766.541 1.23994 4.19457 0
M  V30 7968 C 765.6 0.642569 5.22262 0
M  V30 7969 O 764.626 1.31106 5.53895 0
M  V30 7970 N 765.828 -0.571327 5.77682 0
M  V30 7971 H 768.593 1.7497 2.43322 0
M  V30 7972 H 766.154 1.05951 1.22417 0
M  V30 7973 H 768.146 -0.204608 4.04182 0
M  V30 7974 H 766.716 -0.619752 3.06395 0
M  V30 7975 H 765.936 1.82879 3.49212 0
M  V30 7976 H 767.224 1.93638 4.70512 0
M  V30 7977 H 766.622 -1.13263 5.54245 0
M  V30 7978 H 765.179 -0.926187 6.45186 0
M  V30 7979 N 768.612 -1.24939 0.960631 0
M  V30 7980 C 769.86 -1.92437 0.617441 0
M  V30 7981 C 770.181 -1.75543 -0.849101 0
M  V30 7982 O 769.451 -1.12269 -1.60538 0
M  V30 7983 H 768.031 -0.712192 0.225371 0
M  V30 7984 H 770.693 -1.5198 1.22017 0
M  V30 7985 H 769.789 -3.00247 0.851933 0
M  V30 7986 N 770.09 -0.729906 -1.39679 0
M  V30 7987 C 771.336 -0.27603 -2.00913 0
M  V30 7988 C 771.669 1.13227 -1.57776 0
M  V30 7989 O 770.944 1.7709 -0.804319 0
M  V30 7990 C 771.227 -0.372157 -3.58172 0
M  V30 7991 C 771.08 -1.81986 -4.11341 0
M  V30 7992 C 772.399 0.248378 -4.39399 0
M  V30 7993 H 769.518 -0.101773 -0.729939 0
M  V30 7994 H 772.16 -0.925104 -1.65957 0
M  V30 7995 H 770.31 0.180459 -3.88081 0
M  V30 7996 H 771.982 -2.42896 -3.92172 0
M  V30 7997 H 770.225 -2.34287 -3.65092 0
M  V30 7998 H 770.896 -1.83842 -5.20486 0
M  V30 7999 H 773.372 -0.222645 -4.15504 0
M  V30 8000 H 772.248 0.150746 -5.48693 0
M  V30 8001 H 772.509 1.33378 -4.21501 0
M  V30 8002 N 771.568 1.50203 -0.477153 0
M  V30 8003 C 772.817 2.01551 0.0774548 0
M  V30 8004 C 773.13 1.36359 1.40234 0
M  V30 8005 O 774.336 1.78898 2.04225 0
M  V30 8006 C 772.792 3.59406 0.188539 0
M  V30 8007 C 772.4 4.3356 -1.12828 0
M  V30 8008 C 774.144 4.18776 0.694782 0
M  V30 8009 C 772.051 5.83213 -0.98066 0
M  V30 8010 H 770.981 0.75329 0.0327212 0
M  V30 8011 H 773.632 1.72959 -0.612969 0
M  V30 8012 H 772.014 3.84611 0.942881 0
M  V30 8013 H 773.188 4.20074 -1.89405 0
M  V30 8014 H 771.503 3.85827 -1.5661 0
M  V30 8015 H 774.1 5.28338 0.822356 0
M  V30 8016 H 774.443 3.80557 1.68766 0
M  V30 8017 H 774.976 3.978 -0.00234519 0
M  V30 8018 H 771.715 6.25914 -1.94709 0
M  V30 8019 H 771.235 5.99256 -0.255375 0
M  V30 8020 H 772.914 6.4373 -0.649717 0
M  V30 8021 N 773.046 0.209999 1.56195 0
M  V30 8022 C 773.996 -0.717978 2.164 0
M  V30 8023 C 774.98 -1.16577 1.10899 0
M  V30 8024 O 776.172 -1.12169 1.3692 0
M  V30 8025 C 773.301 -1.93091 2.8385 0
M  V30 8026 C 772.387 -1.50333 3.96561 0
M  V30 8027 N 772.778 -0.787621 4.9963 0
M  V30 8028 C 771.076 -1.79151 4.08437 0
M  V30 8029 C 771.777 -0.571204 5.78889 0
M  V30 8030 N 770.753 -1.12444 5.31843 0
M  V30 8031 H 774.555 -0.162603 2.9345 0
M  V30 8032 H 772.069 0.0107928 1.62396 0
M  V30 8033 H 774.066 -2.60635 3.25384 0
M  V30 8034 H 772.726 -2.49087 2.08293 0
M  V30 8035 H 773.737 -0.441513 5.16015 0
M  V30 8036 H 770.414 -2.36549 3.44022 0
M  V30 8037 H 771.804 -0.00237941 6.719 0
M  V30 8038 N 774.524 -1.57472 -0.0634922 0
M  V30 8039 C 775.94 -1.54016 -0.418466 0
M  V30 8040 C 776.14 -0.931376 -1.78683 0
M  V30 8041 O 775.196 -0.537465 -2.46714 0
M  V30 8042 C 776.509 -2.98634 -0.351906 0
M  V30 8043 C 778.057 -3.10012 -0.431494 0
M  V30 8044 C 778.532 -4.56296 -0.394754 0
M  V30 8045 N 780.023 -4.60964 -0.454583 0
M  V30 8046 C 780.758 -5.71643 -0.448501 0
M  V30 8047 N 780.254 -6.91663 -0.396742 0
M  V30 8048 N 782.047 -5.5991 -0.495677 0
M  V30 8049 H 774.198 -1.95409 0.832408 0
M  V30 8050 H 776.461 -0.894769 0.313197 0
M  V30 8051 H 776.167 -3.46766 0.587048 0
M  V30 8052 H 776.041 -3.58955 -1.15893 0
M  V30 8053 H 778.428 -2.61848 -1.36087 0
M  V30 8054 H 778.509 -2.52585 0.404258 0
M  V30 8055 H 778.153 -5.05119 0.530811 0
M  V30 8056 H 778.083 -5.11594 -1.24815 0
M  V30 8057 H 780.574 -3.74598 -0.498496 0
M  V30 8058 H 780.887 -7.71783 -0.396256 0
M  V30 8059 H 779.232 -6.9405 -0.363304 0
M  V30 8060 H 782.423 -4.65046 -0.533864 0
M  V30 8061 H 782.596 -6.46164 -0.487469 0
M  V30 8062 N 776.003 0.335068 -1.53997 0
M  V30 8063 C 777.28 1.09188 -1.62288 0
M  V30 8064 C 777.66 2.0626 -0.449458 0
M  V30 8065 O 777.008 2.21596 0.557444 0
M  V30 8066 C 777.218 1.80403 -2.98757 0
M  V30 8067 C 778.566 2.33841 -3.54406 0
M  V30 8068 O 779.59 1.90487 -3.00987 0
M  V30 8069 O 778.449 3.1318 -4.47862 0
M  V30 8070 H 775.543 0.502621 -0.656736 0
M  V30 8071 H 778.089 0.33588 -1.66343 0
M  V30 8072 H 776.861 1.09732 -3.75599 0
M  V30 8073 H 776.484 2.62841 -2.9833 0
M  V30 8074 N 777.481 1.45874 0.596531 0
M  V30 8075 C 778.73 1.49737 1.35135 0
M  V30 8076 C 779.043 0.147755 1.95041 0
M  V30 8077 O 780.249 0.0640984 2.71424 0
M  V30 8078 C 778.705 2.6378 2.44843 0
M  V30 8079 C 778.313 4.05102 1.91301 0
M  V30 8080 C 780.057 2.769 3.21755 0
M  V30 8081 C 777.964 5.10508 2.98557 0
M  V30 8082 H 776.894 0.557219 0.507959 0
M  V30 8083 H 779.545 1.72046 0.638147 0
M  V30 8084 H 777.927 2.34774 3.189 0
M  V30 8085 H 779.101 4.43836 1.2388 0
M  V30 8086 H 777.416 3.96528 1.271 0
M  V30 8087 H 780.013 3.52819 4.01775 0
M  V30 8088 H 780.356 1.83924 3.73467 0
M  V30 8089 H 780.889 3.05485 2.54802 0
M  V30 8090 H 777.628 6.0523 2.51749 0
M  V30 8091 H 777.148 4.76332 3.6451 0
M  V30 8092 H 778.827 5.35745 3.62748 0
M  V30 8093 N 778.959 -0.83999 1.33349 0
M  V30 8094 C 779.906 -1.94972 1.23509 0
M  V30 8095 C 780.876 -1.65709 0.113967 0
M  V30 8096 O 782.061 -1.88552 0.292045 0
M  V30 8097 C 779.201 -3.30919 0.979105 0
M  V30 8098 C 778.314 -3.72587 2.18639 0
M  V30 8099 C 777.449 -4.97397 1.86465 0
M  V30 8100 C 776.488 -5.31597 3.03432 0
M  V30 8101 N 775.625 -6.47584 2.71254 0
M  V30 8102 H 780.465 -2.0272 2.18423 0
M  V30 8103 H 778.002 -0.992017 1.08616 0
M  V30 8104 H 779.96 -4.09239 0.811126 0
M  V30 8105 H 778.59 -3.22731 0.0667099 0
M  V30 8106 H 777.642 -2.89799 2.46416 0
M  V30 8107 H 778.954 -3.93844 3.06086 0
M  V30 8108 H 778.108 -5.83462 1.66305 0
M  V30 8109 H 776.847 -4.78107 0.96254 0
M  V30 8110 H 775.852 -4.44037 3.24208 0
M  V30 8111 H 777.077 -5.52836 3.94397 0
M  V30 8112 H 775.023 -6.29783 1.836 0
M  V30 8113 H 774.94 -6.68931 3.52231 0
M  V30 8114 H 776.208 -7.36764 2.54558 0
M  V30 8115 N 780.437 -1.16799 -1.0581 0
M  V30 8116 C 781.662 -0.977402 -1.82925 0
M  V30 8117 C 782.087 0.469514 -1.82146 0
M  V30 8118 O 781.445 1.33576 -1.22585 0
M  V30 8119 C 781.493 -1.51543 -3.27211 0
M  V30 8120 O 780.597 -0.725021 -4.05977 0
M  V30 8121 H 779.938 -0.347474 -0.565825 0
M  V30 8122 H 782.468 -1.55151 -1.33376 0
M  V30 8123 H 782.478 -1.53502 -3.78023 0
M  V30 8124 H 781.153 -2.56872 -3.27093 0
M  V30 8125 H 779.73 -0.77634 -3.64729 0
M  V30 8126 N 781.915 1.24427 -0.967243 0
M  V30 8127 C 783.192 1.87831 -0.545776 0
M  V30 8128 C 783.572 1.87126 0.977099 0
M  V30 8129 O 782.92 1.34357 1.84826 0
M  V30 8130 C 783.13 3.29967 -1.13679 0
M  V30 8131 C 784.478 4.06654 -1.22139 0
M  V30 8132 O 785.502 3.39136 -1.08926 0
M  V30 8133 O 784.361 5.27455 -1.43017 0
M  V30 8134 H 781.455 0.806745 -0.181912 0
M  V30 8135 H 784.001 1.32403 -1.06148 0
M  V30 8136 H 782.773 3.24977 -2.17958 0
M  V30 8137 H 782.396 3.92969 -0.605093 0
M  V30 8138 N 783.393 0.737304 1.3929 0
M  V30 8139 C 784.618 0.295237 2.05288 0
M  V30 8140 C 785.043 -1.06235 1.55228 0
M  V30 8141 O 784.401 -1.67365 0.697043 0
M  V30 8142 C 784.449 0.309146 3.59272 0
M  V30 8143 O 783.553 -0.702437 4.06374 0
M  V30 8144 H 782.894 0.133762 0.650387 0
M  V30 8145 H 785.424 1.00387 1.78279 0
M  V30 8146 H 785.434 0.154336 4.07708 0
M  V30 8147 H 784.109 1.29974 3.95069 0
M  V30 8148 H 782.686 -0.513574 3.69346 0
M  V30 8149 N 784.871 -1.49948 0.485112 0
M  V30 8150 C 786.12 -2.01589 -0.066765 0
M  V30 8151 C 786.433 -1.371 -1.39509 0
M  V30 8152 O 787.639 -1.79978 -2.03274 0
M  V30 8153 C 786.095 -3.59501 -0.169476 0
M  V30 8154 C 785.703 -4.32955 1.15126 0
M  V30 8155 C 787.447 -4.19138 -0.672564 0
M  V30 8156 C 785.354 -5.82684 1.01158 0
M  V30 8157 H 784.284 -0.753453 -0.0287259 0
M  V30 8158 H 786.935 -1.72632 0.622132 0
M  V30 8159 H 785.317 -3.85106 -0.922471 0
M  V30 8160 H 786.491 -4.19064 1.9163 0
M  V30 8161 H 784.806 -3.84991 1.58654 0
M  V30 8162 H 787.403 -5.28767 -0.794325 0
M  V30 8163 H 787.746 -3.81447 -1.66745 0
M  V30 8164 H 788.279 -3.97793 0.0234415 0
M  V30 8165 H 785.018 -6.24873 1.98025 0
M  V30 8166 H 784.538 -5.99112 0.287151 0
M  V30 8167 H 786.217 -6.43376 0.683847 0
M  V30 8168 N 786.349 -0.21828 -1.56081 0
M  V30 8169 C 787.279 0.687922 -2.23136 0
M  V30 8170 C 788.26 1.20357 -1.202 0
M  V30 8171 O 789.445 1.24817 -1.48776 0
M  V30 8172 C 786.575 1.89762 -2.90874 0
M  V30 8173 C 785.529 1.51595 -4.00254 0
M  V30 8174 C 784.855 2.80415 -4.55271 0
M  V30 8175 C 786.155 0.708404 -5.17474 0
M  V30 8176 H 787.849 0.128854 -2.99123 0
M  V30 8177 H 785.395 0.0605354 -1.43873 0
M  V30 8178 H 787.348 2.53699 -3.36474 0
M  V30 8179 H 786.072 2.4816 -2.1233 0
M  V30 8180 H 784.731 0.900058 -3.55379 0
M  V30 8181 H 784.379 3.36951 -3.73461 0
M  V30 8182 H 784.079 2.55613 -5.2909 0
M  V30 8183 H 785.603 3.453 -5.03587 0
M  V30 8184 H 787.017 1.2514 -5.59476 0
M  V30 8185 H 785.414 0.557593 -5.97504 0
M  V30 8186 H 786.484 -0.285679 -4.84058 0
M  V30 8187 N 787.827 1.57504 0.0551401 0
M  V30 8188 C 788.757 2.07864 1.06372 0
M  V30 8189 C 789.738 0.975565 1.39344 0
M  V30 8190 O 790.923 1.24929 1.48682 0
M  V30 8191 C 788.053 2.53643 2.3724 0
M  V30 8192 C 787.007 3.67978 2.18578 0
M  V30 8193 C 786.333 3.9987 3.54976 0
M  V30 8194 C 787.633 4.97405 1.59329 0
M  V30 8195 H 789.327 2.92379 0.644595 0
M  V30 8196 H 786.873 1.40654 0.308619 0
M  V30 8197 H 788.826 2.8749 3.08103 0
M  V30 8198 H 787.55 1.66177 2.81163 0
M  V30 8199 H 786.209 3.3444 1.50152 0
M  V30 8200 H 785.857 3.0951 3.965 0
M  V30 8201 H 785.557 4.76867 3.43324 0
M  V30 8202 H 787.081 4.36228 4.27244 0
M  V30 8203 H 788.495 5.29375 2.20078 0
M  V30 8204 H 786.892 5.78837 1.58327 0
M  V30 8205 H 787.962 4.81697 0.55638 0
M  V30 8206 N 789.305 -0.326896 1.54172 0
M  V30 8207 C 790.533 -1.08486 1.76177 0
M  V30 8208 C 790.948 -1.81815 0.508788 0
M  V30 8209 O 790.305 -1.74924 -0.520362 0
M  V30 8210 C 790.356 -2.08552 2.95276 0
M  V30 8211 O 790.077 -1.38202 4.15731 0
M  V30 8212 C 791.578 -2.96593 3.29466 0
M  V30 8213 H 788.798 -0.322835 0.588233 0
M  V30 8214 H 791.342 -0.374036 2.0105 0
M  V30 8215 H 789.497 -2.75174 2.72687 0
M  V30 8216 H 789.911 -2.05186 4.827 0
M  V30 8217 H 791.385 -3.62708 4.16109 0
M  V30 8218 H 791.862 -3.63511 2.46487 0
M  V30 8219 H 792.468 -2.35537 3.54122 0
M  V30 8220 N 790.784 -1.46188 -0.588786 0
M  V30 8221 C 791.714 -1.59148 -1.70863 0
M  V30 8222 C 792.695 -0.442083 -1.64255 0
M  V30 8223 O 793.88 -0.667575 -1.82365 0
M  V30 8224 C 791.01 -1.5757 -3.09498 0
M  V30 8225 C 789.964 -2.71418 -3.30932 0
M  V30 8226 C 789.29 -2.549 -4.70032 0
M  V30 8227 C 790.59 -4.1329 -3.19356 0
M  V30 8228 H 792.284 -2.52889 -1.60274 0
M  V30 8229 H 789.83 -1.21707 -0.769638 0
M  V30 8230 H 791.783 -1.65231 -3.87655 0
M  V30 8231 H 790.507 -0.603705 -3.20972 0
M  V30 8232 H 789.166 -2.63216 -2.55172 0
M  V30 8233 H 788.814 -1.55797 -4.78264 0
M  V30 8234 H 788.514 -3.31257 -4.85327 0
M  V30 8235 H 790.038 -2.64443 -5.50366 0
M  V30 8236 H 791.452 -4.22636 -3.87365 0
M  V30 8237 H 789.849 -4.90187 -3.46175 0
M  V30 8238 H 790.919 -4.33874 -2.16522 0
M  V30 8239 N 792.262 0.832906 -1.33792 0
M  V30 8240 C 793.539 1.57359 -1.16178 0
M  V30 8241 C 793.919 2.09372 0.269532 0
M  V30 8242 O 793.267 1.89993 1.26944 0
M  V30 8243 C 793.477 2.70279 -2.20795 0
M  V30 8244 C 794.825 3.39305 -2.55259 0
M  V30 8245 O 795.849 2.80526 -2.19508 0
M  V30 8246 O 794.708 4.45428 -3.16632 0
M  V30 8247 H 791.802 0.694025 -0.449731 0
M  V30 8248 H 794.348 0.875144 -1.45394 0
M  V30 8249 H 793.12 2.29527 -3.16911 0
M  V30 8250 H 792.743 3.47782 -1.927 0
M  V30 8251 N 793.74 1.17359 1.05189 0
M  V30 8252 C 794.988 0.960087 1.77839 0
M  V30 8253 C 795.309 -0.512554 1.88143 0
M  V30 8254 O 794.579 -1.3721 1.39822 0
M  V30 8255 H 793.159 0.352234 0.658741 0
M  V30 8256 H 795.821 1.47834 1.27008 0
M  V30 8257 H 794.917 1.38843 2.79516 0
M  V30 8258 N 795.218 -1.23913 0.973828 0
M  V30 8259 C 796.634 -1.44325 0.681363 0
M  V30 8260 C 796.834 -1.86832 -0.754728 0
M  V30 8261 O 795.89 -2.01024 -1.52793 0
M  V30 8262 C 797.203 -2.50017 1.67069 0
M  V30 8263 C 798.751 -2.63838 1.68399 0
M  V30 8264 C 799.226 -3.72734 2.66145 0
M  V30 8265 N 800.717 -3.80169 2.64624 0
M  V30 8266 C 801.452 -4.6397 3.36927 0
M  V30 8267 N 800.948 -5.51911 4.18767 0
M  V30 8268 N 802.741 -4.58106 3.25722 0
M  V30 8269 H 794.892 -0.946204 1.9016 0
M  V30 8270 H 797.155 -0.477374 0.819035 0
M  V30 8271 H 796.861 -2.25686 2.69738 0
M  V30 8272 H 796.735 -3.48287 1.4483 0
M  V30 8273 H 799.122 -2.87524 0.664379 0
M  V30 8274 H 799.203 -1.65906 1.94702 0
M  V30 8275 H 798.847 -3.49797 3.68245 0
M  V30 8276 H 798.777 -4.70193 2.3712 0
M  V30 8277 H 801.268 -3.17319 2.05224 0
M  V30 8278 H 801.581 -6.12828 4.70809 0
M  V30 8279 H 799.926 -5.51556 4.2286 0
M  V30 8280 H 803.117 -3.8842 2.61242 0
M  V30 8281 H 803.29 -5.23188 3.82333 0
M  V30 8282 N 796.696 -0.74468 -1.38897 0
M  V30 8283 C 797.942 -0.297324 -2.00609 0
M  V30 8284 C 798.275 1.11547 -1.58968 0
M  V30 8285 O 797.55 1.76227 -0.823057 0
M  V30 8286 C 797.833 -0.410125 -3.57757 0
M  V30 8287 C 797.686 -1.86338 -4.09387 0
M  V30 8288 C 799.005 0.20176 -4.39637 0
M  V30 8289 H 796.124 -0.109509 -0.728819 0
M  V30 8290 H 798.766 -0.942653 -1.64967 0
M  V30 8291 H 796.916 0.139287 -3.8825 0
M  V30 8292 H 798.588 -2.47042 -3.89574 0
M  V30 8293 H 796.831 -2.38146 -3.62586 0
M  V30 8294 H 797.502 -1.89352 -5.18507 0
M  V30 8295 H 799.978 -0.266703 -4.15244 0
M  V30 8296 H 798.854 0.0925415 -5.48822 0
M  V30 8297 H 799.115 1.289 -4.22891 0
M  V30 8298 N 798.174 1.49689 -0.493057 0
M  V30 8299 C 799.121 2.28976 0.28959 0
M  V30 8300 C 800.091 1.35011 0.967536 0
M  V30 8301 O 801.276 1.63964 0.975736 0
M  V30 8302 C 798.416 3.1748 1.35279 0
M  V30 8303 C 797.529 4.26496 0.687418 0
M  V30 8304 C 796.664 5.02226 1.73038 0
M  V30 8305 C 795.703 6.03089 1.04645 0
M  V30 8306 N 794.84 6.72014 2.03325 0
M  V30 8307 H 799.68 2.954 -0.392798 0
M  V30 8308 H 797.217 1.45657 -0.205554 0
M  V30 8309 H 799.175 3.67162 1.98111 0
M  V30 8310 H 797.805 2.53057 2.00405 0
M  V30 8311 H 796.857 3.80362 -0.0540001 0
M  V30 8312 H 798.169 4.98578 0.14864 0
M  V30 8313 H 797.323 5.55737 2.43395 0
M  V30 8314 H 796.062 4.29899 2.303 0
M  V30 8315 H 795.067 5.48817 0.328606 0
M  V30 8316 H 796.292 6.77398 0.480428 0
M  V30 8317 H 794.238 6.02464 2.59564 0
M  V30 8318 H 794.155 7.40046 1.54492 0
M  V30 8319 H 795.423 7.30133 2.72995 0
M  V30 8320 N 799.652 0.226554 1.55963 0
M  V30 8321 C 800.582 -0.676079 2.23498 0
M  V30 8322 C 801.563 -1.19718 1.20837 0
M  V30 8323 O 802.748 -1.24027 1.49436 0
M  V30 8324 C 799.878 -1.88217 2.91876 0
M  V30 8325 C 798.832 -1.4947 4.01052 0
M  V30 8326 C 798.158 -2.77997 4.56751 0
M  V30 8327 C 799.458 -0.680951 5.17842 0
M  V30 8328 H 801.152 -0.112989 2.99187 0
M  V30 8329 H 798.698 -0.0529046 1.43903 0
M  V30 8330 H 800.651 -2.51911 3.37815 0
M  V30 8331 H 799.375 -2.47031 2.13643 0
M  V30 8332 H 798.034 -0.881199 3.55852 0
M  V30 8333 H 797.682 -3.34966 3.75243 0
M  V30 8334 H 797.382 -2.52803 5.30438 0
M  V30 8335 H 798.906 -3.42625 5.05411 0
M  V30 8336 H 800.32 -1.22171 5.60131 0
M  V30 8337 H 798.717 -0.525898 5.97791 0
M  V30 8338 H 799.787 0.311346 4.83899 0
M  V30 8339 N 801.13 -1.57531 -0.0467866 0
M  V30 8340 C 802.355 -1.93087 -0.757123 0
M  V30 8341 C 802.78 -0.825116 -1.69037 0
M  V30 8342 O 802.138 0.220449 -1.79955 0
M  V30 8343 C 802.186 -3.27669 -1.5055 0
M  V30 8344 O 801.29 -3.18667 -2.61773 0
M  V30 8345 H 800.631 -0.631597 -0.204892 0
M  V30 8346 H 803.161 -2.04599 -0.00755232 0
M  V30 8347 H 803.171 -3.6214 -1.87932 0
M  V30 8348 H 801.846 -4.07717 -0.820931 0
M  V30 8349 H 800.423 -2.95798 -2.27064 0
M  V30 8350 N 802.608 0.318715 -1.54344 0
M  V30 8351 C 803.885 1.07461 -1.63437 0
M  V30 8352 C 804.265 2.05771 -0.47131 0
M  V30 8353 O 803.613 2.22175 0.53391 0
M  V30 8354 C 803.823 1.77224 -3.00654 0
M  V30 8355 C 805.171 2.30069 -3.56866 0
M  V30 8356 O 806.195 1.87284 -3.0299 0
M  V30 8357 O 805.054 3.08412 -4.51159 0
M  V30 8358 H 802.148 0.495627 -0.66203 0
M  V30 8359 H 804.694 0.318218 -1.6669 0
M  V30 8360 H 803.466 1.05742 -3.76742 0
M  V30 8361 H 803.089 2.59662 -3.01101 0
M  V30 8362 N 804.086 1.46499 0.581025 0
M  V30 8363 C 805.333 1.51896 1.33918 0
M  V30 8364 C 805.661 0.171361 1.93744 0
M  V30 8365 O 804.916 -0.833178 1.77078 0
M  V30 8366 C 805.215 2.56686 2.48691 0
M  V30 8367 C 804.881 4.00656 2.06847 0
M  V30 8368 C 803.543 4.39852 1.9515 0
M  V30 8369 C 805.895 4.91089 1.74589 0
M  V30 8370 C 803.223 5.67345 1.49456 0
M  V30 8371 C 805.575 6.1902 1.30373 0
M  V30 8372 C 804.239 6.57121 1.17255 0
M  V30 8373 H 803.509 0.555826 0.490039 0
M  V30 8374 H 806.156 1.79983 0.654092 0
M  V30 8375 H 804.461 2.22266 3.22653 0
M  V30 8376 H 806.158 2.58091 3.06904 0
M  V30 8377 H 802.748 3.69674 2.16886 0
M  V30 8378 H 806.932 4.61523 1.8251 0
M  V30 8379 H 802.188 5.95635 1.37944 0
M  V30 8380 H 806.362 6.8852 1.04467 0
M  V30 8381 H 803.989 7.55805 0.816236 0
M  V30 8382 N 805.565 -0.825799 1.34232 0
M  V30 8383 C 806.813 -1.57873 1.26177 0
M  V30 8384 C 807.134 -1.94267 -0.168904 0
M  V30 8385 O 806.404 -1.62045 -1.10084 0
M  V30 8386 H 804.984 -0.585388 0.464037 0
M  V30 8387 H 807.646 -0.986163 1.6811 0
M  V30 8388 H 806.742 -2.50283 1.86453 0
M  V30 8389 N 807.043 -1.17915 -1.04565 0
M  V30 8390 C 808.29 -0.971424 -1.77678 0
M  V30 8391 C 808.618 0.499401 -1.87979 0
M  V30 8392 O 807.873 1.38695 -1.38066 0
M  V30 8393 C 808.172 -1.56528 -3.213 0
M  V30 8394 C 807.838 -3.06138 -3.31044 0
M  V30 8395 C 806.5 -3.46974 -3.33411 0
M  V30 8396 C 808.852 -4.02151 -3.31548 0
M  V30 8397 C 806.18 -4.82406 -3.33918 0
M  V30 8398 C 808.532 -5.37492 -3.33595 0
M  V30 8399 C 807.196 -5.77782 -3.34251 0
M  V30 8400 H 806.466 -0.355469 -0.650171 0
M  V30 8401 H 809.113 -1.46902 -1.22849 0
M  V30 8402 H 807.418 -0.98955 -3.79098 0
M  V30 8403 H 809.115 -1.38003 -3.76505 0
M  V30 8404 H 805.705 -2.73589 -3.29919 0
M  V30 8405 H 809.889 -3.71656 -3.28916 0
M  V30 8406 H 805.145 -5.12927 -3.3274 0
M  V30 8407 H 809.319 -6.1166 -3.32934 0
M  V30 8408 H 806.946 -6.82702 -3.34397 0
M  V30 8409 N 808.521 1.23394 -0.980386 0
M  V30 8410 C 809.761 1.93543 -0.657288 0
M  V30 8411 C 810.125 1.74791 0.794477 0
M  V30 8412 O 811.326 2.39089 1.2284 0
M  V30 8413 C 809.597 3.42025 -1.03701 0
M  V30 8414 S 811.156 4.30871 -0.830379 0
M  V30 8415 H 807.974 0.669012 -0.240717 0
M  V30 8416 H 810.576 1.49478 -1.26002 0
M  V30 8417 H 809.28 3.53183 -2.09022 0
M  V30 8418 H 808.811 3.91091 -0.425559 0
M  V30 8419 H 810.826 4.95377 0.285719 0
M  V30 8420 N 809.999 0.752036 1.385 0
M  V30 8421 C 810.962 0.131587 2.28822 0
M  V30 8422 C 811.962 -0.649149 1.47115 0
M  V30 8423 O 813.152 -0.475645 1.67581 0
M  V30 8424 C 810.284 -0.822101 3.30839 0
M  V30 8425 H 811.477 0.927551 2.85196 0
M  V30 8426 H 809.03 0.518945 1.47434 0
M  V30 8427 H 809.765 -1.6438 2.79553 0
M  V30 8428 H 809.55 -0.264689 3.91206 0
M  V30 8429 H 811.04 -1.25226 3.98382 0
M  V30 8430 N 811.477 -1.49425 0.500989 0
M  V30 8431 C 812.409 -2.27037 -0.314159 0
M  V30 8432 C 813.422 -1.33578 -0.930626 0
M  V30 8433 O 814.611 -1.58861 -0.813968 0
M  V30 8434 C 811.711 -3.05968 -1.45729 0
M  V30 8435 C 810.884 -4.27 -0.948135 0
M  V30 8436 C 809.943 -4.87977 -1.96888 0
M  V30 8437 O 808.969 -5.48044 -1.53743 0
M  V30 8438 N 810.171 -4.77627 -3.29928 0
M  V30 8439 H 812.936 -2.97634 0.351336 0
M  V30 8440 H 810.497 -1.58427 0.333536 0
M  V30 8441 H 812.489 -3.43634 -2.1377 0
M  V30 8442 H 811.059 -2.37978 -2.02695 0
M  V30 8443 H 810.279 -3.94091 -0.0926311 0
M  V30 8444 H 811.567 -5.0541 -0.586362 0
M  V30 8445 H 810.965 -4.29926 -3.67669 0
M  V30 8446 H 809.522 -5.19478 -3.93682 0
M  V30 8447 N 812.955 -0.234822 -1.55841 0
M  V30 8448 C 814.204 0.393685 -1.97821 0
M  V30 8449 C 814.517 1.59947 -1.1259 0
M  V30 8450 O 815.723 2.29835 -1.44528 0
M  V30 8451 C 814.179 0.751811 -3.5196 0
M  V30 8452 C 813.787 -0.431898 -4.45913 0
M  V30 8453 C 815.531 1.34518 -4.02623 0
M  V30 8454 C 813.438 -0.0505976 -5.91378 0
M  V30 8455 H 812.368 0.150864 -0.738753 0
M  V30 8456 H 815.019 -0.333132 -1.80451 0
M  V30 8457 H 813.401 1.53642 -3.6498 0
M  V30 8458 H 814.575 -1.20935 -4.44647 0
M  V30 8459 H 812.89 -0.939385 -4.05666 0
M  V30 8460 H 815.487 1.64359 -5.08813 0
M  V30 8461 H 815.83 2.26554 -3.49255 0
M  V30 8462 H 816.363 0.623729 -3.9288 0
M  V30 8463 H 813.102 -0.937779 -6.48757 0
M  V30 8464 H 812.622 0.690898 -5.95808 0
M  V30 8465 H 814.301 0.37146 -6.45933 0
M  V30 8466 N 814.433 1.57553 0.0384317 0
M  V30 8467 C 815.658 1.93485 0.746872 0
M  V30 8468 C 816.083 0.834069 1.68597 0
M  V30 8469 O 815.441 -0.210902 1.80069 0
M  V30 8470 C 815.489 3.28463 1.4881 0
M  V30 8471 O 814.593 3.20051 2.60079 0
M  V30 8472 H 813.934 0.632675 0.201539 0
M  V30 8473 H 816.464 2.046 -0.00329815 0
M  V30 8474 H 816.474 3.63132 1.86009 0
M  V30 8475 H 815.149 4.08147 0.799297 0
M  V30 8476 H 813.726 2.96998 2.25492 0
M  V30 8477 N 815.911 -0.310526 1.54511 0
M  V30 8478 C 816.858 -1.38264 1.84802 0
M  V30 8479 C 817.828 -1.50808 0.696141 0
M  V30 8480 O 819.013 -1.6582 0.943846 0
M  V30 8481 C 816.153 -2.74422 2.09252 0
M  V30 8482 C 815.266 -2.70405 3.36906 0
M  V30 8483 C 814.401 -3.98495 3.51248 0
M  V30 8484 C 813.44 -3.88836 4.72729 0
M  V30 8485 N 812.577 -5.08683 4.83928 0
M  V30 8486 H 817.417 -1.11732 2.76261 0
M  V30 8487 H 814.954 -0.540609 1.36806 0
M  V30 8488 H 816.912 -3.53593 2.21422 0
M  V30 8489 H 815.542 -2.99235 1.2107 0
M  V30 8490 H 814.594 -1.83151 3.33406 0
M  V30 8491 H 815.906 -2.59155 4.26193 0
M  V30 8492 H 815.06 -4.861 3.63031 0
M  V30 8493 H 813.799 -4.12567 2.60077 0
M  V30 8494 H 812.804 -2.99615 4.60989 0
M  V30 8495 H 814.029 -3.76318 5.65298 0
M  V30 8496 H 811.975 -5.23236 3.95677 0
M  V30 8497 H 811.892 -4.99819 5.67201 0
M  V30 8498 H 813.16 -5.97966 5.00057 0
M  V30 8499 N 817.389 -1.46805 -0.573248 0
M  V30 8500 C 818.666 -1.43082 -1.33368 0
M  V30 8501 C 819.046 -0.119252 -2.10763 0
M  V30 8502 O 818.394 0.899239 -2.10062 0
M  V30 8503 C 818.604 -2.66643 -2.25172 0
M  V30 8504 C 819.952 -3.13188 -2.86702 0
M  V30 8505 O 820.976 -2.67258 -2.35482 0
M  V30 8506 O 819.835 -3.92994 -3.79761 0
M  V30 8507 H 816.929 -0.569451 -0.599712 0
M  V30 8508 H 819.475 -1.58984 -0.59348 0
M  V30 8509 H 818.247 -3.53649 -1.67475 0
M  V30 8510 H 817.87 -2.53247 -3.06516 0
M  V30 8511 N 818.867 0.818669 -1.34668 0
M  V30 8512 C 820.113 1.57746 -1.27453 0
M  V30 8513 C 820.446 1.93588 0.154077 0
M  V30 8514 O 819.721 1.60371 1.10051 0
M  V30 8515 C 820.004 2.87414 -2.16945 0
M  V30 8516 C 819.857 2.58125 -3.68363 0
M  V30 8517 C 821.176 3.89021 -2.05792 0
M  V30 8518 H 818.295 0.572339 -0.464324 0
M  V30 8519 H 820.937 0.942784 -1.64959 0
M  V30 8520 H 819.087 3.41576 -1.85089 0
M  V30 8521 H 820.759 2.10239 -4.10606 0
M  V30 8522 H 819.002 1.91503 -3.89242 0
M  V30 8523 H 819.673 3.5061 -4.26353 0
M  V30 8524 H 822.149 3.44224 -2.33771 0
M  V30 8525 H 821.025 4.77548 -2.70628 0
M  V30 8526 H 821.286 4.29786 -1.03618 0
M  V30 8527 N 820.346 1.18468 1.03938 0
M  V30 8528 C 821.757 0.984808 1.58614 0
M  V30 8529 C 822.108 -0.465165 1.90606 0
M  V30 8530 O 821.233 -1.34274 1.69704 0
M  V30 8531 C 821.828 1.78135 2.8819 0
M  V30 8532 C 820.387 1.62579 3.39478 0
M  V30 8533 C 819.534 1.77501 2.13046 0
M  V30 8534 H 822.485 1.32993 0.865944 0
M  V30 8535 H 822.506 1.27119 3.58638 0
M  V30 8536 H 822.018 2.83661 2.64874 0
M  V30 8537 H 820.119 0.59595 3.67803 0
M  V30 8538 H 820.232 2.42463 4.13217 0
M  V30 8539 H 818.596 1.2046 2.24414 0
M  V30 8540 H 819.379 2.84464 1.92185 0
M  V30 8541 N 821.824 -1.22873 0.986916 0
M  V30 8542 C 822.771 -2.2458 0.532215 0
M  V30 8543 C 823.741 -1.60375 -0.432322 0
M  V30 8544 O 824.926 -1.87775 -0.338416 0
M  V30 8545 C 822.066 -3.44761 -0.152864 0
M  V30 8546 C 821.179 -4.23501 0.852704 0
M  V30 8547 C 820.314 -5.31011 0.14176 0
M  V30 8548 C 819.353 -6.01464 1.1361 0
M  V30 8549 N 818.49 -7.00631 0.453871 0
M  V30 8550 H 823.33 -2.62838 1.40428 0
M  V30 8551 H 820.867 -1.29185 0.703543 0
M  V30 8552 H 822.825 -4.1333 -0.566926 0
M  V30 8553 H 821.455 -3.07284 -0.988756 0
M  V30 8554 H 820.507 -3.54286 1.38512 0
M  V30 8555 H 821.819 -4.72097 1.61014 0
M  V30 8556 H 820.973 -6.05805 -0.329337 0
M  V30 8557 H 819.712 -4.83373 -0.648229 0
M  V30 8558 H 818.717 -5.25456 1.61789 0
M  V30 8559 H 819.942 -6.5119 1.92686 0
M  V30 8560 H 817.888 -6.55235 -0.316791 0
M  V30 8561 H 817.805 -7.47204 1.14986 0
M  V30 8562 H 819.073 -7.795 0.00537823 0
M  V30 8563 N 823.302 -0.75937 -1.38099 0
M  V30 8564 C 824.718 -0.437606 -1.53483 0
M  V30 8565 C 824.918 1.04849 -1.72072 0
M  V30 8566 O 823.974 1.83448 -1.73502 0
M  V30 8567 C 825.287 -1.24189 -2.73857 0
M  V30 8568 C 826.835 -1.23255 -2.8771 0
M  V30 8569 C 827.31 -2.01992 -4.11051 0
M  V30 8570 N 828.801 -1.99282 -4.1814 0
M  V30 8571 C 829.536 -2.56996 -5.12583 0
M  V30 8572 N 829.032 -3.23446 -6.12662 0
M  V30 8573 N 830.825 -2.46894 -5.04975 0
M  V30 8574 H 822.976 -1.72242 -1.24283 0
M  V30 8575 H 825.239 -0.730507 -0.604205 0
M  V30 8576 H 824.945 -2.29449 -2.66545 0
M  V30 8577 H 824.819 -0.862672 -3.67203 0
M  V30 8578 H 827.206 -0.187988 -2.94501 0
M  V30 8579 H 827.287 -1.65132 -1.95359 0
M  V30 8580 H 826.931 -3.06462 -4.05023 0
M  V30 8581 H 826.861 -1.57505 -5.02494 0
M  V30 8582 H 829.352 -1.50893 -3.46467 0
M  V30 8583 H 829.665 -3.6489 -6.81231 0
M  V30 8584 H 828.01 -3.27543 -6.12977 0
M  V30 8585 H 831.201 -1.94604 -4.25731 0
M  V30 8586 H 831.374 -2.92168 -5.78396 0
M  V30 8587 N 824.78 1.49157 -0.508906 0
M  V30 8588 C 825.727 2.2927 0.265288 0
M  V30 8589 C 826.697 1.3603 0.953162 0
M  V30 8590 O 827.882 1.64989 0.958291 0
M  V30 8591 C 825.022 3.18897 1.31904 0
M  V30 8592 C 824.135 4.27201 0.642144 0
M  V30 8593 C 823.27 5.04033 1.67701 0
M  V30 8594 C 822.309 6.04165 0.982422 0
M  V30 8595 N 821.446 6.74133 1.96186 0
M  V30 8596 H 826.286 2.94967 -0.424107 0
M  V30 8597 H 823.823 1.45431 -0.220991 0
M  V30 8598 H 825.781 3.69242 1.94206 0
M  V30 8599 H 824.411 2.55168 1.97709 0
M  V30 8600 H 823.463 3.80283 -0.0943395 0
M  V30 8601 H 824.775 4.98708 0.0957507 0
M  V30 8602 H 823.929 5.58287 2.37487 0
M  V30 8603 H 822.668 4.32317 2.25728 0
M  V30 8604 H 821.673 5.49135 0.270378 0
M  V30 8605 H 822.898 6.7787 0.408554 0
M  V30 8606 H 820.844 6.05183 2.53159 0
M  V30 8607 H 820.761 7.41643 1.46634 0
M  V30 8608 H 822.029 7.32987 2.65236 0
M  V30 8609 N 826.258 0.243083 1.55714 0
M  V30 8610 C 827.483 -0.389944 2.03701 0
M  V30 8611 C 827.908 -1.51025 1.12129 0
M  V30 8612 O 827.266 -1.80944 0.11352 0
M  V30 8613 C 827.314 -0.878649 3.49731 0
M  V30 8614 O 826.418 -1.98851 3.61292 0
M  V30 8615 H 825.759 -0.0855115 0.658471 0
M  V30 8616 H 828.289 0.368023 2.01263 0
M  V30 8617 H 828.299 -1.18287 3.90477 0
M  V30 8618 H 826.974 -0.0588107 4.15858 0
M  V30 8619 H 825.551 -1.68928 3.32442 0
M  V30 8620 N 827.736 -1.57571 -0.0300757 0
M  V30 8621 C 828.666 -2.0953 -1.03051 0
M  V30 8622 C 829.647 -0.99761 -1.37774 0
M  V30 8623 O 830.832 -1.27279 -1.46676 0
M  V30 8624 C 827.962 -2.57385 -2.33174 0
M  V30 8625 C 826.916 -3.71409 -2.12696 0
M  V30 8626 C 826.242 -4.05467 -3.4857 0
M  V30 8627 C 827.542 -4.99877 -1.51396 0
M  V30 8628 H 829.236 -2.93367 -0.597999 0
M  V30 8629 H 826.782 -1.41127 -0.286203 0
M  V30 8630 H 828.735 -2.92355 -3.03491 0
M  V30 8631 H 827.459 -1.70629 -2.78484 0
M  V30 8632 H 826.118 -3.36786 -1.44813 0
M  V30 8633 H 825.766 -3.15779 -3.91526 0
M  V30 8634 H 825.466 -4.82269 -3.35694 0
M  V30 8635 H 826.99 -4.4297 -4.2025 0
M  V30 8636 H 828.404 -5.3281 -2.11629 0
M  V30 8637 H 826.801 -5.81283 -1.49098 0
M  V30 8638 H 827.871 -4.82522 -0.479676 0
M  V30 8639 N 829.214 0.302327 -1.54673 0
M  V30 8640 C 830.46 1.03924 -1.74149 0
M  V30 8641 C 830.793 1.86968 -0.525041 0
M  V30 8642 O 830.068 1.88538 0.477868 0
M  V30 8643 C 830.351 1.94633 -3.02969 0
M  V30 8644 C 830.204 1.14778 -4.34909 0
M  V30 8645 C 831.523 2.93826 -3.27649 0
M  V30 8646 H 828.642 0.376405 -0.633631 0
M  V30 8647 H 831.284 0.314007 -1.87387 0
M  V30 8648 H 829.434 2.56471 -2.91813 0
M  V30 8649 H 831.106 0.552363 -4.57981 0
M  V30 8650 H 829.349 0.450462 -4.31455 0
M  V30 8651 H 830.02 1.81495 -5.21309 0
M  V30 8652 H 832.496 2.42117 -3.38406 0
M  V30 8653 H 831.372 3.54462 -4.19104 0
M  V30 8654 H 831.633 3.67416 -2.45882 0
M  V30 8655 N 830.692 1.47107 0.565454 0
M  V30 8656 C 831.94 1.53005 1.32038 0
M  V30 8657 C 832.261 0.190453 1.94068 0
M  V30 8658 O 831.531 -0.784783 1.79494 0
M  V30 8659 H 830.111 0.563578 0.490294 0
M  V30 8660 H 832.773 1.83351 0.660928 0
M  V30 8661 H 831.869 2.29215 2.11818 0
M  V30 8662 N 832.17 -0.811516 1.35101 0
M  V30 8663 C 833.398 -1.59981 1.31201 0
M  V30 8664 C 833.813 -1.8847 -0.111552 0
M  V30 8665 O 833.17 -1.48414 -1.06205 0
M  V30 8666 C 833.221 -2.934 2.11184 0
M  V30 8667 O 832.942 -2.66148 3.4799 0
M  V30 8668 C 834.443 -3.87776 2.14813 0
M  V30 8669 H 831.663 -0.496921 0.450899 0
M  V30 8670 H 834.207 -1.00886 1.77883 0
M  V30 8671 H 832.362 -3.49022 1.68115 0
M  V30 8672 H 832.776 -3.51301 3.89471 0
M  V30 8673 H 834.25 -4.7852 2.75178 0
M  V30 8674 H 834.727 -4.23997 1.14556 0
M  V30 8675 H 835.333 -3.3809 2.58022 0
M  V30 8676 N 833.648 -1.19017 -1.03309 0
M  V30 8677 C 835.059 -0.993206 -1.5809 0
M  V30 8678 C 835.41 0.45505 -1.9085 0
M  V30 8679 O 834.535 1.33372 -1.70414 0
M  V30 8680 C 835.13 -1.79661 -2.87241 0
M  V30 8681 C 833.689 -1.64377 -3.38611 0
M  V30 8682 C 832.836 -1.78628 -2.12102 0
M  V30 8683 H 835.787 -1.3345 -0.858879 0
M  V30 8684 H 835.808 -1.29019 -3.57958 0
M  V30 8685 H 835.32 -2.85061 -2.63366 0
M  V30 8686 H 833.421 -0.615447 -3.67482 0
M  V30 8687 H 833.534 -2.44651 -4.11926 0
M  V30 8688 H 831.898 -1.21648 -2.23772 0
M  V30 8689 H 832.681 -2.8548 -1.90673 0
M  V30 8690 N 835.127 1.22348 -0.993418 0
M  V30 8691 C 836.357 1.94842 -0.687023 0
M  V30 8692 C 836.765 1.73594 0.752445 0
M  V30 8693 O 836.108 1.03238 1.51946 0
M  V30 8694 C 836.17 3.47694 -0.913754 0
M  V30 8695 C 835.834 3.92678 -2.33781 0
M  V30 8696 C 836.831 4.0031 -3.31734 0
M  V30 8697 C 834.516 4.25311 -2.67237 0
M  V30 8698 C 836.51 4.39951 -4.61218 0
M  V30 8699 C 834.197 4.64631 -3.9694 0
M  V30 8700 C 835.195 4.71919 -4.93742 0
M  V30 8701 O 834.883 5.10349 -6.21127 0
M  V30 8702 H 834.615 0.626771 -0.253247 0
M  V30 8703 H 837.169 1.56436 -1.33105 0
M  V30 8704 H 835.399 3.86115 -0.212552 0
M  V30 8705 H 837.088 4.01403 -0.602528 0
M  V30 8706 H 837.854 3.75288 -3.07219 0
M  V30 8707 H 833.733 4.18842 -1.92594 0
M  V30 8708 H 837.277 4.45555 -5.36774 0
M  V30 8709 H 833.174 4.89104 -4.21245 0
M  V30 8710 H 833.942 5.2842 -6.25072 0
M  V30 8711 N 836.605 0.766683 1.37694 0
M  V30 8712 C 837.851 0.338201 2.00569 0
M  V30 8713 C 838.206 -1.07196 1.59771 0
M  V30 8714 O 837.499 -1.72622 0.831402 0
M  V30 8715 C 837.693 0.413831 3.54996 0
M  V30 8716 C 837.522 1.8298 4.1079 0
M  V30 8717 C 836.292 2.44932 4.41969 0
M  V30 8718 C 838.49 2.78852 4.32141 0
M  V30 8719 N 836.472 3.78353 4.83448 0
M  V30 8720 C 837.843 3.97063 4.76174 0
M  V30 8721 C 839.898 2.76205 4.14265 0
M  V30 8722 C 838.601 5.13003 5.04203 0
M  V30 8723 C 840.627 3.91314 4.43427 0
M  V30 8724 C 839.989 5.08265 4.87694 0
M  V30 8725 H 836.088 0.170693 0.763143 0
M  V30 8726 H 838.672 0.999435 1.67091 0
M  V30 8727 H 836.843 -0.217198 3.87792 0
M  V30 8728 H 838.575 -0.036222 4.04684 0
M  V30 8729 H 835.33 1.9659 4.3087 0
M  V30 8730 H 835.754 4.46937 5.08504 0
M  V30 8731 H 840.396 1.86962 3.79216 0
M  V30 8732 H 838.114 6.0285 5.38142 0
M  V30 8733 H 841.7 3.906 4.31187 0
M  V30 8734 H 840.58 5.95858 5.09827 0
M  V30 8735 N 838.083 -1.48885 0.516809 0
M  V30 8736 C 839.016 -2.26218 -0.30011 0
M  V30 8737 C 839.994 -1.31491 -0.956496 0
M  V30 8738 O 841.178 -1.6081 -0.983488 0
M  V30 8739 C 838.305 -3.07315 -1.42392 0
M  V30 8740 C 837.351 -4.17316 -0.880295 0
M  V30 8741 S 838.184 -5.34955 0.24146 0
M  V30 8742 C 839.34 -6.1961 -0.885138 0
M  V30 8743 H 839.573 -2.95158 0.356217 0
M  V30 8744 H 837.106 -1.5141 0.302365 0
M  V30 8745 H 839.064 -3.54619 -2.06775 0
M  V30 8746 H 837.725 -2.37813 -2.05192 0
M  V30 8747 H 836.918 -4.73635 -1.72297 0
M  V30 8748 H 836.52 -3.72685 -0.313396 0
M  V30 8749 H 838.812 -6.53513 -1.78682 0
M  V30 8750 H 839.755 -7.07183 -0.360226 0
M  V30 8751 H 840.163 -5.52461 -1.1596 0
M  V30 8752 N 839.561 -0.251338 -1.55583 0
M  V30 8753 C 840.524 0.63305 -2.20284 0
M  V30 8754 C 841.524 1.09941 -1.17344 0
M  V30 8755 O 842.714 1.00341 -1.42399 0
M  V30 8756 C 839.846 1.8706 -2.84993 0
M  V30 8757 H 841.039 0.0684846 -2.99822 0
M  V30 8758 H 838.592 -0.00181653 -1.563 0
M  V30 8759 H 839.327 2.47629 -2.09405 0
M  V30 8760 H 839.112 1.54436 -3.60405 0
M  V30 8761 H 840.602 2.50004 -3.34496 0
M  V30 8762 N 841.039 1.57585 0.0217189 0
M  V30 8763 C 842.45 1.7787 0.567377 0
M  V30 8764 C 842.801 0.883337 1.7519 0
M  V30 8765 O 841.926 0.0800819 2.16252 0
M  V30 8766 C 842.521 3.2257 1.03606 0
M  V30 8767 C 841.08 3.44026 1.52718 0
M  V30 8768 C 840.227 2.73313 0.468545 0
M  V30 8769 H 843.178 1.57377 -0.2045 0
M  V30 8770 H 843.199 3.29488 1.9031 0
M  V30 8771 H 842.711 3.87711 0.173739 0
M  V30 8772 H 840.812 2.8407 2.41111 0
M  V30 8773 H 840.925 4.52659 1.56962 0
M  V30 8774 H 839.289 2.37299 0.925263 0
M  V30 8775 H 840.072 3.41141 -0.384438 0
M  V30 8776 N 842.517 -0.29412 1.54831 0
M  V30 8777 C 843.427 -1.3854 1.89325 0
M  V30 8778 C 844.443 -1.55127 0.788133 0
M  V30 8779 O 845.619 -1.6966 1.08524 0
M  V30 8780 C 842.684 -2.72809 2.13954 0
M  V30 8781 C 841.745 -2.65148 3.37631 0
M  V30 8782 C 840.978 -3.93014 3.61076 0
M  V30 8783 O 841.201 -4.927 2.87406 0
M  V30 8784 O 840.135 -3.94491 4.54599 0
M  V30 8785 H 843.961 -1.12289 2.82179 0
M  V30 8786 H 841.546 -0.490793 1.41108 0
M  V30 8787 H 843.428 -3.52238 2.31315 0
M  V30 8788 H 842.103 -2.9889 1.24285 0
M  V30 8789 H 841.01 -1.84168 3.25627 0
M  V30 8790 H 842.343 -2.4402 4.27452 0
M  V30 8791 N 843.995 -1.47404 -0.557645 0
M  V30 8792 C 845.241 -1.54235 -1.31679 0
M  V30 8793 C 845.574 -0.203782 -1.93128 0
M  V30 8794 O 844.849 0.787536 -1.77843 0
M  V30 8795 C 845.132 -2.66003 -2.42723 0
M  V30 8796 C 844.985 -4.09475 -1.86145 0
M  V30 8797 C 846.304 -2.73685 -3.44652 0
M  V30 8798 H 843.423 -0.561466 -0.477415 0
M  V30 8799 H 846.065 -1.79459 -0.624067 0
M  V30 8800 H 844.215 -2.44627 -3.01811 0
M  V30 8801 H 845.887 -4.42213 -1.31321 0
M  V30 8802 H 844.13 -4.17774 -1.16823 0
M  V30 8803 H 844.801 -4.83451 -2.66418 0
M  V30 8804 H 847.277 -2.92968 -2.95481 0
M  V30 8805 H 846.153 -3.53665 -4.19777 0
M  V30 8806 H 846.414 -1.80726 -4.03473 0
M  V30 8807 N 845.473 0.80434 -1.35529 0
M  V30 8808 C 846.722 1.55665 -1.28263 0
M  V30 8809 C 847.035 1.95096 0.140352 0
M  V30 8810 O 848.241 2.69422 0.335303 0
M  V30 8811 C 846.697 2.80935 -2.24952 0
M  V30 8812 C 846.305 2.48733 -3.72607 0
M  V30 8813 C 848.049 3.5894 -2.26632 0
M  V30 8814 C 845.956 3.70308 -4.61114 0
M  V30 8815 H 844.886 0.584301 -0.476559 0
M  V30 8816 H 847.537 0.88395 -1.60806 0
M  V30 8817 H 845.919 3.49927 -1.85383 0
M  V30 8818 H 847.093 1.87733 -4.20824 0
M  V30 8819 H 845.408 1.83969 -3.73557 0
M  V30 8820 H 848.005 4.49244 -2.89973 0
M  V30 8821 H 848.348 3.96433 -1.27069 0
M  V30 8822 H 848.881 2.96912 -2.64742 0
M  V30 8823 H 845.62 3.37922 -5.61684 0
M  V30 8824 H 845.14 4.30526 -4.17621 0
M  V30 8825 H 846.819 4.37511 -4.76648 0
M  V30 8826 N 846.951 1.19563 1.02676 0
M  V30 8827 C 848.176 1.02556 1.80269 0
M  V30 8828 C 848.601 -0.421056 1.83327 0
M  V30 8829 O 847.959 -1.30279 1.26084 0
M  V30 8830 C 848.007 1.60165 3.23078 0
M  V30 8831 O 847.111 0.832404 4.03912 0
M  V30 8832 H 846.452 0.362354 0.556413 0
M  V30 8833 H 848.982 1.58633 1.29216 0
M  V30 8834 H 848.992 1.6347 3.7382 0
M  V30 8835 H 847.667 2.65454 3.20167 0
M  V30 8836 H 846.244 0.872768 3.62543 0
M  V30 8837 N 848.429 -1.21819 0.999893 0
M  V30 8838 C 849.845 -1.42847 0.711824 0
M  V30 8839 C 850.045 -1.88391 -0.714928 0
M  V30 8840 O 849.101 -2.0422 -1.48494 0
M  V30 8841 C 850.414 -2.46417 1.72334 0
M  V30 8842 C 851.962 -2.60207 1.73958 0
M  V30 8843 C 852.437 -3.67005 2.73992 0
M  V30 8844 N 853.928 -3.7447 2.72628 0
M  V30 8845 C 854.663 -4.56718 3.46693 0
M  V30 8846 N 854.159 -5.42904 4.3038 0
M  V30 8847 N 855.952 -4.51094 3.35366 0
M  V30 8848 H 848.103 -0.905656 1.92124 0
M  V30 8849 H 850.366 -0.459893 0.828977 0
M  V30 8850 H 850.072 -2.19914 2.74465 0
M  V30 8851 H 849.946 -3.45137 1.52186 0
M  V30 8852 H 852.333 -2.8605 0.725217 0
M  V30 8853 H 852.414 -1.61739 1.98177 0
M  V30 8854 H 852.058 -3.41908 3.75582 0
M  V30 8855 H 851.988 -4.65058 2.4704 0
M  V30 8856 H 854.479 -3.12895 2.11909 0
M  V30 8857 H 854.792 -6.02704 4.83702 0
M  V30 8858 H 853.137 -5.42463 4.34464 0
M  V30 8859 H 856.328 -3.82791 2.69423 0
M  V30 8860 H 856.501 -5.1496 3.93344 0
M  V30 8861 N 849.908 -0.773975 -1.37286 0
M  V30 8862 C 851.133 -0.349561 -2.04433 0
M  V30 8863 C 851.558 1.02082 -1.5799 0
M  V30 8864 O 850.916 1.65458 -0.741172 0
M  V30 8865 C 850.964 -0.404292 -3.58326 0
M  V30 8866 O 850.068 0.594447 -4.08093 0
M  V30 8867 H 849.409 -0.150959 -0.646612 0
M  V30 8868 H 851.939 -1.05079 -1.75555 0
M  V30 8869 H 851.949 -0.262378 -4.07155 0
M  V30 8870 H 850.624 -1.40403 -3.91484 0
M  V30 8871 H 849.201 0.415468 -3.70578 0
M  V30 8872 N 851.386 1.48609 -0.524698 0
M  V30 8873 C 852.316 2.32366 0.229837 0
M  V30 8874 C 853.297 1.41759 0.940129 0
M  V30 8875 O 854.482 1.7065 0.926936 0
M  V30 8876 C 851.612 3.22835 1.28043 0
M  V30 8877 C 850.566 4.22424 0.688603 0
M  V30 8878 C 849.892 5.0199 1.84146 0
M  V30 8879 C 851.192 5.21217 -0.336176 0
M  V30 8880 H 852.886 2.95698 -0.469339 0
M  V30 8881 H 850.432 1.42197 -0.227156 0
M  V30 8882 H 852.385 3.80253 1.8162 0
M  V30 8883 H 851.109 2.57492 2.00912 0
M  V30 8884 H 849.768 3.66185 0.174402 0
M  V30 8885 H 849.416 4.33076 2.5584 0
M  V30 8886 H 849.116 5.69392 1.45142 0
M  V30 8887 H 850.64 5.62259 2.38111 0
M  V30 8888 H 852.054 5.7319 0.112307 0
M  V30 8889 H 850.451 5.96642 -0.643324 0
M  V30 8890 H 851.521 4.68676 -1.24381 0
M  V30 8891 N 852.864 0.259585 1.55447 0
M  V30 8892 C 854.094 -0.364863 2.03353 0
M  V30 8893 C 854.502 -1.5116 1.13786 0
M  V30 8894 O 853.845 -1.83109 0.147283 0
M  V30 8895 C 853.907 -0.922587 3.4746 0
M  V30 8896 C 853.571 0.0935207 4.56904 0
M  V30 8897 C 854.568 0.907571 5.11917 0
M  V30 8898 C 852.253 0.223276 5.01804 0
M  V30 8899 C 854.247 1.83771 6.10333 0
M  V30 8900 C 851.934 1.15691 6.00049 0
M  V30 8901 C 852.932 1.96264 6.54194 0
M  V30 8902 O 852.62 2.88052 7.50521 0
M  V30 8903 H 852.352 -0.0893313 0.670072 0
M  V30 8904 H 854.906 0.384821 2.01763 0
M  V30 8905 H 853.136 -1.72206 3.4624 0
M  V30 8906 H 854.825 -1.45846 3.78792 0
M  V30 8907 H 855.591 0.817979 4.78052 0
M  V30 8908 H 851.47 -0.393834 4.59315 0
M  V30 8909 H 855.014 2.46703 6.52521 0
M  V30 8910 H 850.911 1.24738 6.33333 0
M  V30 8911 H 851.679 2.82557 7.68182 0
M  V30 8912 N 854.342 -1.57594 -0.0133615 0
M  V30 8913 C 855.305 -2.06534 -0.993799 0
M  V30 8914 C 856.305 -0.972267 -1.28077 0
M  V30 8915 O 857.495 -1.23537 -1.22818 0
M  V30 8916 C 854.627 -2.49554 -2.3224 0
M  V30 8917 H 855.82 -2.94419 -0.570741 0
M  V30 8918 H 853.373 -1.54113 -0.260546 0
M  V30 8919 H 854.108 -1.64872 -2.79263 0
M  V30 8920 H 853.893 -3.29371 -2.12737 0
M  V30 8921 H 855.383 -2.8779 -3.026 0
M  V30 8922 N 855.82 0.285905 -1.54985 0
M  V30 8923 C 857.048 1.03776 -1.78992 0
M  V30 8924 C 857.463 1.80402 -0.556814 0
M  V30 8925 O 856.82 1.76242 0.473801 0
M  V30 8926 C 856.871 2.0065 -3.00702 0
M  V30 8927 O 856.592 1.27131 -4.19249 0
M  V30 8928 C 858.093 2.87753 -3.37214 0
M  V30 8929 H 855.313 0.307126 -0.596586 0
M  V30 8930 H 857.857 0.3206 -2.01971 0
M  V30 8931 H 856.012 2.67847 -2.79887 0
M  V30 8932 H 856.426 1.92316 -4.8797 0
M  V30 8933 H 857.9 3.51548 -4.2558 0
M  V30 8934 H 858.377 3.56848 -2.56039 0
M  V30 8935 H 858.983 2.26065 -3.60242 0
M  V30 8936 N 857.298 1.47698 0.54982 0
M  V30 8937 C 858.208 1.63386 1.68351 0
M  V30 8938 C 859.224 0.516583 1.66155 0
M  V30 8939 O 860.4 0.785088 1.85468 0
M  V30 8940 C 857.465 1.6513 3.04849 0
M  V30 8941 C 856.526 2.88338 3.18056 0
M  V30 8942 C 855.759 2.8999 4.48042 0
M  V30 8943 O 855.982 2.00633 5.3395 0
M  V30 8944 O 854.916 3.81938 4.65196 0
M  V30 8945 H 858.742 2.59329 1.58057 0
M  V30 8946 H 856.327 1.30869 0.72067 0
M  V30 8947 H 858.209 1.68913 3.86065 0
M  V30 8948 H 856.884 0.723555 3.1551 0
M  V30 8949 H 855.791 2.90097 2.36209 0
M  V30 8950 H 857.124 3.80431 3.12302 0
M  V30 8951 N 858.776 -0.797141 1.35954 0
M  V30 8952 C 860.022 -1.55698 1.29946 0
M  V30 8953 C 860.355 -1.93808 -0.123259 0
M  V30 8954 O 859.63 -1.62102 -1.07486 0
M  V30 8955 C 859.913 -2.83926 2.2149 0
M  V30 8956 C 859.766 -2.52232 3.72423 0
M  V30 8957 C 861.085 -3.85698 2.11955 0
M  V30 8958 H 858.204 -0.56488 0.47337 0
M  V30 8959 H 860.846 -0.916421 1.66438 0
M  V30 8960 H 858.996 -3.38588 1.905 0
M  V30 8961 H 860.668 -2.0368 4.13899 0
M  V30 8962 H 858.911 -1.85286 3.92239 0
M  V30 8963 H 859.582 -3.43782 4.31877 0
M  V30 8964 H 862.058 -3.40462 2.39218 0
M  V30 8965 H 860.934 -4.73182 2.78191 0
M  V30 8966 H 861.195 -4.28083 1.10442 0
M  V30 8967 N 860.254 -1.20106 -1.0204 0
M  V30 8968 C 861.531 -0.918029 -1.72718 0
M  V30 8969 C 861.911 0.574163 -2.03142 0
M  V30 8970 O 861.259 1.53476 -1.69285 0
M  V30 8971 C 861.469 -1.78698 -2.9978 0
M  V30 8972 C 862.817 -2.02648 -3.7312 0
M  V30 8973 O 863.841 -1.75919 -3.09727 0
M  V30 8974 O 862.7 -2.47767 -4.87107 0
M  V30 8975 H 859.794 -0.342904 -0.752559 0
M  V30 8976 H 862.34 -1.30961 -1.07923 0
M  V30 8977 H 861.112 -2.79757 -2.7359 0
M  V30 8978 H 860.735 -1.39522 -3.72316 0
M  V30 8979 N 861.732 1.21287 -1.00634 0
M  V30 8980 C 862.981 1.89706 -0.685178 0
M  V30 8981 C 863.294 1.79044 0.787566 0
M  V30 8982 O 864.5 2.42502 1.22086 0
M  V30 8983 C 862.956 3.40176 -1.17508 0
M  V30 8984 C 862.564 3.59446 -2.674 0
M  V30 8985 C 864.308 4.14213 -0.928869 0
M  V30 8986 C 862.215 5.03688 -3.09923 0
M  V30 8987 H 861.145 0.710434 -0.252586 0
M  V30 8988 H 863.796 1.37277 -1.21768 0
M  V30 8989 H 862.178 3.91867 -0.570622 0
M  V30 8990 H 863.352 3.18188 -3.33306 0
M  V30 8991 H 861.667 2.98764 -2.9005 0
M  V30 8992 H 864.264 5.20546 -1.22212 0
M  V30 8993 H 864.607 4.16082 0.134859 0
M  V30 8994 H 865.14 3.68591 -1.49619 0
M  V30 8995 H 861.879 5.06968 -4.15529 0
M  V30 8996 H 861.399 5.45796 -2.4873 0
M  V30 8997 H 863.078 5.72204 -3.0198 0
M  V30 8998 N 863.21 0.781244 1.36873 0
M  V30 8999 C 864.456 0.359455 2.00199 0
M  V30 9000 C 864.811 -1.05495 1.60899 0
M  V30 9001 O 864.104 -1.7173 0.849664 0
M  V30 9002 C 864.298 0.45146 3.54537 0
M  V30 9003 C 864.127 1.87326 4.08826 0
M  V30 9004 C 862.897 2.49606 4.39346 0
M  V30 9005 C 865.095 2.8342 4.29159 0
M  V30 9006 N 863.077 3.8346 4.79408 0
M  V30 9007 C 864.448 4.02091 4.71935 0
M  V30 9008 C 866.503 2.80583 4.11312 0
M  V30 9009 C 865.206 5.18322 4.98733 0
M  V30 9010 C 867.232 3.95995 4.39251 0
M  V30 9011 C 866.594 5.13409 4.82276 0
M  V30 9012 H 862.693 0.178778 0.76129 0
M  V30 9013 H 865.277 1.0171 1.66022 0
M  V30 9014 H 863.448 -0.176055 3.88001 0
M  V30 9015 H 865.18 0.00670219 4.04699 0
M  V30 9016 H 861.935 2.01149 4.28761 0
M  V30 9017 H 862.359 4.52306 5.03735 0
M  V30 9018 H 867.001 1.90974 3.77212 0
M  V30 9019 H 864.719 6.08524 5.31718 0
M  V30 9020 H 868.305 3.95152 4.2702 0
M  V30 9021 H 867.185 6.01232 5.03478 0
M  V30 9022 N 864.689 -1.48329 0.532571 0
M  V30 9023 C 865.914 -2.074 0.00147755 0
M  V30 9024 C 866.339 -1.38615 -1.27151 0
M  V30 9025 O 865.697 -0.452949 -1.75551 0
M  V30 9026 C 865.745 -3.60029 -0.202866 0
M  V30 9027 O 864.849 -3.92327 -1.27097 0
M  V30 9028 H 864.19 -0.662777 0.0402883 0
M  V30 9029 H 866.72 -1.90701 0.741224 0
M  V30 9030 H 866.73 -4.05783 -0.424722 0
M  V30 9031 H 865.405 -4.09496 0.727033 0
M  V30 9032 H 863.982 -3.58348 -1.03156 0
M  V30 9033 N 866.167 -0.267825 -1.55308 0
M  V30 9034 C 867.097 0.616585 -2.25212 0
M  V30 9035 C 868.078 1.16472 -1.23969 0
M  V30 9036 O 869.263 1.20021 -1.52672 0
M  V30 9037 C 866.393 1.80412 -2.96764 0
M  V30 9038 C 865.347 1.38784 -4.04874 0
M  V30 9039 C 864.673 2.65789 -4.63961 0
M  V30 9040 C 865.973 0.543415 -5.19465 0
M  V30 9041 H 867.667 0.0336257 -2.99381 0
M  V30 9042 H 865.213 0.0147328 -1.43992 0
M  V30 9043 H 867.166 2.42866 -3.44375 0
M  V30 9044 H 865.89 2.4128 -2.20118 0
M  V30 9045 H 864.549 0.786541 -3.58063 0
M  V30 9046 H 864.197 3.24899 -3.83992 0
M  V30 9047 H 863.897 2.38651 -5.36954 0
M  V30 9048 H 865.421 3.29104 -5.14318 0
M  V30 9049 H 866.835 1.07277 -5.63174 0
M  V30 9050 H 865.232 0.367219 -5.98975 0
M  V30 9051 H 866.302 -0.439534 -4.82904 0
M  V30 9052 N 867.645 1.57599 0.00500368 0
M  V30 9053 C 868.893 1.89973 0.68953 0
M  V30 9054 C 869.214 0.868531 1.7459 0
M  V30 9055 O 868.484 -0.0947367 1.95671 0
M  V30 9056 H 867.064 0.701153 0.25767 0
M  V30 9057 H 869.726 1.94869 -0.0347392 0
M  V30 9058 H 868.822 2.89584 1.16394 0
M  V30 9059 N 869.123 -0.277682 1.55134 0
M  V30 9060 C 870.372 -1.00766 1.74726 0
M  V30 9061 C 870.685 -1.87617 0.553092 0
M  V30 9062 O 871.891 -2.64058 0.631318 0
M  V30 9063 C 870.347 -1.84147 3.09221 0
M  V30 9064 C 869.955 -1.02186 4.3619 0
M  V30 9065 C 871.699 -2.56604 3.38164 0
M  V30 9066 C 869.606 -1.84978 5.61727 0
M  V30 9067 H 868.536 -0.379948 0.651273 0
M  V30 9068 H 871.187 -0.263543 1.81598 0
M  V30 9069 H 869.569 -2.62637 2.96375 0
M  V30 9070 H 870.743 -0.281459 4.5994 0
M  V30 9071 H 869.058 -0.412054 4.14356 0
M  V30 9072 H 871.655 -3.18942 4.29162 0
M  V30 9073 H 871.998 -3.26647 2.58085 0
M  V30 9074 H 872.531 -1.85147 3.52087 0
M  V30 9075 H 869.27 -1.19365 6.4454 0
M  V30 9076 H 868.79 -2.56628 5.42128 0
M  V30 9077 H 870.469 -2.42458 5.99853 0
M  V30 9078 N 870.601 -1.47988 -0.541979 0
M  V30 9079 C 871.534 -1.56172 -1.66389 0
M  V30 9080 C 872.512 -0.412879 -1.57271 0
M  V30 9081 O 873.696 -0.622816 -1.77914 0
M  V30 9082 C 870.823 -1.47851 -3.04726 0
M  V30 9083 C 869.869 -2.67428 -3.32242 0
M  V30 9084 S 870.702 -4.29502 -3.19825 0
M  V30 9085 C 871.858 -4.2376 -4.60628 0
M  V30 9086 H 872.091 -2.51086 -1.59195 0
M  V30 9087 H 869.624 -1.36373 -0.724005 0
M  V30 9088 H 871.582 -1.43738 -3.84512 0
M  V30 9089 H 870.243 -0.542958 -3.09372 0
M  V30 9090 H 869.436 -2.57711 -4.33129 0
M  V30 9091 H 869.038 -2.68743 -2.60103 0
M  V30 9092 H 871.33 -3.92953 -5.51901 0
M  V30 9093 H 872.273 -5.24786 -4.75401 0
M  V30 9094 H 872.681 -3.54398 -4.39389 0
M  V30 9095 N 872.079 0.78992 -1.36375 0
M  V30 9096 C 873.325 1.55007 -1.3077 0
M  V30 9097 C 873.658 1.93871 0.112979 0
M  V30 9098 O 872.933 1.6267 1.06625 0
M  V30 9099 C 873.216 2.82748 -2.22993 0
M  V30 9100 C 873.069 2.50253 -3.73756 0
M  V30 9101 C 874.388 3.84569 -2.13998 0
M  V30 9102 H 871.507 0.562362 -0.476359 0
M  V30 9103 H 874.149 0.907582 -1.66922 0
M  V30 9104 H 872.299 3.37573 -1.92292 0
M  V30 9105 H 873.971 2.01482 -4.14973 0
M  V30 9106 H 872.214 1.83203 -3.93216 0
M  V30 9107 H 872.885 3.41487 -4.33694 0
M  V30 9108 H 875.361 3.39188 -2.4102 0
M  V30 9109 H 874.237 4.717 -2.80697 0
M  V30 9110 H 874.498 4.27491 -1.12711 0
M  V30 9111 N 873.557 1.20646 1.01402 0
M  V30 9112 C 874.806 1.01242 1.7445 0
M  V30 9113 C 875.119 -0.455732 1.90217 0
M  V30 9114 O 876.325 -0.768951 2.60383 0
M  V30 9115 C 874.781 1.76275 3.13776 0
M  V30 9116 C 874.389 3.27201 3.06013 0
M  V30 9117 C 876.133 1.65248 3.91016 0
M  V30 9118 C 874.04 3.9476 4.40362 0
M  V30 9119 H 872.97 0.375202 0.654018 0
M  V30 9120 H 875.621 1.44292 1.13367 0
M  V30 9121 H 874.003 1.26013 3.75415 0
M  V30 9122 H 875.177 3.84695 2.53665 0
M  V30 9123 H 873.492 3.38669 2.42265 0
M  V30 9124 H 876.089 2.13061 4.90417 0
M  V30 9125 H 876.432 0.609128 4.1182 0
M  V30 9126 H 876.965 2.12937 3.3601 0
M  V30 9127 H 873.704 4.99258 4.24761 0
M  V30 9128 H 873.224 3.42054 4.92706 0
M  V30 9129 H 874.903 3.99159 5.09196 0
M  V30 9130 N 875.035 -1.20752 1.01276 0
M  V30 9131 C 875.945 -2.27079 0.589277 0
M  V30 9132 C 876.961 -1.6999 -0.371389 0
M  V30 9133 O 878.137 -2.00044 -0.233294 0
M  V30 9134 C 875.202 -3.4663 -0.0696715 0
M  V30 9135 C 874.263 -4.18962 0.936454 0
M  V30 9136 C 873.496 -5.32806 0.308856 0
M  V30 9137 O 873.719 -5.63376 -0.8924 0
M  V30 9138 O 872.653 -5.93131 1.02367 0
M  V30 9139 H 876.479 -2.6551 1.47438 0
M  V30 9140 H 874.064 -1.27297 0.782045 0
M  V30 9141 H 875.946 -4.19119 -0.437873 0
M  V30 9142 H 874.621 -3.10082 -0.929029 0
M  V30 9143 H 873.528 -3.48661 1.35595 0
M  V30 9144 H 874.861 -4.59441 1.76565 0
M  V30 9145 N 876.513 -0.788492 -1.36457 0
M  V30 9146 C 877.446 -0.132189 -2.27817 0
M  V30 9147 C 878.424 0.691166 -1.47179 0
M  V30 9148 O 879.608 0.662344 -1.7648 0
M  V30 9149 C 876.735 0.818386 -3.28664 0
M  V30 9150 C 875.781 0.0769392 -4.26431 0
M  V30 9151 S 876.614 -1.24666 -5.20786 0
M  V30 9152 C 877.77 -0.300063 -6.2518 0
M  V30 9153 H 878.003 -0.906824 -2.83132 0
M  V30 9154 H 875.536 -0.582666 -1.42984 0
M  V30 9155 H 877.494 1.36138 -3.87268 0
M  V30 9156 H 876.155 1.56626 -2.72263 0
M  V30 9157 H 875.348 0.79819 -4.97639 0
M  V30 9158 H 874.95 -0.395547 -3.71902 0
M  V30 9159 H 877.242 0.521434 -6.7549 0
M  V30 9160 H 878.185 -0.980808 -7.01274 0
M  V30 9161 H 878.593 0.0961898 -5.64418 0
M  V30 9162 N 877.991 1.48044 -0.54043 0
M  V30 9163 C 879.237 2.02797 -0.0101718 0
M  V30 9164 C 879.57 1.41565 1.32939 0
M  V30 9165 O 878.845 0.565139 1.86109 0
M  V30 9166 C 879.128 3.59959 0.100758 0
M  V30 9167 C 878.981 4.31654 -1.26471 0
M  V30 9168 C 880.3 4.32347 0.822455 0
M  V30 9169 H 877.419 0.736982 -0.00517052 0
M  V30 9170 H 880.061 1.76656 -0.69948 0
M  V30 9171 H 878.211 3.82363 0.687824 0
M  V30 9172 H 879.883 4.20639 -1.89369 0
M  V30 9173 H 878.126 3.92663 -1.84386 0
M  V30 9174 H 878.797 5.401 -1.13998 0
M  V30 9175 H 881.273 4.14835 0.324164 0
M  V30 9176 H 880.149 5.41978 0.868993 0
M  V30 9177 H 880.41 4.00369 1.87501 0
M  V30 9178 N 879.47 0.276058 1.55163 0
M  V30 9179 C 880.747 -0.392292 1.91626 0
M  V30 9180 C 881.127 -1.73646 1.20043 0
M  V30 9181 O 880.475 -2.26139 0.327606 0
M  V30 9182 C 880.685 -0.531641 3.44927 0
M  V30 9183 C 882.033 -0.8141 4.16722 0
M  V30 9184 O 883.057 -0.616413 3.50826 0
M  V30 9185 O 881.916 -1.19224 5.33337 0
M  V30 9186 H 879.01 -0.214945 0.798579 0
M  V30 9187 H 881.556 0.32228 1.66612 0
M  V30 9188 H 880.328 0.414282 3.89101 0
M  V30 9189 H 879.951 -1.29564 3.75897 0
M  V30 9190 N 880.948 -1.576 0.00335426 0
M  V30 9191 C 882.196 -1.90336 -0.679446 0
M  V30 9192 C 882.517 -0.877777 -1.74127 0
M  V30 9193 O 881.787 0.0843585 -1.95718 0
M  V30 9194 H 880.367 -0.702509 -0.253948 0
M  V30 9195 H 883.029 -1.94848 0.0450731 0
M  V30 9196 H 882.125 -2.90197 -1.14857 0
M  V30 9197 N 882.426 0.269451 -1.5528 0
M  V30 9198 C 883.336 1.35511 -1.91505 0
M  V30 9199 C 884.352 1.53854 -0.812712 0
M  V30 9200 O 885.528 1.67912 -1.1121 0
M  V30 9201 C 882.593 2.6937 -2.18267 0
M  V30 9202 C 881.654 2.59743 -3.41807 0
M  V30 9203 C 880.887 3.87219 -3.67283 0
M  V30 9204 O 881.11 4.88066 -2.95208 0
M  V30 9205 O 880.044 3.87209 -4.60818 0
M  V30 9206 H 883.87 1.07785 -2.8393 0
M  V30 9207 H 881.455 0.468282 -1.41871 0
M  V30 9208 H 883.337 3.48513 -2.36889 0
M  V30 9209 H 882.012 2.96874 -1.29024 0
M  V30 9210 H 880.919 1.78964 -3.28516 0
M  V30 9211 H 882.252 2.37188 -4.3128 0
M  V30 9212 N 883.904 1.48273 0.534124 0
M  V30 9213 C 885.315 1.49667 1.1161 0
M  V30 9214 C 885.666 0.264139 1.94414 0
M  V30 9215 O 884.791 -0.629084 2.07054 0
M  V30 9216 C 885.386 2.71191 2.03079 0
M  V30 9217 C 883.945 2.7547 2.56502 0
M  V30 9218 C 883.092 2.43119 1.33373 0
M  V30 9219 H 886.043 1.55449 0.319578 0
M  V30 9220 H 886.064 2.49473 2.87304 0
M  V30 9221 H 885.576 3.60879 1.42785 0
M  V30 9222 H 883.677 1.89979 3.20529 0
M  V30 9223 H 883.79 3.76787 2.95919 0
M  V30 9224 H 882.154 1.94187 1.64813 0
M  V30 9225 H 882.937 3.35044 0.748375 0
M  V30 9226 N 885.382 -0.782676 1.36792 0
M  V30 9227 C 886.793 -1.35828 1.28092 0
M  V30 9228 C 887.144 -1.96052 -0.076315 0
M  V30 9229 O 886.269 -1.93042 -0.977935 0
M  V30 9230 C 886.864 -2.46949 2.31952 0
M  V30 9231 C 885.423 -3.00307 2.2692 0
M  V30 9232 C 884.57 -1.73436 2.16368 0
M  V30 9233 H 887.521 -0.583788 1.47572 0
M  V30 9234 H 887.542 -3.26144 1.95986 0
M  V30 9235 H 887.054 -2.03087 3.30722 0
M  V30 9236 H 885.155 -3.48571 1.31639 0
M  V30 9237 H 885.268 -3.56663 3.19887 0
M  V30 9238 H 883.632 -1.95934 1.62733 0
M  V30 9239 H 884.415 -1.31693 3.17036 0
M  V30 9240 N 886.86 -1.21182 -1.00761 0
M  V30 9241 C 888.09 -1.05182 -1.77821 0
M  V30 9242 C 888.498 0.401527 -1.8489 0
M  V30 9243 O 887.841 1.29042 -1.30743 0
M  V30 9244 C 887.903 -1.57066 -3.23374 0
M  V30 9245 C 887.567 -3.05491 -3.39889 0
M  V30 9246 C 888.564 -4.03065 -3.28381 0
M  V30 9247 C 886.249 -3.44641 -3.65415 0
M  V30 9248 C 888.243 -5.37778 -3.4216 0
M  V30 9249 C 885.93 -4.79507 -3.78836 0
M  V30 9250 C 886.928 -5.75884 -3.67214 0
M  V30 9251 O 886.616 -7.08304 -3.80212 0
M  V30 9252 H 886.348 -0.369983 -0.565763 0
M  V30 9253 H 888.902 -1.60914 -1.27655 0
M  V30 9254 H 887.132 -0.957273 -3.74664 0
M  V30 9255 H 888.821 -1.36949 -3.82099 0
M  V30 9256 H 889.587 -3.74163 -3.08588 0
M  V30 9257 H 885.466 -2.7016 -3.73544 0
M  V30 9258 H 889.01 -6.12987 -3.33005 0
M  V30 9259 H 884.907 -5.08096 -3.98132 0
M  V30 9260 H 885.675 -7.15677 -3.97175 0
M  V30 9261 N 888.338 1.20213 -1.01915 0
M  V30 9262 C 889.585 1.89647 -0.709955 0
M  V30 9263 C 889.913 1.7901 0.760631 0
M  V30 9264 O 889.168 1.17028 1.56853 0
M  V30 9265 C 889.467 3.40232 -1.09438 0
M  V30 9266 C 889.133 3.7107 -2.5616 0
M  V30 9267 C 887.795 3.79196 -2.96249 0
M  V30 9268 C 890.147 3.85169 -3.51133 0
M  V30 9269 C 887.475 3.98882 -4.30244 0
M  V30 9270 C 889.827 4.06365 -4.8482 0
M  V30 9271 C 888.491 4.12722 -5.24611 0
M  V30 9272 H 887.761 0.693967 -0.259791 0
M  V30 9273 H 890.408 1.42419 -1.2802 0
M  V30 9274 H 888.713 3.89292 -0.442596 0
M  V30 9275 H 890.41 3.92257 -0.832811 0
M  V30 9276 H 887 3.65346 -2.24099 0
M  V30 9277 H 891.184 3.78243 -3.21319 0
M  V30 9278 H 886.44 4.02039 -4.60624 0
M  V30 9279 H 890.614 4.16216 -5.58334 0
M  V30 9280 H 888.241 4.27728 -6.28453 0
M  V30 9281 N 889.816 0.795718 1.36037 0
M  V30 9282 C 891.041 0.38204 2.03851 0
M  V30 9283 C 891.466 -0.995553 1.59594 0
M  V30 9284 O 890.824 -1.64258 0.767401 0
M  V30 9285 C 890.872 0.461248 3.57638 0
M  V30 9286 O 889.976 -0.529448 4.08987 0
M  V30 9287 H 889.317 0.161227 0.644129 0
M  V30 9288 H 891.847 1.07858 1.73861 0
M  V30 9289 H 891.857 0.32712 4.06687 0
M  V30 9290 H 890.532 1.46613 3.89201 0
M  V30 9291 H 889.109 -0.35646 3.71192 0
M  V30 9292 N 891.294 -1.47756 0.548274 0
M  V30 9293 C 892.571 -1.9555 -0.0443603 0
M  V30 9294 C 892.951 -1.49079 -1.49462 0
M  V30 9295 O 892.299 -0.725538 -2.16675 0
M  V30 9296 C 892.509 -3.48879 0.0918425 0
M  V30 9297 C 893.857 -4.2456 -0.0580879 0
M  V30 9298 O 894.881 -3.56195 0.018946 0
M  V30 9299 O 893.74 -5.46048 -0.222261 0
M  V30 9300 H 890.834 -0.824106 -0.0691235 0
M  V30 9301 H 893.38 -1.58196 0.614166 0
M  V30 9302 H 892.152 -3.7548 1.10137 0
M  V30 9303 H 891.775 -3.92975 -0.604704 0
M  V30 9304 N 892.772 -0.284283 -1.55015 0
M  V30 9305 C 893.997 0.335799 -2.04664 0
M  V30 9306 C 894.422 1.47999 -1.16094 0
M  V30 9307 O 893.78 1.8058 -0.161454 0
M  V30 9308 C 893.828 0.785615 -3.51938 0
M  V30 9309 O 892.932 1.89202 -3.66437 0
M  V30 9310 H 892.273 0.0680233 -0.660506 0
M  V30 9311 H 894.803 -0.421255 -2.00216 0
M  V30 9312 H 894.813 1.07892 -3.93476 0
M  V30 9313 H 893.488 -0.0514675 -4.15868 0
M  V30 9314 H 892.065 1.60055 -3.36804 0
M  V30 9315 N 894.251 1.57596 -0.0117121 0
M  V30 9316 C 895.662 1.79033 0.529521 0
M  V30 9317 C 896.013 0.920299 1.73277 0
M  V30 9318 O 895.138 0.125934 2.16033 0
M  V30 9319 C 895.733 3.24695 0.967405 0
M  V30 9320 C 894.292 3.47188 1.45387 0
M  V30 9321 C 893.439 2.74245 0.410466 0
M  V30 9322 H 896.39 1.56908 -0.237836 0
M  V30 9323 H 896.411 3.33451 1.83278 0
M  V30 9324 H 895.923 3.87992 0.0914605 0
M  V30 9325 H 894.024 2.89121 2.35032 0
M  V30 9326 H 894.137 4.55886 1.47325 0
M  V30 9327 H 892.501 2.39209 0.874721 0
M  V30 9328 H 893.284 3.40248 -0.456713 0
M  V30 9329 N 895.729 -0.261212 1.5542 0
M  V30 9330 C 896.975 -0.992699 1.76843 0
M  V30 9331 C 897.308 -1.8551 0.574428 0
M  V30 9332 O 896.583 -1.89739 -0.427713 0
M  V30 9333 C 896.866 -1.86532 3.08022 0
M  V30 9334 C 896.719 -1.03206 4.378 0
M  V30 9335 C 898.038 -2.85036 3.35324 0
M  V30 9336 H 895.157 -0.359473 0.643388 0
M  V30 9337 H 897.799 -0.264214 1.88154 0
M  V30 9338 H 895.949 -2.48644 2.9851 0
M  V30 9339 H 897.621 -0.430743 4.59285 0
M  V30 9340 H 895.864 -0.335911 4.32497 0
M  V30 9341 H 896.535 -1.6761 5.25938 0
M  V30 9342 H 899.011 -2.3306 3.44706 0
M  V30 9343 H 897.887 -3.43226 4.28354 0
M  V30 9344 H 898.148 -3.60768 2.55537 0
M  V30 9345 N 897.207 -1.48554 -0.526253 0
M  V30 9346 C 898.139 -1.59446 -1.6465 0
M  V30 9347 C 899.152 -0.478525 -1.55608 0
M  V30 9348 O 900.341 -0.74953 -1.62001 0
M  V30 9349 C 897.441 -1.51164 -3.03319 0
M  V30 9350 C 896.614 -2.77861 -3.37805 0
M  V30 9351 C 895.673 -2.62982 -4.5577 0
M  V30 9352 O 894.699 -3.36876 -4.58806 0
M  V30 9353 N 895.901 -1.72847 -5.5417 0
M  V30 9354 H 898.666 -2.56055 -1.55743 0
M  V30 9355 H 896.227 -1.45325 -0.713606 0
M  V30 9356 H 898.219 -1.389 -3.80117 0
M  V30 9357 H 896.789 -0.625147 -3.06285 0
M  V30 9358 H 896.009 -3.04663 -2.50149 0
M  V30 9359 H 897.297 -3.61908 -3.57632 0
M  V30 9360 H 896.695 -1.12022 -5.54498 0
M  V30 9361 H 895.252 -1.6652 -6.3017 0
M  V30 9362 N 898.685 0.775411 -1.37205 0
M  V30 9363 C 899.648 1.8702 -1.325 0
M  V30 9364 C 900.648 1.5915 -0.229793 0
M  V30 9365 O 901.838 1.673 -0.485423 0
M  V30 9366 C 898.97 3.24085 -1.05745 0
M  V30 9367 H 900.163 1.92604 -2.29878 0
M  V30 9368 H 897.716 0.97476 -1.22181 0
M  V30 9369 H 898.451 3.24178 -0.0888371 0
M  V30 9370 H 898.236 3.45705 -1.85016 0
M  V30 9371 H 899.726 4.0416 -1.05094 0
M  V30 9372 N 900.163 1.21714 1.00117 0
M  V30 9373 C 901.096 0.923113 2.08696 0
M  V30 9374 C 902.074 -0.130827 1.62073 0
M  V30 9375 O 903.258 -0.00103064 1.885 0
M  V30 9376 C 900.385 0.386807 3.36484 0
M  V30 9377 C 899.431 1.42414 4.0202 0
M  V30 9378 S 900.264 2.99466 4.43937 0
M  V30 9379 C 901.42 2.47452 5.74907 0
M  V30 9380 H 901.653 1.84258 2.33315 0
M  V30 9381 H 899.186 1.0473 1.1345 0
M  V30 9382 H 901.144 0.0839547 4.10414 0
M  V30 9383 H 899.805 -0.511413 3.09909 0
M  V30 9384 H 898.998 0.998593 4.94008 0
M  V30 9385 H 898.6 1.67527 3.34381 0
M  V30 9386 H 900.892 1.88177 6.50842 0
M  V30 9387 H 901.835 3.37898 6.22279 0
M  V30 9388 H 902.243 1.89027 5.31911 0
M  V30 9389 N 901.641 -1.19671 1.02551 0
M  V30 9390 C 902.588 -2.22773 0.603394 0
M  V30 9391 C 903.558 -1.61669 -0.381081 0
M  V30 9392 O 904.743 -1.88756 -0.278505 0
M  V30 9393 C 901.883 -3.45073 -0.0431034 0
M  V30 9394 C 900.996 -4.20574 0.987006 0
M  V30 9395 C 900.131 -5.30291 0.310626 0
M  V30 9396 C 899.17 -5.97545 1.32688 0
M  V30 9397 N 898.307 -6.98833 0.676542 0
M  V30 9398 H 903.147 -2.58238 1.48719 0
M  V30 9399 H 900.684 -1.26881 0.744286 0
M  V30 9400 H 902.642 -4.14925 -0.435141 0
M  V30 9401 H 901.272 -3.10274 -0.890495 0
M  V30 9402 H 900.324 -3.497 1.49713 0
M  V30 9403 H 901.636 -4.66736 1.75952 0
M  V30 9404 H 900.79 -6.06547 -0.136438 0
M  V30 9405 H 899.529 -4.8519 -0.49412 0
M  V30 9406 H 898.534 -5.20043 1.78424 0
M  V30 9407 H 899.759 -6.4473 2.13306 0
M  V30 9408 H 897.705 -6.55911 -0.108172 0
M  V30 9409 H 897.622 -7.43168 1.38699 0
M  V30 9410 H 898.89 -7.79088 0.253367 0
M  V30 9411 N 903.119 -0.802921 -1.35613 0
M  V30 9412 C 904.535 -0.486214 -1.52014 0
M  V30 9413 C 904.735 0.993219 -1.75321 0
M  V30 9414 O 903.791 1.77835 -1.79251 0
M  V30 9415 C 905.104 -1.32839 -2.69767 0
M  V30 9416 C 906.652 -1.32346 -2.83643 0
M  V30 9417 C 907.127 -2.14967 -4.04417 0
M  V30 9418 N 908.618 -2.12484 -4.11588 0
M  V30 9419 C 909.353 -2.73173 -5.04147 0
M  V30 9420 N 908.849 -3.42774 -6.02061 0
M  V30 9421 N 910.642 -2.62834 -4.96865 0
M  V30 9422 H 902.793 -1.76109 -1.18741 0
M  V30 9423 H 905.056 -0.74936 -0.580658 0
M  V30 9424 H 904.762 -2.37813 -2.5911 0
M  V30 9425 H 904.636 -0.979058 -3.64272 0
M  V30 9426 H 907.023 -0.281586 -2.93753 0
M  V30 9427 H 907.104 -1.71264 -1.90006 0
M  V30 9428 H 906.748 -3.19193 -3.95068 0
M  V30 9429 H 906.678 -1.73411 -4.97228 0
M  V30 9430 H 909.169 -1.61839 -3.41492 0
M  V30 9431 H 909.482 -3.86378 -6.69277 0
M  V30 9432 H 907.827 -3.46878 -6.02246 0
M  V30 9433 H 911.018 -2.08049 -4.19325 0
M  V30 9434 H 911.191 -3.10421 -5.68808 0
M  V30 9435 N 904.597 1.47463 -0.556102 0
M  V30 9436 C 905.527 2.32801 0.180497 0
M  V30 9437 C 906.508 1.43721 0.909848 0
M  V30 9438 O 907.693 1.72578 0.89053 0
M  V30 9439 C 904.823 3.25478 1.21167 0
M  V30 9440 C 903.777 4.2379 0.598846 0
M  V30 9441 C 903.103 5.05783 1.73457 0
M  V30 9442 C 904.403 5.20387 -0.446659 0
M  V30 9443 H 906.097 2.94636 -0.531956 0
M  V30 9444 H 903.643 1.41683 -0.257267 0
M  V30 9445 H 905.596 3.8402 1.73513 0
M  V30 9446 H 904.32 2.61695 1.95405 0
M  V30 9447 H 902.979 3.66472 0.0966897 0
M  V30 9448 H 902.627 4.38405 2.46596 0
M  V30 9449 H 902.327 5.72343 1.33031 0
M  V30 9450 H 903.851 5.67183 2.26131 0
M  V30 9451 H 905.265 5.73299 -0.00930019 0
M  V30 9452 H 903.662 5.95143 -0.769735 0
M  V30 9453 H 904.732 4.65932 -1.34295 0
M  V30 9454 N 906.075 0.2925 1.54862 0
M  V30 9455 C 907.491 -0.0611461 1.59483 0
M  V30 9456 C 907.691 -1.53141 1.30958 0
M  V30 9457 O 906.747 -2.28291 1.07887 0
M  V30 9458 C 908.06 0.329143 2.98893 0
M  V30 9459 C 909.608 0.2772 3.1177 0
M  V30 9460 C 910.083 0.642185 4.53475 0
M  V30 9461 N 911.574 0.594396 4.5937 0
M  V30 9462 C 912.309 0.849385 5.67074 0
M  V30 9463 N 911.805 1.1699 6.82851 0
M  V30 9464 N 913.598 0.777016 5.56704 0
M  V30 9465 H 905.749 1.25079 1.71665 0
M  V30 9466 H 908.012 0.506516 0.80134 0
M  V30 9467 H 907.718 1.35233 3.24661 0
M  V30 9468 H 907.592 -0.321442 3.75828 0
M  V30 9469 H 909.979 -0.736725 2.85756 0
M  V30 9470 H 910.06 0.962289 2.3701 0
M  V30 9471 H 909.704 1.65388 4.80218 0
M  V30 9472 H 909.634 -0.0648831 5.2656 0
M  V30 9473 H 912.125 0.357256 3.76208 0
M  V30 9474 H 912.438 1.35067 7.60905 0
M  V30 9475 H 910.783 1.20785 6.84424 0
M  V30 9476 H 913.974 0.526333 4.65132 0
M  V30 9477 H 914.147 0.979113 6.4056 0
M  V30 9478 N 907.553 -1.57587 0.0200696 0
M  V30 9479 C 908.83 -1.82696 -0.698677 0
M  V30 9480 C 909.21 -0.902082 -1.90855 0
M  V30 9481 O 908.558 0.0444834 -2.28457 0
M  V30 9482 C 908.768 -3.31691 -1.08546 0
M  V30 9483 C 910.116 -3.97938 -1.4809 0
M  V30 9484 O 911.14 -3.36133 -1.17869 0
M  V30 9485 O 909.999 -5.06851 -2.04364 0
M  V30 9486 H 907.093 -0.752997 -0.341942 0
M  V30 9487 H 909.639 -1.69635 0.04706 0
M  V30 9488 H 908.411 -3.90659 -0.223956 0
M  V30 9489 H 908.034 -3.49825 -1.88965 0
M  V30 9490 N 909.032 0.252966 -1.55557 0
M  V30 9491 C 910.257 1.0038 -1.8149 0
M  V30 9492 C 910.682 1.78397 -0.596318 0
M  V30 9493 O 910.04 1.7551 0.454535 0
M  V30 9494 C 910.088 1.9222 -3.05096 0
M  V30 9495 O 909.192 3.01302 -2.81587 0
M  V30 9496 H 908.533 0.285949 -0.599274 0
M  V30 9497 H 911.063 0.275795 -2.02733 0
M  V30 9498 H 911.073 2.338 -3.34368 0
M  V30 9499 H 909.748 1.34852 -3.93431 0
M  V30 9500 H 908.325 2.63894 -2.63466 0
M  V30 9501 N 910.51 1.48831 0.518367 0
M  V30 9502 C 911.921 1.50842 1.10016 0
M  V30 9503 C 912.272 0.284744 1.94123 0
M  V30 9504 O 911.397 -0.607088 2.0771 0
M  V30 9505 C 911.992 2.73329 2.00191 0
M  V30 9506 C 910.551 2.78175 2.53566 0
M  V30 9507 C 909.698 2.4452 1.30786 0
M  V30 9508 H 912.649 1.55779 0.303073 0
M  V30 9509 H 912.67 2.52506 2.84642 0
M  V30 9510 H 912.182 3.62374 1.3895 0
M  V30 9511 H 910.283 1.93368 3.18496 0
M  V30 9512 H 910.396 3.79905 2.91906 0
M  V30 9513 H 908.76 1.95924 1.62744 0
M  V30 9514 H 909.543 3.35819 0.712797 0
M  V30 9515 N 911.988 -0.768124 1.37614 0
M  V30 9516 C 913.399 -1.34462 1.29525 0
M  V30 9517 C 913.75 -1.96121 -0.0555168 0
M  V30 9518 O 912.875 -1.94069 -0.957406 0
M  V30 9519 C 913.47 -2.44475 2.34558 0
M  V30 9520 C 912.029 -2.97883 2.30093 0
M  V30 9521 C 911.176 -1.71131 2.18196 0
M  V30 9522 H 914.127 -0.568103 1.48183 0
M  V30 9523 H 914.148 -3.24047 1.99434 0
M  V30 9524 H 913.66 -1.99568 3.32858 0
M  V30 9525 H 911.761 -3.47156 1.35328 0
M  V30 9526 H 911.874 -3.53251 3.23652 0
M  V30 9527 H 910.238 -1.94197 1.64802 0
M  V30 9528 H 911.021 -1.28323 3.18415 0
M  V30 9529 N 913.466 -1.22244 -0.994698 0
M  V30 9530 C 914.877 -1.043 -1.5485 0
M  V30 9531 C 915.228 0.394102 -1.92201 0
M  V30 9532 O 914.353 1.27883 -1.74571 0
M  V30 9533 C 914.948 -1.88708 -2.8138 0
M  V30 9534 C 913.507 -1.75067 -3.3321 0
M  V30 9535 C 912.654 -1.85286 -2.06312 0
M  V30 9536 H 915.605 -1.36115 -0.815988 0
M  V30 9537 H 915.626 -1.40342 -3.53673 0
M  V30 9538 H 915.138 -2.93296 -2.54164 0
M  V30 9539 H 913.239 -0.732047 -3.65338 0
M  V30 9540 H 913.352 -2.57632 -4.03934 0
M  V30 9541 H 911.716 -1.28706 -2.19788 0
M  V30 9542 H 912.499 -2.91401 -1.81494 0
M  V30 9543 N 914.944 1.19125 -1.03184 0
M  V30 9544 C 915.891 2.2245 -0.6152 0
M  V30 9545 C 916.861 1.61869 0.372502 0
M  V30 9546 O 918.046 1.88901 0.268491 0
M  V30 9547 C 915.186 3.45091 0.0248027 0
M  V30 9548 C 914.299 4.20044 -1.0093 0
M  V30 9549 C 913.434 5.30119 -0.338744 0
M  V30 9550 C 912.473 5.96833 -1.35855 0
M  V30 9551 N 911.61 6.98464 -0.713594 0
M  V30 9552 H 916.45 2.57445 -1.50086 0
M  V30 9553 H 913.987 1.26485 -0.751005 0
M  V30 9554 H 915.945 4.15149 0.413131 0
M  V30 9555 H 914.575 3.10742 0.874028 0
M  V30 9556 H 913.627 3.48901 -1.51566 0
M  V30 9557 H 914.939 4.65796 -1.78425 0
M  V30 9558 H 914.093 6.0661 0.104269 0
M  V30 9559 H 912.832 4.85446 0.468382 0
M  V30 9560 H 911.837 5.1909 -1.81179 0
M  V30 9561 H 913.062 6.4359 -2.16722 0
M  V30 9562 H 911.008 6.55959 0.0733863 0
M  V30 9563 H 910.925 7.42422 -1.42638 0
M  V30 9564 H 912.193 7.78943 -0.294681 0
M  V30 9565 N 916.422 0.810101 1.35185 0
M  V30 9566 C 917.352 0.237453 2.32289 0
M  V30 9567 C 918.333 -0.639032 1.5764 0
M  V30 9568 O 919.518 -0.568575 1.8569 0
M  V30 9569 C 916.648 -0.611964 3.41866 0
M  V30 9570 C 915.602 0.166318 4.27677 0
M  V30 9571 C 914.928 -0.805024 5.28605 0
M  V30 9572 C 916.228 1.36729 5.04086 0
M  V30 9573 H 917.922 1.04874 2.80432 0
M  V30 9574 H 915.468 0.505751 1.34826 0
M  V30 9575 H 917.421 -1.02267 4.08802 0
M  V30 9576 H 916.145 -1.45617 2.92341 0
M  V30 9577 H 914.804 0.558238 3.62325 0
M  V30 9578 H 914.452 -1.64483 4.75347 0
M  V30 9579 H 914.152 -0.288577 5.86891 0
M  V30 9580 H 915.676 -1.21386 5.98413 0
M  V30 9581 H 917.09 1.03128 5.63948 0
M  V30 9582 H 915.487 1.81848 5.71884 0
M  V30 9583 H 916.557 2.15214 4.34524 0
M  V30 9584 N 917.9 -1.47166 0.563914 0
M  V30 9585 C 918.847 -2.30097 -0.180013 0
M  V30 9586 C 919.817 -1.39473 -0.902019 0
M  V30 9587 O 921.002 -1.68432 -0.896396 0
M  V30 9588 C 918.142 -3.23573 -1.19978 0
M  V30 9589 C 917.255 -4.2929 -0.483149 0
M  V30 9590 C 916.39 -5.0991 -1.48879 0
M  V30 9591 C 915.429 -6.07395 -0.757513 0
M  V30 9592 N 914.566 -6.8095 -1.71031 0
M  V30 9593 H 919.406 -2.93189 0.53329 0
M  V30 9594 H 916.943 -1.4451 0.274814 0
M  V30 9595 H 918.901 -3.76196 -1.80368 0
M  V30 9596 H 917.531 -2.6233 -1.88103 0
M  V30 9597 H 916.583 -3.79671 0.235414 0
M  V30 9598 H 917.895 -4.9872 0.0894075 0
M  V30 9599 H 917.049 -5.66717 -2.16603 0
M  V30 9600 H 915.788 -4.40397 -2.09527 0
M  V30 9601 H 914.793 -5.4976 -0.0663841 0
M  V30 9602 H 916.018 -6.78919 -0.156685 0
M  V30 9603 H 913.964 -6.14162 -2.30524 0
M  V30 9604 H 913.881 -7.46574 -1.19007 0
M  V30 9605 H 915.149 -7.42326 -2.37849 0
M  V30 9606 N 919.378 -0.300708 -1.54705 0
M  V30 9607 C 920.326 0.591264 -2.2496 0
M  V30 9608 C 921.32 1.13725 -1.2555 0
M  V30 9609 O 922.526 1.08793 -1.43402 0
M  V30 9610 H 918.901 0.209278 -0.722293 0
M  V30 9611 H 920.872 -0.0238175 -2.9839 0
M  V30 9612 C 919.621 1.75179 -3.00346 0
M  V30 9613 H 918.944 1.34089 -3.76643 0
M  V30 9614 H 920.384 2.35198 -3.52786 0
M  V30 9615 C 918.843 2.65574 -2.07298 0
M  V30 9616 O 919.373 3.6666 -1.64083 0
M  V30 9617 N 917.579 2.33301 -1.7326 0
M  V30 9618 H 917.126 1.51142 -2.08599 0
M  V30 9619 H 917.084 2.94049 -1.11278 0
M  V30 9620 N 920.856 1.57574 -0.0284266 0
M  V30 9621 C 922.081 1.96479 0.664137 0
M  V30 9622 C 922.506 0.904826 1.64908 0
M  V30 9623 O 921.864 -0.134339 1.80802 0
M  V30 9624 C 921.912 3.34479 1.34745 0
M  V30 9625 O 921.016 3.30794 2.46271 0
M  V30 9626 H 920.357 0.640654 0.174524 0
M  V30 9627 H 922.887 2.04402 -0.0900729 0
M  V30 9628 H 922.897 3.70694 1.7044 0
M  V30 9629 H 921.572 4.1117 0.625468 0
M  V30 9630 H 920.149 3.06294 2.12693 0
M  V30 9631 N 922.334 -0.244713 1.55689 0
M  V30 9632 C 923.284 -1.30596 1.86892 0
M  V30 9633 C 924.268 -1.43388 0.729972 0
M  V30 9634 O 925.46 -1.46593 0.99194 0
M  V30 9635 C 922.589 -2.66099 2.16902 0
M  V30 9636 C 921.675 -2.57302 3.37129 0
M  V30 9637 N 922.066 -2.18139 4.56343 0
M  V30 9638 C 920.364 -2.88311 3.40283 0
M  V30 9639 C 921.065 -2.20028 5.38482 0
M  V30 9640 N 920.041 -2.59616 4.77599 0
M  V30 9641 H 923.843 -0.993699 2.76591 0
M  V30 9642 H 921.357 -0.453334 1.55944 0
M  V30 9643 H 923.354 -3.4269 2.37422 0
M  V30 9644 H 922.014 -2.9819 1.28502 0
M  V30 9645 H 923.025 -1.89647 4.81928 0
M  V30 9646 H 919.702 -3.24928 2.62161 0
M  V30 9647 H 921.092 -1.9207 6.43862 0
M  V30 9648 N 923.813 -1.49104 -0.510467 0
M  V30 9649 C 924.76 -1.65074 -1.61305 0
M  V30 9650 C 925.73 -0.492362 -1.58635 0
M  V30 9651 O 926.915 -0.718241 -1.76765 0
M  V30 9652 C 924.055 -1.71457 -2.99493 0
M  V30 9653 C 923.168 -2.98536 -3.12251 0
M  V30 9654 C 922.303 -2.95957 -4.41116 0
M  V30 9655 C 921.342 -4.17655 -4.47471 0
M  V30 9656 N 920.479 -4.13041 -5.67751 0
M  V30 9657 H 925.319 -2.59222 -1.46996 0
M  V30 9658 H 922.856 -1.28535 -0.715346 0
M  V30 9659 H 924.814 -1.7314 -3.79577 0
M  V30 9660 H 923.444 -0.807834 -3.12528 0
M  V30 9661 H 922.496 -3.06509 -2.25292 0
M  V30 9662 H 923.808 -3.88527 -3.12807 0
M  V30 9663 H 922.962 -2.96149 -5.2951 0
M  V30 9664 H 921.701 -2.03728 -4.4311 0
M  V30 9665 H 920.706 -4.17717 -3.57481 0
M  V30 9666 H 921.931 -5.11066 -4.472 0
M  V30 9667 H 919.877 -3.23643 -5.70606 0
M  V30 9668 H 919.794 -4.96757 -5.69884 0
M  V30 9669 H 921.062 -4.17322 -6.58379 0
M  V30 9670 N 925.291 0.760815 -1.38019 0
M  V30 9671 C 926.537 1.52198 -1.34028 0
M  V30 9672 C 926.87 1.94067 0.0718309 0
M  V30 9673 O 926.145 1.64895 1.0315 0
M  V30 9674 C 926.428 2.77954 -2.2894 0
M  V30 9675 C 926.281 2.42269 -3.7898 0
M  V30 9676 C 927.6 3.79943 -2.22107 0
M  V30 9677 H 924.719 0.552131 -0.488181 0
M  V30 9678 H 927.361 0.871971 -1.6881 0
M  V30 9679 H 925.511 3.33419 -1.9941 0
M  V30 9680 H 927.183 1.92635 -4.19153 0
M  V30 9681 H 925.426 1.74822 -3.97014 0
M  V30 9682 H 926.097 3.32211 -4.4084 0
M  V30 9683 H 928.573 3.34 -2.4816 0
M  V30 9684 H 927.449 4.6564 -2.90639 0
M  V30 9685 H 927.71 4.25004 -1.21753 0
M  V30 9686 N 926.769 1.22769 0.988202 0
M  V30 9687 C 927.994 1.08239 1.76915 0
M  V30 9688 C 928.419 -0.362519 1.84574 0
M  V30 9689 O 927.777 -1.26202 1.30165 0
M  V30 9690 C 927.825 1.70363 3.17819 0
M  V30 9691 O 926.929 0.960484 4.01059 0
M  V30 9692 H 926.27 0.379872 0.544604 0
M  V30 9693 H 928.8 1.62663 1.24104 0
M  V30 9694 H 928.81 1.7528 3.6843 0
M  V30 9695 H 927.485 2.75505 3.1156 0
M  V30 9696 H 926.062 0.987667 3.59582 0
M  V30 9697 N 928.247 -1.18576 1.03814 0
M  V30 9698 C 929.658 -1.70159 0.768299 0
M  V30 9699 C 930.009 -1.8286 -0.711106 0
M  V30 9700 O 929.134 -1.5063 -1.55369 0
M  V30 9701 C 929.729 -3.09062 1.38804 0
M  V30 9702 C 928.288 -3.57866 1.16656 0
M  V30 9703 C 927.435 -2.34484 1.48029 0
M  V30 9704 H 930.386 -1.03287 1.20488 0
M  V30 9705 H 930.407 -3.72211 0.7899 0
M  V30 9706 H 929.919 -2.99785 2.46476 0
M  V30 9707 H 928.02 -3.72442 0.108471 0
M  V30 9708 H 928.133 -4.41445 1.8618 0
M  V30 9709 H 926.497 -2.38273 0.899902 0
M  V30 9710 H 927.28 -2.27829 2.56805 0
M  V30 9711 N 929.725 -0.817259 -1.34754 0
M  V30 9712 C 930.971 -0.403244 -1.98751 0
M  V30 9713 C 931.304 1.02963 -1.64658 0
M  V30 9714 O 930.579 1.71617 -0.915314 0
M  V30 9715 C 930.862 -0.599188 -3.5508 0
M  V30 9716 C 930.715 -2.07777 -3.98934 0
M  V30 9717 C 932.034 -0.0315656 -4.40089 0
M  V30 9718 H 929.153 -0.147988 -0.721989 0
M  V30 9719 H 931.795 -1.02877 -1.59738 0
M  V30 9720 H 929.945 -0.0667116 -3.88443 0
M  V30 9721 H 931.617 -2.67345 -3.75931 0
M  V30 9722 H 929.86 -2.57031 -3.49453 0
M  V30 9723 H 930.531 -2.16571 -5.07741 0
M  V30 9724 H 933.007 -0.48644 -4.13247 0
M  V30 9725 H 931.883 -0.198507 -5.48541 0
M  V30 9726 H 932.144 1.06302 -4.2913 0
M  V30 9727 N 931.203 1.46865 -0.571711 0
M  V30 9728 C 932.133 2.3298 0.155795 0
M  V30 9729 C 933.114 1.44678 0.894553 0
M  V30 9730 O 934.299 1.73513 0.872176 0
M  V30 9731 C 931.429 3.26745 1.17708 0
M  V30 9732 C 930.383 4.24401 0.553863 0
M  V30 9733 C 929.709 5.07595 1.68083 0
M  V30 9734 C 931.009 5.19884 -0.501827 0
M  V30 9735 H 932.703 2.94056 -0.563176 0
M  V30 9736 H 930.249 1.41402 -0.27228 0
M  V30 9737 H 932.202 3.85838 1.6943 0
M  V30 9738 H 930.926 2.63753 1.92618 0
M  V30 9739 H 929.585 3.66554 0.057815 0
M  V30 9740 H 929.233 4.40996 2.41933 0
M  V30 9741 H 928.933 5.73722 1.26953 0
M  V30 9742 H 930.457 5.6955 2.20103 0
M  V30 9743 H 931.871 5.73257 -0.0701057 0
M  V30 9744 H 930.268 5.94293 -0.832815 0
M  V30 9745 H 931.338 4.64482 -1.39229 0
M  V30 9746 N 932.681 0.308908 1.54543 0
M  V30 9747 C 934.097 -0.0442273 1.59539 0
M  V30 9748 C 934.297 -1.51743 1.32575 0
M  V30 9749 O 933.353 -2.27134 1.10302 0
M  V30 9750 C 934.666 0.360826 2.98527 0
M  V30 9751 C 936.214 0.310252 3.11459 0
M  V30 9752 C 936.689 0.690246 4.52769 0
M  V30 9753 N 938.18 0.643084 4.58714 0
M  V30 9754 C 938.915 0.909483 5.66141 0
M  V30 9755 N 938.411 1.24226 6.81572 0
M  V30 9756 N 940.204 0.836018 5.55848 0
M  V30 9757 H 932.355 1.26893 1.70329 0
M  V30 9758 H 934.618 0.514986 0.795923 0
M  V30 9759 H 934.324 1.38669 3.23209 0
M  V30 9760 H 934.198 -0.281563 3.76148 0
M  V30 9761 H 936.585 -0.706375 2.86521 0
M  V30 9762 H 936.666 0.987373 2.35976 0
M  V30 9763 H 936.31 1.70472 4.78437 0
M  V30 9764 H 936.24 -0.00903075 5.26599 0
M  V30 9765 H 938.731 0.397138 3.75807 0
M  V30 9766 H 939.044 1.4313 7.5943 0
M  V30 9767 H 937.389 1.28038 6.83104 0
M  V30 9768 H 940.58 0.575637 4.64547 0
M  V30 9769 H 940.753 1.047 6.39486 0
M  V30 9770 N 934.159 -1.57557 0.0367827 0
M  V30 9771 C 935.436 -1.83427 -0.679261 0
M  V30 9772 C 935.816 -0.922274 -1.89888 0
M  V30 9773 O 935.164 0.02025 -2.28491 0
M  V30 9774 C 935.374 -3.32823 -1.05022 0
M  V30 9775 C 936.722 -3.99486 -1.43861 0
M  V30 9776 O 937.746 -3.37364 -1.14297 0
M  V30 9777 O 936.605 -5.0899 -1.98977 0
M  V30 9778 H 933.699 -0.756581 -0.333936 0
M  V30 9779 H 936.245 -1.69575 0.0650494 0
M  V30 9780 H 935.017 -3.90874 -0.182509 0
M  V30 9781 H 934.64 -3.5181 -1.85244 0
M  V30 9782 N 935.637 0.236453 -1.55816 0
M  V30 9783 C 936.884 0.963012 -1.78136 0
M  V30 9784 C 937.212 1.84918 -0.602952 0
M  V30 9785 O 936.467 1.91285 0.413325 0
M  V30 9786 C 936.766 1.84549 -3.06066 0
M  V30 9787 C 936.432 1.11381 -4.36927 0
M  V30 9788 C 935.094 0.911635 -4.72486 0
M  V30 9789 C 937.446 0.596 -5.17781 0
M  V30 9790 C 934.774 0.179515 -5.86425 0
M  V30 9791 C 937.126 -0.122702 -6.32481 0
M  V30 9792 C 935.79 -0.336263 -6.66652 0
M  V30 9793 H 935.06 0.352391 -0.651845 0
M  V30 9794 H 937.707 0.232295 -1.90086 0
M  V30 9795 H 936.012 2.6436 -2.89173 0
M  V30 9796 H 937.709 2.40953 -3.20535 0
M  V30 9797 H 934.299 1.28134 -4.08998 0
M  V30 9798 H 938.483 0.73971 -4.90757 0
M  V30 9799 H 933.739 0.00368224 -6.114 0
M  V30 9800 H 937.913 -0.531516 -6.94369 0
M  V30 9801 H 935.54 -0.905507 -7.54788 0
M  V30 9802 N 937.115 1.49373 0.502552 0
M  V30 9803 C 938.045 1.68839 1.61294 0
M  V30 9804 C 939.026 0.537096 1.61398 0
M  V30 9805 O 940.211 0.772764 1.78163 0
M  V30 9806 C 937.341 1.75347 2.99784 0
M  V30 9807 C 936.295 2.90251 3.14545 0
M  V30 9808 C 935.621 2.8187 4.54371 0
M  V30 9809 C 936.921 4.31207 2.94717 0
M  V30 9810 H 938.615 2.61803 1.45257 0
M  V30 9811 H 936.161 1.25987 0.697371 0
M  V30 9812 H 938.114 1.87552 3.77362 0
M  V30 9813 H 936.838 0.789814 3.16906 0
M  V30 9814 H 935.497 2.77646 2.39392 0
M  V30 9815 H 935.145 1.83416 4.68367 0
M  V30 9816 H 934.845 3.5899 4.65188 0
M  V30 9817 H 936.369 2.96081 5.34012 0
M  V30 9818 H 937.783 4.44501 3.62065 0
M  V30 9819 H 936.18 5.09536 3.17007 0
M  V30 9820 H 937.25 4.45759 1.90857 0
M  V30 9821 N 938.594 -0.753485 1.38421 0
M  V30 9822 C 939.504 -1.89797 1.37892 0
M  V30 9823 C 940.52 -1.71797 0.276023 0
M  V30 9824 O 941.696 -1.94718 0.514464 0
M  V30 9825 C 938.761 -3.25166 1.20284 0
M  V30 9826 C 937.822 -3.55691 2.4038 0
M  V30 9827 C 937.055 -4.84601 2.23602 0
M  V30 9828 O 937.278 -5.56985 1.22979 0
M  V30 9829 O 936.212 -5.14605 3.12194 0
M  V30 9830 H 940.038 -1.93197 2.34326 0
M  V30 9831 H 937.623 -0.898775 1.19342 0
M  V30 9832 H 939.505 -4.06099 1.12525 0
M  V30 9833 H 938.18 -3.22577 0.269352 0
M  V30 9834 H 937.087 -2.74919 2.53714 0
M  V30 9835 H 938.42 -3.6304 3.32359 0
M  V30 9836 N 940.072 -1.23292 -0.981677 0
M  V30 9837 C 941.488 -0.995295 -1.24764 0
M  V30 9838 C 941.688 0.304379 -1.99188 0
M  V30 9839 O 940.744 1.02414 -2.30798 0
M  V30 9840 C 942.057 -2.20135 -2.04844 0
M  V30 9841 C 943.605 -2.24612 -2.17988 0
M  V30 9842 C 944.08 -3.448 -3.01458 0
M  V30 9843 N 945.571 -3.45031 -3.09044 0
M  V30 9844 C 946.306 -4.34683 -3.7395 0
M  V30 9845 N 945.802 -5.34569 -4.4069 0
M  V30 9846 N 947.595 -4.22429 -3.70823 0
M  V30 9847 H 939.746 -2.06834 -0.483052 0
M  V30 9848 H 942.009 -0.906929 -0.276014 0
M  V30 9849 H 941.715 -3.14446 -1.57532 0
M  V30 9850 H 941.589 -2.21115 -3.05594 0
M  V30 9851 H 943.976 -1.30841 -2.64508 0
M  V30 9852 H 944.057 -2.27664 -1.16631 0
M  V30 9853 H 943.701 -4.38877 -2.55635 0
M  V30 9854 H 943.631 -3.38988 -4.02982 0
M  V30 9855 H 946.122 -2.72759 -2.61555 0
M  V30 9856 H 946.435 -5.99236 -4.87991 0
M  V30 9857 H 944.78 -5.3847 -4.39403 0
M  V30 9858 H 947.971 -3.43639 -3.17851 0
M  V30 9859 H 948.144 -4.92501 -4.21126 0
M  V30 9860 N 941.55 1.18024 -1.04442 0
M  V30 9861 C 942.483 2.20623 -0.583171 0
M  V30 9862 C 943.461 1.57994 0.384262 0
M  V30 9863 O 944.645 1.86135 0.297673 0
M  V30 9864 C 941.772 3.38378 0.147561 0
M  V30 9865 C 940.818 4.19423 -0.773711 0
M  V30 9866 S 941.651 4.85534 -2.25869 0
M  V30 9867 C 942.807 6.06686 -1.53891 0
M  V30 9868 H 943.04 2.59406 -1.45244 0
M  V30 9869 H 940.573 1.28518 -0.855708 0
M  V30 9870 H 942.531 4.06621 0.562988 0
M  V30 9871 H 941.192 2.97998 0.992765 0
M  V30 9872 H 940.385 5.03568 -0.208694 0
M  V30 9873 H 939.987 3.56579 -1.12816 0
M  V30 9874 H 942.279 6.72347 -0.834045 0
M  V30 9875 H 943.222 6.67702 -2.35755 0
M  V30 9876 H 943.63 5.55031 -1.02961 0
M  V30 9877 N 943.028 0.824394 1.34319 0
M  V30 9878 C 943.958 0.262077 2.32025 0
M  V30 9879 C 944.939 -0.622277 1.58309 0
M  V30 9880 O 946.124 -0.548848 1.86283 0
M  V30 9881 C 943.254 -0.57567 3.42496 0
M  V30 9882 C 942.208 0.21167 4.27476 0
M  V30 9883 C 941.534 -0.748913 5.29429 0
M  V30 9884 C 942.834 1.42068 5.02607 0
M  V30 9885 H 944.528 1.07842 2.79304 0
M  V30 9886 H 942.074 0.520022 1.34282 0
M  V30 9887 H 944.027 -0.979251 4.09864 0
M  V30 9888 H 942.751 -1.42508 2.93869 0
M  V30 9889 H 941.41 0.596636 3.61712 0
M  V30 9890 H 941.058 -1.59432 4.77064 0
M  V30 9891 H 940.758 -0.226313 5.87164 0
M  V30 9892 H 942.282 -1.15032 5.99667 0
M  V30 9893 H 943.696 1.09103 5.62823 0
M  V30 9894 H 942.093 1.87903 5.69923 0
M  V30 9895 H 943.163 2.1981 4.32217 0
M  V30 9896 N 944.506 -1.46559 0.579492 0
M  V30 9897 C 945.752 -2.02699 0.0639363 0
M  V30 9898 C 946.085 -1.4504 -1.29139 0
M  V30 9899 O 945.36 -0.614284 -1.84545 0
M  V30 9900 C 945.643 -3.601 -0.00528618 0
M  V30 9901 C 945.496 -4.28149 1.37871 0
M  V30 9902 C 946.815 -4.34375 -0.707537 0
M  V30 9903 H 943.934 -0.736586 0.0247085 0
M  V30 9904 H 946.576 -1.74739 0.746071 0
M  V30 9905 H 944.726 -3.84052 -0.586206 0
M  V30 9906 H 946.398 -4.1547 2.00455 0
M  V30 9907 H 944.641 -3.87636 1.94732 0
M  V30 9908 H 945.312 -5.36888 1.28278 0
M  V30 9909 H 947.788 -4.15549 -0.214064 0
M  V30 9910 H 946.664 -5.44091 -0.724992 0
M  V30 9911 H 946.925 -4.052 -1.7682 0
M  V30 9912 N 945.984 -0.3171 -1.54377 0
M  V30 9913 C 947.4 0.035766 -1.5956 0
M  V30 9914 C 947.6 1.51038 -1.33378 0
M  V30 9915 O 946.656 2.26546 -1.11505 0
M  V30 9916 C 947.969 -0.376652 -2.98332 0
M  V30 9917 C 949.517 -0.326765 -3.1129 0
M  V30 9918 C 949.992 -0.714247 -4.52396 0
M  V30 9919 N 951.483 -0.667402 -4.58367 0
M  V30 9920 C 952.218 -0.939494 -5.65651 0
M  V30 9921 N 951.714 -1.27839 -6.80903 0
M  V30 9922 N 953.507 -0.865484 -5.55397 0
M  V30 9923 H 945.658 -1.27794 -1.69654 0
M  V30 9924 H 947.921 -0.5192 -0.79318 0
M  V30 9925 H 947.627 -1.40381 -3.22469 0
M  V30 9926 H 947.501 0.261611 -3.76292 0
M  V30 9927 H 949.888 0.69117 -2.86892 0
M  V30 9928 H 949.969 -0.999873 -2.35449 0
M  V30 9929 H 949.613 -1.73007 -4.77526 0
M  V30 9930 H 949.543 -0.0188962 -5.26597 0
M  V30 9931 H 952.034 -0.417062 -3.75592 0
M  V30 9932 H 952.347 -1.47155 -7.5866 0
M  V30 9933 H 950.692 -1.31658 -6.82416 0
M  V30 9934 H 953.883 -0.600265 -4.64235 0
M  V30 9935 H 954.056 -1.0809 -6.38921 0
M  V30 9936 N 947.462 1.57535 -0.0451378 0
M  V30 9937 C 948.739 1.83785 0.669523 0
M  V30 9938 C 949.119 0.932331 1.89396 0
M  V30 9939 O 948.467 -0.00813229 2.28499 0
M  V30 9940 C 948.677 3.33376 1.03255 0
M  V30 9941 C 950.025 4.00243 1.41741 0
M  V30 9942 O 951.049 3.37965 1.12507 0
M  V30 9943 O 949.908 5.10038 1.96275 0
M  V30 9944 H 947.002 0.758342 0.329919 0
M  V30 9945 H 949.548 1.69538 -0.0740415 0
M  V30 9946 H 948.32 3.90965 0.161777 0
M  V30 9947 H 947.943 3.52787 1.83376 0
M  V30 9948 N 948.94 -0.228186 1.55939 0
M  V30 9949 C 950.351 -0.795734 1.68893 0
M  V30 9950 C 950.702 -1.85261 0.645967 0
M  V30 9951 O 949.827 -2.15434 -0.2042 0
M  V30 9952 C 950.422 -1.45013 3.06197 0
M  V30 9953 C 948.981 -1.96514 3.21028 0
M  V30 9954 C 948.128 -0.822918 2.64808 0
M  V30 9955 H 951.079 -0.0036485 1.587 0
M  V30 9956 H 951.1 -2.31875 3.01685 0
M  V30 9957 H 950.612 -0.680678 3.82084 0
M  V30 9958 H 948.713 -2.76282 2.49998 0
M  V30 9959 H 948.826 -2.14967 4.28166 0
M  V30 9960 H 947.19 -1.22846 2.23116 0
M  V30 9961 H 947.973 -0.0662493 3.43236 0
M  V30 9962 N 950.418 -1.49637 -0.494624 0
M  V30 9963 C 951.35 -1.62902 -1.61231 0
M  V30 9964 C 952.363 -0.511425 -1.54558 0
M  V30 9965 O 953.552 -0.783724 -1.60375 0
M  V30 9966 C 950.652 -1.57564 -3.00045 0
M  V30 9967 C 949.825 -2.84964 -3.31835 0
M  V30 9968 C 948.884 -2.72591 -4.5009 0
M  V30 9969 O 947.91 -3.46532 -4.51558 0
M  V30 9970 N 949.112 -1.84563 -5.50379 0
M  V30 9971 H 951.877 -2.59301 -1.50276 0
M  V30 9972 H 949.438 -1.46806 -0.68262 0
M  V30 9973 H 951.43 -1.46932 -3.77085 0
M  V30 9974 H 950 -0.689974 -3.0489 0
M  V30 9975 H 949.22 -3.099 -2.4363 0
M  V30 9976 H 950.508 -3.69412 -3.49875 0
M  V30 9977 H 949.906 -1.23758 -5.51997 0
M  V30 9978 H 948.463 -1.79849 -6.26496 0
M  V30 9979 N 951.896 0.746133 -1.38819 0
M  V30 9980 C 952.806 1.89063 -1.38897 0
M  V30 9981 C 953.822 1.71648 -0.28513 0
M  V30 9982 O 954.998 1.94443 -0.524783 0
M  V30 9983 C 952.063 3.24523 -1.22007 0
M  V30 9984 C 951.124 3.54411 -2.42263 0
M  V30 9985 C 950.357 4.83408 -2.26169 0
M  V30 9986 O 950.58 5.56325 -1.25931 0
M  V30 9987 O 949.514 5.12943 -3.14918 0
M  V30 9988 H 953.34 1.91951 -2.35347 0
M  V30 9989 H 950.925 0.892433 -1.19816 0
M  V30 9990 H 952.807 4.05496 -1.14677 0
M  V30 9991 H 951.482 3.2243 -0.286455 0
M  V30 9992 H 950.389 2.73569 -2.55168 0
M  V30 9993 H 951.722 3.61273 -3.3428 0
M  V30 9994 N 953.375 1.23811 0.975125 0
M  V30 9995 C 954.791 1.0019 1.24234 0
M  V30 9996 C 954.991 -0.293811 1.99346 0
M  V30 9997 O 954.047 -1.01189 2.31337 0
M  V30 9998 C 955.36 2.21218 2.03674 0
M  V30 9999 C 956.908 2.25764 2.16793 0
M  V30 10000 C 957.383 3.46394 2.99626 0
M  V30 10001 N 958.874 3.46665 3.07209 0
M  V30 10002 C 959.609 4.3666 3.71639 0
M  V30 10003 N 959.105 5.36899 4.37849 0
M  V30 10004 N 960.898 4.2439 3.68578 0
M  V30 10005 H 953.049 2.07087 0.472076 0
M  V30 10006 H 955.312 0.90838 0.271201 0
M  V30 10007 H 955.018 3.15277 1.55862 0
M  V30 10008 H 954.892 2.22733 3.04417 0
M  V30 10009 H 957.279 1.32242 2.63811 0
M  V30 10010 H 957.36 2.28279 1.15422 0
M  V30 10011 H 957.004 4.40227 2.53304 0
M  V30 10012 H 956.934 3.41121 4.01178 0
M  V30 10013 H 959.425 2.74142 2.60105 0
M  V30 10014 H 959.738 6.01816 4.84807 0
M  V30 10015 H 958.083 5.40793 4.36541 0
M  V30 10016 H 961.274 3.4532 3.16025 0
M  V30 10017 H 961.447 4.94727 4.18508 0
M  V30 10018 N 954.853 -1.17469 1.05066 0
M  V30 10019 C 955.816 -2.19648 0.654793 0
M  V30 10020 C 956.816 -1.58107 -0.293063 0
M  V30 10021 O 958.006 -1.74029 -0.077106 0
M  V30 10022 C 955.138 -3.40878 -0.0384437 0
M  V30 10023 H 956.331 -2.56184 1.55915 0
M  V30 10024 H 953.884 -1.31528 0.844396 0
M  V30 10025 H 954.619 -3.09885 -0.956133 0
M  V30 10026 H 954.404 -3.86792 0.642961 0
M  V30 10027 H 955.894 -4.1651 -0.301568 0
M  V30 10028 N 956.331 -0.831506 -1.3388 0
M  V30 10029 C 957.559 -0.436925 -2.02234 0
M  V30 10030 C 957.974 0.959689 -1.6259 0
M  V30 10031 O 957.331 1.62248 -0.835576 0
M  V30 10032 C 957.382 -0.539429 -3.57453 0
M  V30 10033 O 957.103 -1.88101 -3.95664 0
M  V30 10034 C 958.604 -0.140852 -4.43076 0
M  V30 10035 H 955.824 -0.174302 -0.647966 0
M  V30 10036 H 958.368 -1.12204 -1.70969 0
M  V30 10037 H 956.523 0.0976959 -3.87277 0
M  V30 10038 H 956.937 -1.86131 -4.90363 0
M  V30 10039 H 958.411 -0.26364 -5.5137 0
M  V30 10040 H 958.888 0.916505 -4.29531 0
M  V30 10041 H 959.494 -0.752117 -4.18597 0
M  V30 10042 N 957.809 1.4625 -0.587256 0
M  V30 10043 C 958.772 2.28812 0.133238 0
M  V30 10044 C 959.772 1.38645 0.814513 0
M  V30 10045 O 960.962 1.60975 0.665774 0
M  V30 10046 C 958.094 3.19147 1.19824 0
M  V30 10047 H 959.287 2.93991 -0.592386 0
M  V30 10048 H 956.84 1.52435 -0.345416 0
M  V30 10049 H 957.575 2.58725 1.95529 0
M  V30 10050 H 957.36 3.85541 0.71418 0
M  V30 10051 H 958.85 3.81278 1.70344 0
M  V30 10052 N 959.287 0.325282 1.54207 0
M  V30 10053 C 960.219 -0.57395 2.21897 0
M  V30 10054 C 961.232 -1.0785 1.21952 0
M  V30 10055 O 962.421 -0.991782 1.48411 0
M  V30 10056 C 959.521 -1.8005 2.87115 0
M  V30 10057 C 958.694 -1.43435 4.13213 0
M  V30 10058 C 957.753 -2.51862 4.62009 0
M  V30 10059 O 956.779 -2.15934 5.26651 0
M  V30 10060 N 957.981 -3.8282 4.36382 0
M  V30 10061 H 960.746 0.00566918 2.99699 0
M  V30 10062 H 958.307 0.148563 1.61217 0
M  V30 10063 H 960.299 -2.51981 3.16682 0
M  V30 10064 H 958.869 -2.28792 2.13009 0
M  V30 10065 H 958.089 -0.546598 3.90392 0
M  V30 10066 H 959.377 -1.16544 4.95273 0
M  V30 10067 H 958.775 -4.14807 3.84645 0
M  V30 10068 H 957.332 -4.50976 4.70599 0
M  V30 10069 N 960.765 -1.57509 0.0534917 0
M  V30 10070 C 961.675 -2.15152 -0.935249 0
M  V30 10071 C 962.691 -1.10991 -1.34003 0
M  V30 10072 O 963.867 -1.43171 -1.41648 0
M  V30 10073 C 960.932 -2.68699 -2.19093 0
M  V30 10074 C 959.993 -3.87666 -1.84428 0
M  V30 10075 C 959.226 -4.3865 -3.0401 0
M  V30 10076 O 959.449 -3.887 -4.17455 0
M  V30 10077 O 958.383 -5.30209 -2.84889 0
M  V30 10078 H 962.209 -2.99962 -0.475009 0
M  V30 10079 H 959.794 -1.48446 -0.16854 0
M  V30 10080 H 961.676 -3.03098 -2.92762 0
M  V30 10081 H 960.351 -1.86958 -2.6425 0
M  V30 10082 H 959.258 -3.58151 -1.08068 0
M  V30 10083 H 960.591 -4.70643 -1.44068 0
M  V30 10084 N 962.243 0.219913 -1.56058 0
M  V30 10085 C 963.173 1.27572 -1.9557 0
M  V30 10086 C 964.154 1.48801 -0.824148 0
M  V30 10087 O 965.339 1.60957 -1.08658 0
M  V30 10088 C 962.469 2.62517 -2.27381 0
M  V30 10089 C 961.423 2.55941 -3.43042 0
M  V30 10090 C 960.749 3.94931 -3.60463 0
M  V30 10091 C 962.049 2.10584 -4.77966 0
M  V30 10092 H 963.743 0.947482 -2.84013 0
M  V30 10093 H 961.289 0.454337 -1.36645 0
M  V30 10094 H 963.242 3.36538 -2.53615 0
M  V30 10095 H 961.966 2.97031 -1.35794 0
M  V30 10096 H 960.625 1.84377 -3.1686 0
M  V30 10097 H 960.273 4.26756 -2.66249 0
M  V30 10098 H 959.973 3.91413 -4.38258 0
M  V30 10099 H 961.497 4.70611 -3.89046 0
M  V30 10100 H 962.911 2.74349 -5.03394 0
M  V30 10101 H 961.308 2.18122 -5.59055 0
M  V30 10102 H 962.378 1.05818 -4.73213 0
M  V30 10103 N 963.721 1.49897 0.486681 0
M  V30 10104 C 964.651 1.7054 1.59494 0
M  V30 10105 C 965.632 0.554184 1.60819 0
M  V30 10106 O 966.817 0.791617 1.77333 0
M  V30 10107 C 963.947 1.78517 2.97908 0
M  V30 10108 C 962.901 2.93571 3.11449 0
M  V30 10109 C 962.227 2.86674 4.51356 0
M  V30 10110 C 963.527 4.34308 2.90127 0
M  V30 10111 H 965.221 2.63329 1.42472 0
M  V30 10112 H 962.767 1.2672 0.683969 0
M  V30 10113 H 964.72 1.91544 3.75352 0
M  V30 10114 H 963.444 0.823381 3.16051 0
M  V30 10115 H 962.103 2.80169 2.36433 0
M  V30 10116 H 961.751 1.88373 4.66395 0
M  V30 10117 H 961.451 3.63903 4.61355 0
M  V30 10118 H 962.975 3.01728 5.30841 0
M  V30 10119 H 964.389 4.48317 3.57331 0
M  V30 10120 H 962.786 5.12869 3.11585 0
M  V30 10121 H 963.856 4.47759 1.86119 0
M  V30 10122 N 965.199 -0.738761 1.39212 0
M  V30 10123 C 966.476 -1.48982 1.26742 0
M  V30 10124 C 966.856 -2.10732 -0.12466 0
M  V30 10125 O 966.204 -1.98287 -1.13554 0
M  V30 10126 C 966.414 -2.54427 2.38889 0
M  V30 10127 C 967.762 -3.20915 2.78027 0
M  V30 10128 O 968.786 -2.64738 2.38311 0
M  V30 10129 O 967.645 -4.22558 3.46565 0
M  V30 10130 H 964.739 -0.661395 0.496473 0
M  V30 10131 H 967.285 -0.772907 1.51077 0
M  V30 10132 H 966.057 -2.07151 3.3197 0
M  V30 10133 H 965.68 -3.33682 2.162 0
M  V30 10134 N 966.677 -1.24326 -0.968545 0
M  V30 10135 C 967.627 -1.00191 -2.04807 0
M  V30 10136 C 968.611 0.0563524 -1.60801 0
M  V30 10137 O 969.803 -0.157268 -1.763 0
M  V30 10138 C 966.932 -0.607749 -3.37878 0
M  V30 10139 C 966.018 -1.70204 -3.88447 0
M  V30 10140 N 966.409 -2.93463 -4.11962 0
M  V30 10141 C 964.707 -1.57936 -4.171 0
M  V30 10142 C 965.408 -3.64397 -4.5342 0
M  V30 10143 N 964.384 -2.91956 -4.58544 0
M  V30 10144 H 968.186 -1.93786 -2.20962 0
M  V30 10145 H 965.7 -1.1444 -1.15227 0
M  V30 10146 H 967.697 -0.416079 -4.14819 0
M  V30 10147 H 966.357 0.321026 -3.23109 0
M  V30 10148 H 967.368 -3.2965 -3.99438 0
M  V30 10149 H 964.045 -0.718552 -4.1127 0
M  V30 10150 H 965.435 -4.70125 -4.80034 0
M  V30 10151 N 968.156 1.1691 -1.05688 0
M  V30 10152 C 969.567 1.68915 -0.795273 0
M  V30 10153 C 969.918 1.83968 0.681925 0
M  V30 10154 O 969.043 1.53083 1.52953 0
M  V30 10155 C 969.638 3.06814 -1.43703 0
M  V30 10156 C 968.197 3.55965 -1.22335 0
M  V30 10157 C 967.344 2.32099 -1.51741 0
M  V30 10158 H 970.295 1.01357 -1.22116 0
M  V30 10159 H 970.316 3.70907 -0.849016 0
M  V30 10160 H 969.828 2.95826 -2.51214 0
M  V30 10161 H 967.929 3.72222 -0.16771 0
M  V30 10162 H 968.042 4.38427 -1.9318 0
M  V30 10163 H 966.406 2.36811 -0.937696 0
M  V30 10164 H 967.189 2.23715 -2.60397 0
M  V30 10165 N 969.634 0.838594 1.33437 0
M  V30 10166 C 970.881 0.434169 1.97791 0
M  V30 10167 C 971.209 -1.00652 1.66431 0
M  V30 10168 O 970.464 -1.71848 0.936309 0
M  V30 10169 C 970.763 0.601425 3.52303 0
M  V30 10170 C 970.429 2.01017 4.03612 0
M  V30 10171 C 969.091 2.39551 4.17336 0
M  V30 10172 C 971.443 2.93035 4.31022 0
M  V30 10173 C 968.771 3.69406 4.55802 0
M  V30 10174 C 971.123 4.22372 4.7094 0
M  V30 10175 C 969.787 4.60862 4.82869 0
M  V30 10176 H 969.057 0.158874 0.723768 0
M  V30 10177 H 971.704 1.06556 1.59116 0
M  V30 10178 H 970.009 -0.113284 3.91636 0
M  V30 10179 H 971.706 0.268798 4.00098 0
M  V30 10180 H 968.296 1.7009 3.93405 0
M  V30 10181 H 972.48 2.64503 4.19943 0
M  V30 10182 H 967.736 3.99033 4.63231 0
M  V30 10183 H 971.91 4.93749 4.91106 0
M  V30 10184 H 969.537 5.6153 5.12433 0
M  V30 10185 N 971.112 -1.45937 0.595003 0
M  V30 10186 C 972.042 -2.33198 -0.11871 0
M  V30 10187 C 973.023 -1.46083 -0.871423 0
M  V30 10188 O 974.208 -1.74879 -0.844461 0
M  V30 10189 C 971.338 -3.28576 -1.12495 0
M  V30 10190 C 970.292 -4.25229 -0.486275 0
M  V30 10191 C 969.618 -5.10204 -1.59986 0
M  V30 10192 C 970.918 -5.19019 0.584473 0
M  V30 10193 H 972.612 -2.93122 0.609886 0
M  V30 10194 H 970.158 -1.40951 0.294742 0
M  V30 10195 H 972.111 -3.88485 -1.6327 0
M  V30 10196 H 970.835 -2.66784 -1.88398 0
M  V30 10197 H 969.494 -3.666 0.000507962 0
M  V30 10198 H 969.142 -4.44789 -2.34886 0
M  V30 10199 H 968.842 -5.75669 -1.1781 0
M  V30 10200 H 970.366 -5.7298 -2.11014 0
M  V30 10201 H 971.78 -5.73073 0.161297 0
M  V30 10202 H 970.177 -5.92893 0.927256 0
M  V30 10203 H 971.247 -4.62208 1.46601 0
M  V30 10204 N 972.59 -0.333456 -1.54032 0
M  V30 10205 C 973.52 0.52051 -2.27625 0
M  V30 10206 C 974.501 1.1111 -1.28797 0
M  V30 10207 O 975.686 1.13438 -1.57625 0
M  V30 10208 C 972.816 1.67663 -3.04149 0
M  V30 10209 C 971.77 1.21487 -4.10396 0
M  V30 10210 C 971.096 2.45872 -4.74817 0
M  V30 10211 C 972.396 0.322603 -5.21303 0
M  V30 10212 H 974.09 -0.0933823 -2.99254 0
M  V30 10213 H 971.636 -0.0463526 -1.43925 0
M  V30 10214 H 973.589 2.28041 -3.54366 0
M  V30 10215 H 972.313 2.31727 -2.30153 0
M  V30 10216 H 970.972 0.633966 -3.61077 0
M  V30 10217 H 970.62 3.0832 -3.97426 0
M  V30 10218 H 970.32 2.15662 -5.46593 0
M  V30 10219 H 971.844 3.06994 -5.27814 0
M  V30 10220 H 973.258 0.832942 -5.67217 0
M  V30 10221 H 971.655 0.112843 -5.99994 0
M  V30 10222 H 972.725 -0.643954 -4.80605 0
M  V30 10223 N 974.068 1.57479 -0.061844 0
M  V30 10224 C 975 2.09116 0.938245 0
M  V30 10225 C 976.013 1.0212 1.26788 0
M  V30 10226 O 977.202 1.2966 1.22681 0
M  V30 10227 C 974.302 2.52822 2.25686 0
M  V30 10228 C 973.475 3.83277 2.10755 0
M  V30 10229 C 972.534 4.13182 3.25833 0
M  V30 10230 O 971.56 4.82937 3.01265 0
M  V30 10231 N 972.762 3.65938 4.50633 0
M  V30 10232 H 975.527 2.95543 0.497433 0
M  V30 10233 H 973.088 1.61423 0.124134 0
M  V30 10234 H 975.08 2.69896 3.01559 0
M  V30 10235 H 973.65 1.71586 2.61299 0
M  V30 10236 H 972.87 3.7568 1.19409 0
M  V30 10237 H 974.158 4.68686 1.98018 0
M  V30 10238 H 973.556 3.09566 4.73482 0
M  V30 10239 H 972.113 3.8823 5.23565 0
M  V30 10240 N 975.546 -0.211634 1.56173 0
M  V30 10241 C 976.774 -0.951184 1.83739 0
M  V30 10242 C 977.189 -1.7754 0.642252 0
M  V30 10243 O 976.546 -1.78302 -0.389174 0
M  V30 10244 C 976.597 -1.86075 3.09933 0
M  V30 10245 O 976.318 -1.06983 4.24837 0
M  V30 10246 C 977.819 -2.71337 3.50559 0
M  V30 10247 H 975.039 -0.278312 0.61056 0
M  V30 10248 H 977.583 -0.223871 2.03271 0
M  V30 10249 H 975.738 -2.54189 2.92347 0
M  V30 10250 H 976.152 -1.68815 4.9659 0
M  V30 10251 H 977.626 -3.30843 4.41868 0
M  V30 10252 H 978.103 -3.44226 2.72773 0
M  V30 10253 H 978.709 -2.0862 3.70618 0
M  V30 10254 N 977.024 -1.50153 -0.478725 0
M  V30 10255 C 978.272 -1.60443 -1.22892 0
M  V30 10256 C 978.593 -0.303276 -1.92627 0
M  V30 10257 O 977.863 0.678798 -1.83764 0
M  V30 10258 H 976.443 -0.591205 -0.456602 0
M  V30 10259 H 979.105 -1.86893 -0.552905 0
M  V30 10260 H 978.201 -2.41175 -1.98094 0
M  V30 10261 N 978.502 0.731368 -1.39602 0
M  V30 10262 C 979.432 1.85855 -1.41351 0
M  V30 10263 C 980.413 1.67839 -0.2764 0
M  V30 10264 O 981.598 1.88104 -0.482747 0
M  V30 10265 C 978.728 3.23644 -1.25983 0
M  V30 10266 C 977.682 3.56304 -2.37132 0
M  V30 10267 C 977.008 4.93069 -2.0685 0
M  V30 10268 C 978.308 3.58906 -3.79452 0
M  V30 10269 H 980.002 1.84648 -2.3568 0
M  V30 10270 H 977.548 0.886955 -1.13442 0
M  V30 10271 H 979.501 4.02176 -1.25826 0
M  V30 10272 H 978.225 3.25387 -0.281234 0
M  V30 10273 H 976.884 2.80104 -2.36511 0
M  V30 10274 H 976.532 4.91396 -1.0742 0
M  V30 10275 H 976.232 5.15888 -2.81306 0
M  V30 10276 H 977.756 5.73953 -2.0835 0
M  V30 10277 H 979.17 4.27508 -3.81982 0
M  V30 10278 H 977.567 3.93246 -4.53297 0
M  V30 10279 H 978.637 2.58631 -4.10168 0
M  V30 10280 N 979.98 1.24838 0.961938 0
M  V30 10281 C 981.391 1.08369 1.5203 0
M  V30 10282 C 981.742 -0.343005 1.93178 0
M  V30 10283 O 980.867 -1.2321 1.779 0
M  V30 10284 C 981.462 1.96102 2.76278 0
M  V30 10285 C 980.021 1.8384 3.28451 0
M  V30 10286 C 979.168 1.9069 2.01327 0
M  V30 10287 H 982.119 1.38231 0.779613 0
M  V30 10288 H 982.14 1.4967 3.49827 0
M  V30 10289 H 981.652 2.99931 2.46298 0
M  V30 10290 H 979.753 0.828653 3.63269 0
M  V30 10291 H 979.866 2.68251 3.96961 0
M  V30 10292 H 978.23 1.34488 2.16299 0
M  V30 10293 H 979.013 2.96111 1.73705 0
M  V30 10294 N 981.458 -1.16348 1.06306 0
M  V30 10295 C 982.368 -2.24375 0.685059 0
M  V30 10296 C 983.384 -1.71413 -0.298956 0
M  V30 10297 O 984.56 -2.00854 -0.148239 0
M  V30 10298 C 981.625 -3.46614 0.0774088 0
M  V30 10299 C 980.686 -4.14613 1.11331 0
M  V30 10300 C 979.919 -5.31016 0.534559 0
M  V30 10301 O 980.142 -5.66654 -0.65265 0
M  V30 10302 O 979.076 -5.88256 1.27431 0
M  V30 10303 H 982.902 -2.59018 1.58566 0
M  V30 10304 H 980.487 -1.23865 0.835332 0
M  V30 10305 H 982.369 -4.20599 -0.259716 0
M  V30 10306 H 981.044 -3.13743 -0.796677 0
M  V30 10307 H 979.951 -3.42597 1.50261 0
M  V30 10308 H 981.284 -4.51538 1.95893 0
M  V30 10309 N 982.937 -0.845659 -1.3299 0
M  V30 10310 C 984.177 -0.450819 -1.99366 0
M  V30 10311 C 984.541 0.973297 -1.65502 0
M  V30 10312 O 985.742 1.47222 -2.24898 0
M  V30 10313 C 984.013 -0.672825 -3.5101 0
M  V30 10314 S 985.572 -0.374216 -4.37201 0
M  V30 10315 H 982.39 -0.169273 -0.690556 0
M  V30 10316 H 984.992 -1.09642 -1.61861 0
M  V30 10317 H 983.696 -1.70855 -3.73145 0
M  V30 10318 H 983.227 -0.0133185 -3.93398 0
M  V30 10319 H 985.242 0.803342 -4.89654 0
M  V30 10320 N 984.415 1.45619 -0.602734 0
M  V30 10321 C 985.345 2.33258 0.106342 0
M  V30 10322 C 986.326 1.46543 0.863664 0
M  V30 10323 O 987.511 1.75324 0.835175 0
M  V30 10324 C 984.641 3.29168 1.10751 0
M  V30 10325 C 983.595 4.25481 0.463717 0
M  V30 10326 C 982.921 5.11046 1.57278 0
M  V30 10327 C 984.221 5.18702 -0.61199 0
M  V30 10328 H 985.915 2.92795 -0.625423 0
M  V30 10329 H 983.461 1.40793 -0.302213 0
M  V30 10330 H 985.414 3.89346 1.61208 0
M  V30 10331 H 984.138 2.6778 1.8698 0
M  V30 10332 H 982.797 3.66595 -0.0199496 0
M  V30 10333 H 982.445 4.46029 2.32524 0
M  V30 10334 H 982.145 5.76286 1.14755 0
M  V30 10335 H 983.669 5.74091 2.07972 0
M  V30 10336 H 985.083 5.72979 -0.191686 0
M  V30 10337 H 983.48 5.92393 -0.958686 0
M  V30 10338 H 984.55 4.61424 -1.4905 0
M  V30 10339 N 985.893 0.34162 1.53853 0
M  V30 10340 C 987.139 -0.255862 2.01179 0
M  V30 10341 C 987.472 -1.50356 1.22909 0
M  V30 10342 O 986.747 -1.91913 0.316198 0
M  V30 10343 C 987.03 -0.571934 3.55529 0
M  V30 10344 C 986.883 0.687727 4.44511 0
M  V30 10345 C 988.202 -1.38233 4.17827 0
M  V30 10346 H 985.321 -0.091521 0.731295 0
M  V30 10347 H 987.963 0.461775 1.84303 0
M  V30 10348 H 986.113 -1.18331 3.70041 0
M  V30 10349 H 987.785 1.32572 4.4184 0
M  V30 10350 H 986.028 1.313 4.13452 0
M  V30 10351 H 986.699 0.421858 5.50386 0
M  V30 10352 H 989.175 -0.865374 4.07002 0
M  V30 10353 H 988.051 -1.57223 5.25901 0
M  V30 10354 H 988.312 -2.38386 3.72323 0
M  V30 10355 N 987.371 -1.57444 0.0701946 0
M  V30 10356 C 988.782 -1.80875 -0.462709 0
M  V30 10357 C 989.133 -0.983975 -1.69742 0
M  V30 10358 O 988.258 -0.206027 -2.15417 0
M  V30 10359 C 988.853 -3.28062 -0.84623 0
M  V30 10360 C 987.412 -3.52345 -1.32401 0
M  V30 10361 C 986.559 -2.7558 -0.308399 0
M  V30 10362 H 989.51 -1.55917 0.295907 0
M  V30 10363 H 989.531 -3.40023 -1.70776 0
M  V30 10364 H 989.043 -3.88064 0.0526033 0
M  V30 10365 H 987.144 -2.97645 -2.24139 0
M  V30 10366 H 987.257 -4.6104 -1.30304 0
M  V30 10367 H 985.621 -2.4229 -0.785337 0
M  V30 10368 H 986.404 -3.38319 0.582679 0
M  V30 10369 N 988.849 0.203349 -1.56283 0
M  V30 10370 C 989.779 1.2549 -1.96912 0
M  V30 10371 C 990.76 1.47919 -0.839884 0
M  V30 10372 O 991.945 1.59795 -1.10359 0
M  V30 10373 C 989.075 2.6009 -2.30153 0
M  V30 10374 C 988.029 2.52289 -3.45738 0
M  V30 10375 C 987.355 3.91086 -3.64632 0
M  V30 10376 C 988.655 2.05503 -4.80173 0
M  V30 10377 H 990.349 0.917306 -2.85002 0
M  V30 10378 H 987.895 0.439818 -1.37119 0
M  V30 10379 H 989.848 3.33829 -2.5717 0
M  V30 10380 H 988.572 2.95574 -1.38937 0
M  V30 10381 H 987.231 1.81006 -3.18798 0
M  V30 10382 H 986.879 4.23908 -2.7076 0
M  V30 10383 H 986.579 3.86742 -4.42385 0
M  V30 10384 H 988.103 4.66459 -3.94016 0
M  V30 10385 H 989.517 2.68995 -5.06275 0
M  V30 10386 H 987.914 2.1218 -5.61337 0
M  V30 10387 H 988.984 1.00793 -4.74309 0
M  V30 10388 N 990.327 1.50405 0.470755 0
M  V30 10389 C 991.576 1.60652 1.21959 0
M  V30 10390 C 991.889 0.312521 1.93087 0
M  V30 10391 O 993.095 0.293901 2.69905 0
M  V30 10392 C 991.551 2.83581 2.21607 0
M  V30 10393 C 991.159 4.19858 1.5628 0
M  V30 10394 C 992.903 3.03173 2.9713 0
M  V30 10395 C 990.81 5.33974 2.54217 0
M  V30 10396 H 989.74 0.598264 0.458907 0
M  V30 10397 H 992.391 1.76836 0.490041 0
M  V30 10398 H 990.773 2.60957 2.97855 0
M  V30 10399 H 991.947 4.52738 0.85819 0
M  V30 10400 H 990.262 4.05873 0.930366 0
M  V30 10401 H 992.859 3.856 3.70428 0
M  V30 10402 H 993.202 2.14914 3.56536 0
M  V30 10403 H 993.735 3.2598 2.27995 0
M  V30 10404 H 990.474 6.24388 1.99549 0
M  V30 10405 H 989.994 5.05511 3.22829 0
M  V30 10406 H 991.673 5.64561 3.16039 0
M  V30 10407 N 991.805 -0.723954 1.39988 0
M  V30 10408 C 992.737 -1.84859 1.35498 0
M  V30 10409 C 993.75 -1.60681 0.261812 0
M  V30 10410 O 994.939 -1.7071 0.521566 0
M  V30 10411 C 992.039 -3.21103 1.08381 0
M  V30 10412 C 991.212 -3.72546 2.2919 0
M  V30 10413 C 990.271 -4.8738 1.9836 0
M  V30 10414 O 989.297 -5.00467 2.71149 0
M  V30 10415 N 990.499 -5.72566 0.956461 0
M  V30 10416 H 993.264 -1.89212 2.3242 0
M  V30 10417 H 990.825 -0.905152 1.34233 0
M  V30 10418 H 992.817 -3.9551 0.857564 0
M  V30 10419 H 991.387 -3.1195 0.201549 0
M  V30 10420 H 990.607 -2.89365 2.67697 0
M  V30 10421 H 991.895 -4.03652 3.09746 0
M  V30 10422 H 991.293 -5.64595 0.353444 0
M  V30 10423 H 989.85 -6.46993 0.790118 0
M  V30 10424 N 993.283 -1.25346 -0.955304 0
M  V30 10425 C 994.213 -1.08152 -2.06943 0
M  V30 10426 C 995.194 0.00922598 -1.70097 0
M  V30 10427 O 996.379 -0.160181 -1.93538 0
M  V30 10428 C 993.509 -0.698745 -3.40198 0
M  V30 10429 C 992.463 -1.73965 -3.9105 0
M  V30 10430 C 991.789 -1.21158 -5.20792 0
M  V30 10431 C 993.089 -3.13829 -4.17503 0
M  V30 10432 H 994.783 -2.01345 -2.21586 0
M  V30 10433 H 992.329 -0.969459 -1.06478 0
M  V30 10434 H 994.282 -0.565394 -4.1759 0
M  V30 10435 H 993.006 0.268892 -3.25491 0
M  V30 10436 H 991.665 -1.86143 -3.15827 0
M  V30 10437 H 991.313 -0.234193 -5.02455 0
M  V30 10438 H 991.013 -1.90728 -5.55785 0
M  V30 10439 H 992.537 -1.09061 -6.00781 0
M  V30 10440 H 993.951 -3.04809 -4.85556 0
M  V30 10441 H 992.348 -3.80863 -4.63749 0
M  V30 10442 H 993.418 -3.6094 -3.23806 0
M  V30 10443 N 994.761 1.15782 -1.06922 0
M  V30 10444 C 995.991 1.90079 -0.809545 0
M  V30 10445 C 996.399 1.78028 0.640523 0
M  V30 10446 O 995.742 1.12692 1.45073 0
M  V30 10447 C 995.804 3.41179 -1.13302 0
M  V30 10448 C 995.468 3.77015 -2.5828 0
M  V30 10449 C 996.465 3.78403 -3.56521 0
M  V30 10450 C 994.15 4.07455 -2.93745 0
M  V30 10451 C 996.144 4.09729 -4.88264 0
M  V30 10452 C 993.831 4.38446 -4.25686 0
M  V30 10453 C 994.829 4.39564 -5.22755 0
M  V30 10454 O 994.517 4.69814 -6.52326 0
M  V30 10455 H 994.249 0.609397 -0.292595 0
M  V30 10456 H 996.803 1.47654 -1.42784 0
M  V30 10457 H 995.033 3.83982 -0.457676 0
M  V30 10458 H 996.722 3.96759 -0.856586 0
M  V30 10459 H 997.488 3.54991 -3.30464 0
M  V30 10460 H 993.367 4.05746 -2.1884 0
M  V30 10461 H 996.911 4.10516 -5.64023 0
M  V30 10462 H 992.808 4.61325 -4.51497 0
M  V30 10463 H 993.576 4.87598 -6.57412 0
M  V30 10464 N 996.239 0.8527 1.3254 0
M  V30 10465 C 997.655 0.542298 1.50104 0
M  V30 10466 C 997.855 -0.927465 1.78886 0
M  V30 10467 O 996.911 -1.7106 1.85728 0
M  V30 10468 C 998.224 1.4276 2.64651 0
M  V30 10469 C 999.772 1.42782 2.78536 0
M  V30 10470 C 1000.25 2.29828 3.9616 0
M  V30 10471 N 1001.74 2.27613 4.03418 0
M  V30 10472 C 1002.47 2.91696 4.93661 0
M  V30 10473 N 1001.97 3.64883 5.88925 0
M  V30 10474 N 1003.76 2.81094 4.86768 0
M  V30 10475 H 995.913 1.80395 1.12123 0
M  V30 10476 H 998.176 0.770394 0.552446 0
M  V30 10477 H 997.882 2.47266 2.50105 0
M  V30 10478 H 997.756 1.11358 3.60388 0
M  V30 10479 H 1000.14 0.390417 2.92506 0
M  V30 10480 H 1000.22 1.78198 1.83519 0
M  V30 10481 H 999.868 3.33635 3.82949 0
M  V30 10482 H 999.798 1.91746 4.9045 0
M  V30 10483 H 1002.29 1.74402 3.3525 0
M  V30 10484 H 1002.6 4.10952 6.54476 0
M  V30 10485 H 1000.95 3.68991 5.88957 0
M  V30 10486 H 1004.14 2.23469 4.11314 0
M  V30 10487 H 1004.31 3.31318 5.56895 0
M  V30 10488 N 997.718 -1.45297 0.610449 0
M  V30 10489 C 998.665 -2.30553 -0.106718 0
M  V30 10490 C 999.635 -1.42272 -0.85719 0
M  V30 10491 O 1000.82 -1.71199 -0.842357 0
M  V30 10492 C 997.96 -3.27226 -1.09623 0
M  V30 10493 C 997.073 -4.3061 -0.346329 0
M  V30 10494 C 996.208 -5.14389 -1.32581 0
M  V30 10495 C 995.247 -6.09497 -0.563892 0
M  V30 10496 N 994.384 -6.86047 -1.4928 0
M  V30 10497 H 999.224 -2.91344 0.626296 0
M  V30 10498 H 996.761 -1.43563 0.32065 0
M  V30 10499 H 998.719 -3.81744 -1.68308 0
M  V30 10500 H 997.349 -2.68182 -1.79662 0
M  V30 10501 H 996.401 -3.7873 0.356084 0
M  V30 10502 H 997.713 -4.98183 0.248026 0
M  V30 10503 H 996.867 -5.73321 -1.98464 0
M  V30 10504 H 995.606 -4.4684 -1.9541 0
M  V30 10505 H 994.611 -5.49693 0.108551 0
M  V30 10506 H 995.836 -6.79074 0.0593872 0
M  V30 10507 H 993.782 -6.21185 -2.10868 0
M  V30 10508 H 993.699 -7.49983 -0.951953 0
M  V30 10509 H 994.967 -7.49518 -2.14112 0
M  V30 10510 N 999.196 -0.349774 -1.5367 0
M  V30 10511 C 1000.13 0.538575 -2.22782 0
M  V30 10512 C 1001.14 1.05896 -1.23652 0
M  V30 10513 O 1002.33 0.968045 -1.4997 0
M  V30 10514 C 999.43 1.7546 -2.89943 0
M  V30 10515 C 998.603 1.36843 -4.15443 0
M  V30 10516 C 997.662 2.4448 -4.65957 0
M  V30 10517 O 996.688 2.07528 -5.3002 0
M  V30 10518 N 997.89 3.75829 -4.42417 0
M  V30 10519 H 1000.65 -0.053348 -2.99653 0
M  V30 10520 H 998.216 -0.174193 -1.6096 0
M  V30 10521 H 1000.21 2.46911 -3.20651 0
M  V30 10522 H 998.778 2.25375 -2.16622 0
M  V30 10523 H 997.998 0.484421 -3.91212 0
M  V30 10524 H 999.286 1.0865 -4.97064 0
M  V30 10525 H 998.684 4.08635 -3.91196 0
M  V30 10526 H 997.241 4.43432 -4.77714 0
M  V30 10527 N 1000.67 1.57404 -0.0785433 0
M  V30 10528 C 1001.9 1.98074 0.597862 0
M  V30 10529 C 1002.32 0.95714 1.6274 0
M  V30 10530 O 1001.67 -0.0553728 1.82416 0
M  V30 10531 C 1001.72 3.38815 1.26041 0
M  V30 10532 O 1001.45 4.37254 0.27207 0
M  V30 10533 C 1002.95 3.94397 2.024 0
M  V30 10534 H 1000.17 0.651263 0.161546 0
M  V30 10535 H 1002.71 2.03927 -0.152941 0
M  V30 10536 H 1000.87 3.34028 1.96225 0
M  V30 10537 H 1001.28 5.19136 0.74822 0
M  V30 10538 H 1002.75 4.95075 2.4414 0
M  V30 10539 H 1003.23 3.31308 2.88326 0
M  V30 10540 H 1003.84 4.02607 1.37068 0
M  V30 10541 N 1002.15 -0.195058 1.56388 0
M  V30 10542 C 1003.38 -0.935745 1.85091 0
M  V30 10543 C 1003.8 -1.76061 0.662118 0
M  V30 10544 O 1003.16 -1.77076 -0.389083 0
M  V30 10545 C 1003.21 -1.80764 3.1202 0
M  V30 10546 O 1002.31 -2.90643 2.92575 0
M  V30 10547 H 1001.65 -0.26351 0.609474 0
M  V30 10548 H 1004.18 -0.200362 2.03617 0
M  V30 10549 H 1004.19 -2.21229 3.42815 0
M  V30 10550 H 1002.87 -1.20157 3.98165 0
M  V30 10551 H 1001.44 -2.53934 2.73079 0
M  V30 10552 N 1003.63 -1.50653 -0.462772 0
M  V30 10553 C 1004.86 -1.65826 -1.23731 0
M  V30 10554 C 1005.27 -0.345002 -1.85621 0
M  V30 10555 O 1004.63 0.673935 -1.69601 0
M  V30 10556 C 1004.68 -2.7555 -2.33997 0
M  V30 10557 O 1004.4 -4.01785 -1.74643 0
M  V30 10558 C 1005.9 -3.0177 -3.2473 0
M  V30 10559 H 1003.12 -0.557177 -0.373892 0
M  V30 10560 H 1005.67 -1.96925 -0.551434 0
M  V30 10561 H 1003.82 -2.47122 -2.98345 0
M  V30 10562 H 1004.24 -4.62529 -2.4732 0
M  V30 10563 H 1005.71 -3.82188 -3.98292 0
M  V30 10564 H 1006.19 -2.13167 -3.84001 0
M  V30 10565 H 1006.79 -3.31761 -2.66111 0
M  V30 10566 N 1005.11 0.71652 -1.4037 0
M  V30 10567 C 1006.35 1.48883 -1.40047 0
M  V30 10568 C 1006.71 1.92 -0.00158027 0
M  V30 10569 O 1007.91 2.68501 0.126765 0
M  V30 10570 C 1006.18 2.68265 -2.36154 0
M  V30 10571 S 1007.74 3.57684 -2.5418 0
M  V30 10572 H 1004.56 0.509035 -0.496391 0
M  V30 10573 H 1007.16 0.837967 -1.76631 0
M  V30 10574 H 1005.87 2.34759 -3.36625 0
M  V30 10575 H 1005.4 3.38264 -2.0085 0
M  V30 10576 H 1007.41 4.62653 -1.79352 0
M  V30 10577 O 1006.63 1.36817 0.858108 0
M  V30 10578 H 1007.32 1.22792 1.49806 0
M  V30 END ATOM
M  V30 BEGIN BOND
M  V30 END BOND
M  V30 END CTAB
M  END
$$$$
