drugbank_target|P18848 Cyclic AMP-dependent transcription factor ATF-4 (DB00852)
 OpenBabel12092121013D

  0  0  0     0  0            999 V3000
M  V30 BEGIN CTAB
M  V30 COUNTS 5380 5434 0 0 0
M  V30 BEGIN ATOM
M  V30 1 H -0.908 1.98254 -0.117106 0
M  V30 2 N 0 1.576 0 0
M  V30 3 C 0.933 2.03868 1.02534 0
M  V30 4 C 1.911 0.928543 1.3348 0
M  V30 5 O 3.095 1.19667 1.45644 0
M  V30 6 C 0.222 2.43627 2.35294 0
M  V30 7 C -0.732 3.65373 2.2001 0
M  V30 8 S 0.101 5.13292 1.52614 0
M  V30 9 C 1.257 5.56322 2.86805 0
M  V30 10 H 1.49 2.90518 0.631377 0
M  V30 11 H -0.977 1.52953 0.210867 0
M  V30 12 H 0.981 2.67203 3.11629 0
M  V30 13 H -0.358 1.57376 2.7183 0
M  V30 14 H -1.165 3.90944 3.18086 0
M  V30 15 H -1.563 3.418 1.51819 0
M  V30 16 H 0.729 5.58782 3.83104 0
M  V30 17 H 1.672 6.56266 2.65933 0
M  V30 18 H 2.08 4.83886 2.90714 0
M  V30 19 N 1.4781 -0.272755 1.55222 0
M  V30 20 C 2.7061 -1.02255 1.79865 0
M  V30 21 C 3.1211 -1.79924 0.572088 0
M  V30 22 O 2.4781 -1.76638 -0.458842 0
M  V30 23 C 2.5291 -1.98094 3.02392 0
M  V30 24 O 2.2501 -1.23572 4.20311 0
M  V30 25 C 3.7511 -2.84884 3.39641 0
M  V30 26 H 0.9711 -0.302057 0.599168 0
M  V30 27 H 3.5151 -0.303465 2.02236 0
M  V30 28 H 1.6701 -2.65465 2.82147 0
M  V30 29 H 2.0841 -1.88172 4.89583 0
M  V30 30 H 3.5581 -3.47927 4.28545 0
M  V30 31 H 4.0351 -3.54665 2.59055 0
M  V30 32 H 4.6411 -2.23003 3.62146 0
M  V30 33 N 2.9562 -1.48159 -0.537278 0
M  V30 34 C 3.8662 -1.64807 -1.6696 0
M  V30 35 C 4.8822 -0.530651 -1.65711 0
M  V30 36 O 6.0582 -0.800784 -1.84796 0
M  V30 37 C 3.1232 -1.67708 -3.03438 0
M  V30 38 C 2.1842 -2.91025 -3.156 0
M  V30 39 C 1.4172 -2.93778 -4.45567 0
M  V30 40 O 1.6402 -2.05153 -5.3223 0
M  V30 41 O 0.5742 -3.85868 -4.61941 0
M  V30 42 H 4.4002 -2.6066 -1.55853 0
M  V30 43 H 1.9852 -1.31475 -0.709549 0
M  V30 44 H 3.8672 -1.7218 -3.84619 0
M  V30 45 H 2.5422 -0.750278 -3.14885 0
M  V30 46 H 1.4492 -2.92089 -2.33741 0
M  V30 47 H 2.7822 -3.83065 -3.09066 0
M  V30 48 N 4.4343 0.785586 -1.36625 0
M  V30 49 C 5.3673 1.90509 -1.25625 0
M  V30 50 C 6.3453 1.62 -0.139607 0
M  V30 51 O 7.5293 1.8591 -0.31141 0
M  V30 52 C 4.6563 3.25419 -0.939158 0
M  V30 53 C 3.7023 3.72856 -2.07077 0
M  V30 54 S 4.5353 3.88162 -3.68904 0
M  V30 55 C 5.6913 5.25942 -3.39317 0
M  V30 56 H 5.9243 1.99549 -2.20381 0
M  V30 57 H 3.4573 0.945226 -1.22085 0
M  V30 58 H 5.4153 4.03346 -0.763029 0
M  V30 59 H 4.0763 3.14099 -0.00931402 0
M  V30 60 H 3.2693 4.70624 -1.80357 0
M  V30 61 H 2.8713 3.01989 -2.20632 0
M  V30 62 H 5.1633 6.10651 -2.93447 0
M  V30 63 H 6.1063 5.57668 -4.36363 0
M  V30 64 H 6.5143 4.93224 -2.74573 0
M  V30 65 N 5.9124 1.20967 1.01018 0
M  V30 66 C 7.1374 1.0503 1.78839 0
M  V30 67 C 7.5624 -0.395752 1.8389 0
M  V30 68 O 6.9204 -1.28529 1.27867 0
M  V30 69 C 6.9684 1.64602 3.2084 0
M  V30 70 O 6.0724 0.887988 4.02726 0
M  V30 71 H 5.4134 0.369987 0.551367 0
M  V30 72 H 7.9434 1.60399 1.27018 0
M  V30 73 H 7.9534 1.68607 3.71532 0
M  V30 74 H 6.6284 2.69841 3.16479 0
M  V30 75 H 5.2054 0.922648 3.61305 0
M  V30 76 N 7.3905 -1.2043 1.01659 0
M  V30 77 C 8.6375 -1.89797 0.705917 0
M  V30 78 C 8.9655 -1.78848 -0.764439 0
M  V30 79 O 8.2205 -1.16694 -1.57102 0
M  V30 80 C 8.5195 -3.40464 1.08714 0
M  V30 81 C 8.1855 -3.71614 2.5537 0
M  V30 82 C 6.8475 -3.79826 2.95441 0
M  V30 83 C 9.1995 -3.85915 3.50313 0
M  V30 84 C 6.5275 -3.99797 4.29394 0
M  V30 85 C 8.8795 -4.07396 4.83954 0
M  V30 86 C 7.5435 -4.13837 5.23732 0
M  V30 87 H 6.8135 -0.694518 0.258313 0
M  V30 88 H 9.4605 -1.42691 1.27717 0
M  V30 89 H 7.7655 -3.89385 0.434309 0
M  V30 90 H 9.4625 -3.92433 0.824461 0
M  V30 91 H 6.0525 -3.65822 2.23321 0
M  V30 92 H 10.2365 -3.78926 3.20513 0
M  V30 93 H 5.4925 -4.03018 4.59768 0
M  V30 94 H 9.6665 -4.17404 5.57447 0
M  V30 95 H 7.2935 -4.29064 6.27541 0
M  V30 96 N 8.8686 -0.792821 -1.36206 0
M  V30 97 C 9.7986 -0.207853 -2.32573 0
M  V30 98 C 10.7796 0.659055 -1.56813 0
M  V30 99 O 11.9646 0.592176 -1.84951 0
M  V30 100 C 9.0946 0.655449 -3.41059 0
M  V30 101 C 8.0486 -0.111842 -4.27854 0
M  V30 102 C 7.3746 0.872274 -5.27537 0
M  V30 103 C 8.6746 -1.30299 -5.05786 0
M  V30 104 H 10.3686 -1.01294 -2.81744 0
M  V30 105 H 7.9146 -0.48854 -1.3546 0
M  V30 106 H 9.8676 1.07464 -4.07467 0
M  V30 107 H 8.5916 1.49328 -2.90463 0
M  V30 108 H 7.2506 -0.512053 -3.63006 0
M  V30 109 H 6.8986 1.70523 -4.73214 0
M  V30 110 H 6.5986 0.363291 -5.86476 0
M  V30 111 H 8.1226 1.28996 -5.96818 0
M  V30 112 H 9.5366 -0.959379 -5.65216 0
M  V30 113 H 7.9336 -1.7455 -5.74154 0
M  V30 114 H 9.0036 -2.09663 -4.37229 0
M  V30 115 N 10.3467 1.47872 -0.545128 0
M  V30 116 C 11.5717 2.07391 -0.0190611 0
M  V30 117 C 11.9967 1.39688 1.25971 0
M  V30 118 O 11.3547 0.467816 1.7516 0
M  V30 119 C 11.4027 3.60188 0.172335 0
M  V30 120 O 10.5067 3.9339 1.23766 0
M  V30 121 H 9.8477 0.662411 -0.0459059 0
M  V30 122 H 12.3777 1.90066 -0.757365 0
M  V30 123 H 12.3877 4.06129 0.390305 0
M  V30 124 H 11.0627 4.08865 -0.761725 0
M  V30 125 H 9.6397 3.5921 1.00114 0
M  V30 126 N 11.8248 0.280983 1.55075 0
M  V30 127 C 13.0498 -0.340154 2.04592 0
M  V30 128 C 13.4748 -1.48246 1.15779 0
M  V30 129 O 12.8328 -1.80614 0.15761 0
M  V30 130 C 12.8808 -0.793104 3.5177 0
M  V30 131 O 11.9848 -1.89981 3.66034 0
M  V30 132 H 11.3258 -0.0694289 0.66036 0
M  V30 133 H 13.8558 0.416993 2.00306 0
M  V30 134 H 13.8658 -1.08729 3.93245 0
M  V30 135 H 12.5408 0.0426163 4.15878 0
M  V30 136 H 11.1178 -1.60771 3.36463 0
M  V30 137 N 13.3029 -1.57598 0.00835791 0
M  V30 138 C 14.2129 -2.12385 -0.996487 0
M  V30 139 C 15.2289 -1.07108 -1.37127 0
M  V30 140 O 16.4049 -1.39055 -1.4569 0
M  V30 141 C 13.4699 -2.62314 -2.26699 0
M  V30 142 C 12.5309 -3.82225 -1.95456 0
M  V30 143 C 11.7639 -4.29763 -3.16449 0
M  V30 144 O 11.9869 -3.76584 -4.28416 0
M  V30 145 O 10.9209 -5.21832 -2.99958 0
M  V30 146 H 14.7469 -2.98479 -0.560725 0
M  V30 147 H 12.3319 -1.47903 -0.210987 0
M  V30 148 H 14.2139 -2.94589 -3.01322 0
M  V30 149 H 12.8889 -1.79313 -2.69497 0
M  V30 150 H 11.7959 -3.54909 -1.18282 0
M  V30 151 H 13.1289 -4.66324 -1.57489 0
M  V30 152 N 14.781 0.264519 -1.55364 0
M  V30 153 C 16.027 0.99646 -1.76631 0
M  V30 154 C 16.36 1.85632 -0.570478 0
M  V30 155 O 15.635 1.89647 0.43175 0
M  V30 156 C 15.918 1.87187 -3.07625 0
M  V30 157 C 15.771 1.04138 -4.37579 0
M  V30 158 C 17.09 2.85749 -3.34717 0
M  V30 159 H 14.209 0.360841 -0.642622 0
M  V30 160 H 16.851 0.268218 -1.88097 0
M  V30 161 H 15.001 2.49279 -2.9798 0
M  V30 162 H 16.673 0.440517 -4.59192 0
M  V30 163 H 14.916 0.345115 -4.32425 0
M  V30 164 H 15.587 1.68729 -5.2558 0
M  V30 165 H 18.063 2.33793 -3.4421 0
M  V30 166 H 16.939 3.44136 -4.27623 0
M  V30 167 H 17.2 3.61311 -2.54768 0
M  V30 168 N 16.2591 1.48442 0.529413 0
M  V30 169 C 17.1891 1.65902 1.64313 0
M  V30 170 C 18.1701 0.507897 1.6234 0
M  V30 171 O 19.3551 0.740503 1.79528 0
M  V30 172 C 16.4851 1.69911 3.02898 0
M  V30 173 C 15.4391 2.8453 3.19729 0
M  V30 174 C 14.7651 2.73629 4.59381 0
M  V30 175 C 16.0651 4.25821 3.02447 0
M  V30 176 H 17.7591 2.5914 1.49955 0
M  V30 177 H 15.3051 1.24709 0.719982 0
M  V30 178 H 17.2581 1.80715 3.80684 0
M  V30 179 H 15.9821 0.732524 3.18279 0
M  V30 180 H 14.6411 2.73283 2.44361 0
M  V30 181 H 14.2891 1.74938 4.71599 0
M  V30 182 H 13.9891 3.50541 4.71588 0
M  V30 183 H 15.5131 2.86401 5.39265 0
M  V30 184 H 16.9271 4.37898 3.70024 0
M  V30 185 H 15.3241 5.03735 3.26146 0
M  V30 186 H 16.3941 4.42244 1.98867 0
M  V30 187 N 17.7372 -0.778329 1.37039 0
M  V30 188 C 18.9832 -1.53892 1.32079 0
M  V30 189 C 19.3162 -1.9396 -0.0965386 0
M  V30 190 O 18.5912 -1.63568 -1.05242 0
M  V30 191 C 18.8742 -2.80847 2.25382 0
M  V30 192 C 18.7272 -2.47076 3.75864 0
M  V30 193 C 20.0462 -3.82741 2.1725 0
M  V30 194 H 17.1652 -0.558303 0.48111 0
M  V30 195 H 19.8072 -0.893397 1.67685 0
M  V30 196 H 17.9572 -3.35931 1.95148 0
M  V30 197 H 19.6292 -1.97957 4.16666 0
M  V30 198 H 17.8722 -1.79863 3.94755 0
M  V30 199 H 18.5432 -3.37798 4.36574 0
M  V30 200 H 21.0192 -3.37133 2.43887 0
M  V30 201 H 19.8952 -4.69303 2.84686 0
M  V30 202 H 20.1562 -4.2652 1.16331 0
M  V30 203 N 19.2153 -1.21501 -1.00376 0
M  V30 204 C 20.4633 -1.03095 -1.73827 0
M  V30 205 C 20.7843 0.436341 -1.90055 0
M  V30 206 O 20.0543 1.31466 -1.45236 0
M  V30 207 H 18.6343 -0.378487 -0.644016 0
M  V30 208 H 21.2963 -1.52831 -1.20949 0
M  V30 209 H 20.3923 -1.49991 -2.73695 0
M  V30 210 N 20.6934 1.19889 -1.02296 0
M  V30 211 C 21.9704 1.85148 -0.630832 0
M  V30 212 C 22.3504 1.91385 0.890782 0
M  V30 213 O 21.6984 1.42642 1.78509 0
M  V30 214 C 21.9084 3.24442 -1.28602 0
M  V30 215 C 23.2564 4.00663 -1.4055 0
M  V30 216 O 24.2804 3.33818 -1.24273 0
M  V30 217 O 23.1394 5.20387 -1.66913 0
M  V30 218 H 20.2334 0.797613 -0.218499 0
M  V30 219 H 22.7794 1.27427 -1.12074 0
M  V30 220 H 21.5514 3.14704 -2.32545 0
M  V30 221 H 21.1744 3.89802 -0.7836 0
M  V30 222 N 22.1715 0.800033 1.35784 0
M  V30 223 C 23.1015 0.220184 2.3246 0
M  V30 224 C 24.0825 -0.65073 1.57161 0
M  V30 225 O 25.2675 -0.582359 1.85263 0
M  V30 226 C 22.3975 -0.637353 3.41402 0
M  V30 227 C 21.3515 0.134531 4.27789 0
M  V30 228 C 20.6775 -0.844285 5.27992 0
M  V30 229 C 21.9775 1.32979 5.05088 0
M  V30 230 H 23.6715 1.02787 2.81203 0
M  V30 231 H 21.2175 0.495717 1.35199 0
M  V30 232 H 23.1705 -1.05302 4.08031 0
M  V30 233 H 21.8945 -1.47785 2.91251 0
M  V30 234 H 20.5535 0.531296 3.6273 0
M  V30 235 H 20.2015 -1.68011 4.74111 0
M  V30 236 H 19.9015 -0.332184 5.8666 0
M  V30 237 H 21.4255 -1.2583 5.97494 0
M  V30 238 H 22.8395 0.98934 5.64699 0
M  V30 239 H 21.2365 1.77593 5.7322 0
M  V30 240 H 22.3065 2.11978 4.36111 0
M  V30 241 N 23.6496 -1.47581 0.552962 0
M  V30 242 C 24.5826 -2.26883 -0.244857 0
M  V30 243 C 25.5606 -1.33784 -0.924147 0
M  V30 244 O 26.7446 -1.6316 -0.943981 0
M  V30 245 C 23.8716 -3.10695 -1.34856 0
M  V30 246 C 22.9176 -4.19339 -0.778268 0
M  V30 247 S 23.7506 -5.34207 0.37184 0
M  V30 248 C 24.9066 -6.21584 -0.733779 0
M  V30 249 H 25.1396 -2.94202 0.428087 0
M  V30 250 H 22.6726 -1.50628 0.339197 0
M  V30 251 H 24.6306 -3.59555 -1.98066 0
M  V30 252 H 23.2916 -2.42746 -1.99332 0
M  V30 253 H 22.4846 -4.77695 -1.60696 0
M  V30 254 H 22.0866 -3.73338 -0.222422 0
M  V30 255 H 24.3786 -6.57676 -1.62692 0
M  V30 256 H 25.3216 -7.07851 -0.187668 0
M  V30 257 H 25.7296 -5.55125 -1.02454 0
M  V30 258 N 25.1277 -0.289203 -1.54924 0
M  V30 259 C 26.3527 0.329299 -2.04769 0
M  V30 260 C 26.7777 1.4763 -1.16564 0
M  V30 261 O 26.1357 1.80527 -0.167186 0
M  V30 262 C 26.1837 0.774438 -3.52186 0
M  V30 263 O 25.2877 1.88038 -3.67036 0
M  V30 264 H 24.6287 0.0659259 -0.660719 0
M  V30 265 H 27.1587 -0.42761 -2.00082 0
M  V30 266 H 27.1687 1.06642 -3.93816 0
M  V30 267 H 25.8437 -0.0646707 -4.1585 0
M  V30 268 H 24.4207 1.58985 -3.3731 0
M  V30 269 N 26.6058 1.57591 -0.0167156 0
M  V30 270 C 28.0168 1.79201 0.523834 0
M  V30 271 C 28.3678 0.925796 1.72984 0
M  V30 272 O 27.4928 0.132792 2.15992 0
M  V30 273 C 28.0878 3.25 0.957091 0
M  V30 274 C 26.6468 3.47648 1.44283 0
M  V30 275 C 25.7938 2.74374 0.401757 0
M  V30 276 H 28.7448 1.56831 -0.242816 0
M  V30 277 H 28.7658 3.34031 1.82219 0
M  V30 278 H 28.2778 3.88019 0.0791415 0
M  V30 279 H 26.3788 2.89866 2.34113 0
M  V30 280 H 26.4918 4.56352 1.45877 0
M  V30 281 H 24.8558 2.39485 0.867121 0
M  V30 282 H 25.6388 3.40102 -0.467513 0
M  V30 283 N 28.0839 -0.256276 1.55502 0
M  V30 284 C 29.3309 -0.985619 1.76895 0
M  V30 285 C 29.6589 -1.85671 0.579355 0
M  V30 286 O 28.9139 -1.90744 -0.437651 0
M  V30 287 C 29.2129 -1.88432 3.03691 0
M  V30 288 C 28.8789 -1.16936 4.35473 0
M  V30 289 C 27.5409 -0.97173 4.71286 0
M  V30 290 C 29.8929 -0.661889 5.1698 0
M  V30 291 C 27.2209 -0.254179 5.86149 0
M  V30 292 C 29.5729 0.042149 6.32586 0
M  V30 293 C 28.2369 0.25134 6.67027 0
M  V30 294 H 27.5069 -0.360663 0.647304 0
M  V30 295 H 30.1539 -0.256483 1.89775 0
M  V30 296 H 28.4589 -2.68021 2.85783 0
M  V30 297 H 30.1559 -2.45015 3.1744 0
M  V30 298 H 26.7459 -1.33332 4.07333 0
M  V30 299 H 30.9299 -0.802145 4.89775 0
M  V30 300 H 26.1859 -0.0815408 6.11346 0
M  V30 301 H 30.3599 0.443049 6.94989 0
M  V30 302 H 27.9869 0.809314 7.5588 0
M  V30 303 N 29.562 -1.4872 -0.521534 0
M  V30 304 C 30.839 -1.4766 -1.2828 0
M  V30 305 C 31.219 -0.19292 -2.10217 0
M  V30 306 O 30.567 0.825193 -2.13079 0
M  V30 307 C 30.777 -2.74358 -2.15705 0
M  V30 308 C 32.125 -3.23028 -2.75569 0
M  V30 309 O 33.149 -2.75333 -2.25987 0
M  V30 310 O 32.008 -4.0604 -3.65778 0
M  V30 311 H 29.102 -0.590085 -0.579421 0
M  V30 312 H 31.648 -1.60963 -0.537492 0
M  V30 313 H 30.42 -3.59292 -1.54999 0
M  V30 314 H 30.043 -2.63816 -2.97467 0
M  V30 315 N 31.0401 0.771051 -1.3745 0
M  V30 316 C 31.9721 1.89352 -1.29146 0
M  V30 317 C 32.9851 1.61477 -0.207124 0
M  V30 318 O 34.1741 1.72382 -0.463324 0
M  V30 319 C 31.2741 3.24596 -0.974195 0
M  V30 320 C 30.4471 3.80111 -2.16413 0
M  V30 321 C 29.5061 4.93832 -1.81703 0
M  V30 322 O 28.5321 5.09382 -2.54006 0
M  V30 323 N 29.7341 5.75483 -0.761573 0
M  V30 324 H 32.4991 1.96991 -2.25864 0
M  V30 325 H 30.0601 0.950191 -1.31084 0
M  V30 326 H 32.0521 3.98193 -0.722828 0
M  V30 327 H 30.6221 3.12454 -0.0955527 0
M  V30 328 H 29.8421 2.98284 -2.57721 0
M  V30 329 H 31.1301 4.13932 -2.95867 0
M  V30 330 H 30.5281 5.65469 -0.161609 0
M  V30 331 H 29.0851 6.49302 -0.570064 0
M  V30 332 N 32.5182 1.22032 0.997298 0
M  V30 333 C 33.7432 1.06921 1.77715 0
M  V30 334 C 34.1682 -0.376226 1.84299 0
M  V30 335 O 33.5262 -1.27165 1.29223 0
M  V30 336 C 33.5742 1.67996 3.19076 0
M  V30 337 O 32.6782 0.930653 4.01762 0
M  V30 338 H 32.0192 0.375814 0.547412 0
M  V30 339 H 34.5492 1.61737 1.25309 0
M  V30 340 H 34.5592 1.72538 3.69723 0
M  V30 341 H 33.2342 2.73182 3.13599 0
M  V30 342 H 31.8112 0.960917 3.60307 0
M  V30 343 N 33.9963 -1.19345 1.0293 0
M  V30 344 C 35.2443 -1.88665 0.724574 0
M  V30 345 C 35.5653 -1.80036 -0.749144 0
M  V30 346 O 34.8353 -1.2111 -1.53978 0
M  V30 347 H 33.4153 -0.698406 0.265025 0
M  V30 348 H 36.0773 -1.44885 1.30362 0
M  V30 349 H 35.1733 -2.94987 1.01926 0
M  V30 350 N 35.4744 -0.807222 -1.35358 0
M  V30 351 C 36.4044 -0.232509 -2.3234 0
M  V30 352 C 37.3854 0.642386 -1.57504 0
M  V30 353 O 38.5704 0.572526 -1.85569 0
M  V30 354 C 35.7004 0.619238 -3.41735 0
M  V30 355 C 34.6544 -0.157215 -4.27711 0
M  V30 356 C 33.9804 0.816273 -5.28433 0
M  V30 357 C 35.2804 -1.35656 -5.04376 0
M  V30 358 H 36.9744 -1.04276 -2.80654 0
M  V30 359 H 34.5204 -0.50288 -1.34934 0
M  V30 360 H 36.4734 1.03137 -4.08584 0
M  V30 361 H 35.1974 1.46239 -2.92031 0
M  V30 362 H 33.8564 -0.550525 -3.62443 0
M  V30 363 H 33.5044 1.65494 -4.74996 0
M  V30 364 H 33.2044 0.301067 -5.86828 0
M  V30 365 H 34.7284 1.22659 -5.98153 0
M  V30 366 H 36.1424 -1.01927 -5.64166 0
M  V30 367 H 34.5394 -1.8063 -5.7227 0
M  V30 368 H 35.6094 -2.14288 -4.34981 0
M  V30 369 N 36.9525 1.47285 -0.560781 0
M  V30 370 C 38.2005 2.02064 -0.0379868 0
M  V30 371 C 38.5215 1.43711 1.31803 0
M  V30 372 O 37.7915 0.61362 1.86042 0
M  V30 373 H 36.3715 0.746918 -0.0110531 0
M  V30 374 H 39.0335 1.80648 -0.731598 0
M  V30 375 H 38.1295 3.12064 0.0474463 0
M  V30 376 N 38.4306 0.297415 1.54768 0
M  V30 377 C 39.3936 -0.567375 2.22066 0
M  V30 378 C 40.3936 -1.06409 1.20556 0
M  V30 379 O 41.5836 -0.960691 1.45315 0
M  V30 380 C 38.7156 -1.78517 2.90421 0
M  V30 381 H 39.9086 0.0205534 2.99893 0
M  V30 382 H 37.4616 0.0482163 1.56226 0
M  V30 383 H 38.1966 -2.41303 2.16664 0
M  V30 384 H 37.9816 -1.43669 3.64831 0
M  V30 385 H 39.4716 -2.39964 3.41771 0
M  V30 386 N 39.9087 -1.5758 0.0250728 0
M  V30 387 C 40.8187 -2.1343 -0.973905 0
M  V30 388 C 41.8347 -1.08556 -1.35984 0
M  V30 389 O 43.0107 -1.40592 -1.44207 0
M  V30 390 C 40.0757 -2.64703 -2.23904 0
M  V30 391 C 39.1367 -3.84276 -1.91391 0
M  V30 392 C 38.3697 -4.33095 -3.11873 0
M  V30 393 O 38.5927 -3.81107 -4.24398 0
M  V30 394 O 37.5267 -5.24984 -2.94406 0
M  V30 395 H 41.3527 -2.99057 -0.529036 0
M  V30 396 H 38.9377 -1.48118 -0.195288 0
M  V30 397 H 40.8197 -2.97769 -2.98181 0
M  V30 398 H 39.4947 -1.82161 -2.6758 0
M  V30 399 H 38.4017 -3.56143 -1.14511 0
M  V30 400 H 39.7347 -4.67968 -1.52534 0
M  V30 401 N 41.3868 0.248026 -1.55636 0
M  V30 402 C 42.2968 1.32859 -1.93354 0
M  V30 403 C 43.3128 1.52719 -0.833838 0
M  V30 404 O 44.4888 1.66363 -1.13513 0
M  V30 405 C 41.5538 2.66337 -2.21958 0
M  V30 406 C 40.6148 2.55008 -3.45354 0
M  V30 407 C 39.8478 3.82121 -3.72584 0
M  V30 408 O 40.0708 4.83951 -3.01907 0
M  V30 409 O 39.0048 3.80822 -4.6611 0
M  V30 410 H 42.8308 1.03862 -2.85388 0
M  V30 411 H 40.4158 0.448686 -1.42503 0
M  V30 412 H 42.2978 3.45216 -2.4167 0
M  V30 413 H 40.9728 2.95068 -1.33103 0
M  V30 414 H 39.8798 1.7442 -3.30951 0
M  V30 415 H 41.2128 2.31222 -4.34508 0
M  V30 416 N 42.8649 1.48995 0.513639 0
M  V30 417 C 44.0899 1.61792 1.29762 0
M  V30 418 C 44.5149 0.284475 1.85936 0
M  V30 419 O 43.8729 -0.746185 1.65232 0
M  V30 420 C 43.9209 2.67993 2.41272 0
M  V30 421 O 43.0249 2.26287 3.44772 0
M  V30 422 H 42.3659 0.541963 0.38363 0
M  V30 423 H 44.8959 1.95097 0.616307 0
M  V30 424 H 44.9059 2.89772 2.87221 0
M  V30 425 H 43.5809 3.64791 1.9975 0
M  V30 426 H 42.1579 2.14788 3.04829 0
M  V30 427 N 44.343 -0.763751 1.37857 0
M  V30 428 C 45.273 -1.89103 1.36975 0
M  V30 429 C 46.254 -1.68439 0.237152 0
M  V30 430 O 47.439 -1.8918 0.438713 0
M  V30 431 C 44.569 -3.26496 1.18395 0
M  V30 432 C 43.523 -3.61741 2.28751 0
M  V30 433 C 42.849 -4.97762 1.95286 0
M  V30 434 C 44.149 -3.67665 3.70972 0
M  V30 435 H 45.843 -1.90099 2.31307 0
M  V30 436 H 43.389 -0.91319 1.11341 0
M  V30 437 H 45.342 -4.05003 1.16406 0
M  V30 438 H 44.066 -3.25955 0.205215 0
M  V30 439 H 42.725 -2.85547 2.29909 0
M  V30 440 H 42.373 -4.93769 0.959221 0
M  V30 441 H 42.073 -5.22313 2.69189 0
M  V30 442 H 43.597 -5.7866 1.94898 0
M  V30 443 H 45.011 -4.36307 3.719 0
M  V30 444 H 43.408 -4.03718 4.43995 0
M  V30 445 H 44.478 -2.68134 4.0402 0
M  V30 446 N 45.8211 -1.22559 -0.990812 0
M  V30 447 C 47.0691 -1.04933 -1.72724 0
M  V30 448 C 47.3901 0.416158 -1.90508 0
M  V30 449 O 46.6601 1.29918 -1.46622 0
M  V30 450 H 45.2401 -0.385296 -0.639965 0
M  V30 451 H 47.9021 -1.54105 -1.19322 0
M  V30 452 H 46.9981 -1.52886 -2.72089 0
M  V30 453 N 47.2992 1.18797 -1.03562 0
M  V30 454 C 48.2292 2.24472 -0.643019 0
M  V30 455 C 49.2102 1.66433 0.351283 0
M  V30 456 O 50.3952 1.92803 0.232505 0
M  V30 457 C 47.5252 3.473 4.24935e-05 0
M  V30 458 C 46.4792 4.18055 -0.917257 0
M  V30 459 C 45.8052 5.34519 -0.138941 0
M  V30 460 C 47.1052 4.72109 -2.23407 0
M  V30 461 H 48.7992 2.57566 -1.52643 0
M  V30 462 H 46.3452 1.23806 -0.735394 0
M  V30 463 H 48.2982 4.20426 0.286383 0
M  V30 464 H 47.0222 3.13424 0.918299 0
M  V30 465 H 45.6812 3.46821 -1.1879 0
M  V30 466 H 45.3292 4.96891 0.781562 0
M  V30 467 H 45.0292 5.82794 -0.750005 0
M  V30 468 H 46.5532 6.10438 0.1405 0
M  V30 469 H 47.9672 5.36955 -2.00879 0
M  V30 470 H 46.3642 5.30897 -2.79765 0
M  V30 471 H 47.4342 3.89807 -2.88407 0
M  V30 472 N 48.7773 0.814389 1.34928 0
M  V30 473 C 49.7073 0.244827 2.32213 0
M  V30 474 C 50.6883 -0.634024 1.57842 0
M  V30 475 O 51.8733 -0.562676 1.8587 0
M  V30 476 C 49.0033 -0.601106 3.42058 0
M  V30 477 C 47.9573 0.179896 4.27622 0
M  V30 478 C 47.2833 -0.788237 5.28858 0
M  V30 479 C 48.5833 1.38329 5.03649 0
M  V30 480 H 50.2773 1.05763 2.80097 0
M  V30 481 H 47.8233 0.510029 1.34665 0
M  V30 482 H 49.7763 -1.00968 4.09125 0
M  V30 483 H 48.5003 -1.44688 2.92802 0
M  V30 484 H 47.1593 0.569739 3.62146 0
M  V30 485 H 46.8073 -1.62973 4.75866 0
M  V30 486 H 46.5073 -0.269942 5.8698 0
M  V30 487 H 48.0313 -1.19485 5.98795 0
M  V30 488 H 49.4453 1.04918 5.63618 0
M  V30 489 H 47.8423 1.83662 5.71304 0
M  V30 490 H 48.9123 2.16592 4.33839 0
M  V30 491 N 50.2554 -1.46986 0.568584 0
M  V30 492 C 51.5324 -1.95592 -0.0174074 0
M  V30 493 C 51.9124 -1.51124 -1.47393 0
M  V30 494 O 51.2604 -0.755329 -2.15655 0
M  V30 495 C 51.4704 -3.48719 0.139913 0
M  V30 496 C 52.8184 -4.246 0.000426376 0
M  V30 497 O 53.8424 -3.56135 0.0680316 0
M  V30 498 O 52.7014 -5.46302 -0.146988 0
M  V30 499 H 49.7954 -0.82498 -0.0577599 0
M  V30 500 H 52.3414 -1.57335 0.635909 0
M  V30 501 H 51.1134 -3.73927 1.15301 0
M  V30 502 H 50.7364 -3.93771 -0.550491 0
M  V30 503 N 51.7335 -0.305618 -1.54608 0
M  V30 504 C 53.0105 0.355652 -1.92339 0
M  V30 505 C 53.3905 1.71324 -1.23335 0
M  V30 506 O 52.7385 2.25473 -0.370702 0
M  V30 507 C 52.9485 0.46572 -3.45879 0
M  V30 508 C 54.2965 0.734426 -4.182 0
M  V30 509 O 55.3205 0.54935 -3.51938 0
M  V30 510 O 54.1795 1.09024 -5.35515 0
M  V30 511 H 51.2735 0.199666 -0.802535 0
M  V30 512 H 53.8195 -0.354017 -1.65966 0
M  V30 513 H 52.5915 -0.488461 -3.88239 0
M  V30 514 H 52.2145 1.22367 -3.78301 0
M  V30 515 N 53.2116 1.57565 -0.0334293 0
M  V30 516 C 54.4416 1.95996 0.653398 0
M  V30 517 C 54.8496 0.908749 1.65947 0
M  V30 518 O 54.1926 -0.117471 1.83324 0
M  V30 519 C 54.2546 3.30589 1.41249 0
M  V30 520 C 53.9186 4.53503 0.564263 0
M  V30 521 C 54.9156 5.19647 -0.16225 0
M  V30 522 C 52.6006 4.99801 0.500398 0
M  V30 523 C 54.5946 6.30412 -0.941255 0
M  V30 524 C 52.2816 6.10448 -0.282308 0
M  V30 525 C 53.2796 6.75612 -1.00184 0
M  V30 526 O 52.9676 7.84134 -1.77171 0
M  V30 527 H 52.6996 0.65027 0.184728 0
M  V30 528 H 55.2536 2.05199 -0.0907841 0
M  V30 529 H 53.4836 3.17888 2.20191 0
M  V30 530 H 55.1726 3.53892 1.98784 0
M  V30 531 H 55.9386 4.84846 -0.12227 0
M  V30 532 H 51.8176 4.48883 1.05002 0
M  V30 533 H 55.3616 6.81208 -1.50339 0
M  V30 534 H 51.2586 6.44686 -0.323989 0
M  V30 535 H 52.0266 8.00822 -1.69194 0
M  V30 536 N 54.6897 -0.239769 1.55765 0
M  V30 537 C 55.6197 -1.30052 1.9393 0
M  V30 538 C 56.6007 -1.49839 0.805132 0
M  V30 539 O 57.7857 -1.62328 1.06599 0
M  V30 540 C 54.9157 -2.65391 2.2402 0
M  V30 541 C 53.8697 -2.60289 3.39755 0
M  V30 542 C 53.1957 -3.99489 3.55405 0
M  V30 543 C 54.4957 -2.16654 4.75246 0
M  V30 544 H 56.1897 -0.983573 2.82783 0
M  V30 545 H 53.7357 -0.471701 1.36055 0
M  V30 546 H 55.6887 -3.3974 2.49308 0
M  V30 547 H 54.4127 -2.98736 1.32 0
M  V30 548 H 53.0717 -1.88398 3.14487 0
M  V30 549 H 52.7197 -4.30112 2.60793 0
M  V30 550 H 52.4197 -3.96962 4.33238 0
M  V30 551 H 53.9437 -4.75528 3.83022 0
M  V30 552 H 55.3577 -2.80737 4.99859 0
M  V30 553 H 53.7547 -2.25223 5.56232 0
M  V30 554 H 54.8247 -1.11835 4.71827 0
M  V30 555 N 56.1678 -1.49265 -0.50573 0
M  V30 556 C 57.0778 -1.68312 -1.63427 0
M  V30 557 C 58.0938 -0.565682 -1.64548 0
M  V30 558 O 59.2698 -0.839801 -1.83055 0
M  V30 559 C 56.3348 -1.74107 -2.99813 0
M  V30 560 C 55.3958 -2.97653 -3.09356 0
M  V30 561 C 54.6288 -3.03163 -4.39236 0
M  V30 562 O 54.8518 -2.16396 -5.27758 0
M  V30 563 O 53.7858 -3.9558 -4.53652 0
M  V30 564 H 57.6118 -2.63907 -1.50289 0
M  V30 565 H 55.1968 -1.32951 -0.681502 0
M  V30 566 H 57.0788 -1.803 -3.80881 0
M  V30 567 H 55.7538 -0.816901 -3.13223 0
M  V30 568 H 54.6608 -2.96981 -2.27493 0
M  V30 569 H 55.9938 -3.89535 -3.00871 0
M  V30 570 N 57.6459 0.756429 -1.3826 0
M  V30 571 C 58.8919 1.51772 -1.34511 0
M  V30 572 C 59.2249 1.94089 0.0656691 0
M  V30 573 O 58.4999 1.65221 1.02626 0
M  V30 574 C 58.7829 2.77226 -2.29821 0
M  V30 575 C 58.6359 2.41065 -3.79747 0
M  V30 576 C 59.9549 3.79236 -2.23312 0
M  V30 577 H 57.0739 0.550578 -0.489931 0
M  V30 578 H 59.7159 0.866607 -1.69086 0
M  V30 579 H 57.8659 3.32784 -2.00467 0
M  V30 580 H 59.5379 1.91303 -4.19763 0
M  V30 581 H 57.7809 1.7356 -3.97567 0
M  V30 582 H 58.4519 3.3081 -4.41892 0
M  V30 583 H 60.9279 3.3321 -2.49219 0
M  V30 584 H 59.8039 4.64714 -2.92116 0
M  V30 585 H 60.0649 4.24615 -1.23102 0
M  V30 586 N 59.124 1.23083 0.984299 0
M  V30 587 C 60.087 1.00979 2.05757 0
M  V30 588 C 61.087 -0.0269573 1.60777 0
M  V30 589 O 62.277 0.212403 1.729 0
M  V30 590 C 59.409 0.527072 3.36801 0
M  V30 591 H 60.602 1.9622 2.26799 0
M  V30 592 H 58.155 1.05072 1.15714 0
M  V30 593 H 58.89 -0.429294 3.21446 0
M  V30 594 H 58.675 1.27515 3.70786 0
M  V30 595 H 60.165 0.392942 4.15747 0
M  V30 596 N 60.6021 -1.18246 1.0419 0
M  V30 597 C 61.5491 -2.2192 0.634037 0
M  V30 598 C 62.5191 -1.62179 -0.358765 0
M  V30 599 O 63.7041 -1.89122 -0.252466 0
M  V30 600 C 60.8441 -3.451 0.00445535 0
M  V30 601 C 59.9571 -4.19174 1.04487 0
M  V30 602 C 59.0921 -5.29813 0.383676 0
M  V30 603 C 58.1311 -5.9566 1.4091 0
M  V30 604 N 57.2681 -6.97834 0.772784 0
M  V30 605 H 62.1081 -2.56164 1.52263 0
M  V30 606 H 59.6451 -1.25843 0.761701 0
M  V30 607 H 61.6031 -4.15485 -0.377919 0
M  V30 608 H 60.2331 -3.11472 -0.847652 0
M  V30 609 H 59.2851 -3.47604 1.54518 0
M  V30 610 H 60.5971 -4.64267 1.82368 0
M  V30 611 H 59.7511 -6.06677 -0.0528366 0
M  V30 612 H 58.4901 -4.85825 -0.427208 0
M  V30 613 H 57.4951 -5.17535 1.85574 0
M  V30 614 H 58.7201 -6.4173 2.22171 0
M  V30 615 H 56.6661 -6.55998 -0.0177708 0
M  V30 616 H 56.5831 -7.41186 1.48928 0
M  V30 617 H 57.8511 -7.78665 0.36071 0
M  V30 618 N 62.0802 -0.821533 -1.34494 0
M  V30 619 C 63.0302 -0.214793 -2.26986 0
M  V30 620 C 64.0142 0.620125 -1.4847 0
M  V30 621 O 65.2062 0.474933 -1.70509 0
M  V30 622 C 62.3352 0.623566 -3.37589 0
M  V30 623 C 61.4212 -0.221904 -4.23519 0
M  V30 624 N 61.8122 -1.29223 -4.89014 0
M  V30 625 C 60.1102 -0.00600922 -4.46 0
M  V30 626 C 60.8112 -1.80965 -5.52835 0
M  V30 627 N 59.7872 -1.11376 -5.32068 0
M  V30 628 H 63.5892 -1.03354 -2.75128 0
M  V30 629 H 61.1032 -0.6642 -1.48196 0
M  V30 630 H 63.1002 1.0744 -4.02818 0
M  V30 631 H 61.7602 1.44049 -2.90998 0
M  V30 632 H 62.7712 -1.67502 -4.90065 0
M  V30 633 H 59.4482 0.77886 -4.10171 0
M  V30 634 H 60.8382 -2.70502 -6.15043 0
M  V30 635 N 63.5583 1.46682 -0.576371 0
M  V30 636 C 64.8053 2.02412 -0.0595339 0
M  V30 637 C 65.1333 1.44859 1.29793 0
M  V30 638 O 64.3883 0.601099 1.8624 0
M  V30 639 C 64.6873 3.57345 0.062886 0
M  V30 640 C 64.3533 4.33908 -1.22616 0
M  V30 641 C 63.0153 4.54544 -1.57933 0
M  V30 642 C 65.3673 4.77919 -2.07948 0
M  V30 643 C 62.6953 5.16444 -2.78393 0
M  V30 644 C 65.0473 5.41149 -3.27629 0
M  V30 645 C 63.7113 5.60014 -3.63236 0
M  V30 646 H 62.9813 0.74068 -0.021785 0
M  V30 647 H 65.6283 1.76128 -0.751735 0
M  V30 648 H 63.9333 3.82729 0.838178 0
M  V30 649 H 65.6303 3.98136 0.478439 0
M  V30 650 H 62.2203 4.18138 -0.941202 0
M  V30 651 H 66.4043 4.61738 -1.81967 0
M  V30 652 H 61.6603 5.29242 -3.06126 0
M  V30 653 H 65.8343 5.74211 -3.94023 0
M  V30 654 H 63.4613 6.07748 -4.56669 0
M  V30 655 N 65.0364 0.313813 1.54444 0
M  V30 656 C 65.9834 -0.55655 2.23989 0
M  V30 657 C 66.9534 -1.11943 1.22711 0
M  V30 658 O 68.1384 -1.16158 1.51367 0
M  V30 659 C 65.2784 -1.71635 2.99392 0
M  V30 660 C 64.3914 -1.18364 4.15468 0
M  V30 661 C 63.5264 -2.30834 4.78424 0
M  V30 662 C 62.5654 -1.74762 5.86622 0
M  V30 663 N 61.7024 -2.80855 6.43479 0
M  V30 664 H 66.5424 0.0430893 2.97969 0
M  V30 665 H 64.0794 0.0330359 1.47063 0
M  V30 666 H 66.0374 -2.39868 3.41349 0
M  V30 667 H 64.6674 -2.28742 2.27765 0
M  V30 668 H 63.7194 -0.393163 3.78363 0
M  V30 669 H 65.0314 -0.733262 4.93381 0
M  V30 670 H 64.1854 -3.0699 5.23299 0
M  V30 671 H 62.9244 -2.79204 3.99871 0
M  V30 672 H 61.9294 -0.970995 5.41158 0
M  V30 673 H 63.1544 -1.2728 6.67066 0
M  V30 674 H 61.1004 -3.28535 5.67804 0
M  V30 675 H 61.0174 -2.40351 7.16776 0
M  V30 676 H 62.2854 -3.5687 6.93011 0
M  V30 677 N 66.5145 -1.57545 0.0417849 0
M  V30 678 C 67.9255 -1.80011 -0.495259 0
M  V30 679 C 68.2765 -0.953199 -1.71489 0
M  V30 680 O 67.4015 -0.167138 -2.15754 0
M  V30 681 C 67.9965 -3.26482 -0.905265 0
M  V30 682 C 66.5555 -3.499 -1.38734 0
M  V30 683 C 65.7025 -2.74979 -0.358056 0
M  V30 684 H 68.6535 -1.56425 0.267736 0
M  V30 685 H 68.6745 -3.36887 -1.76882 0
M  V30 686 H 68.1865 -3.88096 -0.017401 0
M  V30 687 H 66.2875 -2.93553 -2.29471 0
M  V30 688 H 66.4005 -4.58615 -1.38598 0
M  V30 689 H 64.7645 -2.40834 -0.828912 0
M  V30 690 H 65.5475 -3.39315 0.521561 0
M  V30 691 N 67.9926 0.231505 -1.5589 0
M  V30 692 C 68.9426 1.29007 -1.87993 0
M  V30 693 C 69.9266 1.42764 -0.742102 0
M  V30 694 O 71.1186 1.45747 -1.00433 0
M  V30 695 C 68.2476 2.6425 -2.1915 0
M  V30 696 C 67.3336 2.54435 -3.39299 0
M  V30 697 N 67.7246 2.14262 -4.58176 0
M  V30 698 C 66.0226 2.85416 -3.42715 0
M  V30 699 C 66.7236 2.15455 -5.40328 0
M  V30 700 N 65.6996 2.55558 -4.79783 0
M  V30 701 H 69.5016 0.970213 -2.77424 0
M  V30 702 H 67.0156 0.440097 -1.56323 0
M  V30 703 H 69.0126 3.40665 -2.40319 0
M  V30 704 H 67.6726 2.9709 -1.31025 0
M  V30 705 H 68.6836 1.85554 -4.83518 0
M  V30 706 H 65.3606 3.22693 -2.64906 0
M  V30 707 H 66.7506 1.86605 -6.45467 0
M  V30 708 N 69.4707 1.49531 0.497807 0
M  V30 709 C 70.7187 1.58865 1.24926 0
M  V30 710 C 71.0397 0.278721 1.92998 0
M  V30 711 O 70.3097 -0.702144 1.82885 0
M  V30 712 H 68.8897 0.585343 0.464094 0
M  V30 713 H 71.5517 1.86174 0.57666 0
M  V30 714 H 70.6477 2.38633 2.01149 0
M  V30 715 N 70.9488 -0.749086 1.3866 0
M  V30 716 C 72.1958 -1.50833 1.35114 0
M  V30 717 C 72.5238 -1.94415 -0.0574049 0
M  V30 718 O 71.7788 -1.66065 -1.03541 0
M  V30 719 C 72.0778 -2.7712 2.25697 0
M  V30 720 C 71.7438 -2.52477 3.73585 0
M  V30 721 C 70.4058 -2.45466 4.13884 0
M  V30 722 C 72.7578 -2.31066 4.67181 0
M  V30 723 C 70.0858 -2.15064 5.45861 0
M  V30 724 C 72.4378 -2.02183 5.9942 0
M  V30 725 C 71.1018 -1.93631 6.38798 0
M  V30 726 H 70.3718 -0.551936 0.494416 0
M  V30 727 H 73.0188 -0.860979 1.71054 0
M  V30 728 H 71.3238 -3.46528 1.82827 0
M  V30 729 H 73.0208 -3.35096 2.20254 0
M  V30 730 H 69.6108 -2.58807 3.41638 0
M  V30 731 H 73.7948 -2.35459 4.3689 0
M  V30 732 H 69.0508 -2.06954 5.75308 0
M  V30 733 H 73.2248 -1.8462 6.71482 0
M  V30 734 H 70.8518 -1.69839 7.40985 0
M  V30 735 N 72.4269 -1.23603 -0.977757 0
M  V30 736 C 73.6519 -1.09735 -1.75991 0
M  V30 737 C 74.0769 0.346858 -1.84874 0
M  V30 738 O 73.4349 1.25093 -1.3123 0
M  V30 739 C 73.4829 -1.73051 -3.16363 0
M  V30 740 O 72.5869 -0.994452 -4.0023 0
M  V30 741 H 71.9279 -0.384476 -0.541364 0
M  V30 742 H 74.4579 -1.6371 -1.2272 0
M  V30 743 H 74.4679 -1.78398 -3.66931 0
M  V30 744 H 73.1429 -2.78137 -3.09213 0
M  V30 745 H 71.7199 -1.01812 -3.58732 0
M  V30 746 N 73.905 1.17692 -1.04816 0
M  V30 747 C 75.13 1.92327 -0.776207 0
M  V30 748 C 75.555 1.76082 0.661581 0
M  V30 749 O 74.913 1.076 1.45917 0
M  V30 750 C 74.961 3.41539 -1.15687 0
M  V30 751 O 74.065 4.11402 -0.286775 0
M  V30 752 H 73.406 0.599735 -0.284981 0
M  V30 753 H 75.936 1.49201 -1.4 0
M  V30 754 H 75.946 3.92269 -1.12202 0
M  V30 755 H 74.621 3.52684 -2.20425 0
M  V30 756 H 73.198 3.70939 -0.381903 0
M  V30 757 N 75.3831 0.828654 1.34056 0
M  V30 758 C 76.6601 0.341809 1.9259 0
M  V30 759 C 77.0401 -1.17158 1.75605 0
M  V30 760 O 76.3881 -1.98132 1.13824 0
M  V30 761 C 76.5981 0.777453 3.4023 0
M  V30 762 C 77.9461 0.779579 4.17382 0
M  V30 763 O 78.9701 0.7204 3.48839 0
M  V30 764 O 77.8291 0.857996 5.39723 0
M  V30 765 H 74.9231 0.0946085 0.821571 0
M  V30 766 H 77.4691 0.913827 1.42994 0
M  V30 767 H 76.2411 1.8196 3.46419 0
M  V30 768 H 75.8641 0.181444 3.97186 0
M  V30 769 N 76.8612 -1.46375 0.584142 0
M  V30 770 C 77.8082 -2.30323 -0.148286 0
M  V30 771 C 78.7782 -1.40703 -0.882713 0
M  V30 772 O 79.9632 -1.69651 -0.873099 0
M  V30 773 C 77.1032 -3.25196 -1.15507 0
M  V30 774 C 76.2162 -4.29915 -0.423943 0
M  V30 775 C 75.3512 -5.11914 -1.41838 0
M  V30 776 C 74.3902 -6.08381 -0.673736 0
M  V30 777 N 73.5272 -6.83242 -1.6163 0
M  V30 778 H 78.3672 -2.92427 0.573644 0
M  V30 779 H 75.9042 -1.44118 0.294703 0
M  V30 780 H 77.8622 -3.78646 -1.75166 0
M  V30 781 H 76.4922 -2.64898 -1.8447 0
M  V30 782 H 75.5442 -3.7931 0.287714 0
M  V30 783 H 76.8562 -4.98549 0.158128 0
M  V30 784 H 76.0102 -5.69648 -2.08773 0
M  V30 785 H 74.7492 -4.43243 -2.03438 0
M  V30 786 H 73.7542 -5.49799 0.00938483 0
M  V30 787 H 74.9792 -6.79071 -0.0631082 0
M  V30 788 H 72.9252 -6.1728 -2.22038 0
M  V30 789 H 72.8422 -7.48144 -1.08707 0
M  V30 790 H 74.1102 -7.45534 -2.27596 0
M  V30 791 N 78.3393 -0.321999 -1.54275 0
M  V30 792 C 79.3023 0.531975 -2.22941 0
M  V30 793 C 80.3023 1.04478 -1.22234 0
M  V30 794 O 81.4923 0.937452 -1.46825 0
M  V30 795 C 78.6243 1.73874 -2.93224 0
M  V30 796 H 79.8173 -0.0682612 -2.99822 0
M  V30 797 H 77.3703 -0.0730644 -1.56129 0
M  V30 798 H 78.1053 2.37825 -2.20476 0
M  V30 799 H 77.8903 1.37847 -3.6707 0
M  V30 800 H 79.3803 2.34496 -3.45545 0
M  V30 801 N 79.8174 1.5752 -0.0501392 0
M  V30 802 C 80.7644 2.1147 0.924603 0
M  V30 803 C 81.7344 1.02182 1.30951 0
M  V30 804 O 82.9194 1.29723 1.39916 0
M  V30 805 C 80.0594 2.66337 2.19451 0
M  V30 806 C 79.1724 3.89708 1.86418 0
M  V30 807 C 78.3074 4.32893 3.07859 0
M  V30 808 C 77.3464 5.48967 2.70742 0
M  V30 809 N 76.4834 5.87211 3.84874 0
M  V30 810 H 81.3234 2.94465 0.457639 0
M  V30 811 H 78.8604 1.45531 0.214266 0
M  V30 812 H 80.8184 2.96247 2.93758 0
M  V30 813 H 79.4484 1.86141 2.63726 0
M  V30 814 H 78.5004 3.66396 1.02264 0
M  V30 815 H 79.8124 4.74074 1.55096 0
M  V30 816 H 78.9664 4.6435 3.90466 0
M  V30 817 H 77.7054 3.47336 3.42358 0
M  V30 818 H 76.7104 5.17183 1.86551 0
M  V30 819 H 77.9354 6.3624 2.37436 0
M  V30 820 H 75.8814 5.04607 4.19175 0
M  V30 821 H 75.7984 6.66266 3.57247 0
M  V30 822 H 77.0664 6.23282 4.68123 0
M  V30 823 N 81.2955 -0.223234 1.56011 0
M  V30 824 C 82.2585 -1.26014 1.9145 0
M  V30 825 C 83.2585 -1.3989 0.792937 0
M  V30 826 O 84.4485 -1.38184 1.0607 0
M  V30 827 C 81.5805 -2.63422 2.16383 0
M  V30 828 H 82.7735 -0.95796 2.84189 0
M  V30 829 H 80.3265 -0.463576 1.49267 0
M  V30 830 H 81.0615 -2.98741 1.2619 0
M  V30 831 H 80.8465 -2.54728 2.98088 0
M  V30 832 H 82.3365 -3.38249 2.44903 0
M  V30 833 N 82.7736 -1.49793 -0.48987 0
M  V30 834 C 84.0216 -1.59525 -1.24081 0
M  V30 835 C 84.3426 -0.288953 -1.92847 0
M  V30 836 O 83.6126 0.692436 -1.83254 0
M  V30 837 H 82.1926 -0.587796 -0.460983 0
M  V30 838 H 84.8546 -1.86477 -0.566778 0
M  V30 839 H 83.9506 -2.39696 -1.99881 0
M  V30 840 N 84.2517 0.741722 -1.39055 0
M  V30 841 C 85.4767 1.53607 -1.39354 0
M  V30 842 C 85.9017 1.88096 0.0116905 0
M  V30 843 O 85.2597 1.5143 0.996924 0
M  V30 844 C 85.3077 2.80441 -2.26682 0
M  V30 845 O 84.4117 3.76088 -1.69208 0
M  V30 846 H 83.7527 0.464142 -0.474835 0
M  V30 847 H 86.2827 0.915665 -1.82967 0
M  V30 848 H 86.2927 3.29246 -2.40959 0
M  V30 849 H 84.9677 2.5467 -3.2881 0
M  V30 850 H 83.5447 3.34833 -1.64138 0
M  V30 851 N 85.7298 1.2412 0.971189 0
M  V30 852 C 86.9548 1.10667 1.75407 0
M  V30 853 C 87.3798 -0.337048 1.85056 0
M  V30 854 O 86.7378 -1.24396 1.31892 0
M  V30 855 C 86.7858 1.74726 3.15441 0
M  V30 856 O 85.8898 1.01566 3.99697 0
M  V30 857 H 85.2308 0.387341 0.539317 0
M  V30 858 H 87.7608 1.64358 1.2185 0
M  V30 859 H 87.7708 1.80341 3.6598 0
M  V30 860 H 86.4458 2.79773 3.07734 0
M  V30 861 H 85.0228 1.03713 3.58187 0
M  V30 862 N 87.2079 -1.17134 1.05439 0
M  V30 863 C 88.1179 -2.24878 0.668365 0
M  V30 864 C 89.1339 -1.71186 -0.311687 0
M  V30 865 O 90.3099 -2.00738 -0.163161 0
M  V30 866 C 87.3749 -3.46662 0.051648 0
M  V30 867 C 86.4359 -4.15429 1.08246 0
M  V30 868 C 85.6689 -5.31399 0.495082 0
M  V30 869 O 85.8919 -5.66153 -0.694743 0
M  V30 870 O 84.8259 -5.89187 1.23056 0
M  V30 871 H 88.6519 -2.60189 1.56637 0
M  V30 872 H 86.2369 -1.24482 0.826104 0
M  V30 873 H 88.1189 -4.20394 -0.290966 0
M  V30 874 H 86.7939 -3.13142 -0.819971 0
M  V30 875 H 85.7009 -3.43704 1.47711 0
M  V30 876 H 87.0339 -4.52982 1.92532 0
M  V30 877 N 88.686 -0.835752 -1.33615 0
M  V30 878 C 89.932 -0.439817 -1.98588 0
M  V30 879 C 90.287 0.989274 -1.65019 0
M  V30 880 O 89.58 1.68168 -0.918159 0
M  V30 881 C 89.774 -0.593925 -3.52431 0
M  V30 882 C 89.603 -2.03644 -4.00948 0
M  V30 883 C 88.373 -2.67103 -4.28934 0
M  V30 884 C 90.571 -3.00479 -4.17393 0
M  V30 885 N 88.553 -4.02462 -4.6357 0
M  V30 886 C 89.924 -4.20777 -4.55353 0
M  V30 887 C 91.979 -2.96926 -3.99674 0
M  V30 888 C 90.682 -5.37994 -4.77447 0
M  V30 889 C 92.708 -4.1337 -4.22941 0
M  V30 890 C 92.07 -5.32422 -4.61201 0
M  V30 891 H 88.169 -0.209303 -0.75347 0
M  V30 892 H 90.753 -1.08316 -1.61789 0
M  V30 893 H 88.924 0.019599 -3.88395 0
M  V30 894 H 90.656 -0.169738 -4.04344 0
M  V30 895 H 87.411 -2.18259 -4.20309 0
M  V30 896 H 87.835 -4.72232 -4.85104 0
M  V30 897 H 92.477 -2.06015 -3.69212 0
M  V30 898 H 90.195 -6.29451 -5.06771 0
M  V30 899 H 93.781 -4.12034 -4.10754 0
M  V30 900 H 92.661 -6.21027 -4.78848 0
M  V30 901 N 90.1641 1.46063 -0.591896 0
M  V30 902 C 91.0941 2.33172 0.123673 0
M  V30 903 C 92.0751 1.45897 0.87453 0
M  V30 904 O 93.2601 1.74698 0.848181 0
M  V30 905 C 90.3901 3.28336 1.13194 0
M  V30 906 C 89.3441 4.25124 0.495324 0
M  V30 907 C 88.6701 5.09863 1.61071 0
M  V30 908 C 89.9701 5.19143 -0.573425 0
M  V30 909 H 91.6641 2.93252 -0.603646 0
M  V30 910 H 89.2101 1.41014 -0.291741 0
M  V30 911 H 91.1631 3.88137 1.64097 0
M  V30 912 H 89.8871 2.66383 1.88965 0
M  V30 913 H 88.5461 3.66599 0.00729452 0
M  V30 914 H 88.1941 4.44288 2.35832 0
M  V30 915 H 87.8941 5.75417 1.19035 0
M  V30 916 H 89.4181 5.72529 2.12233 0
M  V30 917 H 90.8321 5.73106 -0.1491 0
M  V30 918 H 89.2291 5.93089 -0.914636 0
M  V30 919 H 90.2991 4.62519 -1.45617 0
M  V30 920 N 91.6422 0.330177 1.54103 0
M  V30 921 C 92.6052 -0.520144 2.2322 0
M  V30 922 C 93.6052 -1.03828 1.22786 0
M  V30 923 O 94.7952 -0.929652 1.4732 0
M  V30 924 C 91.9272 -1.72317 2.94142 0
M  V30 925 H 93.1202 0.0841605 2.99782 0
M  V30 926 H 90.6732 0.0813433 1.56088 0
M  V30 927 H 91.4082 -2.36653 2.21734 0
M  V30 928 H 91.1932 -1.35898 3.67796 0
M  V30 929 H 92.6832 -2.3266 3.46784 0
M  V30 930 N 93.1203 -1.57491 0.0584922 0
M  V30 931 C 94.3663 -1.93264 -0.614558 0
M  V30 932 C 94.6993 -0.937717 -1.7006 0
M  V30 933 O 93.9743 0.0351652 -1.94468 0
M  V30 934 C 94.2573 -3.3938 -1.20386 0
M  V30 935 C 94.1103 -4.49625 -0.125375 0
M  V30 936 C 95.4293 -3.86039 -2.11334 0
M  V30 937 H 92.5483 -0.702791 -0.221933 0
M  V30 938 H 95.1903 -1.8961 0.12175 0
M  V30 939 H 93.3403 -3.42626 -1.83139 0
M  V30 940 H 95.0123 -4.58506 0.506971 0
M  V30 941 H 93.2553 -4.30354 0.545672 0
M  V30 942 H 93.9263 -5.48967 -0.577861 0
M  V30 943 H 96.4023 -3.84716 -1.58534 0
M  V30 944 H 95.2783 -4.88914 -2.49507 0
M  V30 945 H 95.5393 -3.23215 -3.01636 0
M  V30 946 N 94.5984 0.214957 -1.56127 0
M  V30 947 C 95.8754 0.963093 -1.70247 0
M  V30 948 C 96.2554 2.02166 -0.60764 0
M  V30 949 O 95.6034 2.25244 0.384385 0
M  V30 950 C 95.8134 1.56756 -3.11815 0
M  V30 951 C 97.1614 2.0573 -3.7143 0
M  V30 952 O 98.1854 1.66637 -3.14818 0
M  V30 953 O 97.0444 2.77603 -4.70743 0
M  V30 954 H 94.1384 0.450321 -0.693643 0
M  V30 955 H 96.6844 0.206219 -1.68442 0
M  V30 956 H 95.4564 0.803533 -3.82961 0
M  V30 957 H 95.0794 2.3898 -3.17765 0
M  V30 958 N 96.0765 1.50051 0.48192 0
M  V30 959 C 97.3245 1.60181 1.23234 0
M  V30 960 C 97.6455 0.299176 1.92691 0
M  V30 961 O 96.9155 -0.682708 1.83619 0
M  V30 962 H 95.4955 0.590232 0.457859 0
M  V30 963 H 98.1575 1.86775 0.556881 0
M  V30 964 H 97.2535 2.40753 1.98607 0
M  V30 965 N 97.5546 -0.734337 1.39446 0
M  V30 966 C 98.4846 -1.86155 1.40955 0
M  V30 967 C 99.4656 -1.67898 0.272827 0
M  V30 968 O 100.651 -1.88207 0.478743 0
M  V30 969 C 97.7806 -3.23912 1.25294 0
M  V30 970 C 96.7346 -3.56808 2.36373 0
M  V30 971 C 96.0606 -4.93508 2.058 0
M  V30 972 C 97.3606 -3.59713 3.78687 0
M  V30 973 H 99.0546 -1.8515 2.35287 0
M  V30 974 H 96.6006 -0.889367 1.13253 0
M  V30 975 H 98.5536 -4.02443 1.2497 0
M  V30 976 H 97.2776 -3.25446 0.274308 0
M  V30 977 H 95.9366 -2.80606 2.35914 0
M  V30 978 H 95.5846 -4.91623 1.06374 0
M  V30 979 H 95.2846 -5.16486 2.80208 0
M  V30 980 H 96.8086 -5.74396 2.07128 0
M  V30 981 H 98.2226 -4.2832 3.81071 0
M  V30 982 H 96.6196 -3.94209 4.52459 0
M  V30 983 H 97.6896 -2.59504 4.09617 0
M  V30 984 N 99.0327 -1.24633 -0.964593 0
M  V30 985 C 100.279 -1.08949 -1.71049 0
M  V30 986 C 100.612 0.370302 -1.90637 0
M  V30 987 O 99.8867 1.27349 -1.47011 0
M  V30 988 C 100.17 -1.83329 -3.0994 0
M  V30 989 C 100.023 -3.37077 -2.97824 0
M  V30 990 C 101.342 -1.60846 -4.09654 0
M  V30 991 H 98.4607 -0.397178 -0.620821 0
M  V30 992 H 101.103 -1.5334 -1.12191 0
M  V30 993 H 99.2527 -1.45597 -3.60186 0
M  V30 994 H 100.925 -3.84425 -2.5498 0
M  V30 995 H 99.1677 -3.65298 -2.33965 0
M  V30 996 H 99.8387 -3.84324 -3.96231 0
M  V30 997 H 102.315 -1.93674 -3.68279 0
M  V30 998 H 101.191 -2.1534 -5.04896 0
M  V30 999 H 101.452 -0.547434 -4.38698 0
M  V30 1000 N 100.511 1.16574 -1.06058 0
M  V30 1001 C 101.736 1.91493 -0.796562 0
M  V30 1002 C 102.161 1.76773 0.642868 0
M  V30 1003 O 101.519 1.09142 1.44768 0
M  V30 1004 C 101.567 3.40293 -1.19303 0
M  V30 1005 O 100.671 4.11074 -0.330394 0
M  V30 1006 H 100.012 0.596678 -0.291326 0
M  V30 1007 H 102.542 1.47708 -1.41575 0
M  V30 1008 H 102.552 3.91057 -1.16356 0
M  V30 1009 H 101.227 3.50326 -2.24153 0
M  V30 1010 H 99.8038 3.70513 -0.421225 0
M  V30 1011 N 101.989 0.842826 1.3317 0
M  V30 1012 C 103.4 0.496651 1.79973 0
M  V30 1013 C 103.751 -0.984641 1.69703 0
M  V30 1014 O 102.876 -1.76743 1.24863 0
M  V30 1015 C 103.471 0.894727 3.26772 0
M  V30 1016 C 102.03 0.600629 3.71577 0
M  V30 1017 C 101.177 1.10091 2.5451 0
M  V30 1018 H 104.128 1.03116 1.20635 0
M  V30 1019 H 104.149 0.206347 3.7994 0
M  V30 1020 H 103.661 1.97287 3.34215 0
M  V30 1021 H 101.762 -0.467284 3.69658 0
M  V30 1022 H 101.875 1.15863 4.64879 0
M  V30 1023 H 100.239 0.52162 2.49301 0
M  V30 1024 H 101.022 2.18591 2.64713 0
M  V30 1025 N 103.467 -1.45747 0.599634 0
M  V30 1026 C 104.692 -2.07178 0.0960198 0
M  V30 1027 C 105.117 -1.44268 -1.207 0
M  V30 1028 O 104.475 -0.532503 -1.73303 0
M  V30 1029 C 104.523 -3.60579 -0.0385348 0
M  V30 1030 O 103.627 -3.97713 -1.0908 0
M  V30 1031 H 102.968 -0.660251 0.0704593 0
M  V30 1032 H 105.498 -1.87124 0.827385 0
M  V30 1033 H 105.508 -4.07298 -0.239304 0
M  V30 1034 H 104.183 -4.05756 0.912947 0
M  V30 1035 H 102.76 -3.62678 -0.867135 0
M  V30 1036 N 104.945 -0.338344 -1.53925 0
M  V30 1037 C 105.893 0.536231 -2.26335 0
M  V30 1038 C 106.887 1.1063 -1.28286 0
M  V30 1039 O 108.093 1.05264 -1.46012 0
M  V30 1040 H 104.468 0.191602 -0.727181 0
M  V30 1041 H 106.439 -0.0965747 -2.98244 0
M  V30 1042 C 105.188 1.67803 -3.04528 0
M  V30 1043 H 104.511 1.24864 -3.79801 0
M  V30 1044 H 105.951 2.26526 -3.58416 0
M  V30 1045 C 104.41 2.60439 -2.13712 0
M  V30 1046 O 104.94 3.6255 -1.72975 0
M  V30 1047 N 103.146 2.29006 -1.78898 0
M  V30 1048 H 102.693 1.46011 -2.12223 0
M  V30 1049 H 102.651 2.91248 -1.18416 0
M  V30 1050 N 106.423 1.57458 -0.0668435 0
M  V30 1051 C 107.371 2.13639 0.919851 0
M  V30 1052 C 108.365 1.07204 1.31163 0
M  V30 1053 O 109.571 1.25591 1.28945 0
M  V30 1054 H 105.946 0.683048 0.314562 0
M  V30 1055 H 107.917 2.95415 0.421047 0
M  V30 1056 C 106.666 2.70892 2.17975 0
M  V30 1057 H 105.989 3.5246 1.88711 0
M  V30 1058 H 107.429 3.13803 2.85138 0
M  V30 1059 C 105.888 1.65414 2.93496 0
M  V30 1060 O 106.418 1.07619 3.87015 0
M  V30 1061 N 104.624 1.36564 2.56512 0
M  V30 1062 H 104.171 1.83751 1.80536 0
M  V30 1063 H 104.129 0.66223 3.07347 0
M  V30 1064 N 107.901 -0.206675 1.56239 0
M  V30 1065 C 109.126 -0.949474 1.8439 0
M  V30 1066 C 109.551 -1.76549 0.649016 0
M  V30 1067 O 108.909 -1.76782 -0.402231 0
M  V30 1068 C 108.957 -1.83078 3.10668 0
M  V30 1069 O 108.061 -2.9281 2.90407 0
M  V30 1070 H 107.402 -0.268033 0.607499 0
M  V30 1071 H 109.932 -0.215488 2.03462 0
M  V30 1072 H 109.942 -2.2377 3.41161 0
M  V30 1073 H 108.617 -1.23112 3.97261 0
M  V30 1074 H 107.194 -2.55956 2.71184 0
M  V30 1075 N 109.379 -1.50304 -0.473955 0
M  V30 1076 C 110.326 -1.68959 -1.57231 0
M  V30 1077 C 111.296 -0.530899 -1.57387 0
M  V30 1078 O 112.481 -0.761133 -1.74961 0
M  V30 1079 C 109.621 -1.7871 -2.95223 0
M  V30 1080 C 108.734 -3.06061 -3.04878 0
M  V30 1081 C 107.869 -3.06626 -4.33767 0
M  V30 1082 C 106.908 -4.28443 -4.37154 0
M  V30 1083 N 106.045 -4.26763 -5.5751 0
M  V30 1084 H 110.885 -2.6273 -1.40631 0
M  V30 1085 H 108.422 -1.30241 -0.683789 0
M  V30 1086 H 110.38 -1.82344 -3.75242 0
M  V30 1087 H 109.01 -0.883806 -3.10465 0
M  V30 1088 H 108.062 -3.11911 -2.17751 0
M  V30 1089 H 109.374 -3.96039 -3.0324 0
M  V30 1090 H 108.528 -3.08973 -5.22131 0
M  V30 1091 H 107.267 -2.14473 -4.3801 0
M  V30 1092 H 106.272 -4.2631 -3.47188 0
M  V30 1093 H 107.497 -5.2182 -4.34605 0
M  V30 1094 H 105.443 -3.37462 -5.62544 0
M  V30 1095 H 105.36 -5.10507 -5.57601 0
M  V30 1096 H 106.628 -4.33253 -6.48006 0
M  V30 1097 N 110.857 0.726932 -1.39834 0
M  V30 1098 C 111.767 1.87131 -1.41489 0
M  V30 1099 C 112.783 1.71239 -0.308757 0
M  V30 1100 O 113.959 1.93701 -0.551529 0
M  V30 1101 C 111.024 3.22811 -1.26468 0
M  V30 1102 C 110.085 3.51039 -2.47124 0
M  V30 1103 C 109.318 4.80245 -2.3281 0
M  V30 1104 O 109.541 5.54537 -1.33585 0
M  V30 1105 O 108.475 5.08554 -3.21957 0
M  V30 1106 H 112.301 1.8869 -2.3797 0
M  V30 1107 H 109.886 0.875837 -1.21035 0
M  V30 1108 H 111.768 4.03877 -1.20255 0
M  V30 1109 H 110.443 3.22005 -0.330862 0
M  V30 1110 H 109.35 2.70027 -2.58914 0
M  V30 1111 H 110.683 3.56632 -3.39227 0
M  V30 1112 N 112.336 1.25143 0.95797 0
M  V30 1113 C 113.613 1.00472 1.67823 0
M  V30 1114 C 113.993 -0.470056 2.058 0
M  V30 1115 O 113.341 -1.44663 1.76875 0
M  V30 1116 C 113.551 1.9372 2.90299 0
M  V30 1117 C 114.899 2.21371 3.62326 0
M  V30 1118 O 115.923 1.91451 3.00375 0
M  V30 1119 O 114.782 2.72231 4.7387 0
M  V30 1120 H 111.876 0.380752 0.734137 0
M  V30 1121 H 114.422 1.36283 1.01119 0
M  V30 1122 H 113.194 2.93316 2.59001 0
M  V30 1123 H 112.817 1.58286 3.64735 0
M  V30 1124 N 113.814 -1.1601 1.06675 0
M  V30 1125 C 114.777 -2.18724 0.685001 0
M  V30 1126 C 115.777 -1.58496 -0.271246 0
M  V30 1127 O 116.967 -1.74119 -0.0531156 0
M  V30 1128 C 114.099 -3.40899 0.00853648 0
M  V30 1129 H 115.292 -2.54011 1.59431 0
M  V30 1130 H 112.845 -1.30352 0.862441 0
M  V30 1131 H 113.58 -3.11173 -0.913337 0
M  V30 1132 H 113.365 -3.8587 0.696204 0
M  V30 1133 H 114.855 -4.16886 -0.24414 0
M  V30 1134 N 115.292 -0.849877 -1.32721 0
M  V30 1135 C 116.539 -0.450923 -1.97416 0
M  V30 1136 C 116.867 0.992376 -1.67279 0
M  V30 1137 O 116.122 1.71048 -0.950845 0
M  V30 1138 C 116.421 -0.631272 -3.51781 0
M  V30 1139 C 116.087 -2.04432 -4.01894 0
M  V30 1140 C 114.749 -2.4308 -4.1529 0
M  V30 1141 C 117.101 -2.96679 -4.28522 0
M  V30 1142 C 114.429 -3.73257 -4.52654 0
M  V30 1143 C 116.781 -4.26349 -4.67343 0
M  V30 1144 C 115.445 -4.64939 -4.78945 0
M  V30 1145 H 114.715 -0.165004 -0.722395 0
M  V30 1146 H 117.362 -1.07901 -1.58207 0
M  V30 1147 H 115.667 0.0800767 -3.91718 0
M  V30 1148 H 117.364 -0.302709 -3.99856 0
M  V30 1149 H 113.954 -1.73419 -3.91949 0
M  V30 1150 H 118.138 -2.68054 -4.17685 0
M  V30 1151 H 113.394 -4.02946 -4.59831 0
M  V30 1152 H 117.568 -4.97895 -4.86902 0
M  V30 1153 H 115.195 -5.65855 -5.07654 0
M  V30 1154 N 116.77 1.45427 -0.607355 0
M  V30 1155 C 117.995 2.07124 -0.107006 0
M  V30 1156 C 118.42 1.44906 1.19933 0
M  V30 1157 O 117.778 0.541687 1.73019 0
M  V30 1158 C 117.826 3.60595 0.0194119 0
M  V30 1159 O 116.93 3.98285 1.0697 0
M  V30 1160 H 116.271 0.659868 -0.0739597 0
M  V30 1161 H 118.801 1.86683 -0.837297 0
M  V30 1162 H 118.811 4.07419 0.2177 0
M  V30 1163 H 117.486 4.05266 -0.934453 0
M  V30 1164 H 116.063 3.63133 0.847889 0
M  V30 1165 N 118.248 0.346503 1.53744 0
M  V30 1166 C 119.496 -0.248612 2.00565 0
M  V30 1167 C 119.817 -1.5083 1.23593 0
M  V30 1168 O 119.087 -1.92858 0.343912 0
M  V30 1169 H 117.667 -0.0948564 0.740953 0
M  V30 1170 H 120.329 0.468341 1.89189 0
M  V30 1171 H 119.425 -0.488994 3.08245 0
M  V30 1172 N 119.726 -1.57421 0.075193 0
M  V30 1173 C 120.954 -1.97946 -0.602076 0
M  V30 1174 C 121.369 -0.953674 -1.62943 0
M  V30 1175 O 120.726 0.0592551 -1.82404 0
M  V30 1176 C 120.777 -3.38546 -1.26762 0
M  V30 1177 O 120.498 -4.37195 -0.281376 0
M  V30 1178 C 121.999 -3.93966 -2.03239 0
M  V30 1179 H 119.219 -0.650918 -0.162931 0
M  V30 1180 H 121.763 -2.03959 0.148601 0
M  V30 1181 H 119.918 -3.33609 -1.96936 0
M  V30 1182 H 120.332 -5.18975 -0.759267 0
M  V30 1183 H 121.806 -4.94555 -2.45193 0
M  V30 1184 H 122.283 -3.30693 -2.8903 0
M  V30 1185 H 122.889 -4.02315 -1.37924 0
M  V30 1186 N 121.204 0.198386 -1.56346 0
M  V30 1187 C 122.481 0.944982 -1.71258 0
M  V30 1188 C 122.861 2.0151 -0.629048 0
M  V30 1189 O 122.209 2.25639 0.360473 0
M  V30 1190 C 122.419 1.5344 -3.1346 0
M  V30 1191 C 123.767 2.01778 -3.73591 0
M  V30 1192 O 124.791 1.63288 -3.16568 0
M  V30 1193 O 123.65 2.72594 -4.73661 0
M  V30 1194 H 120.744 0.442939 -0.69838 0
M  V30 1195 H 123.29 0.188342 -1.68652 0
M  V30 1196 H 122.062 0.762869 -3.83792 0
M  V30 1197 H 121.685 2.35596 -3.20282 0
M  V30 1198 N 122.682 1.50554 0.465978 0
M  V30 1199 C 123.928 1.63006 1.21658 0
M  V30 1200 C 124.283 0.328613 1.89573 0
M  V30 1201 O 123.576 -0.673813 1.79361 0
M  V30 1202 C 123.77 2.75152 2.28093 0
M  V30 1203 C 123.599 4.16075 1.7062 0
M  V30 1204 C 122.369 4.82408 1.50368 0
M  V30 1205 C 124.567 5.00145 1.1983 0
M  V30 1206 N 122.549 6.07532 0.881924 0
M  V30 1207 C 123.92 6.16035 0.700083 0
M  V30 1208 C 125.975 4.85882 1.08733 0
M  V30 1209 C 124.678 7.19228 0.101835 0
M  V30 1210 C 126.704 5.89257 0.503016 0
M  V30 1211 C 126.066 7.04398 0.0152005 0
M  V30 1212 H 122.165 0.650596 0.433877 0
M  V30 1213 H 124.749 1.8769 0.517746 0
M  V30 1214 H 122.92 2.52181 2.95397 0
M  V30 1215 H 124.652 2.76935 2.95109 0
M  V30 1216 H 121.407 4.39788 1.75737 0
M  V30 1217 H 121.831 6.7443 0.589312 0
M  V30 1218 H 126.473 3.97144 1.4504 0
M  V30 1219 H 124.191 8.07637 -0.273426 0
M  V30 1220 H 127.777 5.80286 0.419451 0
M  V30 1221 H 126.657 7.83021 -0.429856 0
M  V30 1222 N 124.16 -0.719506 1.40217 0
M  V30 1223 C 125.093 -1.84298 1.34571 0
M  V30 1224 C 126.071 -1.61149 0.216741 0
M  V30 1225 O 127.255 -1.84212 0.399756 0
M  V30 1226 C 124.382 -3.20568 1.09335 0
M  V30 1227 C 123.428 -3.62551 2.24631 0
M  V30 1228 S 124.261 -3.7012 3.87004 0
M  V30 1229 C 125.417 -5.09154 3.64024 0
M  V30 1230 H 125.65 -1.88807 2.2965 0
M  V30 1231 H 123.183 -0.885901 1.26456 0
M  V30 1232 H 125.141 -3.99246 0.954602 0
M  V30 1233 H 123.802 -3.13696 0.159164 0
M  V30 1234 H 122.995 -4.61483 2.02606 0
M  V30 1235 H 122.597 -2.91119 2.34789 0
M  V30 1236 H 124.889 -5.95955 3.22248 0
M  V30 1237 H 125.832 -5.36213 4.62473 0
M  V30 1238 H 126.24 -4.79562 2.97793 0
M  V30 1239 N 125.638 -1.25649 -0.95132 0
M  V30 1240 C 126.568 -1.08808 -2.06599 0
M  V30 1241 C 127.549 0.00382547 -1.701 0
M  V30 1242 O 128.734 -0.166325 -1.93486 0
M  V30 1243 C 125.864 -0.709542 -3.39975 0
M  V30 1244 C 124.818 -1.75206 -3.90496 0
M  V30 1245 C 124.144 -1.22811 -5.20405 0
M  V30 1246 C 125.444 -3.15153 -4.16504 0
M  V30 1247 H 127.138 -2.02048 -2.20946 0
M  V30 1248 H 124.684 -0.972835 -1.06169 0
M  V30 1249 H 126.637 -0.578649 -4.17408 0
M  V30 1250 H 125.361 0.258556 -3.25575 0
M  V30 1251 H 124.02 -1.87145 -3.15234 0
M  V30 1252 H 123.668 -0.250145 -5.02378 0
M  V30 1253 H 123.368 -1.92492 -5.55176 0
M  V30 1254 H 124.892 -1.10968 -6.00432 0
M  V30 1255 H 126.306 -3.06349 -4.84586 0
M  V30 1256 H 124.703 -3.82333 -4.62538 0
M  V30 1257 H 125.773 -3.61966 -3.22658 0
M  V30 1258 N 127.117 1.15442 -1.07289 0
M  V30 1259 C 128.027 2.23786 -0.704057 0
M  V30 1260 C 129.043 1.7166 0.284413 0
M  V30 1261 O 130.219 2.00972 0.131205 0
M  V30 1262 C 127.284 3.46535 -0.106792 0
M  V30 1263 C 126.345 4.13654 -1.14842 0
M  V30 1264 C 125.578 5.30544 -0.57956 0
M  V30 1265 O 125.801 5.67187 0.604585 0
M  V30 1266 O 124.735 5.87154 -1.32414 0
M  V30 1267 H 128.561 2.57664 -1.60757 0
M  V30 1268 H 126.146 1.23152 -0.845803 0
M  V30 1269 H 128.028 4.20804 0.224048 0
M  V30 1270 H 126.703 3.14407 0.770049 0
M  V30 1271 H 125.61 3.4131 -1.5316 0
M  V30 1272 H 126.943 4.49861 -1.99714 0
M  V30 1273 N 128.595 0.856903 1.32268 0
M  V30 1274 C 129.542 0.301172 2.28827 0
M  V30 1275 C 130.512 -0.593104 1.5515 0
M  V30 1276 O 131.697 -0.527537 1.83362 0
M  V30 1277 C 128.837 -0.502523 3.41422 0
M  V30 1278 C 127.95 0.417797 4.29975 0
M  V30 1279 C 127.085 -0.398749 5.29701 0
M  V30 1280 C 126.124 0.518827 6.09897 0
M  V30 1281 N 125.261 -0.260674 7.01616 0
M  V30 1282 H 130.101 1.12983 2.75751 0
M  V30 1283 H 127.638 0.568582 1.35667 0
M  V30 1284 H 129.596 -0.984141 4.05426 0
M  V30 1285 H 128.226 -1.29599 2.95642 0
M  V30 1286 H 127.278 1.01781 3.66531 0
M  V30 1287 H 128.59 1.12191 4.86019 0
M  V30 1288 H 127.744 -0.943435 5.9932 0
M  V30 1289 H 126.483 -1.13622 4.7428 0
M  V30 1290 H 125.488 1.07538 5.39181 0
M  V30 1291 H 126.713 1.25495 6.67404 0
M  V30 1292 H 124.659 -0.981198 6.4862 0
M  V30 1293 H 124.576 0.384364 7.55022 0
M  V30 1294 H 125.844 -0.787014 7.75517 0
M  V30 1295 N 130.073 -1.45103 0.615059 0
M  V30 1296 C 131.006 -2.27717 -0.148408 0
M  V30 1297 C 131.984 -1.37584 -0.866572 0
M  V30 1298 O 133.168 -1.67017 -0.87393 0
M  V30 1299 C 130.295 -3.16136 -1.21557 0
M  V30 1300 C 129.341 -4.22263 -0.599712 0
M  V30 1301 S 130.174 -5.3215 0.598081 0
M  V30 1302 C 131.33 -6.24137 -0.469484 0
M  V30 1303 H 131.563 -2.92121 0.552483 0
M  V30 1304 H 129.096 -1.49054 0.402778 0
M  V30 1305 H 131.054 -3.67633 -1.82638 0
M  V30 1306 H 129.715 -2.50982 -1.88857 0
M  V30 1307 H 128.908 -4.84081 -1.4029 0
M  V30 1308 H 128.51 -3.73945 -0.063876 0
M  V30 1309 H 130.802 -6.63984 -1.34652 0
M  V30 1310 H 131.745 -7.0801 0.112725 0
M  V30 1311 H 132.153 -5.58971 -0.788168 0
M  V30 1312 N 131.551 -0.354651 -1.53558 0
M  V30 1313 C 132.828 0.294281 -1.93374 0
M  V30 1314 C 133.208 1.67313 -1.28723 0
M  V30 1315 O 132.556 2.24179 -0.442247 0
M  V30 1316 C 132.766 0.355445 -3.47185 0
M  V30 1317 C 134.114 0.601007 -4.20325 0
M  V30 1318 O 135.138 0.437106 -3.53508 0
M  V30 1319 O 133.997 0.919322 -5.38712 0
M  V30 1320 H 131.091 0.174033 -0.808481 0
M  V30 1321 H 133.637 -0.406638 -1.64756 0
M  V30 1322 H 132.409 -0.611729 -3.86489 0
M  V30 1323 H 132.032 1.1027 -3.82003 0
M  V30 1324 N 133.029 1.57378 -0.0835403 0
M  V30 1325 C 133.959 2.1641 0.87686 0
M  V30 1326 C 134.94 1.09429 1.30228 0
M  V30 1327 O 136.125 1.37516 1.37124 0
M  V30 1328 C 133.255 2.73517 2.14022 0
M  V30 1329 C 132.209 3.85769 1.85381 0
M  V30 1330 C 131.535 4.29529 3.18448 0
M  V30 1331 C 132.835 5.09486 1.14984 0
M  V30 1332 H 134.529 2.96914 0.385059 0
M  V30 1333 H 132.075 1.42823 0.18377 0
M  V30 1334 H 134.028 3.13463 2.81636 0
M  V30 1335 H 132.752 1.90252 2.65465 0
M  V30 1336 H 131.411 3.46345 1.20169 0
M  V30 1337 H 131.059 3.43169 3.67755 0
M  V30 1338 H 130.759 5.05204 3.00071 0
M  V30 1339 H 132.283 4.72099 3.8724 0
M  V30 1340 H 133.697 5.46674 1.72687 0
M  V30 1341 H 132.094 5.90515 1.06826 0
M  V30 1342 H 133.164 4.84724 0.130749 0
M  V30 1343 N 134.507 -0.190092 1.56449 0
M  V30 1344 C 135.454 -1.23557 1.94942 0
M  V30 1345 C 136.424 -1.44972 0.810696 0
M  V30 1346 O 137.609 -1.58023 1.06927 0
M  V30 1347 C 134.749 -2.57416 2.2985 0
M  V30 1348 C 133.862 -2.43537 3.5681 0
M  V30 1349 C 132.997 -3.70134 3.81017 0
M  V30 1350 C 132.036 -3.51109 5.01387 0
M  V30 1351 N 131.173 -4.6973 5.21822 0
M  V30 1352 H 136.013 -0.900304 2.84075 0
M  V30 1353 H 133.55 -0.43318 1.40577 0
M  V30 1354 H 135.508 -3.35409 2.48106 0
M  V30 1355 H 134.138 -2.88975 1.43852 0
M  V30 1356 H 133.19 -1.56816 3.46573 0
M  V30 1357 H 134.502 -2.25415 4.4496 0
M  V30 1358 H 133.656 -4.56566 3.9954 0
M  V30 1359 H 132.395 -3.91215 2.91207 0
M  V30 1360 H 131.4 -2.63063 4.82782 0
M  V30 1361 H 132.625 -3.31468 5.9271 0
M  V30 1362 H 130.571 -4.91065 4.34961 0
M  V30 1363 H 130.488 -4.54452 6.0416 0
M  V30 1364 H 131.756 -5.57499 5.44808 0
M  V30 1365 N 135.985 -1.50799 -0.457987 0
M  V30 1366 C 136.895 -1.73426 -1.57989 0
M  V30 1367 C 137.911 -0.617745 -1.62665 0
M  V30 1368 O 139.087 -0.897614 -1.80291 0
M  V30 1369 C 136.152 -1.83557 -2.94122 0
M  V30 1370 C 135.213 -3.07345 -2.99729 0
M  V30 1371 C 134.446 -3.16983 -4.29368 0
M  V30 1372 O 134.669 -2.33077 -5.20607 0
M  V30 1373 O 133.603 -4.09812 -4.40837 0
M  V30 1374 H 137.429 -2.68555 -1.41817 0
M  V30 1375 H 135.014 -1.35052 -0.638859 0
M  V30 1376 H 136.896 -1.92326 -3.74952 0
M  V30 1377 H 135.571 -0.916137 -3.10465 0
M  V30 1378 H 134.478 -3.04068 -2.1793 0
M  V30 1379 H 135.811 -3.9891 -2.88326 0
M  V30 1380 N 137.463 0.71206 -1.40597 0
M  V30 1381 C 138.71 1.47197 -1.39065 0
M  V30 1382 C 139.038 1.94499 0.00583891 0
M  V30 1383 O 138.293 1.68752 0.99102 0
M  V30 1384 C 138.592 2.71039 -2.32965 0
M  V30 1385 C 138.258 2.42484 -3.80148 0
M  V30 1386 C 136.92 2.34406 -4.20247 0
M  V30 1387 C 139.272 2.18598 -4.73143 0
M  V30 1388 C 136.6 2.00516 -5.51371 0
M  V30 1389 C 138.952 1.8622 -6.0457 0
M  V30 1390 C 137.616 1.76626 -6.43708 0
M  V30 1391 H 136.886 0.538634 -0.508876 0
M  V30 1392 H 139.533 0.815325 -1.73276 0
M  V30 1393 H 137.838 3.41558 -1.91951 0
M  V30 1394 H 139.535 3.29138 -2.29061 0
M  V30 1395 H 136.125 2.49659 -3.4838 0
M  V30 1396 H 140.309 2.23793 -4.42979 0
M  V30 1397 H 135.565 1.91628 -5.80593 0
M  V30 1398 H 139.739 1.66752 -6.76141 0
M  V30 1399 H 137.366 1.50133 -7.45228 0
M  V30 1400 N 138.941 1.26152 0.944643 0
M  V30 1401 C 140.218 1.02247 1.66748 0
M  V30 1402 C 140.598 -0.448202 2.06287 0
M  V30 1403 O 139.946 -1.42779 1.78399 0
M  V30 1404 C 140.156 1.96788 2.88228 0
M  V30 1405 C 141.504 2.25201 3.59958 0
M  V30 1406 O 142.528 1.94626 2.98327 0
M  V30 1407 O 141.387 2.77242 4.70956 0
M  V30 1408 H 138.481 0.388517 0.730057 0
M  V30 1409 H 141.027 1.37348 0.99668 0
M  V30 1410 H 139.799 2.96047 2.55875 0
M  V30 1411 H 139.422 1.62145 3.63035 0
M  V30 1412 N 140.419 -1.14872 1.07899 0
M  V30 1413 C 141.349 -2.2193 0.725887 0
M  V30 1414 C 142.33 -1.67622 -0.28927 0
M  V30 1415 O 143.515 -1.93533 -0.160787 0
M  V30 1416 C 140.645 -3.47061 0.128856 0
M  V30 1417 C 139.599 -4.14363 1.07178 0
M  V30 1418 C 138.925 -5.33636 0.337229 0
M  V30 1419 C 140.225 -4.63492 2.40775 0
M  V30 1420 H 141.919 -2.51724 1.62097 0
M  V30 1421 H 139.465 -1.20991 0.780838 0
M  V30 1422 H 141.418 -4.21199 -0.130147 0
M  V30 1423 H 140.142 -3.16617 -0.80134 0
M  V30 1424 H 138.801 -3.42173 1.3158 0
M  V30 1425 H 138.449 -4.99449 -0.596606 0
M  V30 1426 H 138.149 -5.79609 0.965788 0
M  V30 1427 H 139.673 -6.10539 0.0861567 0
M  V30 1428 H 141.087 -5.2913 2.20669 0
M  V30 1429 H 139.484 -5.20148 2.99276 0
M  V30 1430 H 140.554 -3.78834 3.02676 0
M  V30 1431 N 141.898 -0.863906 -1.31812 0
M  V30 1432 C 143.175 -0.39275 -1.91616 0
M  V30 1433 C 143.555 1.12461 -1.7865 0
M  V30 1434 O 142.903 1.95045 -1.19037 0
M  V30 1435 C 143.113 -0.867385 -3.38049 0
M  V30 1436 C 144.461 -0.889966 -4.15168 0
M  V30 1437 O 145.485 -0.812635 -3.46806 0
M  V30 1438 O 144.344 -1.00079 -5.37258 0
M  V30 1439 H 141.438 -0.116358 -0.818773 0
M  V30 1440 H 143.984 -0.951418 -1.40521 0
M  V30 1441 H 142.756 -1.91081 -3.41473 0
M  V30 1442 H 142.379 -0.286687 -3.96565 0
M  V30 1443 N 143.376 1.44774 -0.622745 0
M  V30 1444 C 144.339 2.29069 0.0774015 0
M  V30 1445 C 145.339 1.4059 0.780461 0
M  V30 1446 O 146.529 1.62551 0.626322 0
M  V30 1447 C 143.661 3.21974 1.12006 0
M  V30 1448 H 144.854 2.92459 -0.663901 0
M  V30 1449 H 142.407 1.51548 -0.382486 0
M  V30 1450 H 143.142 2.63417 1.89162 0
M  V30 1451 H 142.927 3.87168 0.619951 0
M  V30 1452 H 144.417 3.85318 1.60995 0
M  V30 1453 N 144.854 0.36279 1.53368 0
M  V30 1454 C 145.784 -0.476976 2.28576 0
M  V30 1455 C 146.765 -1.08631 1.30894 0
M  V30 1456 O 147.95 -1.10409 1.59761 0
M  V30 1457 C 145.08 -1.61828 3.07293 0
M  V30 1458 C 144.034 -1.13633 4.1264 0
M  V30 1459 C 143.36 -2.36766 4.79423 0
M  V30 1460 C 144.66 -0.223061 5.21823 0
M  V30 1461 H 146.354 0.150474 2.99022 0
M  V30 1462 H 143.9 0.0738103 1.43811 0
M  V30 1463 H 145.853 -2.21237 3.58653 0
M  V30 1464 H 144.577 -2.27292 2.34533 0
M  V30 1465 H 143.236 -0.564945 3.62221 0
M  V30 1466 H 142.884 -3.0068 4.03238 0
M  V30 1467 H 142.584 -2.05192 5.50609 0
M  V30 1468 H 144.108 -2.96865 5.33576 0
M  V30 1469 H 145.522 -0.724545 5.68703 0
M  V30 1470 H 143.919 0.001678 6.001 0
M  V30 1471 H 144.989 0.735553 4.79289 0
M  V30 1472 N 146.332 -1.57332 0.0918853 0
M  V30 1473 C 147.262 -2.16872 -0.865371 0
M  V30 1474 C 148.243 -1.10118 -1.29646 0
M  V30 1475 O 149.428 -1.38242 -1.36392 0
M  V30 1476 C 146.558 -2.74649 -2.12569 0
M  V30 1477 C 145.512 -3.86747 -1.83333 0
M  V30 1478 C 144.838 -4.31212 -3.16166 0
M  V30 1479 C 146.138 -5.10089 -1.1228 0
M  V30 1480 H 147.832 -2.97114 -0.369307 0
M  V30 1481 H 145.378 -1.42918 -0.176194 0
M  V30 1482 H 147.331 -3.14952 -2.7997 0
M  V30 1483 H 146.055 -1.91657 -2.64452 0
M  V30 1484 H 144.714 -3.46978 -1.18331 0
M  V30 1485 H 144.362 -3.45115 -3.6593 0
M  V30 1486 H 144.062 -5.06788 -2.97388 0
M  V30 1487 H 145.586 -4.74146 -3.84731 0
M  V30 1488 H 147 -5.47582 -1.69785 0
M  V30 1489 H 145.397 -5.91073 -1.03693 0
M  V30 1490 H 146.467 -4.84786 -0.105041 0
M  V30 1491 N 147.81 0.181792 -1.56548 0
M  V30 1492 C 149.058 0.89832 -1.81038 0
M  V30 1493 C 149.379 1.83232 -0.667164 0
M  V30 1494 O 148.649 1.93372 0.313673 0
M  V30 1495 H 147.229 0.33471 -0.667816 0
M  V30 1496 H 149.891 0.184116 -1.94028 0
M  V30 1497 H 148.987 1.4815 -2.74696 0
M  V30 1498 N 149.288 1.51039 0.449983 0
M  V30 1499 C 150.537 1.62317 1.19733 0
M  V30 1500 C 150.85 0.339101 1.92638 0
M  V30 1501 O 152.056 0.331069 2.69474 0
M  V30 1502 C 150.512 2.86608 2.17678 0
M  V30 1503 C 150.12 4.21972 1.50479 0
M  V30 1504 C 151.864 3.07239 2.92924 0
M  V30 1505 C 149.771 5.37426 2.46834 0
M  V30 1506 H 148.701 0.604532 0.450619 0
M  V30 1507 H 151.352 1.77494 0.465625 0
M  V30 1508 H 149.734 2.65037 2.94231 0
M  V30 1509 H 150.908 4.53878 0.795716 0
M  V30 1510 H 149.223 4.07117 0.874344 0
M  V30 1511 H 151.82 3.90668 3.65079 0
M  V30 1512 H 152.163 2.19807 3.5354 0
M  V30 1513 H 152.696 3.29091 2.23481 0
M  V30 1514 H 149.435 6.27079 1.90926 0
M  V30 1515 H 148.955 5.09912 3.15832 0
M  V30 1516 H 150.634 5.68862 3.08228 0
M  V30 1517 N 150.766 -0.704594 1.40972 0
M  V30 1518 C 152.043 -1.45847 1.30338 0
M  V30 1519 C 152.423 -2.10973 -0.0732344 0
M  V30 1520 O 151.771 -2.00997 -1.08685 0
M  V30 1521 C 151.981 -2.48525 2.45023 0
M  V30 1522 C 153.329 -3.1404 2.8577 0
M  V30 1523 O 154.353 -2.58848 2.44696 0
M  V30 1524 O 153.212 -4.13981 3.56766 0
M  V30 1525 H 150.306 -0.649092 0.512454 0
M  V30 1526 H 152.852 -0.735836 1.52917 0
M  V30 1527 H 151.624 -1.98994 3.36923 0
M  V30 1528 H 151.247 -3.2831 2.24272 0
M  V30 1529 N 152.244 -1.26651 -0.937939 0
M  V30 1530 C 153.521 -1.0313 -1.66204 0
M  V30 1531 C 153.901 0.437256 -2.06522 0
M  V30 1532 O 153.249 1.41831 -1.79154 0
M  V30 1533 C 153.459 -1.98314 -2.87181 0
M  V30 1534 C 154.807 -2.27107 -3.58758 0
M  V30 1535 O 155.831 -1.96205 -2.97291 0
M  V30 1536 O 154.69 -2.79736 -4.69479 0
M  V30 1537 H 151.784 -0.392384 -0.727986 0
M  V30 1538 H 154.33 -1.37874 -0.989382 0
M  V30 1539 H 153.102 -2.97399 -2.54302 0
M  V30 1540 H 152.725 -1.64068 -3.6217 0
M  V30 1541 N 153.722 1.14298 -1.08507 0
M  V30 1542 C 154.652 2.21542 -0.737646 0
M  V30 1543 C 155.633 1.67773 0.280377 0
M  V30 1544 O 156.818 1.93616 0.150521 0
M  V30 1545 C 153.948 3.46988 -0.147259 0
M  V30 1546 C 152.902 4.13789 -1.09374 0
M  V30 1547 C 152.228 5.33449 -0.365524 0
M  V30 1548 C 153.528 4.62208 -2.4323 0
M  V30 1549 H 155.222 2.5086 -1.6343 0
M  V30 1550 H 152.768 1.20576 -0.787243 0
M  V30 1551 H 154.721 4.21262 0.107808 0
M  V30 1552 H 153.445 3.17037 0.784538 0
M  V30 1553 H 152.104 3.4147 -1.33393 0
M  V30 1554 H 151.752 4.99759 0.57011 0
M  V30 1555 H 151.452 5.79088 -0.996512 0
M  V30 1556 H 152.976 6.10485 -0.118534 0
M  V30 1557 H 154.39 5.27952 -2.23472 0
M  V30 1558 H 152.787 5.18553 -3.02031 0
M  V30 1559 H 153.857 3.77224 -3.04681 0
M  V30 1560 N 155.201 0.870884 1.31352 0
M  V30 1561 C 156.111 0.330783 2.32256 0
M  V30 1562 C 157.127 -0.559767 1.6475 0
M  V30 1563 O 158.303 -0.456263 1.96164 0
M  V30 1564 C 155.368 -0.458137 3.4366 0
M  V30 1565 C 154.429 0.460482 4.26823 0
M  V30 1566 C 153.662 -0.290881 5.32907 0
M  V30 1567 O 153.885 -1.51885 5.49806 0
M  V30 1568 O 152.819 0.351732 6.00871 0
M  V30 1569 H 156.645 1.16718 2.80376 0
M  V30 1570 H 154.23 0.634285 1.35267 0
M  V30 1571 H 156.112 -0.905343 4.1156 0
M  V30 1572 H 154.787 -1.27106 2.97701 0
M  V30 1573 H 153.694 0.956207 3.61673 0
M  V30 1574 H 155.027 1.23903 4.7635 0
M  V30 1575 N 156.679 -1.44442 0.630414 0
M  V30 1576 C 157.907 -2.06414 0.141671 0
M  V30 1577 C 158.322 -1.47105 -1.18345 0
M  V30 1578 O 157.679 -0.593662 -1.72574 0
M  V30 1579 C 157.73 -3.61494 0.0199784 0
M  V30 1580 O 157.451 -4.18594 1.29269 0
M  V30 1581 C 158.952 -4.40499 -0.497544 0
M  V30 1582 H 156.172 -0.666292 0.0793452 0
M  V30 1583 H 158.716 -1.85323 0.864614 0
M  V30 1584 H 156.871 -3.8185 -0.653402 0
M  V30 1585 H 157.285 -5.12026 1.13707 0
M  V30 1586 H 158.759 -5.49433 -0.531708 0
M  V30 1587 H 159.236 -4.11895 -1.52445 0
M  V30 1588 H 159.842 -4.25061 0.142562 0
M  V30 1589 N 158.157 -0.370918 -1.53173 0
M  V30 1590 C 159.09 0.516727 -2.22273 0
M  V30 1591 C 160.068 1.07877 -1.21661 0
M  V30 1592 O 161.252 1.13389 -1.50583 0
M  V30 1593 C 158.379 1.71346 -2.92161 0
M  V30 1594 C 157.425 1.27838 -4.0689 0
M  V30 1595 S 158.258 0.275217 -5.34792 0
M  V30 1596 C 159.414 1.47816 -6.08195 0
M  V30 1597 H 159.647 -0.0701054 -2.97217 0
M  V30 1598 H 157.18 -0.155038 -1.5362 0
M  V30 1599 H 159.138 2.39988 -3.3304 0
M  V30 1600 H 157.799 2.27156 -2.16931 0
M  V30 1601 H 156.992 2.17141 -4.54825 0
M  V30 1602 H 156.594 0.671105 -3.6793 0
M  V30 1603 H 158.886 2.40831 -6.33251 0
M  V30 1604 H 159.829 1.04008 -7.0042 0
M  V30 1605 H 160.237 1.68663 -5.38714 0
M  V30 1606 N 159.635 1.57281 -0.100228 0
M  V30 1607 C 161.046 1.81725 0.428107 0
M  V30 1608 C 161.397 1.01619 1.67833 0
M  V30 1609 O 160.522 0.247098 2.14985 0
M  V30 1610 C 161.117 3.29617 0.78347 0
M  V30 1611 C 159.676 3.54808 1.25653 0
M  V30 1612 C 158.823 2.76118 0.255752 0
M  V30 1613 H 161.774 1.55324 -0.325608 0
M  V30 1614 H 161.795 3.4322 1.64256 0
M  V30 1615 H 161.307 3.87893 -0.12665 0
M  V30 1616 H 159.408 3.01868 2.18418 0
M  V30 1617 H 159.521 4.63443 1.21482 0
M  V30 1618 H 157.885 2.43745 0.738956 0
M  V30 1619 H 158.668 3.37145 -0.647136 0
M  V30 1620 N 161.113 -0.173488 1.56642 0
M  V30 1621 C 162.39 -0.917617 1.7274 0
M  V30 1622 C 162.77 -2.00484 0.661027 0
M  V30 1623 O 162.118 -2.26184 -0.32453 0
M  V30 1624 C 162.328 -1.48433 3.15862 0
M  V30 1625 C 163.676 -1.95809 3.76754 0
M  V30 1626 O 164.7 -1.58231 3.19126 0
M  V30 1627 O 163.559 -2.65024 4.77938 0
M  V30 1628 H 160.653 -0.431772 0.705338 0
M  V30 1629 H 163.199 -0.161487 1.6893 0
M  V30 1630 H 161.971 -0.701715 3.84957 0
M  V30 1631 H 161.594 -2.30471 3.23989 0
M  V30 1632 N 162.591 -1.51276 -0.441967 0
M  V30 1633 C 163.868 -1.54252 -1.20273 0
M  V30 1634 C 164.248 -0.30408 -2.08898 0
M  V30 1635 O 163.596 0.711084 -2.17154 0
M  V30 1636 C 163.806 -2.85406 -2.00859 0
M  V30 1637 C 165.154 -3.37181 -2.58059 0
M  V30 1638 O 166.178 -2.86925 -2.11074 0
M  V30 1639 O 165.037 -4.24858 -3.43741 0
M  V30 1640 H 162.131 -0.619969 -0.547328 0
M  V30 1641 H 164.677 -1.63586 -0.451413 0
M  V30 1642 H 163.449 -3.67003 -1.35736 0
M  V30 1643 H 163.072 -2.79213 -2.83065 0
M  V30 1644 N 164.069 0.697108 -1.41344 0
M  V30 1645 C 164.999 1.82353 -1.45841 0
M  V30 1646 C 165.98 1.67115 -0.317247 0
M  V30 1647 O 167.165 1.86871 -0.528474 0
M  V30 1648 C 164.295 3.20476 -1.33838 0
M  V30 1649 C 163.249 3.50415 -2.4575 0
M  V30 1650 C 162.575 4.87878 -2.18813 0
M  V30 1651 C 163.875 3.49546 -3.88091 0
M  V30 1652 H 165.569 1.78846 -2.40113 0
M  V30 1653 H 163.115 0.859028 -1.15571 0
M  V30 1654 H 165.068 3.98988 -1.35596 0
M  V30 1655 H 163.792 3.24604 -0.360498 0
M  V30 1656 H 162.451 2.74253 -2.43271 0
M  V30 1657 H 162.099 4.8863 -1.19371 0
M  V30 1658 H 161.799 5.08875 -2.93803 0
M  V30 1659 H 163.323 5.68702 -2.22284 0
M  V30 1660 H 164.737 4.18066 -3.92293 0
M  V30 1661 H 163.134 3.82075 -4.62751 0
M  V30 1662 H 164.204 2.48552 -4.16353 0
M  V30 1663 N 165.547 1.27147 0.931209 0
M  V30 1664 C 166.477 1.12081 2.04842 0
M  V30 1665 C 167.458 0.0232364 1.70084 0
M  V30 1666 O 168.643 0.197085 1.93197 0
M  V30 1667 C 165.773 0.76354 3.38803 0
M  V30 1668 C 164.727 1.81396 3.87659 0
M  V30 1669 C 164.053 1.31075 5.18385 0
M  V30 1670 C 165.353 3.21739 4.11438 0
M  V30 1671 H 167.047 2.05537 2.17703 0
M  V30 1672 H 164.593 0.989603 1.04608 0
M  V30 1673 H 166.546 0.644982 4.16435 0
M  V30 1674 H 165.27 -0.206727 3.25945 0
M  V30 1675 H 163.929 1.92136 3.12217 0
M  V30 1676 H 163.577 0.330037 5.01916 0
M  V30 1677 H 163.277 2.013 5.52044 0
M  V30 1678 H 164.801 1.20506 5.98591 0
M  V30 1679 H 166.215 3.14019 4.79651 0
M  V30 1680 H 164.612 3.89644 4.56397 0
M  V30 1681 H 165.682 3.67054 3.16859 0
M  V30 1682 N 167.025 -1.13721 1.09112 0
M  V30 1683 C 168.253 -1.88773 0.846899 0
M  V30 1684 C 168.668 -1.7896 -0.601572 0
M  V30 1685 O 168.025 -1.15394 -1.41388 0
M  V30 1686 C 168.076 -3.3849 1.26913 0
M  V30 1687 O 167.797 -3.48043 2.66079 0
M  V30 1688 C 169.298 -4.30518 1.05682 0
M  V30 1689 H 166.518 -0.59772 0.304914 0
M  V30 1690 H 169.062 -1.43977 1.45227 0
M  V30 1691 H 167.217 -3.80881 0.707723 0
M  V30 1692 H 167.631 -4.4109 2.83795 0
M  V30 1693 H 169.105 -5.3391 1.40156 0
M  V30 1694 H 169.582 -4.392 -0.00563416 0
M  V30 1695 H 170.188 -3.93893 1.60402 0
M  V30 1696 N 168.503 -0.877838 -1.30888 0
M  V30 1697 C 169.731 -0.507414 -2.00581 0
M  V30 1698 C 170.146 0.902216 -1.65848 0
M  V30 1699 O 169.503 1.59225 -0.891831 0
M  V30 1700 C 169.554 -0.664162 -3.55347 0
M  V30 1701 O 169.275 -2.01829 -3.8884 0
M  V30 1702 C 170.776 -0.295787 -4.42312 0
M  V30 1703 H 167.996 -0.196866 -0.641471 0
M  V30 1704 H 170.54 -1.18117 -1.66939 0
M  V30 1705 H 168.695 -0.0378619 -3.87381 0
M  V30 1706 H 169.109 -2.03174 -4.8355 0
M  V30 1707 H 170.583 -0.456388 -5.5011 0
M  V30 1708 H 171.06 0.765663 -4.32475 0
M  V30 1709 H 171.666 -0.898113 -4.15709 0
M  V30 1710 N 169.982 1.44106 -0.638065 0
M  V30 1711 C 170.912 2.33448 0.0494287 0
M  V30 1712 C 171.893 1.48606 0.827672 0
M  V30 1713 O 173.078 1.77308 0.792173 0
M  V30 1714 C 170.208 3.31771 1.02691 0
M  V30 1715 C 169.162 4.26485 0.359823 0
M  V30 1716 C 168.488 5.14729 1.44769 0
M  V30 1717 C 169.788 5.17056 -0.738296 0
M  V30 1718 H 171.482 2.91183 -0.696636 0
M  V30 1719 H 169.028 1.40014 -0.336456 0
M  V30 1720 H 170.981 3.93161 1.51666 0
M  V30 1721 H 169.705 2.7226 1.80395 0
M  V30 1722 H 168.364 3.66437 -0.10934 0
M  V30 1723 H 168.012 4.51566 2.21578 0
M  V30 1724 H 167.712 5.78913 1.00668 0
M  V30 1725 H 169.236 5.78991 1.93911 0
M  V30 1726 H 170.65 5.72342 -0.331354 0
M  V30 1727 H 169.047 5.89879 -1.10286 0
M  V30 1728 H 170.117 4.57652 -1.60258 0
M  V30 1729 N 171.46 0.379036 1.52974 0
M  V30 1730 C 172.737 -0.263479 1.93817 0
M  V30 1731 C 173.117 -1.65244 1.31368 0
M  V30 1732 O 172.465 -2.23448 0.477856 0
M  V30 1733 C 172.675 -0.300166 3.47707 0
M  V30 1734 C 174.023 -0.534061 4.21228 0
M  V30 1735 O 175.047 -0.38081 3.54159 0
M  V30 1736 O 173.906 -0.833501 5.40106 0
M  V30 1737 H 171 -0.161149 0.811147 0
M  V30 1738 H 173.546 0.432798 1.64088 0
M  V30 1739 H 172.318 0.673138 3.85467 0
M  V30 1740 H 171.941 -1.04179 3.83709 0
M  V30 1741 N 172.938 -1.57226 0.108567 0
M  V30 1742 C 174.215 -1.86333 -0.594939 0
M  V30 1743 C 174.595 -1.00788 -1.85486 0
M  V30 1744 O 173.943 -0.0839293 -2.28346 0
M  V30 1745 C 174.153 -3.37265 -0.897405 0
M  V30 1746 C 175.501 -4.05629 -1.25501 0
M  V30 1747 O 176.525 -3.42224 -0.987998 0
M  V30 1748 O 175.384 -5.17531 -1.75567 0
M  V30 1749 H 172.478 -0.771018 -0.2991 0
M  V30 1750 H 175.024 -1.69102 0.142283 0
M  V30 1751 H 173.796 -3.913 -0.00413806 0
M  V30 1752 H 173.419 -3.59889 -1.69014 0
M  V30 1753 N 174.416 0.165178 -1.56732 0
M  V30 1754 C 175.644 0.896218 -1.86482 0
M  V30 1755 C 176.059 1.75555 -0.694675 0
M  V30 1756 O 175.416 1.79379 0.33607 0
M  V30 1757 C 175.467 1.76792 -3.1532 0
M  V30 1758 O 175.188 0.943239 -4.27825 0
M  V30 1759 C 176.689 2.6081 -3.58459 0
M  V30 1760 H 173.909 0.260064 -0.618553 0
M  V30 1761 H 176.453 0.163428 -2.03846 0
M  V30 1762 H 174.608 2.45398 -2.99764 0
M  V30 1763 H 175.022 1.53998 -5.01383 0
M  V30 1764 H 176.496 3.17579 -4.51495 0
M  V30 1765 H 176.973 3.35977 -2.82872 0
M  V30 1766 H 177.579 1.97526 -3.76648 0
M  V30 1767 N 175.894 1.51508 0.433938 0
M  V30 1768 C 177.134 1.66006 1.19253 0
M  V30 1769 C 177.498 0.369868 1.88404 0
M  V30 1770 O 178.699 0.39066 2.65946 0
M  V30 1771 C 176.97 2.83229 2.17981 0
M  V30 1772 S 178.529 3.18075 3.02281 0
M  V30 1773 H 175.347 0.584821 0.404358 0
M  V30 1774 H 177.949 1.89425 0.48357 0
M  V30 1775 H 176.653 3.75407 1.65824 0
M  V30 1776 H 176.184 2.6201 2.93453 0
M  V30 1777 H 178.199 2.64772 4.19655 0
M  V30 1778 N 177.372 -0.689602 1.41712 0
M  V30 1779 C 178.649 -1.44457 1.31877 0
M  V30 1780 C 179.029 -2.11039 -0.0508537 0
M  V30 1781 O 178.377 -2.02138 -1.06547 0
M  V30 1782 C 178.587 -2.45913 2.47645 0
M  V30 1783 C 179.935 -3.10991 2.89084 0
M  V30 1784 O 180.959 -2.56238 2.47428 0
M  V30 1785 O 179.818 -4.10174 3.61137 0
M  V30 1786 H 176.912 -0.64362 0.519309 0
M  V30 1787 H 179.458 -0.719576 1.53689 0
M  V30 1788 H 178.23 -1.95409 3.39015 0
M  V30 1789 H 177.853 -3.25913 2.27742 0
M  V30 1790 N 178.85 -1.27639 -0.924453 0
M  V30 1791 C 179.78 -1.13166 -2.04244 0
M  V30 1792 C 180.761 -0.032256 -1.70069 0
M  V30 1793 O 181.946 -0.207328 -1.9309 0
M  V30 1794 C 179.076 -0.781496 -3.38393 0
M  V30 1795 C 178.03 -1.83449 -3.86692 0
M  V30 1796 C 177.356 -1.33822 -5.17683 0
M  V30 1797 C 178.656 -3.23917 -4.09726 0
M  V30 1798 H 180.35 -2.06689 -2.1661 0
M  V30 1799 H 177.896 -0.995136 -1.04082 0
M  V30 1800 H 179.849 -0.667057 -4.16087 0
M  V30 1801 H 178.573 0.189439 -3.2605 0
M  V30 1802 H 177.232 -1.93789 -3.11193 0
M  V30 1803 H 176.88 -0.35665 -5.01734 0
M  V30 1804 H 176.58 -2.04224 -5.50968 0
M  V30 1805 H 178.104 -1.23679 -5.97943 0
M  V30 1806 H 179.518 -3.16559 -4.77978 0
M  V30 1807 H 177.915 -3.92059 -4.54324 0
M  V30 1808 H 178.985 -3.68729 -3.14908 0
M  V30 1809 N 180.328 1.1314 -1.09713 0
M  V30 1810 C 181.575 1.84484 -0.834987 0
M  V30 1811 C 181.903 1.83689 0.639418 0
M  V30 1812 O 181.158 1.2724 1.4869 0
M  V30 1813 C 181.457 3.32167 -1.3191 0
M  V30 1814 C 181.123 3.53139 -2.80363 0
M  V30 1815 C 179.785 3.58571 -3.20905 0
M  V30 1816 C 182.137 3.60866 -3.76065 0
M  V30 1817 C 179.465 3.69267 -4.55916 0
M  V30 1818 C 181.817 3.73089 -5.10869 0
M  V30 1819 C 180.481 3.76775 -5.50996 0
M  V30 1820 H 179.751 0.675073 -0.305544 0
M  V30 1821 H 182.398 1.33554 -1.37243 0
M  V30 1822 H 180.703 3.85469 -0.701517 0
M  V30 1823 H 182.4 3.85821 -1.09284 0
M  V30 1824 H 178.99 3.49569 -2.47991 0
M  V30 1825 H 183.174 3.55946 -3.45855 0
M  V30 1826 H 178.43 3.70388 -4.86438 0
M  V30 1827 H 182.604 3.78011 -5.84877 0
M  V30 1828 H 180.231 3.84815 -6.55608 0
M  V30 1829 N 181.806 0.884767 1.30421 0
M  V30 1830 C 182.769 0.356277 2.26414 0
M  V30 1831 C 183.769 -0.501124 1.52792 0
M  V30 1832 O 184.959 -0.30831 1.7145 0
M  V30 1833 C 182.091 -0.492316 3.37326 0
M  V30 1834 H 183.284 1.20389 2.74675 0
M  V30 1835 H 180.837 0.661607 1.41607 0
M  V30 1836 H 181.572 -1.36052 2.94381 0
M  V30 1837 H 181.357 0.121832 3.91911 0
M  V30 1838 H 182.847 -0.853871 4.08777 0
M  V30 1839 N 183.284 -1.43765 0.645699 0
M  V30 1840 C 184.695 -1.85193 0.236719 0
M  V30 1841 C 185.046 -1.54045 -1.21509 0
M  V30 1842 O 184.171 -0.985694 -1.92647 0
M  V30 1843 C 184.766 -3.36151 0.422845 0
M  V30 1844 C 183.325 -3.76338 0.0682492 0
M  V30 1845 C 182.472 -2.67538 0.729306 0
M  V30 1846 H 185.423 -1.34025 0.849883 0
M  V30 1847 H 185.444 -3.79032 -0.333904 0
M  V30 1848 H 184.956 -3.5879 1.47958 0
M  V30 1849 H 183.057 -3.59312 -0.986179 0
M  V30 1850 H 183.17 -4.76603 0.488469 0
M  V30 1851 H 181.534 -2.54176 0.163235 0
M  V30 1852 H 182.317 -2.93006 1.78892 0
M  V30 1853 N 184.763 -0.387143 -1.52771 0
M  V30 1854 C 185.693 0.440551 -2.29306 0
M  V30 1855 C 186.674 1.06535 -1.32606 0
M  V30 1856 O 187.859 1.07853 -1.61497 0
M  V30 1857 C 184.989 1.56919 -3.09829 0
M  V30 1858 C 183.943 1.07054 -4.14395 0
M  V30 1859 C 183.269 2.29109 -4.83129 0
M  V30 1860 C 184.569 0.140015 -5.22112 0
M  V30 1861 H 186.263 -0.198026 -2.98744 0
M  V30 1862 H 183.809 -0.09668 -1.43675 0
M  V30 1863 H 185.762 2.15503 -3.62128 0
M  V30 1864 H 184.486 2.23532 -2.3812 0
M  V30 1865 H 183.145 0.507247 -3.63074 0
M  V30 1866 H 182.793 2.94227 -4.0797 0
M  V30 1867 H 182.493 1.96406 -5.53804 0
M  V30 1868 H 184.017 2.88339 -5.38231 0
M  V30 1869 H 185.431 0.633978 -5.69784 0
M  V30 1870 H 183.828 -0.0971485 -6.00021 0
M  V30 1871 H 184.898 -0.811711 -4.78058 0
M  V30 1872 N 186.241 1.57166 -0.116904 0
M  V30 1873 C 187.487 1.95412 0.542405 0
M  V30 1874 C 187.82 1.00019 1.66463 0
M  V30 1875 O 187.095 0.0370346 1.94465 0
M  V30 1876 C 187.378 3.43615 1.07708 0
M  V30 1877 C 187.231 4.49781 -0.0415868 0
M  V30 1878 C 188.55 3.93616 1.96861 0
M  V30 1879 H 185.669 0.710543 0.195696 0
M  V30 1880 H 188.311 1.89027 -0.192038 0
M  V30 1881 H 186.461 3.49187 1.70296 0
M  V30 1882 H 188.133 4.56308 -0.676793 0
M  V30 1883 H 186.376 4.28033 -0.705019 0
M  V30 1884 H 187.047 5.50733 0.373717 0
M  V30 1885 H 189.523 3.90335 1.44146 0
M  V30 1886 H 188.399 4.97838 2.3119 0
M  V30 1887 H 188.66 3.34188 2.89432 0
M  V30 1888 N 187.719 -0.156864 1.56817 0
M  V30 1889 C 188.651 -1.21883 1.94106 0
M  V30 1890 C 189.664 -1.3971 0.835754 0
M  V30 1891 O 190.853 -1.39457 1.11418 0
M  V30 1892 C 187.953 -2.58527 2.19127 0
M  V30 1893 C 187.126 -2.61809 3.50393 0
M  V30 1894 C 186.185 -3.7992 3.64071 0
M  V30 1895 O 185.211 -3.65249 4.36557 0
M  V30 1896 N 186.413 -4.96973 2.99997 0
M  V30 1897 H 189.178 -0.901974 2.85805 0
M  V30 1898 H 186.739 -0.346513 1.58148 0
M  V30 1899 H 188.731 -3.36034 2.25529 0
M  V30 1900 H 187.301 -2.82545 1.33742 0
M  V30 1901 H 186.521 -1.7029 3.5552 0
M  V30 1902 H 187.809 -2.61024 4.36742 0
M  V30 1903 H 187.207 -5.11794 2.41004 0
M  V30 1904 H 185.764 -5.7229 3.11974 0
M  V30 1905 N 189.197 -1.51736 -0.425897 0
M  V30 1906 C 190.107 -1.76738 -1.54275 0
M  V30 1907 C 191.123 -0.65211 -1.61318 0
M  V30 1908 O 192.299 -0.935654 -1.78346 0
M  V30 1909 C 189.364 -1.89755 -2.90162 0
M  V30 1910 C 188.425 -3.13633 -2.93143 0
M  V30 1911 C 187.658 -3.2602 -4.22548 0
M  V30 1912 O 187.881 -2.44067 -5.15546 0
M  V30 1913 O 186.815 -4.19071 -4.32046 0
M  V30 1914 H 190.641 -2.71502 -1.36089 0
M  V30 1915 H 188.226 -1.36376 -0.610069 0
M  V30 1916 H 190.108 -2.00236 -3.70788 0
M  V30 1917 H 188.783 -0.981785 -3.08452 0
M  V30 1918 H 187.69 -3.08622 -2.11431 0
M  V30 1919 H 189.023 -4.04936 -2.798 0
M  V30 1920 N 190.675 0.682077 -1.42076 0
M  V30 1921 C 191.903 1.47057 -1.4554 0
M  V30 1922 C 192.318 1.8869 -0.0645779 0
M  V30 1923 O 191.675 1.57666 0.919115 0
M  V30 1924 C 191.726 2.72442 -2.37609 0
M  V30 1925 O 191.447 2.32559 -3.71279 0
M  V30 1926 C 192.948 3.66069 -2.50017 0
M  V30 1927 H 190.168 0.452737 -0.495248 0
M  V30 1928 H 192.712 0.838695 -1.8651 0
M  V30 1929 H 190.867 3.31835 -1.9991 0
M  V30 1930 H 191.281 3.13475 -4.20516 0
M  V30 1931 H 192.755 4.50792 -3.18576 0
M  V30 1932 H 193.232 4.11476 -1.53572 0
M  V30 1933 H 193.838 3.12572 -2.88407 0
M  V30 1934 N 192.153 1.28127 0.917671 0
M  V30 1935 C 193.101 1.11569 2.04096 0
M  V30 1936 C 194.095 0.0360242 1.69362 0
M  V30 1937 O 195.301 0.194501 1.78946 0
M  V30 1938 H 191.676 0.344097 0.668656 0
M  V30 1939 H 193.647 2.06711 2.15205 0
M  V30 1940 C 192.396 0.790197 3.38602 0
M  V30 1941 H 191.719 1.61293 3.6582 0
M  V30 1942 H 193.159 0.714271 4.1794 0
M  V30 1943 C 191.618 -0.505897 3.3308 0
M  V30 1944 O 192.148 -1.53736 3.71117 0
M  V30 1945 N 190.354 -0.505193 2.86175 0
M  V30 1946 H 189.901 0.334621 2.55417 0
M  V30 1947 H 189.859 -1.37243 2.82863 0
M  V30 1948 N 193.631 -1.12557 1.10312 0
M  V30 1949 C 194.578 -2.18247 0.750781 0
M  V30 1950 C 195.548 -1.63853 -0.272293 0
M  V30 1951 O 196.733 -1.90195 -0.151862 0
M  V30 1952 C 193.873 -3.44591 0.187379 0
M  V30 1953 C 192.986 -4.13046 1.2656 0
M  V30 1954 C 192.121 -5.27034 0.663978 0
M  V30 1955 C 191.16 -5.87353 1.72287 0
M  V30 1956 N 190.297 -6.92757 1.1416 0
M  V30 1957 H 195.137 -2.47732 1.65628 0
M  V30 1958 H 192.674 -1.21629 0.827337 0
M  V30 1959 H 194.632 -4.16904 -0.157148 0
M  V30 1960 H 193.262 -3.15527 -0.681355 0
M  V30 1961 H 192.314 -3.38924 1.72727 0
M  V30 1962 H 193.626 -4.53947 2.06721 0
M  V30 1963 H 192.78 -6.06104 0.268824 0
M  V30 1964 H 191.519 -4.87407 -0.169082 0
M  V30 1965 H 190.524 -5.06971 2.12746 0
M  V30 1966 H 191.749 -6.29051 2.55875 0
M  V30 1967 H 189.695 -6.5517 0.329984 0
M  V30 1968 H 189.612 -7.3225 1.88007 0
M  V30 1969 H 190.88 -7.75658 0.772956 0
M  V30 1970 N 195.109 -0.891671 -1.2995 0
M  V30 1971 C 196.041 -0.320695 -2.26945 0
M  V30 1972 C 197.054 0.528497 -1.53983 0
M  V30 1973 O 198.243 0.346959 -1.75096 0
M  V30 1974 C 195.343 0.562066 -3.34207 0
M  V30 1975 C 194.516 -0.259576 -4.36629 0
M  V30 1976 C 193.575 0.554739 -5.23268 0
M  V30 1977 O 192.601 -0.0249311 -5.69195 0
M  V30 1978 N 193.803 1.8625 -5.4981 0
M  V30 1979 H 196.568 -1.15432 -2.76578 0
M  V30 1980 H 194.129 -0.755336 -1.432 0
M  V30 1981 H 196.121 1.11304 -3.89093 0
M  V30 1982 H 194.691 1.29637 -2.84452 0
M  V30 1983 H 193.911 -0.991986 -3.81514 0
M  V30 1984 H 195.199 -0.822564 -5.02107 0
M  V30 1985 H 194.597 2.35628 -5.14292 0
M  V30 1986 H 193.154 2.36078 -6.07545 0
M  V30 1987 N 196.587 1.43421 -0.653314 0
M  V30 1988 C 197.998 1.85065 -0.246537 0
M  V30 1989 C 198.349 1.54688 1.2069 0
M  V30 1990 O 197.474 0.995896 1.92122 0
M  V30 1991 C 198.069 3.35922 -0.440666 0
M  V30 1992 C 196.628 3.76297 -0.0882064 0
M  V30 1993 C 195.775 2.67147 -0.743484 0
M  V30 1994 H 198.726 1.33572 -0.856979 0
M  V30 1995 H 198.747 3.79204 0.313798 0
M  V30 1996 H 198.259 3.58 -1.49858 0
M  V30 1997 H 196.36 3.5983 0.96711 0
M  V30 1998 H 196.473 4.76338 -0.513738 0
M  V30 1999 H 194.837 2.54086 -0.176712 0
M  V30 2000 H 195.62 2.92053 -1.80443 0
M  V30 2001 N 198.065 0.39524 1.52563 0
M  V30 2002 C 199.476 -0.0774719 1.86539 0
M  V30 2003 C 199.827 -1.45641 1.31466 0
M  V30 2004 O 198.952 -2.06459 0.648367 0
M  V30 2005 C 199.547 -0.147356 3.38479 0
M  V30 2006 C 198.106 -0.564373 3.72145 0
M  V30 2007 C 197.253 0.269919 2.75983 0
M  V30 2008 H 200.204 0.612876 1.46388 0
M  V30 2009 H 200.225 -0.965343 3.68051 0
M  V30 2010 H 199.737 0.856387 3.78534 0
M  V30 2011 H 197.838 -1.57527 3.37663 0
M  V30 2012 H 197.951 -0.318402 4.78041 0
M  V30 2013 H 196.315 -0.265696 2.5331 0
M  V30 2014 H 197.098 1.27175 3.18875 0
M  V30 2015 N 199.544 -1.57102 0.125237 0
M  V30 2016 C 200.476 -2.12726 -0.853237 0
M  V30 2017 C 201.489 -1.07145 -1.22571 0
M  V30 2018 O 202.678 -1.34497 -1.17358 0
M  V30 2019 C 199.778 -2.61709 -2.15317 0
M  V30 2020 C 198.951 -3.91456 -1.95143 0
M  V30 2021 C 198.01 -4.25973 -3.08923 0
M  V30 2022 O 197.036 -4.94682 -2.81564 0
M  V30 2023 N 198.238 -3.83795 -4.35524 0
M  V30 2024 H 201.003 -2.97307 -0.377964 0
M  V30 2025 H 198.564 -1.61792 -0.0590011 0
M  V30 2026 H 200.556 -2.81826 -2.90441 0
M  V30 2027 H 199.126 -1.81974 -2.54174 0
M  V30 2028 H 198.346 -3.80185 -1.04177 0
M  V30 2029 H 199.634 -4.76283 -1.78976 0
M  V30 2030 H 199.032 -3.2839 -4.60626 0
M  V30 2031 H 197.589 -4.09008 -5.07499 0
M  V30 2032 N 201.022 0.148545 -1.56898 0
M  V30 2033 C 202.25 0.876389 -1.87422 0
M  V30 2034 C 202.665 1.74809 -0.713256 0
M  V30 2035 O 202.022 1.79725 0.317025 0
M  V30 2036 C 202.073 1.73438 -3.17178 0
M  V30 2037 O 201.794 0.897809 -4.28802 0
M  V30 2038 C 203.295 2.56993 -3.61205 0
M  V30 2039 H 200.515 0.253489 -0.621277 0
M  V30 2040 H 203.059 0.141798 -2.04008 0
M  V30 2041 H 201.214 2.42205 -3.0235 0
M  V30 2042 H 201.628 1.48672 -5.02988 0
M  V30 2043 H 203.102 3.12773 -4.54838 0
M  V30 2044 H 203.579 3.32958 -2.86419 0
M  V30 2045 H 204.185 1.9352 -3.78722 0
M  V30 2046 N 202.5 1.5196 0.417844 0
M  V30 2047 C 203.746 1.65836 1.16732 0
M  V30 2048 C 204.079 0.382881 1.90388 0
M  V30 2049 O 203.354 -0.618368 1.84408 0
M  V30 2050 C 203.637 2.87466 2.16876 0
M  V30 2051 C 203.49 4.25041 1.47174 0
M  V30 2052 C 204.809 3.04613 3.17646 0
M  V30 2053 H 201.928 0.603515 0.423011 0
M  V30 2054 H 204.57 1.84494 0.454105 0
M  V30 2055 H 202.72 2.71689 2.777 0
M  V30 2056 H 204.392 4.52527 0.895376 0
M  V30 2057 H 202.635 4.26843 0.773806 0
M  V30 2058 H 203.306 5.06176 2.20204 0
M  V30 2059 H 205.782 3.1923 2.66892 0
M  V30 2060 H 204.658 3.91247 3.8499 0
M  V30 2061 H 204.919 2.17541 3.84874 0
M  V30 2062 N 203.978 -0.674533 1.42435 0
M  V30 2063 C 204.926 -1.80934 1.46169 0
M  V30 2064 C 205.92 -1.66006 0.3374 0
M  V30 2065 O 207.126 -1.72611 0.510425 0
M  V30 2066 H 203.501 -0.596594 0.457798 0
M  V30 2067 H 205.472 -1.74903 2.41767 0
M  V30 2068 C 204.221 -3.19088 1.38123 0
M  V30 2069 H 203.544 -3.31203 2.23931 0
M  V30 2070 H 204.984 -3.9851 1.44797 0
M  V30 2071 C 203.443 -3.36763 0.0960517 0
M  V30 2072 O 203.973 -3.92581 -0.851073 0
M  V30 2073 N 202.179 -2.90597 0.0131186 0
M  V30 2074 H 201.726 -2.45359 0.784639 0
M  V30 2075 H 201.684 -3.028 -0.846133 0
M  V30 2076 N 205.456 -1.28612 -0.910864 0
M  V30 2077 C 206.867 -1.14406 -1.47541 0
M  V30 2078 C 207.218 0.264901 -1.94403 0
M  V30 2079 O 206.343 1.15942 -1.82719 0
M  V30 2080 C 206.938 -2.07073 -2.68153 0
M  V30 2081 C 205.497 -1.96923 -3.20778 0
M  V30 2082 C 204.644 -1.98646 -1.93481 0
M  V30 2083 H 207.595 -1.41259 -0.723291 0
M  V30 2084 H 207.616 -1.63642 -3.43514 0
M  V30 2085 H 207.128 -3.09611 -2.34015 0
M  V30 2086 H 205.229 -0.97433 -3.59635 0
M  V30 2087 H 205.342 -2.84026 -3.85832 0
M  V30 2088 H 203.706 -1.43093 -2.10705 0
M  V30 2089 H 204.489 -3.02868 -1.61634 0
M  V30 2090 N 206.934 1.1197 -1.10907 0
M  V30 2091 C 208.183 1.82947 -0.849302 0
M  V30 2092 C 208.496 1.85275 0.627112 0
M  V30 2093 O 209.702 2.52296 1.00295 0
M  V30 2094 C 208.158 3.28529 -1.46959 0
M  V30 2095 C 207.766 3.34546 -2.97965 0
M  V30 2096 C 209.51 4.04443 -1.28942 0
M  V30 2097 C 207.417 4.74491 -3.53004 0
M  V30 2098 H 206.347 0.685477 -0.314065 0
M  V30 2099 H 208.998 1.2604 -1.33365 0
M  V30 2100 H 207.38 3.85333 -0.912917 0
M  V30 2101 H 208.554 2.87654 -3.59989 0
M  V30 2102 H 206.869 2.72108 -3.15192 0
M  V30 2103 H 209.466 5.07787 -1.67502 0
M  V30 2104 H 209.809 4.15656 -0.231456 0
M  V30 2105 H 210.342 3.5401 -1.81443 0
M  V30 2106 H 207.081 4.68474 -4.58489 0
M  V30 2107 H 206.601 5.21816 -2.9575 0
M  V30 2108 H 208.28 5.4344 -3.51115 0
M  V30 2109 N 208.412 0.89855 1.29475 0
M  V30 2110 C 209.66 0.522847 1.9522 0
M  V30 2111 C 209.981 -0.93371 1.71192 0
M  V30 2112 O 209.251 -1.65823 1.04305 0
M  V30 2113 H 207.831 0.190366 0.722336 0
M  V30 2114 H 210.493 1.14459 1.5775 0
M  V30 2115 H 209.589 0.704476 3.04045 0
M  V30 2116 N 209.89 -1.43072 0.660911 0
M  V30 2117 C 210.84 -2.27948 -0.04847 0
M  V30 2118 C 211.824 -1.40325 -0.787246 0
M  V30 2119 O 213.016 -1.63893 -0.668446 0
M  V30 2120 C 210.145 -3.28143 -1.00881 0
M  V30 2121 C 209.231 -4.23252 -0.268108 0
M  V30 2122 N 209.622 -5.00656 0.719528 0
M  V30 2123 C 207.92 -4.43092 -0.508493 0
M  V30 2124 C 208.621 -5.70019 1.15988 0
M  V30 2125 N 207.597 -5.41364 0.492584 0
M  V30 2126 H 211.399 -2.85213 0.709279 0
M  V30 2127 H 208.913 -1.54869 0.488822 0
M  V30 2128 H 210.91 -3.87736 -1.53188 0
M  V30 2129 H 209.57 -2.7244 -1.76654 0
M  V30 2130 H 210.581 -5.06115 1.09855 0
M  V30 2131 H 207.258 -3.98449 -1.24679 0
M  V30 2132 H 208.648 -6.4214 1.97751 0
M  V30 2133 N 211.368 -0.403325 -1.52352 0
M  V30 2134 C 212.298 0.416205 -2.29761 0
M  V30 2135 C 213.279 1.05123 -1.33728 0
M  V30 2136 O 214.464 1.06134 -1.62632 0
M  V30 2137 C 211.594 1.53624 -3.11475 0
M  V30 2138 C 210.548 1.02653 -4.15507 0
M  V30 2139 C 209.874 2.23971 -4.85532 0
M  V30 2140 C 211.174 0.08463 -5.22231 0
M  V30 2141 H 212.868 -0.229701 -2.98518 0
M  V30 2142 H 210.414 -0.111913 -1.43564 0
M  V30 2143 H 212.367 2.1165 -3.64393 0
M  V30 2144 H 211.091 2.20994 -2.40477 0
M  V30 2145 H 209.75 0.46871 -3.63591 0
M  V30 2146 H 209.398 2.89883 -4.11068 0
M  V30 2147 H 209.098 1.90521 -5.55856 0
M  V30 2148 H 210.622 2.82614 -5.41259 0
M  V30 2149 H 212.036 0.573509 -5.70424 0
M  V30 2150 H 210.433 -0.160783 -5.99885 0
M  V30 2151 H 211.503 -0.86237 -4.7717 0
M  V30 2152 N 212.846 1.57033 -0.133567 0
M  V30 2153 C 214.257 1.82593 0.389464 0
M  V30 2154 C 214.608 1.05156 1.6564 0
M  V30 2155 O 213.733 0.292644 2.14412 0
M  V30 2156 C 214.328 3.31204 0.713377 0
M  V30 2157 C 212.887 3.57393 1.18098 0
M  V30 2158 C 212.034 2.76598 0.197126 0
M  V30 2159 H 214.985 1.54598 -0.358481 0
M  V30 2160 H 215.006 3.46627 1.56939 0
M  V30 2161 H 214.518 3.87537 -0.2089 0
M  V30 2162 H 212.619 3.06433 2.11966 0
M  V30 2163 H 212.732 4.65915 1.11624 0
M  V30 2164 H 211.096 2.45257 0.687088 0
M  V30 2165 H 211.879 3.35697 -0.718504 0
M  V30 2166 N 214.325 -0.140222 1.56975 0
M  V30 2167 C 215.235 -1.19223 2.02047 0
M  V30 2168 C 216.251 -1.46612 0.937062 0
M  V30 2169 O 217.427 -1.58148 1.24704 0
M  V30 2170 C 214.492 -2.50414 2.39778 0
M  V30 2171 C 213.553 -2.30612 3.621 0
M  V30 2172 C 212.786 -3.55547 3.98023 0
M  V30 2173 O 213.009 -4.62004 3.34528 0
M  V30 2174 O 211.943 -3.47808 4.91237 0
M  V30 2175 H 215.769 -0.839559 2.91865 0
M  V30 2176 H 213.354 -0.349453 1.45256 0
M  V30 2177 H 215.236 -3.27747 2.64877 0
M  V30 2178 H 213.911 -2.85198 1.53114 0
M  V30 2179 H 212.818 -1.51207 3.4218 0
M  V30 2180 H 214.151 -2.00741 4.49404 0
M  V30 2181 N 215.803 -1.52179 -0.40978 0
M  V30 2182 C 217.028 -1.70347 -1.18308 0
M  V30 2183 C 217.453 -0.411887 -1.83535 0
M  V30 2184 O 216.811 0.630587 -1.6998 0
M  V30 2185 C 216.859 -2.83977 -2.22238 0
M  V30 2186 O 215.963 -2.495 -3.28365 0
M  V30 2187 H 215.304 -0.567103 -0.345384 0
M  V30 2188 H 217.834 -1.98879 -0.480445 0
M  V30 2189 H 217.844 -3.0887 -2.66577 0
M  V30 2190 H 216.519 -3.77685 -1.74146 0
M  V30 2191 H 215.096 -2.35277 -2.89308 0
M  V30 2192 N 217.281 0.66697 -1.42791 0
M  V30 2193 C 218.211 1.79218 -1.49677 0
M  V30 2194 C 219.192 1.66405 -0.352623 0
M  V30 2195 O 220.377 1.85708 -0.567993 0
M  V30 2196 C 217.507 3.17565 -1.40605 0
M  V30 2197 C 216.461 3.45124 -2.53127 0
M  V30 2198 C 215.787 4.83127 -2.29112 0
M  V30 2199 C 217.087 3.41236 -3.95418 0
M  V30 2200 H 218.781 1.73713 -2.43853 0
M  V30 2201 H 216.327 0.83432 -1.17367 0
M  V30 2202 H 218.28 3.96022 -1.44029 0
M  V30 2203 H 217.004 3.23767 -0.429271 0
M  V30 2204 H 215.663 2.69031 -2.49034 0
M  V30 2205 H 215.311 4.85988 -1.29709 0
M  V30 2206 H 215.011 5.02528 -3.04531 0
M  V30 2207 H 216.535 5.63859 -2.34297 0
M  V30 2208 H 217.949 4.09651 -4.01073 0
M  V30 2209 H 216.346 3.72173 -4.70752 0
M  V30 2210 H 217.416 2.39665 -4.21532 0
M  V30 2211 N 218.759 1.29093 0.90403 0
M  V30 2212 C 219.987 1.19689 1.68766 0
M  V30 2213 C 220.402 -0.243113 1.87228 0
M  V30 2214 O 219.759 -1.16326 1.40621 0
M  V30 2215 C 219.81 1.90144 3.07453 0
M  V30 2216 O 219.531 3.2852 2.89838 0
M  V30 2217 C 221.032 1.87162 4.01852 0
M  V30 2218 H 218.252 0.415035 0.527244 0
M  V30 2219 H 220.796 1.7039 1.13082 0
M  V30 2220 H 218.951 1.43289 3.59926 0
M  V30 2221 H 219.365 3.63944 3.77684 0
M  V30 2222 H 220.839 2.41032 4.96596 0
M  V30 2223 H 221.316 0.84617 4.30972 0
M  V30 2224 H 221.922 2.33741 3.5531 0
M  V30 2225 N 220.237 -1.11381 1.11499 0
M  V30 2226 C 221.184 -2.17439 0.773887 0
M  V30 2227 C 222.154 -1.64132 -0.254899 0
M  V30 2228 O 223.339 -1.90345 -0.13168 0
M  V30 2229 C 220.479 -3.44373 0.223917 0
M  V30 2230 C 219.592 -4.1168 1.30934 0
M  V30 2231 C 218.727 -5.263 0.71984 0
M  V30 2232 C 217.766 -5.85493 1.78507 0
M  V30 2233 N 216.903 -6.91507 1.21502 0
M  V30 2234 H 221.743 -2.45962 1.68246 0
M  V30 2235 H 219.28 -1.20744 0.840191 0
M  V30 2236 H 221.238 -4.17047 -0.112921 0
M  V30 2237 H 219.868 -3.16232 -0.647851 0
M  V30 2238 H 218.92 -3.37073 1.76312 0
M  V30 2239 H 220.232 -4.51729 2.11524 0
M  V30 2240 H 219.386 -6.05785 0.333094 0
M  V30 2241 H 218.125 -4.87559 -0.117377 0
M  V30 2242 H 217.13 -5.04686 2.18111 0
M  V30 2243 H 218.355 -6.26301 2.62533 0
M  V30 2244 H 216.301 -6.54783 0.399455 0
M  V30 2245 H 216.218 -7.30214 1.95763 0
M  V30 2246 H 217.486 -7.74795 0.855181 0
M  V30 2247 N 221.715 -0.905404 -1.28997 0
M  V30 2248 C 223.126 -0.581953 -1.77398 0
M  V30 2249 C 223.477 0.902552 -1.74208 0
M  V30 2250 O 222.602 1.70584 -1.33154 0
M  V30 2251 C 223.197 -1.04961 -3.22131 0
M  V30 2252 C 221.756 -0.777229 -3.68288 0
M  V30 2253 C 220.903 -1.22109 -2.48967 0
M  V30 2254 H 223.854 -1.08754 -1.15578 0
M  V30 2255 H 223.875 -0.387387 -3.78523 0
M  V30 2256 H 223.387 -2.13008 -3.24421 0
M  V30 2257 H 221.488 0.290383 -3.71467 0
M  V30 2258 H 221.601 -1.37911 -4.58822 0
M  V30 2259 H 219.965 -0.639971 -2.46529 0
M  V30 2260 H 220.748 -2.30972 -2.53982 0
M  V30 2261 N 223.193 1.4272 -0.668489 0
M  V30 2262 C 224.47 1.95248 -0.117373 0
M  V30 2263 C 224.85 1.60919 1.36632 0
M  V30 2264 O 224.198 0.902095 2.09939 0
M  V30 2265 C 224.408 3.46927 -0.379806 0
M  V30 2266 C 225.756 4.23588 -0.292923 0
M  V30 2267 O 226.78 3.5482 -0.313204 0
M  V30 2268 O 225.639 5.46017 -0.229697 0
M  V30 2269 H 222.733 0.827 0.00079152 0
M  V30 2270 H 225.279 1.52581 -0.742783 0
M  V30 2271 H 224.051 3.65096 -1.40786 0
M  V30 2272 H 223.674 3.96627 0.277923 0
M  V30 2273 N 224.671 0.411399 1.52136 0
M  V30 2274 C 225.603 -0.448386 2.24771 0
M  V30 2275 C 226.616 -1.00828 1.27818 0
M  V30 2276 O 227.805 -0.906841 1.53749 0
M  V30 2277 C 224.905 -1.63636 2.96777 0
M  V30 2278 C 224.078 -1.19995 4.20618 0
M  V30 2279 C 223.137 -2.25509 4.75428 0
M  V30 2280 O 222.163 -1.86007 5.3795 0
M  V30 2281 N 223.365 -3.577 4.57199 0
M  V30 2282 H 226.13 0.174025 2.99194 0
M  V30 2283 H 223.691 0.238897 1.60128 0
M  V30 2284 H 225.683 -2.33793 3.30338 0
M  V30 2285 H 224.253 -2.16465 2.25526 0
M  V30 2286 H 223.473 -0.326421 3.92846 0
M  V30 2287 H 224.761 -0.885365 5.01038 0
M  V30 2288 H 224.159 -3.92543 4.07341 0
M  V30 2289 H 222.716 -4.23827 4.95191 0
M  V30 2290 N 226.149 -1.5696 0.141893 0
M  V30 2291 C 227.395 -1.9625 -0.511248 0
M  V30 2292 C 227.728 -1.02654 -1.64851 0
M  V30 2293 O 227.003 -0.0679676 -1.94381 0
M  V30 2294 C 227.286 -3.45285 -1.02227 0
M  V30 2295 C 227.139 -4.49658 0.113138 0
M  V30 2296 C 228.458 -3.96698 -1.90574 0
M  V30 2297 H 225.577 -0.713567 -0.184367 0
M  V30 2298 H 228.219 -1.88698 0.222087 0
M  V30 2299 H 226.369 -3.51852 -1.64719 0
M  V30 2300 H 228.041 -4.55174 0.749302 0
M  V30 2301 H 226.284 -4.26857 0.773026 0
M  V30 2302 H 226.955 -5.51258 -0.286053 0
M  V30 2303 H 229.431 -3.92578 -1.37918 0
M  V30 2304 H 228.307 -5.01453 -2.2324 0
M  V30 2305 H 228.568 -3.3875 -2.84079 0
M  V30 2306 N 227.627 0.131896 -1.57047 0
M  V30 2307 C 228.59 1.14638 -1.98471 0
M  V30 2308 C 229.59 1.35029 -0.873148 0
M  V30 2309 O 230.78 1.31764 -1.13946 0
M  V30 2310 C 227.912 2.50358 -2.31373 0
M  V30 2311 H 229.105 0.79064 -2.8929 0
M  V30 2312 H 226.658 0.375761 -1.51716 0
M  V30 2313 H 227.393 2.90876 -1.43393 0
M  V30 2314 H 227.178 2.36915 -3.12432 0
M  V30 2315 H 228.668 3.23395 -2.64207 0
M  V30 2316 N 229.106 1.52395 0.401703 0
M  V30 2317 C 230.517 1.58899 0.980202 0
M  V30 2318 C 230.868 0.434032 1.91339 0
M  V30 2319 O 229.993 -0.444619 2.11783 0
M  V30 2320 C 230.588 2.87994 1.78451 0
M  V30 2321 C 229.147 2.96953 2.31292 0
M  V30 2322 C 228.294 2.53903 1.11483 0
M  V30 2323 H 231.245 1.57657 0.18168 0
M  V30 2324 H 231.266 2.73765 2.64259 0
M  V30 2325 H 230.778 3.72035 1.10506 0
M  V30 2326 H 228.879 2.17422 3.02586 0
M  V30 2327 H 228.992 4.01344 2.61649 0
M  V30 2328 H 227.356 2.07925 1.47104 0
M  V30 2329 H 228.139 3.40326 0.450928 0
M  V30 2330 N 230.584 -0.659388 1.43143 0
M  V30 2331 C 231.831 -1.41935 1.44433 0
M  V30 2332 C 232.159 -1.94387 0.0663522 0
M  V30 2333 O 231.414 -1.72314 -0.927706 0
M  V30 2334 C 231.713 -2.62206 2.42864 0
M  V30 2335 C 231.379 -2.28208 3.88886 0
M  V30 2336 C 230.041 -2.18647 4.28657 0
M  V30 2337 C 232.393 -2.00887 4.8093 0
M  V30 2338 C 229.721 -1.79914 5.58433 0
M  V30 2339 C 232.073 -1.63653 6.11065 0
M  V30 2340 C 230.737 -1.52614 6.49819 0
M  V30 2341 H 230.007 -0.519376 0.528517 0
M  V30 2342 H 232.654 -0.750453 1.76183 0
M  V30 2343 H 230.959 -3.34199 2.04495 0
M  V30 2344 H 232.656 -3.2041 2.41119 0
M  V30 2345 H 229.246 -2.36557 3.57406 0
M  V30 2346 H 233.43 -2.07198 4.5098 0
M  V30 2347 H 228.686 -1.69948 5.87305 0
M  V30 2348 H 232.86 -1.41543 6.81864 0
M  V30 2349 H 230.487 -1.22371 7.50286 0
M  V30 2350 N 232.062 -1.29571 -0.897171 0
M  V30 2351 C 233.29 -1.20583 -1.68129 0
M  V30 2352 C 233.705 0.233181 -1.87354 0
M  V30 2353 O 233.062 1.15579 -1.41236 0
M  V30 2354 C 233.113 -1.91772 -3.06441 0
M  V30 2355 O 232.834 -3.30053 -2.88091 0
M  V30 2356 C 234.335 -1.89291 -4.00854 0
M  V30 2357 H 231.555 -0.417826 -0.525036 0
M  V30 2358 H 234.099 -1.70987 -1.12177 0
M  V30 2359 H 232.254 -1.45196 -3.59161 0
M  V30 2360 H 232.668 -3.65942 -3.75748 0
M  V30 2361 H 234.142 -2.43662 -4.95311 0
M  V30 2362 H 234.619 -0.869014 -4.30517 0
M  V30 2363 H 235.225 -2.35622 -3.54066 0
M  V30 2364 N 233.54 1.10788 -1.12088 0
M  V30 2365 C 234.787 1.82671 -0.873931 0
M  V30 2366 C 235.115 1.85004 0.600311 0
M  V30 2367 O 234.37 1.30365 1.45957 0
M  V30 2368 C 234.669 3.29294 -1.38926 0
M  V30 2369 C 234.335 3.47113 -2.87791 0
M  V30 2370 C 232.997 3.51684 -3.28439 0
M  V30 2371 C 235.349 3.52808 -3.83635 0
M  V30 2372 C 232.677 3.59513 -4.63646 0
M  V30 2373 C 235.029 3.62169 -5.18668 0
M  V30 2374 C 233.693 3.65003 -5.58864 0
M  V30 2375 H 232.963 0.668441 -0.319794 0
M  V30 2376 H 235.61 1.30613 -1.40045 0
M  V30 2377 H 233.915 3.83894 -0.783122 0
M  V30 2378 H 235.612 3.83416 -1.17443 0
M  V30 2379 H 232.202 3.4423 -2.5535 0
M  V30 2380 H 236.386 3.4853 -3.53328 0
M  V30 2381 H 231.642 3.59987 -4.94185 0
M  V30 2382 H 235.816 3.6552 -5.92763 0
M  V30 2383 H 233.443 3.70822 -6.63623 0
M  V30 2384 N 235.018 0.912232 1.28515 0
M  V30 2385 C 235.948 0.416403 2.29757 0
M  V30 2386 C 236.929 -0.515194 1.6211 0
M  V30 2387 O 238.114 -0.423253 1.89532 0
M  V30 2388 C 235.244 -0.34572 3.45575 0
M  V30 2389 C 234.198 0.496599 4.25109 0
M  V30 2390 C 233.524 -0.393771 5.33248 0
M  V30 2391 C 234.824 1.75307 4.92001 0
M  V30 2392 H 236.518 1.26249 2.7148 0
M  V30 2393 H 234.064 0.608515 1.30511 0
M  V30 2394 H 236.017 -0.703422 4.15488 0
M  V30 2395 H 234.741 -1.2257 3.02728 0
M  V30 2396 H 233.4 0.8368 3.56922 0
M  V30 2397 H 233.048 -1.27225 4.86644 0
M  V30 2398 H 232.748 0.166209 5.87365 0
M  V30 2399 H 234.272 -0.747389 6.06009 0
M  V30 2400 H 235.686 1.46437 5.54283 0
M  V30 2401 H 234.083 2.25534 5.56106 0
M  V30 2402 H 235.153 2.48176 4.16577 0
M  V30 2403 N 236.496 -1.42363 0.676048 0
M  V30 2404 C 237.428 -2.29164 -0.0404605 0
M  V30 2405 C 238.441 -1.43747 -0.764245 0
M  V30 2406 O 239.63 -1.67453 -0.618195 0
M  V30 2407 C 236.73 -3.21196 -1.08103 0
M  V30 2408 C 235.903 -4.35273 -0.430812 0
M  V30 2409 C 234.962 -5.08017 -1.37133 0
M  V30 2410 O 233.988 -5.62494 -0.87116 0
M  V30 2411 N 235.19 -5.13647 -2.70456 0
M  V30 2412 H 237.955 -2.91298 0.704667 0
M  V30 2413 H 235.516 -1.53303 0.520559 0
M  V30 2414 H 237.508 -3.66728 -1.71152 0
M  V30 2415 H 236.078 -2.60505 -1.72788 0
M  V30 2416 H 235.298 -3.92372 0.379209 0
M  V30 2417 H 236.586 -5.08795 0.0221132 0
M  V30 2418 H 235.984 -4.708 -3.1363 0
M  V30 2419 H 234.541 -5.62821 -3.28749 0
M  V30 2420 N 237.974 -0.419461 -1.51915 0
M  V30 2421 C 239.385 0.0477853 -1.86639 0
M  V30 2422 C 239.736 1.43531 -1.33766 0
M  V30 2423 O 238.861 2.05401 -0.68113 0
M  V30 2424 C 239.456 0.0934885 -3.38671 0
M  V30 2425 C 238.015 0.505097 -3.72996 0
M  V30 2426 C 237.162 -0.313792 -2.75519 0
M  V30 2427 H 240.113 -0.636088 -1.45395 0
M  V30 2428 H 240.134 0.906667 -3.6954 0
M  V30 2429 H 239.646 -0.916501 -3.77123 0
M  V30 2430 H 237.747 1.52135 -3.40126 0
M  V30 2431 H 237.86 0.242309 -4.78487 0
M  V30 2432 H 236.224 0.225363 -2.53701 0
M  V30 2433 H 237.007 -1.32232 -3.16812 0
M  V30 2434 N 239.452 1.56882 -0.150215 0
M  V30 2435 C 240.382 2.19935 0.784284 0
M  V30 2436 C 241.363 1.14854 1.25469 0
M  V30 2437 O 242.548 1.43209 1.31168 0
M  V30 2438 C 239.678 2.82349 2.02229 0
M  V30 2439 C 238.632 3.93285 1.68853 0
M  V30 2440 C 237.958 4.42649 2.99944 0
M  V30 2441 C 239.258 5.13904 0.932714 0
M  V30 2442 H 240.952 2.9828 0.258781 0
M  V30 2443 H 238.498 1.43473 0.123029 0
M  V30 2444 H 240.451 3.25126 2.68088 0
M  V30 2445 H 239.175 2.0134 2.57157 0
M  V30 2446 H 237.834 3.5113 1.05371 0
M  V30 2447 H 237.482 3.58458 3.52869 0
M  V30 2448 H 237.182 5.17476 2.78374 0
M  V30 2449 H 238.706 4.88099 3.66868 0
M  V30 2450 H 240.12 5.53506 1.49345 0
M  V30 2451 H 238.517 5.94515 0.81684 0
M  V30 2452 H 239.587 4.84842 -0.0749568 0
M  V30 2453 N 240.93 -0.123565 1.57115 0
M  V30 2454 C 242.341 -0.681198 1.73829 0
M  V30 2455 C 242.692 -1.80535 0.768214 0
M  V30 2456 O 241.817 -2.16317 -0.0599103 0
M  V30 2457 C 242.412 -1.24246 3.15196 0
M  V30 2458 C 240.971 -1.74643 3.33432 0
M  V30 2459 C 240.118 -0.644284 2.69711 0
M  V30 2460 H 243.069 0.102315 1.5837 0
M  V30 2461 H 243.09 -2.11216 3.16493 0
M  V30 2462 H 242.602 -0.424062 3.85776 0
M  V30 2463 H 240.703 -2.58974 2.67886 0
M  V30 2464 H 240.816 -1.85902 4.41562 0
M  V30 2465 H 239.18 -1.07676 2.3082 0
M  V30 2466 H 239.963 0.163058 3.42913 0
M  V30 2467 N 242.408 -1.52605 -0.393616 0
M  V30 2468 C 243.338 -1.80022 -1.48709 0
M  V30 2469 C 244.319 -0.651995 -1.57108 0
M  V30 2470 O 245.504 -0.89913 -1.72132 0
M  V30 2471 C 242.634 -1.96492 -2.86371 0
M  V30 2472 C 241.588 -3.12161 -2.92813 0
M  V30 2473 C 240.914 -3.13877 -4.3288 0
M  V30 2474 C 242.214 -4.51322 -2.6288 0
M  V30 2475 H 243.908 -2.71589 -1.26015 0
M  V30 2476 H 241.454 -1.30684 -0.604778 0
M  V30 2477 H 243.407 -2.14255 -3.62867 0
M  V30 2478 H 242.131 -1.01611 -3.10391 0
M  V30 2479 H 240.79 -2.94173 -2.18764 0
M  V30 2480 H 240.438 -2.16687 -4.53933 0
M  V30 2481 H 240.138 -3.91576 -4.38112 0
M  V30 2482 H 241.662 -3.33789 -5.1129 0
M  V30 2483 H 243.076 -4.69435 -3.29096 0
M  V30 2484 H 241.473 -5.31053 -2.79468 0
M  V30 2485 H 242.543 -4.58353 -1.58242 0
M  V30 2486 N 243.887 0.651787 -1.4349 0
M  V30 2487 C 245.112 1.44434 -1.48841 0
M  V30 2488 C 245.537 1.8779 -0.107955 0
M  V30 2489 O 244.895 1.57464 0.898602 0
M  V30 2490 C 244.943 2.65458 -2.44059 0
M  V30 2491 O 244.047 3.64566 -1.92784 0
M  V30 2492 H 243.388 0.433005 -0.503391 0
M  V30 2493 H 245.918 0.797451 -1.88419 0
M  V30 2494 H 245.928 3.13255 -2.6141 0
M  V30 2495 H 244.603 2.33244 -3.4434 0
M  V30 2496 H 243.18 3.23716 -1.851 0
M  V30 2497 N 245.365 1.30045 0.890287 0
M  V30 2498 C 246.776 1.16738 1.45702 0
M  V30 2499 C 247.127 -0.233939 1.948 0
M  V30 2500 O 246.252 -1.13021 1.84541 0
M  V30 2501 C 246.847 2.11313 2.64825 0
M  V30 2502 C 245.406 2.02001 3.17604 0
M  V30 2503 C 244.553 2.01699 1.90296 0
M  V30 2504 H 247.504 1.42392 0.700726 0
M  V30 2505 H 247.525 1.69086 3.40867 0
M  V30 2506 H 247.037 3.13294 2.2906 0
M  V30 2507 H 245.138 1.03142 3.5804 0
M  V30 2508 H 245.251 2.90128 3.81264 0
M  V30 2509 H 243.615 1.46427 2.08402 0
M  V30 2510 H 244.398 3.05402 1.56795 0
M  V30 2511 N 246.843 -1.10192 1.12674 0
M  V30 2512 C 248.091 -1.81845 0.881861 0
M  V30 2513 C 248.412 -1.85737 -0.593867 0
M  V30 2514 O 247.682 -1.33724 -1.4316 0
M  V30 2515 H 246.262 -0.673432 0.323261 0
M  V30 2516 H 248.924 -1.33316 1.42172 0
M  V30 2517 H 248.02 -2.85288 1.2656 0
M  V30 2518 N 248.321 -0.919034 -1.28029 0
M  V30 2519 C 249.567 -0.555757 -1.95036 0
M  V30 2520 C 249.9 0.899198 -1.72128 0
M  V30 2521 O 249.175 1.64023 -1.04531 0
M  V30 2522 C 249.458 -0.872024 -3.49382 0
M  V30 2523 C 249.311 -2.3801 -3.81669 0
M  V30 2524 C 250.63 -0.37185 -4.38526 0
M  V30 2525 H 247.749 -0.203386 -0.708381 0
M  V30 2526 H 250.391 -1.14924 -1.51303 0
M  V30 2527 H 248.541 -0.366946 -3.86763 0
M  V30 2528 H 250.213 -2.9562 -3.54128 0
M  V30 2529 H 248.456 -2.83289 -3.28526 0
M  V30 2530 H 249.127 -2.55192 -4.8947 0
M  V30 2531 H 251.603 -0.804602 -4.08247 0
M  V30 2532 H 250.479 -0.622173 -5.45362 0
M  V30 2533 H 250.74 0.727934 -4.36066 0
M  V30 2534 N 249.799 1.42003 -0.683588 0
M  V30 2535 C 250.729 2.33487 -0.024866 0
M  V30 2536 C 251.71 1.51163 0.779975 0
M  V30 2537 O 252.895 1.79739 0.735362 0
M  V30 2538 C 250.025 3.3487 0.920836 0
M  V30 2539 C 248.979 4.27414 0.223958 0
M  V30 2540 C 248.305 5.19074 1.2832 0
M  V30 2541 C 249.605 5.14445 -0.90242 0
M  V30 2542 H 251.299 2.88819 -0.788921 0
M  V30 2543 H 248.845 1.38873 -0.38083 0
M  V30 2544 H 250.798 3.97787 1.39081 0
M  V30 2545 H 249.522 2.77861 1.71642 0
M  V30 2546 H 248.181 3.65904 -0.225864 0
M  V30 2547 H 247.829 4.58387 2.071 0
M  V30 2548 H 247.529 5.81822 0.821995 0
M  V30 2549 H 249.053 5.84867 1.75392 0
M  V30 2550 H 250.467 5.70998 -0.513272 0
M  V30 2551 H 248.864 5.86072 -1.28997 0
M  V30 2552 H 249.934 4.52322 -1.74737 0
M  V30 2553 N 251.277 0.427512 1.51691 0
M  V30 2554 C 252.502 -0.143601 2.06902 0
M  V30 2555 C 252.927 -1.36536 1.29382 0
M  V30 2556 O 252.285 -1.78289 0.329043 0
M  V30 2557 C 252.333 -0.454207 3.57728 0
M  V30 2558 O 251.437 -1.54228 3.82475 0
M  V30 2559 H 250.778 -0.00617128 0.663971 0
M  V30 2560 H 253.308 0.606014 1.95419 0
M  V30 2561 H 253.318 -0.707525 4.01818 0
M  V30 2562 H 251.993 0.438812 4.13579 0
M  V30 2563 H 250.57 -1.2797 3.50254 0
M  V30 2564 N 252.755 -1.56801 0.158532 0
M  V30 2565 C 253.98 -2.01295 -0.499516 0
M  V30 2566 C 254.405 -1.03799 -1.56867 0
M  V30 2567 O 253.763 -0.0155162 -1.81293 0
M  V30 2568 C 253.811 -3.44469 -1.06647 0
M  V30 2569 O 252.915 -3.50012 -2.18095 0
M  V30 2570 H 252.256 -0.652884 -0.12099 0
M  V30 2571 H 254.786 -2.02958 0.258661 0
M  V30 2572 H 254.796 -3.8351 -1.39227 0
M  V30 2573 H 253.471 -4.14932 -0.283581 0
M  V30 2574 H 252.048 -3.22822 -1.86656 0
M  V30 2575 N 254.233 0.115231 -1.57178 0
M  V30 2576 C 255.461 0.836437 -1.89239 0
M  V30 2577 C 255.876 1.73256 -0.750175 0
M  V30 2578 O 255.233 1.80357 0.278832 0
M  V30 2579 C 255.284 1.66671 -3.20785 0
M  V30 2580 O 255.005 0.806652 -4.3061 0
M  V30 2581 C 256.506 2.49274 -3.66575 0
M  V30 2582 H 253.726 0.240253 -0.626514 0
M  V30 2583 H 256.27 0.0984932 -2.04263 0
M  V30 2584 H 254.425 2.35737 -3.0742 0
M  V30 2585 H 254.839 1.37969 -5.06028 0
M  V30 2586 H 256.313 3.03055 -4.6137 0
M  V30 2587 H 256.79 3.26807 -2.93417 0
M  V30 2588 H 257.396 1.85443 -3.82741 0
M  V30 2589 N 255.711 1.52812 0.385517 0
M  V30 2590 C 257.122 1.5993 0.963293 0
M  V30 2591 C 257.473 0.454302 1.90868 0
M  V30 2592 O 256.598 -0.422132 2.12243 0
M  V30 2593 C 257.193 2.89871 1.75387 0
M  V30 2594 C 255.752 2.99389 2.28129 0
M  V30 2595 C 254.899 2.55071 1.08783 0
M  V30 2596 H 257.85 1.5784 0.164948 0
M  V30 2597 H 257.871 2.76553 2.61341 0
M  V30 2598 H 257.383 3.73186 1.06554 0
M  V30 2599 H 255.484 2.20619 3.00263 0
M  V30 2600 H 255.597 4.04096 2.57377 0
M  V30 2601 H 253.961 2.09473 1.4489 0
M  V30 2602 H 254.744 3.40785 0.414807 0
M  V30 2603 N 257.189 -0.644168 1.43834 0
M  V30 2604 C 258.466 -1.40188 1.36406 0
M  V30 2605 C 258.846 -2.11094 0.0163124 0
M  V30 2606 O 258.194 -2.05426 -1.00062 0
M  V30 2607 C 258.404 -2.3791 2.55343 0
M  V30 2608 C 259.752 -3.01637 2.98832 0
M  V30 2609 O 260.776 -2.48237 2.55455 0
M  V30 2610 O 259.635 -3.98477 3.74003 0
M  V30 2611 H 256.729 -0.626773 0.539523 0
M  V30 2612 H 259.275 -0.670317 1.559 0
M  V30 2613 H 258.047 -1.84525 3.4506 0
M  V30 2614 H 257.67 -3.18503 2.37995 0
M  V30 2615 N 258.668 -1.30515 -0.883378 0
M  V30 2616 C 259.618 -1.13641 -1.9766 0
M  V30 2617 C 260.602 -0.0511314 -1.60819 0
M  V30 2618 O 261.794 -0.274623 -1.74857 0
M  V30 2619 C 258.923 -0.831976 -3.33066 0
M  V30 2620 C 258.009 -1.95759 -3.76217 0
M  V30 2621 N 258.4 -3.20313 -3.9145 0
M  V30 2622 C 256.698 -1.85431 -4.05625 0
M  V30 2623 C 257.399 -3.93856 -4.2808 0
M  V30 2624 N 256.375 -3.21919 -4.38029 0
M  V30 2625 H 260.177 -2.08106 -2.07531 0
M  V30 2626 H 257.691 -1.21877 -1.0733 0
M  V30 2627 H 259.688 -0.692102 -4.11115 0
M  V30 2628 H 258.348 0.104588 -3.24532 0
M  V30 2629 H 259.359 -3.55583 -3.76538 0
M  V30 2630 H 256.036 -0.991531 -4.05555 0
M  V30 2631 H 257.426 -5.01125 -4.47575 0
M  V30 2632 N 260.146 1.09593 -1.13257 0
M  V30 2633 C 261.371 1.8604 -0.916732 0
M  V30 2634 C 261.796 1.80504 0.529146 0
M  V30 2635 O 261.154 1.18127 1.37534 0
M  V30 2636 C 261.202 3.32017 -1.40703 0
M  V30 2637 O 260.306 4.08141 -0.591153 0
M  V30 2638 H 259.647 0.576943 -0.328683 0
M  V30 2639 H 262.177 1.38405 -1.50682 0
M  V30 2640 H 262.187 3.82865 -1.4099 0
M  V30 2641 H 260.862 3.35361 -2.45979 0
M  V30 2642 H 259.439 3.67084 -0.656005 0
M  V30 2643 N 261.624 0.925811 1.2754 0
M  V30 2644 C 262.871 0.565255 1.94451 0
M  V30 2645 C 263.199 -0.89316 1.7278 0
M  V30 2646 O 262.454 -1.65213 1.04895 0
M  V30 2647 C 262.753 0.835296 3.47502 0
M  V30 2648 C 262.419 2.27515 3.89291 0
M  V30 2649 C 261.081 2.66879 4.00411 0
M  V30 2650 C 263.433 3.21158 4.10496 0
M  V30 2651 C 260.761 3.99014 4.30122 0
M  V30 2652 C 263.113 4.52871 4.4169 0
M  V30 2653 C 261.777 4.92072 4.51023 0
M  V30 2654 H 261.047 0.206841 0.711546 0
M  V30 2655 H 263.694 1.16942 1.51647 0
M  V30 2656 H 261.999 0.148442 3.91519 0
M  V30 2657 H 263.696 0.535322 3.97411 0
M  V30 2658 H 260.286 1.95976 3.81171 0
M  V30 2659 H 264.47 2.9195 4.01346 0
M  V30 2660 H 259.726 4.2907 4.35556 0
M  V30 2661 H 263.9 5.25436 4.57045 0
M  V30 2662 H 261.527 5.9449 4.738 0
M  V30 2663 N 263.102 -1.41638 0.69111 0
M  V30 2664 C 264.327 -2.06148 0.227583 0
M  V30 2665 C 264.752 -1.51652 -1.11281 0
M  V30 2666 O 264.11 -0.64164 -1.69566 0
M  V30 2667 C 264.158 -3.60095 0.190858 0
M  V30 2668 O 263.262 -4.03845 -0.835664 0
M  V30 2669 H 262.603 -0.654434 0.112306 0
M  V30 2670 H 265.133 -1.81484 0.944714 0
M  V30 2671 H 265.143 -4.07995 0.020207 0
M  V30 2672 H 263.818 -3.99129 1.16915 0
M  V30 2673 H 262.395 -3.67458 -0.63473 0
M  V30 2674 N 264.58 -0.43555 -1.51462 0
M  V30 2675 C 265.51 0.367376 -2.30592 0
M  V30 2676 C 266.491 1.02263 -1.35928 0
M  V30 2677 O 267.676 1.02661 -1.64847 0
M  V30 2678 C 264.806 1.46983 -3.14664 0
M  V30 2679 C 263.76 0.938161 -4.17591 0
M  V30 2680 C 263.086 2.13622 -4.90173 0
M  V30 2681 C 264.386 -0.0261621 -5.22293 0
M  V30 2682 H 266.08 -0.292969 -2.97963 0
M  V30 2683 H 263.626 -0.14234 -1.43295 0
M  V30 2684 H 265.579 2.03873 -3.688 0
M  V30 2685 H 264.303 2.15843 -2.4511 0
M  V30 2686 H 262.962 0.391481 -3.64504 0
M  V30 2687 H 262.61 2.81098 -4.17124 0
M  V30 2688 H 262.31 1.78688 -5.59772 0
M  V30 2689 H 263.834 2.7107 -5.47132 0
M  V30 2690 H 265.248 0.452384 -5.71512 0
M  V30 2691 H 263.645 -0.287992 -5.99409 0
M  V30 2692 H 264.715 -0.963391 -4.75233 0
M  V30 2693 N 266.058 1.56714 -0.166846 0
M  V30 2694 C 266.968 2.21331 0.777791 0
M  V30 2695 C 267.984 1.20358 1.25658 0
M  V30 2696 O 269.16 1.53005 1.30964 0
M  V30 2697 C 266.225 2.83787 1.99163 0
M  V30 2698 C 265.286 3.99947 1.56016 0
M  V30 2699 C 264.519 4.59415 2.71613 0
M  V30 2700 O 264.742 4.17769 3.88362 0
M  V30 2701 O 263.676 5.49359 2.45945 0
M  V30 2702 H 267.502 3.02605 0.257636 0
M  V30 2703 H 265.087 1.49275 0.0611393 0
M  V30 2704 H 266.969 3.23405 2.70161 0
M  V30 2705 H 265.644 2.05513 2.50092 0
M  V30 2706 H 264.551 3.65007 0.819809 0
M  V30 2707 H 265.884 4.79801 1.09782 0
M  V30 2708 N 267.536 -0.106894 1.57237 0
M  V30 2709 C 268.466 -1.13148 2.04254 0
M  V30 2710 C 269.447 -1.42476 0.929224 0
M  V30 2711 O 270.632 -1.52709 1.19973 0
M  V30 2712 C 267.762 -2.4545 2.45706 0
M  V30 2713 C 266.716 -2.30558 3.60592 0
M  V30 2714 C 266.042 -3.67931 3.87983 0
M  V30 2715 C 267.342 -1.75597 4.91897 0
M  V30 2716 H 269.036 -0.740374 2.90101 0
M  V30 2717 H 266.582 -0.354696 1.39563 0
M  V30 2718 H 268.535 -3.17389 2.77205 0
M  V30 2719 H 267.259 -2.86475 1.56843 0
M  V30 2720 H 265.918 -1.61067 3.29322 0
M  V30 2721 H 265.566 -4.06462 2.96306 0
M  V30 2722 H 265.266 -3.58817 4.65322 0
M  V30 2723 H 266.79 -4.41356 4.21945 0
M  V30 2724 H 268.204 -2.37364 5.21854 0
M  V30 2725 H 266.601 -1.77272 5.73319 0
M  V30 2726 H 267.671 -0.714451 4.79608 0
M  V30 2727 N 269.014 -1.53014 -0.377408 0
M  V30 2728 C 270.262 -1.6829 -1.11906 0
M  V30 2729 C 270.583 -0.431206 -1.90173 0
M  V30 2730 O 269.853 0.554595 -1.87886 0
M  V30 2731 H 268.433 -0.620371 -0.416112 0
M  V30 2732 H 271.095 -1.90167 -0.426893 0
M  V30 2733 H 270.191 -2.53862 -1.8155 0
M  V30 2734 N 270.492 0.636531 -1.44174 0
M  V30 2735 C 271.717 1.42847 -1.50364 0
M  V30 2736 C 272.142 1.87665 -0.127867 0
M  V30 2737 O 271.5 1.58408 0.88185 0
M  V30 2738 C 271.548 2.62854 -2.4686 0
M  V30 2739 O 270.652 3.62501 -1.9664 0
M  V30 2740 H 269.993 0.427642 -0.507955 0
M  V30 2741 H 272.523 0.777422 -1.89255 0
M  V30 2742 H 272.533 3.10465 -2.64718 0
M  V30 2743 H 271.208 2.29578 -3.46795 0
M  V30 2744 H 269.785 3.21735 -1.88523 0
M  V30 2745 N 271.97 1.30982 0.876444 0
M  V30 2746 C 272.88 1.2003 2.01569 0
M  V30 2747 C 273.896 0.11838 1.73597 0
M  V30 2748 O 275.072 0.33495 1.98595 0
M  V30 2749 C 272.137 0.901637 3.34771 0
M  V30 2750 C 271.198 2.06979 3.76109 0
M  V30 2751 C 270.431 1.78529 5.02954 0
M  V30 2752 O 270.654 0.717296 5.65872 0
M  V30 2753 O 269.588 2.64019 5.40905 0
M  V30 2754 H 273.414 2.15753 2.13739 0
M  V30 2755 H 270.999 1.10658 1.00375 0
M  V30 2756 H 272.881 0.750645 4.1466 0
M  V30 2757 H 271.556 -0.0256141 3.2369 0
M  V30 2758 H 270.463 2.27616 2.96887 0
M  V30 2759 H 271.796 2.97907 3.91807 0
M  V30 2760 N 273.449 -1.08991 1.13837 0
M  V30 2761 C 274.695 -1.81526 0.90422 0
M  V30 2762 C 275.028 -1.85706 -0.568066 0
M  V30 2763 O 274.303 -1.32855 -1.42056 0
M  V30 2764 C 274.586 -3.27447 1.49835 0
M  V30 2765 C 274.439 -3.31512 3.04006 0
M  V30 2766 C 275.758 -4.24256 1.17025 0
M  V30 2767 H 272.877 -0.659029 0.329923 0
M  V30 2768 H 275.519 -1.27644 1.40737 0
M  V30 2769 H 273.669 -3.73462 1.07044 0
M  V30 2770 H 275.341 -2.93867 3.55584 0
M  V30 2771 H 273.584 -2.70963 3.38765 0
M  V30 2772 H 274.255 -4.34329 3.40679 0
M  V30 2773 H 276.731 -3.86549 1.54009 0
M  V30 2774 H 275.607 -5.24684 1.61237 0
M  V30 2775 H 275.868 -4.42019 0.0846274 0
M  V30 2776 N 274.927 -0.932562 -1.27047 0
M  V30 2777 C 276.204 -0.49377 -1.89265 0
M  V30 2778 C 276.584 1.02833 -1.8436 0
M  V30 2779 O 275.932 1.88461 -1.29209 0
M  V30 2780 C 276.142 -1.04536 -3.32976 0
M  V30 2781 C 277.49 -1.10879 -4.09867 0
M  V30 2782 O 278.514 -0.995327 -3.42011 0
M  V30 2783 O 277.373 -1.28417 -5.31198 0
M  V30 2784 H 274.467 -0.159596 -0.811454 0
M  V30 2785 H 277.013 -1.02457 -1.3528 0
M  V30 2786 H 275.785 -2.08913 -3.30864 0
M  V30 2787 H 275.408 -0.496494 -3.94488 0
M  V30 2788 N 276.405 1.4127 -0.698611 0
M  V30 2789 C 277.654 2.00408 -0.227949 0
M  V30 2790 C 277.967 1.55981 1.18023 0
M  V30 2791 O 279.173 2.07699 1.74852 0
M  V30 2792 C 277.629 3.58129 -0.356636 0
M  V30 2793 C 277.237 4.11536 -1.77037 0
M  V30 2794 C 278.981 4.24466 0.0540969 0
M  V30 2795 C 276.888 5.61701 -1.85055 0
M  V30 2796 H 275.818 0.749586 -0.0814657 0
M  V30 2797 H 278.469 1.61713 -0.867249 0
M  V30 2798 H 276.851 3.94442 0.350965 0
M  V30 2799 H 278.025 3.86636 -2.50698 0
M  V30 2800 H 276.34 3.57736 -2.13105 0
M  V30 2801 H 278.937 5.34698 0.0146723 0
M  V30 2802 H 279.28 4.01687 1.09332 0
M  V30 2803 H 279.813 3.93198 -0.603337 0
M  V30 2804 H 276.552 5.89312 -2.8704 0
M  V30 2805 H 276.072 5.88519 -1.15783 0
M  V30 2806 H 277.751 6.26524 -1.61484 0
M  V30 2807 N 277.883 0.443576 1.51229 0
M  V30 2808 C 279.111 -0.11929 2.06556 0
M  V30 2809 C 279.526 -1.35921 1.31038 0
M  V30 2810 O 278.883 -1.78675 0.371704 0
M  V30 2811 C 278.934 -0.435228 3.5887 0
M  V30 2812 O 278.655 0.755486 4.31537 0
M  V30 2813 C 280.156 -1.04808 4.30732 0
M  V30 2814 H 277.376 -0.0051584 0.67098 0
M  V30 2815 H 279.92 0.624453 1.94733 0
M  V30 2816 H 278.075 -1.12887 3.70588 0
M  V30 2817 H 278.489 0.483491 5.22267 0
M  V30 2818 H 279.963 -1.2191 5.3837 0
M  V30 2819 H 280.44 -2.03081 3.89429 0
M  V30 2820 H 281.046 -0.393637 4.23474 0
M  V30 2821 N 279.361 -1.56624 0.175154 0
M  V30 2822 C 280.271 -2.21741 -0.766042 0
M  V30 2823 C 281.287 -1.21023 -1.25018 0
M  V30 2824 O 282.463 -1.53697 -1.3015 0
M  V30 2825 C 279.528 -2.84839 -1.97655 0
M  V30 2826 C 278.589 -4.00769 -1.53892 0
M  V30 2827 C 277.822 -4.60849 -2.69173 0
M  V30 2828 O 278.045 -4.19823 -3.86141 0
M  V30 2829 O 276.979 -5.50655 -2.43028 0
M  V30 2830 H 280.805 -3.02738 -0.241585 0
M  V30 2831 H 278.39 -1.49305 -0.053222 0
M  V30 2832 H 280.272 -3.24834 -2.68442 0
M  V30 2833 H 278.947 -2.06836 -2.48999 0
M  V30 2834 H 277.854 -3.65436 -0.80044 0
M  V30 2835 H 279.187 -4.80376 -1.07236 0
M  V30 2836 N 280.839 0.0985539 -1.57292 0
M  V30 2837 C 282.087 0.801092 -1.85545 0
M  V30 2838 C 282.408 1.79438 -0.763353 0
M  V30 2839 O 281.678 1.94763 0.21073 0
M  V30 2840 H 280.258 0.29884 -0.684619 0
M  V30 2841 H 282.92 0.0810064 -1.94732 0
M  V30 2842 H 282.016 1.3338 -2.82163 0
M  V30 2843 N 282.317 1.53212 0.369288 0
M  V30 2844 C 283.594 1.59815 1.12776 0
M  V30 2845 C 283.974 0.403402 2.0721 0
M  V30 2846 O 283.322 -0.606667 2.20299 0
M  V30 2847 C 283.532 2.94664 1.87013 0
M  V30 2848 C 284.88 3.49109 2.41677 0
M  V30 2849 O 285.904 2.96669 1.97144 0
M  V30 2850 O 284.763 4.40775 3.23079 0
M  V30 2851 H 281.857 0.645376 0.517125 0
M  V30 2852 H 284.403 1.65553 0.37285 0
M  V30 2853 H 283.175 3.73061 1.18071 0
M  V30 2854 H 282.798 2.92401 2.69421 0
M  V30 2855 N 283.795 -0.628877 1.44509 0
M  V30 2856 C 285.211 -0.947305 1.28446 0
M  V30 2857 C 285.411 -2.00275 0.221872 0
M  V30 2858 O 284.467 -2.49447 -0.391471 0
M  V30 2859 C 285.78 -1.40843 2.65676 0
M  V30 2860 C 287.328 -1.52379 2.73404 0
M  V30 2861 C 287.803 -2.01875 4.11109 0
M  V30 2862 N 289.294 -2.09142 4.13296 0
M  V30 2863 C 290.029 -2.48615 5.16699 0
M  V30 2864 N 289.525 -2.87209 6.30462 0
M  V30 2865 N 291.318 -2.48768 5.04054 0
M  V30 2866 H 283.469 0.0690977 2.12288 0
M  V30 2867 H 285.732 -0.0317164 0.947469 0
M  V30 2868 H 285.438 -0.707206 3.44516 0
M  V30 2869 H 285.312 -2.37902 2.92716 0
M  V30 2870 H 287.699 -2.21598 1.9488 0
M  V30 2871 H 287.78 -0.536898 2.50102 0
M  V30 2872 H 287.424 -1.3325 4.90109 0
M  V30 2873 H 287.354 -3.0144 4.31789 0
M  V30 2874 H 289.845 -1.81991 3.31191 0
M  V30 2875 H 290.158 -3.16149 7.05174 0
M  V30 2876 H 288.503 -2.84955 6.33897 0
M  V30 2877 H 291.694 -2.18009 4.14234 0
M  V30 2878 H 291.867 -2.79207 5.84763 0
M  V30 2879 N 285.273 -1.31445 -0.869486 0
M  V30 2880 C 286.22 -1.19135 -1.97675 0
M  V30 2881 C 287.19 -0.0770266 -1.65921 0
M  V30 2882 O 288.375 -0.249972 -1.89155 0
M  V30 2883 C 285.515 -0.905149 -3.33018 0
M  V30 2884 C 284.628 -2.10285 -3.77365 0
M  V30 2885 C 283.763 -1.75339 -5.01427 0
M  V30 2886 C 282.802 -2.91515 -5.38224 0
M  V30 2887 N 281.939 -2.56762 -6.53466 0
M  V30 2888 H 286.779 -2.13853 -2.07535 0
M  V30 2889 H 284.316 -1.06379 -1.01597 0
M  V30 2890 H 286.274 -0.719765 -4.10944 0
M  V30 2891 H 284.904 0.00519624 -3.228 0
M  V30 2892 H 283.956 -2.39899 -2.95216 0
M  V30 2893 H 285.268 -2.97237 -4.00564 0
M  V30 2894 H 284.422 -1.53266 -5.87022 0
M  V30 2895 H 283.161 -0.855801 -4.80133 0
M  V30 2896 H 282.166 -3.14237 -4.51149 0
M  V30 2897 H 283.391 -3.81985 -5.61484 0
M  V30 2898 H 281.337 -1.69526 -6.33717 0
M  V30 2899 H 281.254 -3.37243 -6.76612 0
M  V30 2900 H 282.522 -2.38083 -7.42251 0
M  V30 2901 N 286.751 1.08385 -1.14413 0
M  V30 2902 C 288.162 1.62258 -0.923535 0
M  V30 2903 C 288.513 1.88691 0.537595 0
M  V30 2904 O 287.638 1.64454 1.40655 0
M  V30 2905 C 288.233 2.94781 -1.67002 0
M  V30 2906 C 286.792 3.45437 -1.495 0
M  V30 2907 C 285.939 2.19668 -1.69238 0
M  V30 2908 H 288.89 0.916086 -1.2959 0
M  V30 2909 H 288.911 3.63229 -1.13334 0
M  V30 2910 H 288.423 2.7551 -2.73342 0
M  V30 2911 H 286.524 3.6981 -0.455097 0
M  V30 2912 H 286.637 4.22173 -2.2651 0
M  V30 2913 H 285.001 2.28849 -1.11804 0
M  V30 2914 H 285.784 2.02905 -2.7692 0
M  V30 2915 N 288.23 0.939286 1.26551 0
M  V30 2916 C 289.507 0.5038 1.89001 0
M  V30 2917 C 289.887 -1.01854 1.84903 0
M  V30 2918 O 289.235 -1.87773 1.30206 0
M  V30 2919 C 289.445 1.063 3.32417 0
M  V30 2920 C 290.793 1.13051 4.09273 0
M  V30 2921 O 291.817 1.01345 3.41479 0
M  V30 2922 O 290.676 1.31233 5.30509 0
M  V30 2923 H 287.77 0.163897 0.810597 0
M  V30 2924 H 290.316 1.03173 1.34735 0
M  V30 2925 H 289.088 2.10665 3.29752 0
M  V30 2926 H 288.711 0.517408 3.94219 0
M  V30 2927 N 289.708 -1.40897 0.706093 0
M  V30 2928 C 290.938 -2.05075 0.250523 0
M  V30 2929 C 291.346 -1.53275 -1.10921 0
M  V30 2930 O 290.689 -0.680281 -1.7064 0
M  V30 2931 C 290.751 -3.59219 0.142178 0
M  V30 2932 C 290.415 -4.33864 1.43566 0
M  V30 2933 C 291.412 -4.62448 2.37566 0
M  V30 2934 C 289.097 -4.72946 1.69195 0
M  V30 2935 C 291.091 -5.29088 3.5545 0
M  V30 2936 C 288.778 -5.3932 2.87362 0
M  V30 2937 C 289.776 -5.6732 3.80312 0
M  V30 2938 O 289.464 -6.32325 4.96408 0
M  V30 2939 H 289.196 -0.666645 0.112074 0
M  V30 2940 H 291.75 -1.81467 0.962239 0
M  V30 2941 H 289.98 -3.81609 -0.6254 0
M  V30 2942 H 291.669 -4.0495 -0.277584 0
M  V30 2943 H 292.435 -4.32727 2.19027 0
M  V30 2944 H 288.314 -4.50527 0.977042 0
M  V30 2945 H 291.858 -5.50859 4.28018 0
M  V30 2946 H 287.755 -5.68461 3.05814 0
M  V30 2947 H 288.523 -6.50821 4.9636 0
M  V30 2948 N 291.186 -0.45159 -1.50991 0
M  V30 2949 C 292.414 0.108334 -2.06616 0
M  V30 2950 C 292.829 1.35224 -1.31757 0
M  V30 2951 O 292.186 1.78475 -0.381174 0
M  V30 2952 C 292.237 0.41619 -3.59096 0
M  V30 2953 O 291.958 -0.778361 -4.3113 0
M  V30 2954 C 293.459 1.02523 -4.31282 0
M  V30 2955 H 290.679 0.00159995 -0.670998 0
M  V30 2956 H 293.223 -0.634771 -1.94399 0
M  V30 2957 H 291.378 1.10921 -3.71181 0
M  V30 2958 H 291.792 -0.511181 -5.22003 0
M  V30 2959 H 293.266 1.19053 -5.39009 0
M  V30 2960 H 293.743 2.01013 -3.905 0
M  V30 2961 H 294.349 0.371173 -4.23677 0
M  V30 2962 N 292.664 1.56529 -0.183458 0
M  V30 2963 C 293.627 2.17324 0.728223 0
M  V30 2964 C 294.627 1.12453 1.14939 0
M  V30 2965 O 295.817 1.37902 1.06437 0
M  V30 2966 C 292.949 2.76591 1.99274 0
M  V30 2967 H 294.142 2.99241 0.198772 0
M  V30 2968 H 291.695 1.5616 0.0661391 0
M  V30 2969 H 292.43 1.98441 2.56499 0
M  V30 2970 H 292.215 3.5335 1.69959 0
M  V30 2971 H 293.705 3.23311 2.6431 0
M  V30 2972 N 294.142 -0.090211 1.57342 0
M  V30 2973 C 295.372 -0.805055 1.90269 0
M  V30 2974 C 295.78 -1.72561 0.775842 0
M  V30 2975 O 295.123 -1.81839 -0.260843 0
M  V30 2976 C 295.185 -1.66734 3.18497 0
M  V30 2977 C 294.849 -0.918092 4.47683 0
M  V30 2978 C 295.846 -0.245674 5.19319 0
M  V30 2979 C 293.531 -0.890724 4.94339 0
M  V30 2980 C 295.525 0.444088 6.35851 0
M  V30 2981 C 293.212 -0.197179 6.10782 0
M  V30 2982 C 294.21 0.469044 6.81388 0
M  V30 2983 O 293.898 1.15146 7.95611 0
M  V30 2984 H 293.63 -0.235143 0.633785 0
M  V30 2985 H 296.184 -0.0703805 2.05279 0
M  V30 2986 H 294.414 -2.44437 2.99646 0
M  V30 2987 H 296.103 -2.25919 3.37217 0
M  V30 2988 H 296.869 -0.258246 4.84312 0
M  V30 2989 H 292.748 -1.39873 4.39268 0
M  V30 2990 H 296.292 0.964667 6.90898 0
M  V30 2991 H 292.189 -0.18247 6.45242 0
M  V30 2992 H 292.957 1.05885 8.11622 0
M  V30 2993 N 295.62 -1.53406 -0.361157 0
M  V30 2994 C 296.866 -1.70054 -1.10496 0
M  V30 2995 C 297.199 -0.453278 -1.88836 0
M  V30 2996 O 296.474 0.5495 -1.86576 0
M  V30 2997 C 296.757 -2.95317 -2.06058 0
M  V30 2998 C 296.61 -4.3021 -1.31298 0
M  V30 2999 C 297.929 -3.16193 -3.06121 0
M  V30 3000 H 295.048 -0.618799 -0.400321 0
M  V30 3001 H 297.69 -1.86052 -0.385318 0
M  V30 3002 H 295.84 -2.81809 -2.67425 0
M  V30 3003 H 297.512 -4.55538 -0.726807 0
M  V30 3004 H 295.755 -4.29421 -0.614853 0
M  V30 3005 H 296.426 -5.14 -2.01265 0
M  V30 3006 H 298.902 -3.28916 -2.5486 0
M  V30 3007 H 297.778 -4.05266 -3.70204 0
M  V30 3008 H 298.039 -2.31676 -3.76535 0
M  V30 3009 N 297.098 0.621204 -1.44841 0
M  V30 3010 C 298.061 1.71459 -1.521 0
M  V30 3011 C 299.061 1.55696 -0.401933 0
M  V30 3012 O 300.251 1.61011 -0.664925 0
M  V30 3013 C 297.383 3.10624 -1.40447 0
M  V30 3014 H 298.576 1.66394 -2.49506 0
M  V30 3015 H 296.129 0.835745 -1.3208 0
M  V30 3016 H 296.864 3.21277 -0.441737 0
M  V30 3017 H 296.649 3.23473 -2.21602 0
M  V30 3018 H 298.139 3.90293 -1.4853 0
M  V30 3019 N 298.576 1.31904 0.862503 0
M  V30 3020 C 299.509 1.14514 1.97388 0
M  V30 3021 C 300.487 0.0466493 1.62533 0
M  V30 3022 O 301.671 0.204484 1.87388 0
M  V30 3023 C 298.798 0.751347 3.30261 0
M  V30 3024 C 297.844 1.85395 3.84098 0
M  V30 3025 S 298.677 3.46081 4.08642 0
M  V30 3026 C 299.833 3.08655 5.44502 0
M  V30 3027 H 300.066 2.08597 2.11836 0
M  V30 3028 H 297.599 1.16475 1.01356 0
M  V30 3029 H 299.557 0.530901 4.07052 0
M  V30 3030 H 298.218 -0.170493 3.13637 0
M  V30 3031 H 297.411 1.53122 4.80177 0
M  V30 3032 H 297.013 2.02984 3.14123 0
M  V30 3033 H 299.305 2.58012 6.26447 0
M  V30 3034 H 300.248 4.03726 5.81731 0
M  V30 3035 H 300.656 2.45891 5.08132 0
M  V30 3036 N 300.054 -1.07777 1.14986 0
M  V30 3037 C 301.303 -1.79669 0.916617 0
M  V30 3038 C 301.616 -1.87474 -0.557917 0
M  V30 3039 O 302.822 -2.55845 -0.908617 0
M  V30 3040 C 301.278 -3.22848 1.59051 0
M  V30 3041 C 300.886 -3.23257 3.10176 0
M  V30 3042 C 302.63 -3.99379 1.43864 0
M  V30 3043 C 300.537 -4.61063 3.70372 0
M  V30 3044 H 299.467 -0.673349 0.33929 0
M  V30 3045 H 302.118 -1.21003 1.37951 0
M  V30 3046 H 300.5 -3.8168 1.0553 0
M  V30 3047 H 301.674 -2.74095 3.70417 0
M  V30 3048 H 299.989 -2.60222 3.25074 0
M  V30 3049 H 302.586 -5.0122 1.86232 0
M  V30 3050 H 302.929 -4.14511 0.385564 0
M  V30 3051 H 303.462 -3.47032 1.94457 0
M  V30 3052 H 300.201 -4.51135 4.7556 0
M  V30 3053 H 299.721 -5.1048 3.14913 0
M  V30 3054 H 301.4 -5.30034 3.71043 0
M  V30 3055 N 301.532 -0.945985 -1.26051 0
M  V30 3056 C 302.943 -0.638096 -1.75457 0
M  V30 3057 C 303.294 0.846672 -1.76991 0
M  V30 3058 O 302.419 1.66262 -1.38513 0
M  V30 3059 C 303.014 -1.15157 -3.18629 0
M  V30 3060 C 301.573 -0.894004 -3.65629 0
M  V30 3061 C 300.72 -1.29967 -2.44957 0
M  V30 3062 H 303.671 -1.12376 -1.1206 0
M  V30 3063 H 303.692 -0.507615 -3.77099 0
M  V30 3064 H 303.204 -2.23222 -3.1748 0
M  V30 3065 H 301.305 0.172057 -3.72203 0
M  V30 3066 H 301.418 -1.52439 -4.54202 0
M  V30 3067 H 299.782 -0.718078 -2.44368 0
M  V30 3068 H 300.565 -2.38935 -2.46505 0
M  V30 3069 N 303.011 1.40521 -0.713556 0
M  V30 3070 C 303.943 2.29191 -0.0203126 0
M  V30 3071 C 304.956 1.45723 0.725864 0
M  V30 3072 O 306.145 1.69033 0.573581 0
M  V30 3073 C 303.245 3.2395 0.995486 0
M  V30 3074 C 302.418 4.36262 0.315256 0
M  V30 3075 C 301.477 5.11474 1.23616 0
M  V30 3076 O 300.503 5.64606 0.721719 0
M  V30 3077 N 301.705 5.20638 2.56743 0
M  V30 3078 H 304.47 2.89327 -0.781652 0
M  V30 3079 H 302.031 1.51869 -0.561022 0
M  V30 3080 H 304.023 3.71137 1.61368 0
M  V30 3081 H 302.593 2.64995 1.6582 0
M  V30 3082 H 301.813 3.91228 -0.483106 0
M  V30 3083 H 303.101 5.08558 -0.157004 0
M  V30 3084 H 302.499 4.7895 3.01037 0
M  V30 3085 H 301.056 5.71339 3.13712 0
M  V30 3086 N 304.489 0.459591 1.5075 0
M  V30 3087 C 305.729 -0.09824 2.04164 0
M  V30 3088 C 306.093 -1.3801 1.33481 0
M  V30 3089 O 307.294 -2.01959 1.77387 0
M  V30 3090 C 305.565 -0.289467 3.56226 0
M  V30 3091 S 307.124 -0.807507 4.31306 0
M  V30 3092 H 303.942 -0.0213845 0.710678 0
M  V30 3093 H 306.544 0.624098 1.85271 0
M  V30 3094 H 305.248 0.649461 4.05229 0
M  V30 3095 H 304.779 -1.03825 3.79452 0
M  V30 3096 H 306.794 -2.0824 4.50389 0
M  V30 3097 N 305.967 -1.56429 0.191757 0
M  V30 3098 C 307.216 -1.9666 -0.448088 0
M  V30 3099 C 307.529 -1.08136 -1.62991 0
M  V30 3100 O 308.735 -1.38135 -2.33733 0
M  V30 3101 C 307.191 -3.49753 -0.848585 0
M  V30 3102 C 306.799 -4.46935 0.308764 0
M  V30 3103 C 308.543 -3.9876 -1.4557 0
M  V30 3104 C 306.45 -5.91293 -0.112506 0
M  V30 3105 H 305.38 -0.734312 -0.171179 0
M  V30 3106 H 308.031 -1.81301 0.283242 0
M  V30 3107 H 306.413 -3.60604 -1.63649 0
M  V30 3108 H 307.587 -4.47813 1.08627 0
M  V30 3109 H 305.902 -4.08102 0.827158 0
M  V30 3110 H 308.499 -5.04086 -1.78328 0
M  V30 3111 H 308.842 -3.42875 -2.36099 0
M  V30 3112 H 309.375 -3.9101 -0.731836 0
M  V30 3113 H 306.114 -6.51097 0.758514 0
M  V30 3114 H 305.634 -5.93676 -0.854941 0
M  V30 3115 H 307.313 -6.44663 -0.549448 0
M  V30 3116 N 307.445 0.0818655 -1.57387 0
M  V30 3117 C 308.392 1.09834 -2.0299 0
M  V30 3118 C 309.362 1.39043 -0.908639 0
M  V30 3119 O 310.547 1.50282 -1.17559 0
M  V30 3120 C 307.687 2.40971 -2.47037 0
M  V30 3121 C 306.8 2.18379 -3.7274 0
M  V30 3122 C 305.935 3.43008 -4.0561 0
M  V30 3123 C 304.974 3.15736 -5.24383 0
M  V30 3124 N 304.111 4.32667 -5.52941 0
M  V30 3125 H 308.951 0.702472 -2.89602 0
M  V30 3126 H 306.488 0.33531 -1.43227 0
M  V30 3127 H 308.446 3.1752 -2.70623 0
M  V30 3128 H 307.076 2.78379 -1.63417 0
M  V30 3129 H 306.128 1.32569 -3.56552 0
M  V30 3130 H 307.44 1.94227 -4.59431 0
M  V30 3131 H 306.594 4.27958 -4.30043 0
M  V30 3132 H 305.333 3.70225 -3.17466 0
M  V30 3133 H 304.338 2.2918 -4.99757 0
M  V30 3134 H 305.563 2.8985 -6.14136 0
M  V30 3135 H 303.509 4.59935 -4.67756 0
M  V30 3136 H 303.426 4.11753 -6.34031 0
M  V30 3137 H 304.694 5.18644 -5.81918 0
M  V30 3138 N 308.923 1.53595 0.353017 0
M  V30 3139 C 309.833 1.83897 1.45667 0
M  V30 3140 C 310.849 0.728334 1.58023 0
M  V30 3141 O 312.025 1.01968 1.73679 0
M  V30 3142 C 309.09 2.03383 2.80778 0
M  V30 3143 C 308.151 3.27262 2.77845 0
M  V30 3144 C 307.384 3.45809 4.06512 0
M  V30 3145 O 307.607 2.68387 5.03314 0
M  V30 3146 O 306.541 4.39207 4.11559 0
M  V30 3147 H 310.367 2.77686 1.2298 0
M  V30 3148 H 307.952 1.39132 0.544308 0
M  V30 3149 H 309.834 2.17698 3.60812 0
M  V30 3150 H 308.509 1.12783 3.03417 0
M  V30 3151 H 307.416 3.18359 1.96465 0
M  V30 3152 H 308.749 4.17824 2.60161 0
M  V30 3153 N 310.401 -0.613514 1.45168 0
M  V30 3154 C 311.311 -1.75296 1.55912 0
M  V30 3155 C 312.327 -1.68244 0.443856 0
M  V30 3156 O 313.503 -1.88706 0.70371 0
M  V30 3157 C 310.568 -3.1174 1.5172 0
M  V30 3158 C 309.629 -3.30291 2.74238 0
M  V30 3159 C 308.862 -4.60226 2.70236 0
M  V30 3160 O 309.085 -5.42168 1.77229 0
M  V30 3161 O 308.019 -4.81361 3.61352 0
M  V30 3162 H 311.845 -1.69183 2.52212 0
M  V30 3163 H 309.43 -0.776886 1.27612 0
M  V30 3164 H 311.312 -3.93044 1.51968 0
M  V30 3165 H 309.987 -3.18357 0.585697 0
M  V30 3166 H 308.894 -2.48598 2.79553 0
M  V30 3167 H 310.227 -3.28547 3.66494 0
M  V30 3168 N 311.879 -1.3236 -0.855495 0
M  V30 3169 C 313.156 -1.13491 -1.59309 0
M  V30 3170 C 313.536 0.30503 -2.08885 0
M  V30 3171 O 312.884 1.30151 -1.87811 0
M  V30 3172 C 313.094 -2.16176 -2.73987 0
M  V30 3173 C 314.442 -2.49463 -3.43589 0
M  V30 3174 O 315.466 -2.14715 -2.84211 0
M  V30 3175 O 314.325 -3.09027 -4.50738 0
M  V30 3176 H 311.419 -0.437887 -0.701559 0
M  V30 3177 H 313.965 -1.43887 -0.899696 0
M  V30 3178 H 312.737 -3.1297 -2.34873 0
M  V30 3179 H 312.36 -1.86769 -3.51003 0
M  V30 3180 N 313.357 1.07166 -1.15556 0
M  V30 3181 C 314.585 1.83514 -0.955519 0
M  V30 3182 C 315 1.82163 0.49621 0
M  V30 3183 O 314.357 1.23441 1.34419 0
M  V30 3184 C 314.408 3.30515 -1.46432 0
M  V30 3185 O 314.129 3.31937 -2.85918 0
M  V30 3186 C 315.63 4.23625 -1.30603 0
M  V30 3187 H 312.85 0.578926 -0.339244 0
M  V30 3188 H 315.394 1.35265 -1.53374 0
M  V30 3189 H 313.549 3.76106 -0.928584 0
M  V30 3190 H 313.963 4.23794 -3.09029 0
M  V30 3191 H 315.437 5.24831 -1.71047 0
M  V30 3192 H 315.914 4.38485 -0.250441 0
M  V30 3193 H 316.52 3.83871 -1.83094 0
M  V30 3194 N 314.835 0.952656 1.25548 0
M  V30 3195 C 316.246 0.647392 1.75116 0
M  V30 3196 C 316.597 -0.837274 1.77438 0
M  V30 3197 O 315.722 -1.65525 1.39393 0
M  V30 3198 C 316.317 1.16845 3.18014 0
M  V30 3199 C 314.876 0.913382 3.6515 0
M  V30 3200 C 314.023 1.31265 2.44264 0
M  V30 3201 H 316.974 1.12968 1.11462 0
M  V30 3202 H 316.995 0.527606 3.76824 0
M  V30 3203 H 316.507 2.24902 3.16292 0
M  V30 3204 H 314.608 -0.152316 3.72289 0
M  V30 3205 H 314.721 1.54845 4.53387 0
M  V30 3206 H 313.085 0.731028 2.43984 0
M  V30 3207 H 313.868 2.40239 2.45234 0
M  V30 3208 N 316.313 -1.40141 0.720998 0
M  V30 3209 C 317.538 -2.05618 0.271258 0
M  V30 3210 C 317.963 -1.53978 -1.08039 0
M  V30 3211 O 317.321 -0.677463 -1.68167 0
M  V30 3212 C 317.369 -3.59609 0.267197 0
M  V30 3213 O 316.473 -4.05526 -0.749814 0
M  V30 3214 H 315.814 -0.651904 0.126162 0
M  V30 3215 H 318.344 -1.79439 0.982997 0
M  V30 3216 H 318.354 -4.0786 0.106744 0
M  V30 3217 H 317.029 -3.96559 1.25354 0
M  V30 3218 H 315.606 -3.68722 -0.556644 0
M  V30 3219 N 317.792 -0.46758 -1.50504 0
M  V30 3220 C 319.069 0.15003 -1.95024 0
M  V30 3221 C 319.449 1.57304 -1.40779 0
M  V30 3222 O 318.797 2.20281 -0.607319 0
M  V30 3223 C 319.007 0.0969324 -3.48865 0
M  V30 3224 C 320.355 0.287565 -4.23625 0
M  V30 3225 O 321.379 0.173678 -3.55776 0
M  V30 3226 O 320.238 0.517186 -5.44047 0
M  V30 3227 H 317.332 0.113582 -0.819163 0
M  V30 3228 H 319.878 -0.52773 -1.61286 0
M  V30 3229 H 318.65 -0.896732 -3.80886 0
M  V30 3230 H 318.273 0.816303 -3.8913 0
M  V30 3231 N 319.27 1.56325 -0.20005 0
M  V30 3232 C 320.218 2.20666 0.735482 0
M  V30 3233 C 321.212 1.17934 1.21605 0
M  V30 3234 O 322.418 1.36068 1.17837 0
M  V30 3235 H 318.793 0.70725 0.255542 0
M  V30 3236 H 320.764 2.9792 0.169166 0
M  V30 3237 C 319.513 2.88391 1.94232 0
M  V30 3238 H 318.836 3.67185 1.58161 0
M  V30 3239 H 320.276 3.3684 2.57517 0
M  V30 3240 C 318.735 1.89692 2.78421 0
M  V30 3241 O 319.265 1.40032 3.76502 0
M  V30 3242 N 317.471 1.57813 2.44015 0
M  V30 3243 H 317.018 1.9839 1.64314 0
M  V30 3244 H 316.976 0.920325 3.00628 0
M  V30 3245 N 320.748 -0.0735177 1.57428 0
M  V30 3246 C 322.025 -0.805903 1.78226 0
M  V30 3247 C 322.405 -1.95874 0.787189 0
M  V30 3248 O 321.753 -2.2779 -0.180029 0
M  V30 3249 C 321.963 -1.28045 3.24662 0
M  V30 3250 C 323.311 -1.71453 3.88444 0
M  V30 3251 O 324.335 -1.37616 3.28543 0
M  V30 3252 O 323.194 -2.34093 4.93825 0
M  V30 3253 H 320.288 -0.386041 0.73137 0
M  V30 3254 H 322.834 -0.0537269 1.69615 0
M  V30 3255 H 321.606 -0.455476 3.8864 0
M  V30 3256 H 321.229 -2.094 3.37991 0
M  V30 3257 N 322.226 -1.5378 -0.344866 0
M  V30 3258 C 323.451 -1.75211 -1.10977 0
M  V30 3259 C 323.876 -0.48936 -1.81623 0
M  V30 3260 O 323.234 0.557925 -1.72502 0
M  V30 3261 C 323.282 -2.93147 -2.09993 0
M  V30 3262 O 322.386 -2.63203 -3.17487 0
M  V30 3263 H 321.727 -0.581241 -0.321021 0
M  V30 3264 H 324.257 -2.00738 -0.395661 0
M  V30 3265 H 324.267 -3.19898 -2.53237 0
M  V30 3266 H 322.942 -3.84731 -1.5797 0
M  V30 3267 H 321.519 -2.47336 -2.79069 0
M  V30 3268 N 323.704 0.605807 -1.45491 0
M  V30 3269 C 324.952 1.36207 -1.49305 0
M  V30 3270 C 325.273 1.94519 -0.136863 0
M  V30 3271 O 324.543 1.77261 0.833983 0
M  V30 3272 H 323.123 0.50565 -0.549843 0
M  V30 3273 H 325.785 0.711239 -1.81459 0
M  V30 3274 H 324.881 2.18058 -2.23287 0
M  V30 3275 N 325.182 1.32811 0.848464 0
M  V30 3276 C 326.431 1.23075 1.59798 0
M  V30 3277 C 326.744 -0.204419 1.94529 0
M  V30 3278 O 327.95 -0.423701 2.68173 0
M  V30 3279 C 326.406 2.15594 2.88179 0
M  V30 3280 C 326.014 3.64228 2.60849 0
M  V30 3281 C 327.758 2.14709 3.66197 0
M  V30 3282 C 325.665 4.48689 3.85269 0
M  V30 3283 H 324.595 0.457091 0.599653 0
M  V30 3284 H 327.246 1.57813 0.936342 0
M  V30 3285 H 325.628 1.73778 3.55833 0
M  V30 3286 H 326.802 4.14424 2.01467 0
M  V30 3287 H 325.117 3.67306 1.96151 0
M  V30 3288 H 327.714 2.75046 4.58534 0
M  V30 3289 H 328.057 1.13966 4.00397 0
M  V30 3290 H 328.59 2.54837 3.05455 0
M  V30 3291 H 325.329 5.5027 3.56207 0
M  V30 3292 H 324.849 4.03241 4.44024 0
M  V30 3293 H 326.528 4.62006 4.52946 0
M  V30 3294 N 326.66 -1.06551 1.16123 0
M  V30 3295 C 327.9 -1.80889 0.951766 0
M  V30 3296 C 328.264 -1.85062 -0.511465 0
M  V30 3297 O 329.465 -2.55353 -0.83954 0
M  V30 3298 C 327.736 -3.21609 1.55893 0
M  V30 3299 S 329.295 -4.12593 1.49373 0
M  V30 3300 H 326.113 -0.623156 0.342341 0
M  V30 3301 H 328.715 -1.27943 1.47821 0
M  V30 3302 H 327.419 -3.16165 2.61664 0
M  V30 3303 H 326.95 -3.79631 1.0317 0
M  V30 3304 H 328.965 -4.93753 0.492196 0
M  V30 3305 N 328.138 -0.959301 -1.25041 0
M  V30 3306 C 329.071 -0.427418 -2.24161 0
M  V30 3307 C 330.049 0.493837 -1.54919 0
M  V30 3308 O 331.233 0.427144 -1.83597 0
M  V30 3309 C 328.36 0.383893 -3.36517 0
M  V30 3310 C 327.406 -0.478431 -4.23808 0
M  V30 3311 S 328.239 -1.91353 -5.00144 0
M  V30 3312 C 329.395 -1.11077 -6.15965 0
M  V30 3313 H 329.628 -1.26743 -2.6893 0
M  V30 3314 H 327.161 -0.763714 -1.34189 0
M  V30 3315 H 329.119 0.846039 -4.01687 0
M  V30 3316 H 327.78 1.19878 -2.90324 0
M  V30 3317 H 326.973 0.14406 -5.03794 0
M  V30 3318 H 326.575 -0.87597 -3.63597 0
M  V30 3319 H 328.867 -0.361699 -6.76534 0
M  V30 3320 H 329.81 -1.88472 -6.82557 0
M  V30 3321 H 330.218 -0.638843 -5.60873 0
M  V30 3322 N 329.616 1.39756 -0.72842 0
M  V30 3323 C 330.841 2.05472 -0.282159 0
M  V30 3324 C 331.266 1.54549 1.07221 0
M  V30 3325 O 330.624 0.686372 1.67805 0
M  V30 3326 C 330.672 3.59462 -0.286264 0
M  V30 3327 O 329.776 4.05918 0.728298 0
M  V30 3328 H 329.117 0.651226 -0.129618 0
M  V30 3329 H 331.647 1.78915 -0.992499 0
M  V30 3330 H 331.657 4.07798 -0.128373 0
M  V30 3331 H 330.332 3.95889 -1.27456 0
M  V30 3332 H 328.909 3.69012 0.537081 0
M  V30 3333 N 331.094 0.475555 1.50254 0
M  V30 3334 C 332.505 0.0215174 1.86688 0
M  V30 3335 C 332.856 -1.38467 1.39001 0
M  V30 3336 O 331.981 -2.02732 0.756894 0
M  V30 3337 C 332.576 0.0322715 3.38785 0
M  V30 3338 C 331.135 -0.366314 3.74613 0
M  V30 3339 C 330.282 0.415832 2.74164 0
M  V30 3340 H 333.233 0.689612 1.42934 0
M  V30 3341 H 333.254 -0.76889 3.7265 0
M  V30 3342 H 332.766 1.05584 3.73462 0
M  V30 3343 H 330.867 -1.39406 3.45538 0
M  V30 3344 H 330.98 -0.064555 4.79057 0
M  V30 3345 H 329.344 -0.131048 2.54363 0
M  V30 3346 H 330.127 1.43899 3.11686 0
M  V30 3347 N 332.573 -1.56217 0.208337 0
M  V30 3348 C 333.483 -2.23316 -0.718836 0
M  V30 3349 C 334.499 -1.23648 -1.22422 0
M  V30 3350 O 335.675 -1.56423 -1.26861 0
M  V30 3351 C 332.74 -2.88968 -1.91568 0
M  V30 3352 C 331.801 -4.03943 -1.45357 0
M  V30 3353 C 331.034 -4.66455 -2.59337 0
M  V30 3354 O 331.257 -4.27919 -3.77149 0
M  V30 3355 O 330.191 -5.55686 -2.31293 0
M  V30 3356 H 334.017 -3.03182 -0.177315 0
M  V30 3357 H 331.602 -1.49384 -0.0215402 0
M  V30 3358 H 333.484 -3.30455 -2.61491 0
M  V30 3359 H 332.159 -2.12071 -2.44556 0
M  V30 3360 H 331.066 -3.67052 -0.722746 0
M  V30 3361 H 332.399 -4.82543 -0.970219 0
M  V30 3362 N 334.051 0.0651679 -1.57465 0
M  V30 3363 C 335.276 0.779605 -1.9219 0
M  V30 3364 C 335.701 1.69988 -0.805333 0
M  V30 3365 O 335.059 1.79685 0.241435 0
M  V30 3366 C 335.107 1.54364 -3.2589 0
M  V30 3367 O 334.211 2.65474 -3.1559 0
M  V30 3368 H 333.552 0.212249 -0.629163 0
M  V30 3369 H 336.082 0.0314294 -2.04576 0
M  V30 3370 H 336.092 1.92146 -3.59922 0
M  V30 3371 H 334.767 0.868457 -4.06732 0
M  V30 3372 H 333.344 2.30501 -2.93128 0
M  V30 3373 N 335.529 1.53961 0.336706 0
M  V30 3374 C 336.759 1.75229 1.09446 0
M  V30 3375 C 337.167 0.494602 1.82621 0
M  V30 3376 O 336.51 -0.543764 1.75468 0
M  V30 3377 C 336.572 2.88288 2.1478 0
M  V30 3378 C 336.236 4.27656 1.6112 0
M  V30 3379 C 337.233 5.08981 1.0599 0
M  V30 3380 C 334.918 4.74161 1.6576 0
M  V30 3381 C 336.912 6.34916 0.562129 0
M  V30 3382 C 334.599 6.00067 1.15595 0
M  V30 3383 C 335.597 6.80278 0.609147 0
M  V30 3384 O 335.285 8.03818 0.114999 0
M  V30 3385 H 335.017 0.588881 0.331956 0
M  V30 3386 H 337.571 2.01614 0.392566 0
M  V30 3387 H 335.801 2.57443 2.88548 0
M  V30 3388 H 337.49 2.97461 2.76174 0
M  V30 3389 H 338.256 4.74213 1.01722 0
M  V30 3390 H 334.135 4.11781 2.07261 0
M  V30 3391 H 337.679 6.9747 0.134668 0
M  V30 3392 H 333.576 6.3433 1.19566 0
M  V30 3393 H 334.344 8.18172 0.231651 0
M  V30 3394 N 337.007 -0.598083 1.45811 0
M  V30 3395 C 337.937 -1.71873 1.58057 0
M  V30 3396 C 338.918 -1.64533 0.431615 0
M  V30 3397 O 340.103 -1.82787 0.65595 0
M  V30 3398 C 337.233 -3.10495 1.55597 0
M  V30 3399 C 336.187 -3.32654 2.69305 0
M  V30 3400 C 335.513 -4.71646 2.51902 0
M  V30 3401 C 336.813 -3.21981 4.11248 0
M  V30 3402 H 338.507 -1.61881 2.51863 0
M  V30 3403 H 336.053 -0.777372 1.21214 0
M  V30 3404 H 338.006 -3.88699 1.6276 0
M  V30 3405 H 336.73 -3.2135 0.583255 0
M  V30 3406 H 335.389 -2.56843 2.61586 0
M  V30 3407 H 335.037 -4.79246 1.52748 0
M  V30 3408 H 334.737 -4.87426 3.2816 0
M  V30 3409 H 336.261 -5.52038 2.60933 0
M  V30 3410 H 337.675 -3.90049 4.20161 0
M  V30 3411 H 336.072 -3.49289 4.87972 0
M  V30 3412 H 337.142 -2.1928 4.32486 0
M  V30 3413 N 338.485 -1.33259 -0.841409 0
M  V30 3414 C 339.733 -1.24326 -1.59334 0
M  V30 3415 C 340.054 0.191564 -1.94057 0
M  V30 3416 O 339.324 1.11967 -1.60749 0
M  V30 3417 H 337.904 -0.457174 -0.590763 0
M  V30 3418 H 340.566 -1.66947 -1.00571 0
M  V30 3419 H 339.662 -1.8352 -2.52442 0
M  V30 3420 N 339.963 1.05934 -1.16686 0
M  V30 3421 C 341.188 1.83029 -0.975455 0
M  V30 3422 C 341.613 1.82096 0.471452 0
M  V30 3423 O 340.971 1.22443 1.33706 0
M  V30 3424 C 341.019 3.27372 -1.51195 0
M  V30 3425 O 340.123 4.06054 -0.720701 0
M  V30 3426 H 339.464 0.566194 -0.346872 0
M  V30 3427 H 341.994 1.33541 -1.55009 0
M  V30 3428 H 342.004 3.78186 -1.53099 0
M  V30 3429 H 340.679 3.27366 -2.56523 0
M  V30 3430 H 339.256 3.64812 -0.772458 0
M  V30 3431 N 341.441 0.965919 1.2453 0
M  V30 3432 C 342.852 0.665929 1.7442 0
M  V30 3433 C 343.203 -0.818407 1.78316 0
M  V30 3434 O 342.328 -1.64037 1.41141 0
M  V30 3435 C 342.923 1.20211 3.16757 0
M  V30 3436 C 341.482 0.952059 3.6416 0
M  V30 3437 C 340.629 1.33848 2.42858 0
M  V30 3438 H 343.58 1.14144 1.10258 0
M  V30 3439 H 343.601 0.567544 3.76244 0
M  V30 3440 H 343.113 2.28244 3.13889 0
M  V30 3441 H 341.214 -0.112821 3.72429 0
M  V30 3442 H 341.327 1.59645 4.51719 0
M  V30 3443 H 339.691 0.756864 2.43195 0
M  V30 3444 H 340.474 2.42827 2.42673 0
M  V30 3445 N 342.919 -1.39368 0.735821 0
M  V30 3446 C 343.851 -2.2913 0.0567723 0
M  V30 3447 C 344.864 -1.46859 -0.702589 0
M  V30 3448 O 346.053 -1.69925 -0.546616 0
M  V30 3449 C 343.153 -3.25492 -0.943823 0
M  V30 3450 C 342.326 -4.36709 -0.24581 0
M  V30 3451 C 341.385 -5.13376 -1.15463 0
M  V30 3452 O 340.411 -5.65683 -0.631803 0
M  V30 3453 N 341.613 -5.24656 -2.48427 0
M  V30 3454 H 344.378 -2.88047 0.827582 0
M  V30 3455 H 341.939 -1.50957 0.585112 0
M  V30 3456 H 343.931 -3.73657 -1.55443 0
M  V30 3457 H 342.501 -2.676 -1.61583 0
M  V30 3458 H 341.721 -3.9041 0.545286 0
M  V30 3459 H 343.009 -5.08244 0.237891 0
M  V30 3460 H 342.407 -4.83679 -2.93379 0
M  V30 3461 H 340.964 -5.76258 -3.04582 0
M  V30 3462 N 344.397 -0.483516 -1.5 0
M  V30 3463 C 345.347 0.32306 -2.257 0
M  V30 3464 C 346.331 0.950755 -1.29805 0
M  V30 3465 O 347.523 0.861247 -1.54634 0
M  V30 3466 C 344.652 1.39724 -3.13579 0
M  V30 3467 C 343.738 0.776663 -4.16928 0
M  V30 3468 N 344.129 -0.1104 -5.0568 0
M  V30 3469 C 342.427 1.03922 -4.33724 0
M  V30 3470 C 343.128 -0.46387 -5.79848 0
M  V30 3471 N 342.104 0.163987 -5.43353 0
M  V30 3472 H 345.906 -0.360086 -2.91686 0
M  V30 3473 H 343.42 -0.298456 -1.59634 0
M  V30 3474 H 345.417 1.98837 -3.66428 0
M  V30 3475 H 344.077 2.08225 -2.49143 0
M  V30 3476 H 345.088 -0.480069 -5.1567 0
M  V30 3477 H 341.765 1.71829 -3.80501 0
M  V30 3478 H 343.155 -1.18854 -6.61304 0
M  V30 3479 N 345.875 1.56104 -0.216619 0
M  V30 3480 C 347.1 2.0301 0.424462 0
M  V30 3481 C 347.525 1.0955 1.52907 0
M  V30 3482 O 346.883 0.0827914 1.81111 0
M  V30 3483 C 346.931 3.4819 0.937883 0
M  V30 3484 O 346.035 3.57865 2.04955 0
M  V30 3485 H 345.376 0.656925 0.0966755 0
M  V30 3486 H 347.906 2.01859 -0.33381 0
M  V30 3487 H 347.916 3.88413 1.24897 0
M  V30 3488 H 346.591 4.15699 0.129387 0
M  V30 3489 H 345.168 3.29527 1.74546 0
M  V30 3490 N 347.353 -0.0568162 1.57498 0
M  V30 3491 C 348.764 -0.606858 1.76562 0
M  V30 3492 C 349.115 -1.77114 0.844094 0
M  V30 3493 O 348.24 -2.16376 0.0318911 0
M  V30 3494 C 348.835 -1.10766 3.20182 0
M  V30 3495 C 347.394 -1.60344 3.40539 0
M  V30 3496 C 346.541 -0.529311 2.72201 0
M  V30 3497 H 349.492 0.169393 1.57793 0
M  V30 3498 H 349.513 -1.97602 3.25167 0
M  V30 3499 H 349.025 -0.26006 3.87228 0
M  V30 3500 H 347.126 -2.47379 2.78629 0
M  V30 3501 H 347.239 -1.67006 4.4905 0
M  V30 3502 H 345.603 -0.977893 2.35179 0
M  V30 3503 H 346.386 0.308352 3.41912 0
M  V30 3504 N 348.832 -1.54138 -0.328536 0
M  V30 3505 C 350.057 -1.76378 -1.09112 0
M  V30 3506 C 350.482 -0.508596 -1.81094 0
M  V30 3507 O 349.84 0.539598 -1.73084 0
M  V30 3508 C 349.888 -2.95358 -2.06872 0
M  V30 3509 O 348.992 -2.66556 -3.14677 0
M  V30 3510 H 348.333 -0.584614 -0.314838 0
M  V30 3511 H 350.863 -2.01146 -0.374348 0
M  V30 3512 H 350.873 -3.22566 -2.4983 0
M  V30 3513 H 349.548 -3.86385 -1.5388 0
M  V30 3514 H 348.125 -2.50282 -2.7643 0
M  V30 3515 N 350.31 0.590341 -1.46126 0
M  V30 3516 C 351.538 1.37504 -1.54597 0
M  V30 3517 C 351.953 1.87897 -0.184447 0
M  V30 3518 O 351.31 1.63192 0.816984 0
M  V30 3519 C 351.361 2.56779 -2.54454 0
M  V30 3520 O 351.082 2.08476 -3.85317 0
M  V30 3521 C 352.583 3.49427 -2.72792 0
M  V30 3522 H 349.803 0.420325 -0.523037 0
M  V30 3523 H 352.347 0.718383 -1.91467 0
M  V30 3524 H 350.502 3.1845 -2.20609 0
M  V30 3525 H 350.916 2.86097 -4.396 0
M  V30 3526 H 352.39 4.29619 -3.466 0
M  V30 3527 H 352.867 4.00876 -1.79429 0
M  V30 3528 H 353.473 2.93598 -3.07702 0
M  V30 3529 N 351.788 1.33704 0.83433 0
M  V30 3530 C 353.204 1.13137 1.12571 0
M  V30 3531 C 353.404 -0.0747261 2.01361 0
M  V30 3532 O 352.46 -0.753647 2.4099 0
M  V30 3533 C 353.773 2.42105 1.78342 0
M  V30 3534 C 355.321 2.48054 1.90888 0
M  V30 3535 C 355.796 3.76995 2.60075 0
M  V30 3536 N 357.287 3.78092 2.67584 0
M  V30 3537 C 358.022 4.74574 3.21818 0
M  V30 3538 N 357.518 5.81434 3.76705 0
M  V30 3539 N 359.311 4.62044 3.20112 0
M  V30 3540 H 351.462 2.11 0.243489 0
M  V30 3541 H 353.725 0.932532 0.17055 0
M  V30 3542 H 353.431 3.30391 1.20561 0
M  V30 3543 H 353.305 2.54594 2.7832 0
M  V30 3544 H 355.692 1.60215 2.47821 0
M  V30 3545 H 355.773 2.39502 0.898459 0
M  V30 3546 H 355.417 4.65219 2.03799 0
M  V30 3547 H 355.347 3.82825 3.61597 0
M  V30 3548 H 357.838 3.00865 2.28667 0
M  V30 3549 H 358.151 6.51084 4.16305 0
M  V30 3550 H 356.496 5.85163 3.7498 0
M  V30 3551 H 359.687 3.77716 2.76493 0
M  V30 3552 H 359.86 5.37406 3.62076 0
M  V30 3553 N 353.266 -1.05314 1.17247 0
M  V30 3554 C 354.514 -1.77941 0.958194 0
M  V30 3555 C 354.835 -1.88089 -0.514556 0
M  V30 3556 O 354.105 -1.39676 -1.37359 0
M  V30 3557 H 352.685 -0.659116 0.351533 0
M  V30 3558 H 355.347 -1.27166 1.47699 0
M  V30 3559 H 354.443 -2.79663 1.38546 0
M  V30 3560 N 354.744 -0.972509 -1.24016 0
M  V30 3561 C 355.969 -0.654417 -1.96805 0
M  V30 3562 C 356.394 0.770398 -1.716 0
M  V30 3563 O 355.752 1.52361 -0.982647 0
M  V30 3564 C 355.8 -0.941031 -3.48105 0
M  V30 3565 O 354.904 -0.0289472 -4.1239 0
M  V30 3566 H 354.245 -0.24692 -0.616382 0
M  V30 3567 H 356.775 -1.30396 -1.57664 0
M  V30 3568 H 356.785 -0.87452 -3.98517 0
M  V30 3569 H 355.46 -1.97939 -3.65777 0
M  V30 3570 H 354.037 -0.149192 -3.72601 0
M  V30 3571 N 356.222 1.38976 -0.743202 0
M  V30 3572 C 357.633 1.83123 -0.363732 0
M  V30 3573 C 357.984 1.6205 1.10609 0
M  V30 3574 O 357.109 1.11606 1.854 0
M  V30 3575 C 357.704 3.32439 -0.653408 0
M  V30 3576 C 356.263 3.74974 -0.327338 0
M  V30 3577 C 355.41 2.61878 -0.911875 0
M  V30 3578 H 358.361 1.27852 -0.940191 0
M  V30 3579 H 358.382 3.80432 0.0720031 0
M  V30 3580 H 357.894 3.47745 -1.72323 0
M  V30 3581 H 355.995 3.65252 0.736314 0
M  V30 3582 H 356.108 4.72106 -0.815631 0
M  V30 3583 H 354.472 2.52448 -0.337944 0
M  V30 3584 H 355.255 2.79987 -1.98651 0
M  V30 3585 N 357.7 0.491464 1.49741 0
M  V30 3586 C 358.648 -0.305837 2.30581 0
M  V30 3587 C 359.642 -0.971642 1.38764 0
M  V30 3588 O 360.848 -0.90042 1.5586 0
M  V30 3589 H 357.223 -0.117482 0.742767 0
M  V30 3590 H 359.194 0.396093 2.95759 0
M  V30 3591 C 357.943 -1.36319 3.19863 0
M  V30 3592 H 357.266 -0.860258 3.90435 0
M  V30 3593 H 358.706 -1.89323 3.79385 0
M  V30 3594 C 357.165 -2.37621 2.38826 0
M  V30 3595 O 357.695 -3.43311 2.08567 0
M  V30 3596 N 355.901 -2.09849 2.01026 0
M  V30 3597 H 355.448 -1.23922 2.25834 0
M  V30 3598 H 355.406 -2.77859 1.47112 0
M  V30 3599 N 359.178 -1.55987 0.224894 0
M  V30 3600 C 360.594 -1.59066 -0.130426 0
M  V30 3601 C 360.794 -1.24176 -1.5869 0
M  V30 3602 O 359.85 -0.978592 -2.32766 0
M  V30 3603 C 361.163 -3.00042 0.198883 0
M  V30 3604 C 362.711 -3.1268 0.141391 0
M  V30 3605 C 363.186 -4.55839 0.444422 0
M  V30 3606 N 364.677 -4.6152 0.394115 0
M  V30 3607 C 365.412 -5.70231 0.602038 0
M  V30 3608 N 364.908 -6.87291 0.871914 0
M  V30 3609 N 366.701 -5.59555 0.534245 0
M  V30 3610 H 358.852 -1.76941 1.17497 0
M  V30 3611 H 361.115 -0.822604 0.471197 0
M  V30 3612 H 360.821 -3.30234 1.2099 0
M  V30 3613 H 360.695 -3.74075 -0.484535 0
M  V30 3614 H 363.082 -2.82283 -0.860265 0
M  V30 3615 H 363.163 -2.40969 0.858335 0
M  V30 3616 H 362.807 -4.86954 1.44353 0
M  V30 3617 H 362.737 -5.2578 -0.293752 0
M  V30 3618 H 365.228 -3.77405 0.193356 0
M  V30 3619 H 365.541 -7.66058 1.01858 0
M  V30 3620 H 363.886 -6.89028 0.909145 0
M  V30 3621 H 367.077 -4.6698 0.323612 0
M  V30 3622 H 367.25 -6.44211 0.699693 0
M  V30 3623 N 360.656 0.0484629 -1.57525 0
M  V30 3624 C 361.881 0.759177 -1.93006 0
M  V30 3625 C 362.306 1.69125 -0.823317 0
M  V30 3626 O 361.664 1.79931 0.222364 0
M  V30 3627 C 361.712 1.50899 -3.27509 0
M  V30 3628 O 360.816 2.62112 -3.18388 0
M  V30 3629 H 360.157 0.205564 -0.631379 0
M  V30 3630 H 362.687 0.00972959 -2.04598 0
M  V30 3631 H 362.697 1.88317 -3.6194 0
M  V30 3632 H 361.372 0.825269 -4.0763 0
M  V30 3633 H 359.949 2.27379 -2.95556 0
M  V30 3634 N 362.134 1.5431 0.320358 0
M  V30 3635 C 363.064 1.86912 1.3995 0
M  V30 3636 C 364.045 0.726211 1.53819 0
M  V30 3637 O 365.23 0.980233 1.67646 0
M  V30 3638 C 362.36 2.09932 2.7667 0
M  V30 3639 C 361.314 3.25776 2.77586 0
M  V30 3640 C 360.64 3.34173 4.17412 0
M  V30 3641 C 361.94 4.6335 2.41048 0
M  V30 3642 H 363.634 2.77292 1.12914 0
M  V30 3643 H 361.18 1.33421 0.541738 0
M  V30 3644 H 363.133 2.31324 3.52232 0
M  V30 3645 H 361.857 1.16304 3.0519 0
M  V30 3646 H 360.516 3.04276 2.04479 0
M  V30 3647 H 360.164 2.38098 4.43078 0
M  V30 3648 H 359.864 4.12033 4.18931 0
M  V30 3649 H 361.388 3.57803 4.94782 0
M  V30 3650 H 362.802 4.84602 3.06324 0
M  V30 3651 H 361.199 5.43782 2.53813 0
M  V30 3652 H 362.269 4.65381 1.36193 0
M  V30 3653 N 363.613 -0.582584 1.46437 0
M  V30 3654 C 365.024 -1.1647 1.45916 0
M  V30 3655 C 365.375 -1.95177 0.200077 0
M  V30 3656 O 364.5 -2.04874 -0.696819 0
M  V30 3657 C 365.095 -2.11885 2.64367 0
M  V30 3658 C 363.654 -2.65421 2.66887 0
M  V30 3659 C 362.801 -1.41294 2.38603 0
M  V30 3660 H 365.752 -0.370514 1.54314 0
M  V30 3661 H 365.773 -2.9535 2.39892 0
M  V30 3662 H 365.285 -1.54573 3.5599 0
M  V30 3663 H 363.386 -3.26602 1.79338 0
M  V30 3664 H 363.499 -3.08147 3.66854 0
M  V30 3665 H 361.863 -1.71109 1.88663 0
M  V30 3666 H 362.646 -0.858125 3.32402 0
M  V30 3667 N 365.091 -1.34144 -0.827227 0
M  V30 3668 C 366.316 -1.29476 -1.62021 0
M  V30 3669 C 366.741 0.129292 -1.87655 0
M  V30 3670 O 366.099 1.08967 -1.449 0
M  V30 3671 C 366.147 -2.08702 -2.94068 0
M  V30 3672 O 365.251 -1.45359 -3.85933 0
M  V30 3673 H 364.592 -0.444881 -0.492927 0
M  V30 3674 H 367.122 -1.76882 -1.02829 0
M  V30 3675 H 367.132 -2.19898 -3.43669 0
M  V30 3676 H 365.807 -3.12241 -2.74734 0
M  V30 3677 H 364.384 -1.42879 -3.44442 0
M  V30 3678 N 366.569 1.04691 -1.17803 0
M  V30 3679 C 367.98 1.59238 -0.974689 0
M  V30 3680 C 368.331 1.90306 0.477292 0
M  V30 3681 O 367.456 1.68846 1.35352 0
M  V30 3682 C 368.051 2.89318 -1.76296 0
M  V30 3683 C 366.61 3.40506 -1.60414 0
M  V30 3684 C 365.757 2.14172 -1.76141 0
M  V30 3685 H 368.708 0.874395 -1.32439 0
M  V30 3686 H 368.729 3.5944 -1.24833 0
M  V30 3687 H 368.241 2.66675 -2.81968 0
M  V30 3688 H 366.342 3.68175 -0.572519 0
M  V30 3689 H 366.455 4.14753 -2.39827 0
M  V30 3690 H 364.819 2.25176 -1.19028 0
M  V30 3691 H 365.602 1.93992 -2.83235 0
M  V30 3692 N 368.047 0.979072 1.23499 0
M  V30 3693 C 369.295 0.645941 1.91499 0
M  V30 3694 C 369.616 -0.822948 1.76784 0
M  V30 3695 O 368.886 -1.58854 1.14639 0
M  V30 3696 H 367.466 0.235919 0.708767 0
M  V30 3697 H 370.128 1.2426 1.50152 0
M  V30 3698 H 369.224 0.896411 2.9895 0
M  V30 3699 N 369.525 -1.3858 0.750561 0
M  V30 3700 C 370.771 -2.00481 0.305825 0
M  V30 3701 C 371.104 -1.5944 -1.10872 0
M  V30 3702 O 370.379 -0.83052 -1.75877 0
M  V30 3703 C 370.662 -3.5758 0.425287 0
M  V30 3704 C 370.515 -4.08594 1.88072 0
M  V30 3705 C 371.834 -4.39719 -0.183122 0
M  V30 3706 H 368.953 -0.728348 0.112598 0
M  V30 3707 H 371.595 -1.64566 0.949638 0
M  V30 3708 H 369.745 -3.88306 -0.122828 0
M  V30 3709 H 371.417 -3.88523 2.48691 0
M  V30 3710 H 369.66 -3.61574 2.39681 0
M  V30 3711 H 370.331 -5.177 1.91548 0
M  V30 3712 H 372.807 -4.15128 0.284303 0
M  V30 3713 H 371.683 -5.48856 -0.0692757 0
M  V30 3714 H 371.944 -4.23434 -1.27106 0
M  V30 3715 N 371.003 -0.499398 -1.49478 0
M  V30 3716 C 371.933 0.269244 -2.31943 0
M  V30 3717 C 372.914 0.964054 -1.40143 0
M  V30 3718 O 374.099 0.955767 -1.69052 0
M  V30 3719 C 371.229 1.33504 -3.20615 0
M  V30 3720 C 370.183 0.760202 -4.21195 0
M  V30 3721 C 369.509 1.9264 -4.98792 0
M  V30 3722 C 370.809 -0.247661 -5.21712 0
M  V30 3723 H 372.503 -0.419082 -2.96452 0
M  V30 3724 H 370.049 -0.202988 -1.42562 0
M  V30 3725 H 372.002 1.88048 -3.77115 0
M  V30 3726 H 370.726 2.05253 -2.54045 0
M  V30 3727 H 369.385 0.23653 -3.65836 0
M  V30 3728 H 369.033 2.63154 -4.28671 0
M  V30 3729 H 368.733 1.54785 -5.66847 0
M  V30 3730 H 370.257 2.4762 -5.58137 0
M  V30 3731 H 371.671 0.209579 -5.72917 0
M  V30 3732 H 370.068 -0.541962 -5.97648 0
M  V30 3733 H 371.138 -1.16409 -4.7072 0
M  V30 3734 N 372.481 1.55866 -0.233164 0
M  V30 3735 C 373.721 2.00506 0.397078 0
M  V30 3736 C 374.085 1.1176 1.56121 0
M  V30 3737 O 375.286 1.45796 2.25825 0
M  V30 3738 C 373.557 3.4811 0.809601 0
M  V30 3739 S 375.116 4.14765 1.43231 0
M  V30 3740 H 371.934 0.699828 0.125547 0
M  V30 3741 H 374.536 1.92429 -0.345177 0
M  V30 3742 H 373.24 4.10373 -0.0471601 0
M  V30 3743 H 372.771 3.60085 1.58438 0
M  V30 3744 H 374.786 4.14914 2.7214 0
M  V30 3745 N 373.959 -0.0401083 1.57549 0
M  V30 3746 C 375.207 -0.731677 1.8839 0
M  V30 3747 C 375.528 -1.76481 0.829425 0
M  V30 3748 O 374.798 -1.95411 -0.1383 0
M  V30 3749 H 373.378 -0.273225 0.695239 0
M  V30 3750 H 376.04 -0.00867725 1.94898 0
M  V30 3751 H 375.136 -1.22816 2.86919 0
M  V30 3752 N 375.437 -1.54477 -0.31217 0
M  V30 3753 C 376.662 -1.77526 -1.07235 0
M  V30 3754 C 377.087 -0.527775 -1.80544 0
M  V30 3755 O 376.445 0.52121 -1.73646 0
M  V30 3756 C 376.493 -2.97535 -2.03728 0
M  V30 3757 O 375.597 -2.69878 -3.11833 0
M  V30 3758 H 374.938 -0.58792 -0.30862 0
M  V30 3759 H 377.468 -2.01532 -0.352993 0
M  V30 3760 H 377.478 -3.25198 -2.46395 0
M  V30 3761 H 376.153 -3.87996 -1.49774 0
M  V30 3762 H 374.73 -2.53199 -2.7376 0
M  V30 3763 N 376.915 0.57481 -1.46744 0
M  V30 3764 C 377.878 1.66533 -1.57478 0
M  V30 3765 C 378.878 1.54338 -0.451263 0
M  V30 3766 O 380.068 1.58814 -0.715813 0
M  V30 3767 C 377.2 3.05999 -1.50259 0
M  V30 3768 H 378.393 1.58372 -2.54673 0
M  V30 3769 H 375.946 0.793301 -1.34672 0
M  V30 3770 H 376.681 3.19709 -0.543725 0
M  V30 3771 H 376.466 3.16259 -2.31781 0
M  V30 3772 H 377.956 3.8537 -1.60872 0
M  V30 3773 N 378.394 1.34581 0.820102 0
M  V30 3774 C 379.81 1.14325 1.11364 0
M  V30 3775 C 380.01 -0.0533648 2.01429 0
M  V30 3776 O 379.066 -0.728044 2.41776 0
M  V30 3777 C 380.379 2.43983 1.75764 0
M  V30 3778 C 381.927 2.50065 1.88246 0
M  V30 3779 C 382.402 3.79732 2.56061 0
M  V30 3780 N 383.893 3.80908 2.63558 0
M  V30 3781 C 384.628 4.77961 3.16766 0
M  V30 3782 N 384.124 5.85397 3.70517 0
M  V30 3783 N 385.917 4.65413 3.15194 0
M  V30 3784 H 378.068 2.11246 0.221096 0
M  V30 3785 H 380.331 0.934289 0.160649 0
M  V30 3786 H 380.037 3.31651 1.1705 0
M  V30 3787 H 379.911 2.57531 2.75604 0
M  V30 3788 H 382.298 1.62834 2.46108 0
M  V30 3789 H 382.379 2.40442 0.873006 0
M  V30 3790 H 382.023 4.67354 1.98853 0
M  V30 3791 H 381.953 3.86639 3.57516 0
M  V30 3792 H 384.444 3.03274 2.25463 0
M  V30 3793 H 384.757 6.55463 4.09376 0
M  V30 3794 H 383.102 5.89107 3.68752 0
M  V30 3795 H 386.293 3.80627 2.72471 0
M  V30 3796 H 386.466 5.41216 3.56356 0
M  V30 3797 N 379.872 -1.04064 1.18357 0
M  V30 3798 C 381.283 -1.58719 0.98312 0
M  V30 3799 C 381.634 -1.90556 -0.467193 0
M  V30 3800 O 380.759 -1.69561 -1.34454 0
M  V30 3801 C 381.354 -2.88379 1.77828 0
M  V30 3802 C 379.913 -3.3965 1.62218 0
M  V30 3803 C 379.06 -2.13235 1.77274 0
M  V30 3804 H 382.011 -0.867359 1.32901 0
M  V30 3805 H 382.032 -3.58773 1.26737 0
M  V30 3806 H 381.544 -2.65176 2.83379 0
M  V30 3807 H 379.645 -3.67866 0.592036 0
M  V30 3808 H 379.758 -4.13475 2.42023 0
M  V30 3809 H 378.122 -2.24542 1.20221 0
M  V30 3810 H 378.905 -1.92487 2.8426 0
M  V30 3811 N 381.35 -0.985608 -1.22978 0
M  V30 3812 C 382.297 -0.529825 -2.24636 0
M  V30 3813 C 383.267 0.434028 -1.60329 0
M  V30 3814 O 384.452 0.340414 -1.87739 0
M  V30 3815 C 381.592 0.156533 -3.44745 0
M  V30 3816 C 380.705 -0.848197 -4.23591 0
M  V30 3817 C 379.84 -0.136109 -5.31026 0
M  V30 3818 C 378.879 -1.1297 -6.01585 0
M  V30 3819 N 378.016 -0.446415 -7.00679 0
M  V30 3820 H 382.856 -1.40148 -2.62988 0
M  V30 3821 H 380.393 -0.702168 -1.29259 0
M  V30 3822 H 382.351 0.571324 -4.1327 0
M  V30 3823 H 380.981 0.992025 -3.07179 0
M  V30 3824 H 380.033 -1.38135 -3.54433 0
M  V30 3825 H 381.345 -1.60512 -4.72268 0
M  V30 3826 H 380.499 0.335784 -6.0577 0
M  V30 3827 H 379.238 0.653373 -4.83304 0
M  V30 3828 H 378.243 -1.6123 -5.25628 0
M  V30 3829 H 379.468 -1.91993 -6.51395 0
M  V30 3830 H 377.414 0.323763 -6.55201 0
M  V30 3831 H 377.331 -1.1419 -7.47326 0
M  V30 3832 H 378.599 0.00291697 -7.795 0
M  V30 3833 N 382.828 1.3818 -0.7579 0
M  V30 3834 C 384.239 1.82726 -0.383134 0
M  V30 3835 C 384.59 1.63214 1.08884 0
M  V30 3836 O 383.715 1.13566 1.84205 0
M  V30 3837 C 384.31 3.31728 -0.688631 0
M  V30 3838 C 382.869 3.74606 -0.367091 0
M  V30 3839 C 382.016 2.60896 -0.939599 0
M  V30 3840 H 384.967 1.26847 -0.953699 0
M  V30 3841 H 384.988 3.80487 0.0316492 0
M  V30 3842 H 384.5 3.45898 -1.76001 0
M  V30 3843 H 382.601 3.66013 0.697532 0
M  V30 3844 H 382.714 4.71215 -0.865658 0
M  V30 3845 H 381.078 2.52075 -0.3647 0
M  V30 3846 H 381.861 2.77864 -2.0161 0
M  V30 3847 N 384.306 0.507319 1.49211 0
M  V30 3848 C 385.536 -0.0315292 2.06576 0
M  V30 3849 C 385.944 -1.30791 1.36713 0
M  V30 3850 O 385.287 -1.78324 0.441181 0
M  V30 3851 C 385.349 -0.349104 3.57801 0
M  V30 3852 C 385.013 0.830475 4.49391 0
M  V30 3853 C 386.01 1.72271 4.90529 0
M  V30 3854 C 383.695 1.03107 4.91604 0
M  V30 3855 C 385.689 2.79964 5.72625 0
M  V30 3856 C 383.376 2.11116 5.73475 0
M  V30 3857 C 384.374 2.99379 6.1389 0
M  V30 3858 O 384.062 4.05523 6.94123 0
M  V30 3859 H 383.794 0.0201002 0.675701 0
M  V30 3860 H 386.348 0.705737 1.92895 0
M  V30 3861 H 384.578 -1.14005 3.69513 0
M  V30 3862 H 386.267 -0.827319 3.97379 0
M  V30 3863 H 387.033 1.57958 4.58557 0
M  V30 3864 H 382.912 0.353417 4.59643 0
M  V30 3865 H 386.456 3.48884 6.04091 0
M  V30 3866 H 382.353 2.25421 6.0486 0
M  V30 3867 H 383.121 4.02953 7.1244 0
M  V30 3868 N 385.784 -1.5574 0.241426 0
M  V30 3869 C 387.061 -1.90704 -0.434881 0
M  V30 3870 C 387.441 -1.16145 -1.76277 0
M  V30 3871 O 386.789 -0.277152 -2.26813 0
M  V30 3872 C 386.999 -3.43657 -0.608343 0
M  V30 3873 C 388.347 -4.14806 -0.906725 0
M  V30 3874 O 389.371 -3.49366 -0.694408 0
M  V30 3875 O 388.23 -5.30548 -1.31075 0
M  V30 3876 H 385.324 -0.793592 -0.23268 0
M  V30 3877 H 387.87 -1.67288 0.285086 0
M  V30 3878 H 386.642 -3.89927 0.327505 0
M  V30 3879 H 386.265 -3.72918 -1.37906 0
M  V30 3880 N 387.262 0.0317525 -1.57568 0
M  V30 3881 C 388.673 0.578692 -1.77505 0
M  V30 3882 C 389.024 1.75749 -0.872164 0
M  V30 3883 O 388.149 2.16298 -0.0663106 0
M  V30 3884 C 388.744 1.05658 -3.21904 0
M  V30 3885 C 387.303 1.54906 -3.43047 0
M  V30 3886 C 386.45 0.485939 -2.73009 0
M  V30 3887 H 389.401 -0.194475 -1.57504 0
M  V30 3888 H 389.422 1.92404 -3.28269 0
M  V30 3889 H 388.934 0.198422 -3.87592 0
M  V30 3890 H 387.035 2.42915 -2.82529 0
M  V30 3891 H 387.148 1.59841 -4.5165 0
M  V30 3892 H 385.512 0.940354 -2.36705 0
M  V30 3893 H 386.295 -0.362709 -3.41379 0
M  V30 3894 N 388.74 1.54641 0.303973 0
M  V30 3895 C 390.151 1.64811 0.877163 0
M  V30 3896 C 390.502 0.554838 1.88191 0
M  V30 3897 O 389.627 -0.309033 2.14182 0
M  V30 3898 C 390.222 2.9876 1.59775 0
M  V30 3899 C 388.781 3.11061 2.11938 0
M  V30 3900 C 387.928 2.60479 0.951097 0
M  V30 3901 H 390.879 1.58493 0.0810486 0
M  V30 3902 H 390.9 2.90017 2.46314 0
M  V30 3903 H 390.412 3.7831 0.866226 0
M  V30 3904 H 388.513 2.36225 2.88146 0
M  V30 3905 H 388.626 4.17171 2.35595 0
M  V30 3906 H 386.99 2.16859 1.33583 0
M  V30 3907 H 387.773 3.42504 0.233581 0
M  V30 3908 N 390.218 -0.567019 1.47046 0
M  V30 3909 C 391.466 -1.322 1.52864 0
M  V30 3910 C 391.787 -1.94088 0.188388 0
M  V30 3911 O 391.057 -1.7941 -0.786693 0
M  V30 3912 H 389.637 -0.490894 0.563056 0
M  V30 3913 H 392.299 -0.662879 1.83281 0
M  V30 3914 H 391.395 -2.12062 2.2899 0
M  V30 3915 N 391.696 -1.35014 -0.812953 0
M  V30 3916 C 392.606 -1.2951 -1.95613 0
M  V30 3917 C 393.622 -0.20107 -1.72834 0
M  V30 3918 O 394.798 -0.42932 -1.96771 0
M  V30 3919 C 391.863 -1.06033 -3.30088 0
M  V30 3920 C 390.924 -2.24688 -3.65805 0
M  V30 3921 C 390.157 -2.02322 -4.93864 0
M  V30 3922 O 390.38 -0.986464 -5.61805 0
M  V30 3923 O 389.314 -2.89525 -5.27692 0
M  V30 3924 H 393.14 -2.25705 -2.03202 0
M  V30 3925 H 390.725 -1.15321 -0.949811 0
M  V30 3926 H 392.607 -0.94763 -4.10607 0
M  V30 3927 H 391.282 -0.128852 -3.23443 0
M  V30 3928 H 390.189 -2.41521 -2.85689 0
M  V30 3929 H 391.522 -3.16261 -3.77147 0
M  V30 3930 N 393.175 1.03435 -1.18907 0
M  V30 3931 C 394.122 2.11591 -0.921837 0
M  V30 3932 C 395.092 1.65499 0.141226 0
M  V30 3933 O 396.277 1.908 0.000242829 0
M  V30 3934 C 393.417 3.42012 -0.460616 0
M  V30 3935 C 392.53 4.01682 -1.58982 0
M  V30 3936 C 391.665 5.20091 -1.08069 0
M  V30 3937 C 390.704 5.71805 -2.18416 0
M  V30 3938 N 389.841 6.81494 -1.68849 0
M  V30 3939 H 394.681 2.33787 -1.8479 0
M  V30 3940 H 392.218 1.1467 -0.921373 0
M  V30 3941 H 394.176 4.16834 -0.174642 0
M  V30 3942 H 392.806 3.19944 0.428467 0
M  V30 3943 H 391.858 3.24127 -1.99113 0
M  V30 3944 H 393.17 4.36084 -2.4214 0
M  V30 3945 H 392.324 6.02051 -0.749615 0
M  V30 3946 H 391.063 4.87209 -0.218771 0
M  V30 3947 H 390.068 4.88461 -2.5236 0
M  V30 3948 H 391.293 6.06728 -3.05054 0
M  V30 3949 H 389.239 6.50475 -0.849572 0
M  V30 3950 H 389.156 7.14994 -2.45601 0
M  V30 3951 H 390.424 7.67063 -1.38689 0
M  V30 3952 N 394.653 0.992116 1.22453 0
M  V30 3953 C 395.586 0.486701 2.22949 0
M  V30 3954 C 396.564 -0.45259 1.56174 0
M  V30 3955 O 397.748 -0.378317 1.84665 0
M  V30 3956 C 394.875 -0.294537 3.37417 0
M  V30 3957 C 393.921 0.590628 4.22391 0
M  V30 3958 S 394.754 2.04546 4.94895 0
M  V30 3959 C 395.91 1.27369 6.12803 0
M  V30 3960 H 396.143 1.33828 2.65475 0
M  V30 3961 H 393.676 0.799023 1.32117 0
M  V30 3962 H 395.634 -0.739241 4.03789 0
M  V30 3963 H 394.295 -1.12139 2.934 0
M  V30 3964 H 393.488 -0.0104375 5.03999 0
M  V30 3965 H 393.09 0.972064 3.61147 0
M  V30 3966 H 395.382 0.540943 6.75337 0
M  V30 3967 H 396.325 2.06502 6.7732 0
M  V30 3968 H 396.733 0.787324 5.58983 0
M  V30 3969 N 396.131 -1.37776 0.765217 0
M  V30 3970 C 397.377 -2.00145 0.327072 0
M  V30 3971 C 397.71 -1.60607 -1.09175 0
M  V30 3972 O 396.985 -0.849127 -1.74986 0
M  V30 3973 C 397.268 -3.57109 0.46319 0
M  V30 3974 C 397.121 -4.06576 1.92395 0
M  V30 3975 C 398.44 -4.39888 -0.136473 0
M  V30 3976 H 395.559 -0.727113 0.120316 0
M  V30 3977 H 398.201 -1.63549 0.967039 0
M  V30 3978 H 396.351 -3.88414 -0.0816358 0
M  V30 3979 H 398.023 -3.85864 2.52798 0
M  V30 3980 H 396.266 -3.59011 2.43503 0
M  V30 3981 H 396.937 -5.15639 1.97028 0
M  V30 3982 H 399.413 -4.14803 0.328317 0
M  V30 3983 H 398.289 -5.48899 -0.0110582 0
M  V30 3984 H 398.55 -4.24758 -1.22608 0
M  V30 3985 N 397.609 -0.515225 -1.4894 0
M  V30 3986 C 398.572 0.244681 -2.2789 0
M  V30 3987 C 399.572 0.881166 -1.34507 0
M  V30 3988 O 400.762 0.743497 -1.57537 0
M  V30 3989 C 397.894 1.35247 -3.12923 0
M  V30 3990 H 399.087 -0.448289 -2.96531 0
M  V30 3991 H 396.64 -0.270656 -1.53939 0
M  V30 3992 H 397.375 2.07916 -2.48881 0
M  V30 3993 H 397.16 0.901374 -3.81599 0
M  V30 3994 H 398.65 1.88737 -3.72516 0
M  V30 3995 N 399.087 1.5561 -0.249682 0
M  V30 3996 C 400.05 2.20217 0.635394 0
M  V30 3997 C 401.05 1.17227 1.10066 0
M  V30 3998 O 402.24 1.42292 1.00492 0
M  V30 3999 C 399.372 2.84794 1.87363 0
M  V30 4000 H 400.565 2.99814 0.0716752 0
M  V30 4001 H 398.118 1.563 -0.000153234 0
M  V30 4002 H 398.853 2.09142 2.47851 0
M  V30 4003 H 398.638 3.60241 1.5482 0
M  V30 4004 H 400.128 3.3423 2.5036 0
M  V30 4005 N 400.565 -0.0233959 1.57583 0
M  V30 4006 C 401.512 -1.02224 2.06927 0
M  V30 4007 C 402.482 -1.35575 0.959617 0
M  V30 4008 O 403.667 -1.45815 1.23055 0
M  V30 4009 C 400.807 -2.31636 2.5581 0
M  V30 4010 C 399.92 -2.04394 3.80588 0
M  V30 4011 C 399.055 -3.27717 4.18061 0
M  V30 4012 C 398.094 -2.96056 5.3574 0
M  V30 4013 N 397.231 -4.11847 5.68618 0
M  V30 4014 H 402.071 -0.594504 2.9201 0
M  V30 4015 H 399.608 -0.281921 1.44373 0
M  V30 4016 H 401.566 -3.07258 2.82221 0
M  V30 4017 H 400.196 -2.72122 1.73636 0
M  V30 4018 H 399.248 -1.19244 3.61227 0
M  V30 4019 H 400.56 -1.77042 4.66323 0
M  V30 4020 H 399.714 -4.11702 4.4563 0
M  V30 4021 H 398.453 -3.58188 3.30988 0
M  V30 4022 H 397.458 -2.10474 5.07918 0
M  V30 4023 H 398.683 -2.66857 6.24471 0
M  V30 4024 H 396.629 -4.42258 4.84504 0
M  V30 4025 H 396.546 -3.87938 6.48876 0
M  V30 4026 H 397.814 -4.96689 6.00766 0
M  V30 4027 N 402.043 -1.548 -0.295768 0
M  V30 4028 C 403.289 -1.74588 -1.03184 0
M  V30 4029 C 403.622 -0.532962 -1.86744 0
M  V30 4030 O 402.897 0.469872 -1.88739 0
M  V30 4031 C 403.18 -3.03791 -1.93347 0
M  V30 4032 C 403.033 -4.35392 -1.12933 0
M  V30 4033 C 404.352 -3.28892 -2.92435 0
M  V30 4034 H 401.471 -0.635221 -0.373715 0
M  V30 4035 H 404.113 -1.87519 -0.30606 0
M  V30 4036 H 402.263 -2.92898 -2.55232 0
M  V30 4037 H 403.935 -4.58211 -0.532943 0
M  V30 4038 H 402.178 -4.31642 -0.432168 0
M  V30 4039 H 402.849 -5.22074 -1.79284 0
M  V30 4040 H 405.325 -3.39429 -2.4068 0
M  V30 4041 H 404.201 -4.20603 -3.52682 0
M  V30 4042 H 404.462 -2.47437 -3.6637 0
M  V30 4043 N 403.521 0.559213 -1.47345 0
M  V30 4044 C 404.468 1.66645 -1.59682 0
M  V30 4045 C 405.438 1.60168 -0.43994 0
M  V30 4046 O 406.623 1.79031 -0.659736 0
M  V30 4047 C 403.763 3.04969 -1.61518 0
M  V30 4048 C 402.876 3.21897 -2.88108 0
M  V30 4049 C 402.011 4.50608 -2.81294 0
M  V30 4050 C 401.05 4.60961 -4.02717 0
M  V30 4051 N 400.187 5.81024 -3.94151 0
M  V30 4052 H 405.027 1.55439 -2.54249 0
M  V30 4053 H 402.564 0.757219 -1.26113 0
M  V30 4054 H 404.522 3.85064 -1.60566 0
M  V30 4055 H 403.152 3.15015 -0.704645 0
M  V30 4056 H 402.204 2.35248 -2.98936 0
M  V30 4057 H 403.516 3.25412 -3.78032 0
M  V30 4058 H 402.67 5.3896 -2.7858 0
M  V30 4059 H 401.409 4.49568 -1.89049 0
M  V30 4060 H 400.414 3.71021 -4.05738 0
M  V30 4061 H 401.639 4.63761 -4.96087 0
M  V30 4062 H 399.585 5.80938 -3.04708 0
M  V30 4063 H 399.502 5.85909 -4.77752 0
M  V30 4064 H 400.77 6.71744 -3.9545 0
M  V30 4065 N 404.999 1.35443 0.805782 0
M  V30 4066 C 406.247 1.28507 1.55982 0
M  V30 4067 C 406.568 -0.140046 1.94496 0
M  V30 4068 O 405.838 -1.07666 1.63661 0
M  V30 4069 H 404.418 0.472676 0.578434 0
M  V30 4070 H 407.08 1.69555 0.961098 0
M  V30 4071 H 406.176 1.90148 2.47488 0
M  V30 4072 N 406.477 -1.02803 1.19454 0
M  V30 4073 C 407.387 -2.14575 0.948408 0
M  V30 4074 C 408.403 -1.73757 -0.091871 0
M  V30 4075 O 409.579 -2.01185 0.0929654 0
M  V30 4076 C 406.644 -3.43202 0.491265 0
M  V30 4077 C 405.705 -3.98328 1.60103 0
M  V30 4078 C 404.938 -5.20816 1.16561 0
M  V30 4079 O 405.161 -5.70392 0.0295238 0
M  V30 4080 O 404.095 -5.68801 1.96849 0
M  V30 4081 H 407.921 -2.38202 1.88397 0
M  V30 4082 H 405.506 -1.12989 0.977433 0
M  V30 4083 H 407.388 -4.20687 0.245015 0
M  V30 4084 H 406.063 -3.21018 -0.415851 0
M  V30 4085 H 404.97 -3.22174 1.90144 0
M  V30 4086 H 406.303 -4.24879 2.48473 0
M  V30 4087 N 407.956 -0.998596 -1.21925 0
M  V30 4088 C 408.903 -0.553621 -2.24062 0
M  V30 4089 C 409.873 0.416999 -1.6078 0
M  V30 4090 O 411.058 0.320482 -1.88089 0
M  V30 4091 C 408.198 0.119959 -3.44891 0
M  V30 4092 C 407.311 -0.893077 -4.22668 0
M  V30 4093 C 406.446 -0.192424 -5.30851 0
M  V30 4094 C 405.485 -1.19344 -6.00353 0
M  V30 4095 N 404.622 -0.520707 -7.00166 0
M  V30 4096 H 409.462 -1.4293 -2.61486 0
M  V30 4097 H 406.999 -0.715838 -1.28507 0
M  V30 4098 H 408.957 0.527459 -4.13852 0
M  V30 4099 H 407.587 0.959389 -3.08214 0
M  V30 4100 H 406.639 -1.41886 -3.52948 0
M  V30 4101 H 407.951 -1.65512 -4.70539 0
M  V30 4102 H 407.105 0.271515 -6.06092 0
M  V30 4103 H 405.844 0.602075 -4.83969 0
M  V30 4104 H 404.849 -1.66795 -5.23889 0
M  V30 4105 H 406.074 -1.98891 -6.49322 0
M  V30 4106 H 404.02 0.254252 -6.55507 0
M  V30 4107 H 403.937 -1.2211 -7.46073 0
M  V30 4108 H 405.205 -0.0797596 -7.79459 0
M  V30 4109 N 409.434 1.37368 -0.772513 0
M  V30 4110 C 410.364 2.32856 -0.173304 0
M  V30 4111 C 411.345 1.55818 0.682262 0
M  V30 4112 O 412.53 1.84052 0.619566 0
M  V30 4113 C 409.66 3.40048 0.706007 0
M  V30 4114 C 408.614 4.27973 -0.0483144 0
M  V30 4115 C 407.94 5.26184 0.950491 0
M  V30 4116 C 409.24 5.07665 -1.22776 0
M  V30 4117 H 410.934 2.83217 -0.971002 0
M  V30 4118 H 408.48 1.3617 -0.468377 0
M  V30 4119 H 410.433 4.05827 1.13501 0
M  V30 4120 H 409.157 2.88214 1.53623 0
M  V30 4121 H 407.816 3.63726 -0.458107 0
M  V30 4122 H 407.464 4.7063 1.77529 0
M  V30 4123 H 407.164 5.85872 0.450314 0
M  V30 4124 H 408.688 5.94838 1.37842 0
M  V30 4125 H 410.102 5.66578 -0.875366 0
M  V30 4126 H 408.499 5.76681 -1.66007 0
M  V30 4127 H 409.569 4.40294 -2.03149 0
M  V30 4128 N 410.912 0.523116 1.48665 0
M  V30 4129 C 412.189 -0.0775449 1.95446 0
M  V30 4130 C 412.569 -1.5197 1.4652 0
M  V30 4131 O 411.917 -2.17876 0.688657 0
M  V30 4132 C 412.127 0.0326135 3.48985 0
M  V30 4133 C 413.475 -0.130141 4.24401 0
M  V30 4134 O 414.499 -0.0415142 3.56176 0
M  V30 4135 O 413.358 -0.31491 5.45592 0
M  V30 4136 H 410.452 -0.0831012 0.822814 0
M  V30 4137 H 412.998 0.587227 1.59216 0
M  V30 4138 H 411.77 1.03748 3.77296 0
M  V30 4139 H 411.393 -0.671317 3.91892 0
M  V30 4140 N 412.39 -1.55475 0.257931 0
M  V30 4141 C 413.337 -2.21837 -0.636939 0
M  V30 4142 C 414.307 -1.18596 -1.16294 0
M  V30 4143 O 415.492 -1.47081 -1.21539 0
M  V30 4144 C 412.632 -2.9301 -1.82317 0
M  V30 4145 C 411.745 -4.10931 -1.33265 0
M  V30 4146 C 410.88 -4.69791 -2.47931 0
M  V30 4147 C 409.919 -5.7994 -1.95796 0
M  V30 4148 N 409.056 -6.32935 -3.0387 0
M  V30 4149 H 413.896 -2.9793 -0.0643591 0
M  V30 4150 H 411.433 -1.47086 -0.0200031 0
M  V30 4151 H 413.391 -3.3248 -2.52018 0
M  V30 4152 H 412.021 -2.1937 -2.36805 0
M  V30 4153 H 411.073 -3.76699 -0.52931 0
M  V30 4154 H 412.385 -4.90417 -0.910654 0
M  V30 4155 H 411.539 -5.11892 -3.25656 0
M  V30 4156 H 410.278 -3.89545 -2.93438 0
M  V30 4157 H 409.283 -5.37305 -1.16546 0
M  V30 4158 H 410.508 -6.62043 -1.51246 0
M  V30 4159 H 408.454 -5.55591 -3.48791 0
M  V30 4160 H 408.371 -7.07645 -2.66035 0
M  V30 4161 H 409.639 -6.79695 -3.81621 0
M  V30 4162 N 413.868 0.0150385 -1.57593 0
M  V30 4163 C 414.815 1.01126 -2.07466 0
M  V30 4164 C 415.785 1.35064 -0.966794 0
M  V30 4165 O 416.97 1.4516 -1.23827 0
M  V30 4166 C 414.11 2.30276 -2.57035 0
M  V30 4167 C 413.223 2.02373 -3.81666 0
M  V30 4168 C 412.358 3.25496 -4.19793 0
M  V30 4169 C 411.397 2.93211 -5.37303 0
M  V30 4170 N 410.534 4.08826 -5.70794 0
M  V30 4171 H 415.374 0.57901 -2.92321 0
M  V30 4172 H 412.911 0.27426 -1.44521 0
M  V30 4173 H 414.869 3.05757 -2.83846 0
M  V30 4174 H 413.499 2.71197 -1.75077 0
M  V30 4175 H 412.551 1.17327 -3.61854 0
M  V30 4176 H 413.863 1.74567 -4.67256 0
M  V30 4177 H 413.017 4.09333 -4.47807 0
M  V30 4178 H 411.756 3.56428 -3.32882 0
M  V30 4179 H 410.761 2.07777 -5.09027 0
M  V30 4180 H 411.986 2.63542 -6.25877 0
M  V30 4181 H 409.932 4.39682 -4.86842 0
M  V30 4182 H 409.849 3.84491 -6.50924 0
M  V30 4183 H 411.117 4.93496 -6.03392 0
M  V30 4184 N 415.346 1.54954 0.287554 0
M  V30 4185 C 416.276 1.89839 1.35954 0
M  V30 4186 C 417.257 0.758675 1.52244 0
M  V30 4187 O 418.442 1.01557 1.65529 0
M  V30 4188 C 415.572 2.15753 2.72154 0
M  V30 4189 C 414.526 3.3159 2.70614 0
M  V30 4190 C 413.852 3.42952 4.10229 0
M  V30 4191 C 415.152 4.68359 2.31165 0
M  V30 4192 H 416.846 2.79625 1.07007 0
M  V30 4193 H 414.392 1.3454 0.513316 0
M  V30 4194 H 416.345 2.38743 3.47246 0
M  V30 4195 H 415.069 1.22752 3.02654 0
M  V30 4196 H 413.728 3.08545 1.97979 0
M  V30 4197 H 413.376 2.47443 4.37928 0
M  V30 4198 H 413.076 4.20826 4.10097 0
M  V30 4199 H 414.6 3.68218 4.87081 0
M  V30 4200 H 416.014 4.9099 2.95976 0
M  V30 4201 H 414.411 5.49044 2.42221 0
M  V30 4202 H 415.481 4.68165 1.26291 0
M  V30 4203 N 416.824 -0.551391 1.4764 0
M  V30 4204 C 417.771 -1.65796 1.60563 0
M  V30 4205 C 418.741 -1.59932 0.448428 0
M  V30 4206 O 419.926 -1.78679 0.669222 0
M  V30 4207 C 417.066 -3.04108 1.63133 0
M  V30 4208 C 416.179 -3.20365 2.89811 0
M  V30 4209 C 415.314 -4.49109 2.8368 0
M  V30 4210 C 414.353 -4.58819 4.05156 0
M  V30 4211 N 413.49 -5.78926 3.97227 0
M  V30 4212 H 418.33 -1.54088 2.5507 0
M  V30 4213 H 415.867 -0.75052 1.26513 0
M  V30 4214 H 417.825 -3.84207 1.62606 0
M  V30 4215 H 416.455 -3.14637 0.721341 0
M  V30 4216 H 415.507 -2.33659 3.00179 0
M  V30 4217 H 416.819 -3.23402 3.79753 0
M  V30 4218 H 415.973 -5.37475 2.81434 0
M  V30 4219 H 414.712 -4.4856 1.91431 0
M  V30 4220 H 413.717 -3.68864 4.077 0
M  V30 4221 H 414.942 -4.61124 4.98539 0
M  V30 4222 H 412.888 -5.79314 3.07785 0
M  V30 4223 H 412.805 -5.83367 4.80853 0
M  V30 4224 H 414.073 -6.69637 3.99007 0
M  V30 4225 N 418.302 -1.35869 -0.798587 0
M  V30 4226 C 419.249 -1.29446 -1.91082 0
M  V30 4227 C 420.219 -0.16487 -1.6528 0
M  V30 4228 O 421.404 -0.349888 -1.87564 0
M  V30 4229 C 418.544 -1.0804 -3.27752 0
M  V30 4230 C 417.657 -2.29993 -3.65687 0
M  V30 4231 C 416.792 -2.01673 -4.91428 0
M  V30 4232 C 415.831 -3.19636 -5.22015 0
M  V30 4233 N 414.968 -2.91039 -6.38937 0
M  V30 4234 H 419.808 -2.24553 -1.95907 0
M  V30 4235 H 417.345 -1.11615 -0.958148 0
M  V30 4236 H 419.303 -0.936586 -4.06551 0
M  V30 4237 H 417.933 -0.16592 -3.22373 0
M  V30 4238 H 416.985 -2.55211 -2.82085 0
M  V30 4239 H 418.297 -3.18052 -3.84245 0
M  V30 4240 H 417.451 -1.84168 -5.78072 0
M  V30 4241 H 416.19 -1.10911 -4.74921 0
M  V30 4242 H 415.195 -3.37709 -4.33858 0
M  V30 4243 H 416.42 -4.11211 -5.40447 0
M  V30 4244 H 414.366 -2.0288 -6.2384 0
M  V30 4245 H 414.283 -3.72635 -6.57784 0
M  V30 4246 H 415.551 -2.77093 -7.28587 0
M  V30 4247 N 419.78 1.02168 -1.19998 0
M  V30 4248 C 420.713 2.10232 -0.887558 0
M  V30 4249 C 421.691 1.61827 0.158317 0
M  V30 4250 O 422.875 1.88471 0.0330249 0
M  V30 4251 C 420.002 3.37092 -0.32964 0
M  V30 4252 C 419.048 4.0438 -1.3557 0
M  V30 4253 S 419.881 4.48956 -2.91888 0
M  V30 4254 C 421.037 5.79024 -2.37658 0
M  V30 4255 H 421.27 2.36409 -1.80272 0
M  V30 4256 H 418.803 1.15211 -1.0279 0
M  V30 4257 H 420.761 4.10498 -0.0142824 0
M  V30 4258 H 419.422 3.08996 0.563941 0
M  V30 4259 H 418.615 4.95632 -0.9146 0
M  V30 4260 H 418.217 3.37176 -1.61828 0
M  V30 4261 H 420.509 6.53942 -1.77103 0
M  V30 4262 H 421.452 6.27924 -3.27287 0
M  V30 4263 H 421.86 5.35043 -1.79971 0
M  V30 4264 N 421.258 1.00505 1.21394 0
M  V30 4265 C 422.168 0.574806 2.27449 0
M  V30 4266 C 423.184 -0.382206 1.6975 0
M  V30 4267 O 424.36 -0.246027 1.99892 0
M  V30 4268 C 421.425 -0.0917414 3.46579 0
M  V30 4269 C 420.486 0.909758 4.1955 0
M  V30 4270 C 419.719 0.274924 5.32991 0
M  V30 4271 O 419.942 -0.928254 5.62796 0
M  V30 4272 O 418.876 0.985877 5.93771 0
M  V30 4273 H 422.702 1.45744 2.66444 0
M  V30 4274 H 420.287 0.773923 1.27792 0
M  V30 4275 H 422.169 -0.464551 4.18832 0
M  V30 4276 H 420.844 -0.948755 3.09484 0
M  V30 4277 H 419.751 1.33372 3.49518 0
M  V30 4278 H 421.084 1.73636 4.60555 0
M  V30 4279 N 422.737 -1.36956 0.779787 0
M  V30 4280 C 423.669 -2.28833 0.129639 0
M  V30 4281 C 424.682 -1.4902 -0.655511 0
M  V30 4282 O 425.871 -1.71578 -0.492279 0
M  V30 4283 C 422.971 -3.2833 -0.839792 0
M  V30 4284 C 422.144 -4.3727 -0.10675 0
M  V30 4285 C 421.203 -5.16789 -0.990717 0
M  V30 4286 O 420.229 -5.67406 -0.451516 0
M  V30 4287 N 421.431 -5.32294 -2.3161 0
M  V30 4288 H 424.196 -2.85268 0.918803 0
M  V30 4289 H 421.757 -1.49019 0.632841 0
M  V30 4290 H 423.749 -3.78413 -1.43477 0
M  V30 4291 H 422.319 -2.72605 -1.52988 0
M  V30 4292 H 421.539 -3.88478 0.669216 0
M  V30 4293 H 422.827 -5.07229 0.399464 0
M  V30 4294 H 422.225 -4.92768 -2.77843 0
M  V30 4295 H 420.782 -5.85656 -2.86095 0
M  V30 4296 N 424.215 -0.530993 -1.48385 0
M  V30 4297 C 425.163 0.244595 -2.3131 0
M  V30 4298 C 426.157 0.93451 -1.41291 0
M  V30 4299 O 427.363 0.85878 -1.58193 0
M  V30 4300 H 423.738 0.0977472 -0.74562 0
M  V30 4301 H 425.709 -0.474369 -2.94605 0
M  V30 4302 C 424.458 1.2779 -3.23365 0
M  V30 4303 H 423.781 0.756439 -3.92579 0
M  V30 4304 H 425.221 1.79198 -3.84271 0
M  V30 4305 C 423.68 2.31205 -2.45042 0
M  V30 4306 O 424.21 3.37661 -2.17596 0
M  V30 4307 N 422.416 2.04446 -2.0652 0
M  V30 4308 H 421.963 1.17891 -2.2904 0
M  V30 4309 H 421.921 2.73861 -1.54427 0
M  V30 4310 N 425.693 1.55336 -0.266172 0
M  V30 4311 C 426.64 2.22172 0.625165 0
M  V30 4312 C 427.61 1.19211 1.15663 0
M  V30 4313 O 428.795 1.47723 1.20758 0
M  V30 4314 C 425.935 2.93972 1.8076 0
M  V30 4315 C 425.048 4.11632 1.31084 0
M  V30 4316 C 424.183 4.71099 2.45436 0
M  V30 4317 C 423.222 5.8097 1.92718 0
M  V30 4318 N 422.359 6.34538 3.00509 0
M  V30 4319 H 427.199 2.9796 0.0485582 0
M  V30 4320 H 424.736 1.47095 0.0122024 0
M  V30 4321 H 426.694 3.33811 2.50251 0
M  V30 4322 H 425.324 2.20623 2.35638 0
M  V30 4323 H 424.376 3.76975 0.509326 0
M  V30 4324 H 425.688 4.90893 0.884633 0
M  V30 4325 H 424.842 5.13612 3.22936 0
M  V30 4326 H 423.581 3.91096 2.91368 0
M  V30 4327 H 422.586 5.37916 1.13695 0
M  V30 4328 H 423.811 6.62836 1.47733 0
M  V30 4329 H 421.757 5.57433 3.45839 0
M  V30 4330 H 421.674 7.09046 2.62279 0
M  V30 4331 H 422.942 6.81709 3.78011 0
M  V30 4332 N 427.171 -0.0066808 1.57599 0
M  V30 4333 C 428.399 -0.704087 1.94551 0
M  V30 4334 C 428.814 -1.67677 0.867746 0
M  V30 4335 O 428.171 -1.8185 -0.153925 0
M  V30 4336 C 428.222 -1.44177 3.31505 0
M  V30 4337 O 427.943 -0.508097 4.35144 0
M  V30 4338 C 429.444 -2.23429 3.82876 0
M  V30 4339 H 426.664 -0.196523 0.641576 0
M  V30 4340 H 429.208 0.042453 2.04456 0
M  V30 4341 H 427.363 -2.13999 3.22929 0
M  V30 4342 H 427.777 -1.02782 5.14331 0
M  V30 4343 H 429.251 -2.70552 4.8115 0
M  V30 4344 H 429.728 -3.05818 3.15233 0
M  V30 4345 H 430.334 -1.58636 3.94607 0
M  V30 4346 N 428.649 -1.55105 -0.279332 0
M  V30 4347 C 429.612 -1.86783 -1.32834 0
M  V30 4348 C 430.612 -0.74199 -1.42657 0
M  V30 4349 O 431.802 -1.0102 -1.41918 0
M  V30 4350 C 428.934 -2.06746 -2.71052 0
M  V30 4351 H 430.127 -2.8055 -1.05979 0
M  V30 4352 H 427.68 -1.47499 -0.517087 0
M  V30 4353 H 428.415 -1.15339 -3.03097 0
M  V30 4354 H 428.2 -2.88711 -2.65309 0
M  V30 4355 H 429.69 -2.32549 -3.46858 0
M  V30 4356 N 430.127 0.543554 -1.4793 0
M  V30 4357 C 431.09 1.63156 -1.60975 0
M  V30 4358 C 432.09 1.53346 -0.483899 0
M  V30 4359 O 433.28 1.5726 -0.749339 0
M  V30 4360 C 430.412 3.02743 -1.56716 0
M  V30 4361 H 431.605 1.52934 -2.57975 0
M  V30 4362 H 429.158 0.764557 -1.36324 0
M  V30 4363 H 429.893 3.18484 -0.611418 0
M  V30 4364 H 429.678 3.11272 -2.38438 0
M  V30 4365 H 431.168 3.81871 -1.6901 0
M  V30 4366 N 431.605 1.3629 0.791371 0
M  V30 4367 C 432.833 1.33562 1.58016 0
M  V30 4368 C 433.248 -0.0835616 1.88615 0
M  V30 4369 O 432.605 -1.0399 1.49974 0
M  V30 4370 C 432.656 2.15517 2.90232 0
M  V30 4371 O 432.377 3.51902 2.60953 0
M  V30 4372 C 433.878 2.20546 3.84544 0
M  V30 4373 H 431.098 0.458226 0.490173 0
M  V30 4374 H 433.642 1.79361 0.982345 0
M  V30 4375 H 431.797 1.73278 3.46487 0
M  V30 4376 H 432.211 3.94644 3.4548 0
M  V30 4377 H 433.685 2.82252 4.74382 0
M  V30 4378 H 434.162 1.20838 4.2225 0
M  V30 4379 H 434.768 2.63013 3.34222 0
M  V30 4380 N 433.083 -1.0153 1.20538 0
M  V30 4381 C 434.499 -1.27461 0.96051 0
M  V30 4382 C 434.699 -1.98273 -0.359193 0
M  V30 4383 O 433.755 -2.27886 -1.0874 0
M  V30 4384 C 435.068 -2.10837 2.14402 0
M  V30 4385 C 436.616 -2.24099 2.18515 0
M  V30 4386 C 437.091 -3.10852 3.36355 0
M  V30 4387 N 438.582 -3.18441 3.36377 0
M  V30 4388 C 439.317 -3.85795 4.24205 0
M  V30 4389 N 438.813 -4.55264 5.22213 0
M  V30 4390 N 440.606 -3.82331 4.12043 0
M  V30 4391 H 432.757 -0.539907 2.05423 0
M  V30 4392 H 435.02 -0.30092 0.898972 0
M  V30 4393 H 434.726 -1.66144 3.09983 0
M  V30 4394 H 434.6 -3.11576 2.12604 0
M  V30 4395 H 436.987 -2.68016 1.23497 0
M  V30 4396 H 437.068 -1.22865 2.24361 0
M  V30 4397 H 436.712 -2.6764 4.31661 0
M  V30 4398 H 436.642 -4.12177 3.27746 0
M  V30 4399 H 439.133 -2.68978 2.65442 0
M  V30 4400 H 439.446 -5.04331 5.85551 0
M  V30 4401 H 437.791 -4.54085 5.26148 0
M  V30 4402 H 440.982 -3.27207 3.34743 0
M  V30 4403 H 441.155 -4.34547 4.807 0
M  V30 4404 N 434.561 -1.01147 -1.20859 0
M  V30 4405 C 435.791 -0.715872 -1.93801 0
M  V30 4406 C 436.199 0.726592 -1.74692 0
M  V30 4407 O 435.542 1.50397 -1.05482 0
M  V30 4408 C 435.604 -0.965269 -3.46299 0
M  V30 4409 C 435.268 -2.39584 -3.89164 0
M  V30 4410 C 436.265 -3.3764 -3.95342 0
M  V30 4411 C 433.95 -2.73522 -4.21297 0
M  V30 4412 C 435.944 -4.67698 -4.33056 0
M  V30 4413 C 433.631 -4.03794 -4.58687 0
M  V30 4414 C 434.629 -5.00693 -4.64538 0
M  V30 4415 O 434.317 -6.28635 -5.01072 0
M  V30 4416 H 434.049 -0.262524 -0.622942 0
M  V30 4417 H 436.603 -1.35413 -1.54443 0
M  V30 4418 H 434.833 -0.269847 -3.85757 0
M  V30 4419 H 436.522 -0.662051 -4.00464 0
M  V30 4420 H 437.288 -3.12757 -3.70686 0
M  V30 4421 H 433.167 -1.9879 -4.15937 0
M  V30 4422 H 436.711 -5.4333 -4.37537 0
M  V30 4423 H 432.608 -4.28459 -4.82797 0
M  V30 4424 H 433.376 -6.32847 -5.19083 0
M  V30 4425 N 436.039 1.36541 -0.78704 0
M  V30 4426 C 437.455 1.52571 -0.46844 0
M  V30 4427 C 437.655 1.7415 1.01361 0
M  V30 4428 O 436.711 1.77163 1.79915 0
M  V30 4429 C 438.024 2.71299 -1.29682 0
M  V30 4430 C 439.572 2.85169 -1.29027 0
M  V30 4431 C 440.047 4.06898 -2.10233 0
M  V30 4432 N 441.538 4.1404 -2.07666 0
M  V30 4433 C 442.273 5.07301 -2.67271 0
M  V30 4434 N 441.769 6.06021 -3.35724 0
M  V30 4435 N 443.562 4.99898 -2.57018 0
M  V30 4436 H 435.713 1.20788 -1.74711 0
M  V30 4437 H 437.976 0.589364 -0.742532 0
M  V30 4438 H 437.682 2.61868 -2.34773 0
M  V30 4439 H 437.556 3.6539 -0.936479 0
M  V30 4440 H 439.943 2.94062 -0.247284 0
M  V30 4441 H 440.024 1.91992 -1.69035 0
M  V30 4442 H 439.668 3.98766 -3.1456 0
M  V30 4443 H 439.598 4.99218 -1.67597 0
M  V30 4444 H 442.089 3.43357 -1.57843 0
M  V30 4445 H 442.402 6.73741 -3.78541 0
M  V30 4446 H 440.747 6.06253 -3.39826 0
M  V30 4447 H 443.938 4.21724 -2.03142 0
M  V30 4448 H 444.111 5.72392 -3.03761 0
M  V30 4449 N 437.518 0.538854 1.48102 0
M  V30 4450 C 438.45 -0.256278 2.27763 0
M  V30 4451 C 439.463 -0.89633 1.35904 0
M  V30 4452 O 440.652 -0.773275 1.60881 0
M  V30 4453 C 437.752 -1.37896 3.09577 0
M  V30 4454 C 436.925 -0.839159 4.29275 0
M  V30 4455 C 435.984 -1.84405 4.9283 0
M  V30 4456 O 435.01 -1.39746 5.51779 0
M  V30 4457 N 436.212 -3.17666 4.85869 0
M  V30 4458 H 438.977 0.426968 2.96643 0
M  V30 4459 H 436.538 0.373747 1.57527 0
M  V30 4460 H 438.53 -2.04955 3.48963 0
M  V30 4461 H 437.1 -1.96572 2.4306 0
M  V30 4462 H 436.32 0.00769287 3.94199 0
M  V30 4463 H 437.608 -0.457548 5.06739 0
M  V30 4464 H 437.006 -3.56609 4.39143 0
M  V30 4465 H 435.563 -3.80334 5.29329 0
M  V30 4466 N 438.996 -1.55193 0.274407 0
M  V30 4467 C 439.943 -2.225 -0.613374 0
M  V30 4468 C 440.913 -1.19823 -1.15029 0
M  V30 4469 O 442.098 -1.48362 -1.19973 0
M  V30 4470 C 439.238 -2.94927 -1.79199 0
M  V30 4471 C 438.351 -4.12322 -1.28899 0
M  V30 4472 C 437.486 -4.72394 -2.42934 0
M  V30 4473 C 436.525 -5.81984 -1.89634 0
M  V30 4474 N 435.662 -6.36123 -2.9714 0
M  V30 4475 H 440.502 -2.97982 -0.032756 0
M  V30 4476 H 438.039 -1.47099 -0.00440146 0
M  V30 4477 H 439.997 -3.35134 -2.48478 0
M  V30 4478 H 438.627 -2.2187 -2.34465 0
M  V30 4479 H 437.679 -3.7724 -0.489327 0
M  V30 4480 H 438.991 -4.91355 -0.858587 0
M  V30 4481 H 438.145 -5.15317 -3.20208 0
M  V30 4482 H 436.884 -3.92636 -2.8929 0
M  V30 4483 H 435.889 -5.38511 -1.1084 0
M  V30 4484 H 437.114 -6.6361 -1.44215 0
M  V30 4485 H 435.06 -5.59259 -3.42878 0
M  V30 4486 H 434.977 -7.10427 -2.58515 0
M  V30 4487 H 436.245 -6.83704 -3.74391 0
M  V30 4488 N 440.474 -0.00167713 -1.576 0
M  V30 4489 C 441.421 0.989195 -2.08527 0
M  V30 4490 C 442.391 1.34031 -0.981065 0
M  V30 4491 O 443.576 1.43839 -1.2536 0
M  V30 4492 C 440.716 2.27537 -2.59463 0
M  V30 4493 C 439.829 1.98314 -3.83791 0
M  V30 4494 C 438.964 3.21025 -4.23222 0
M  V30 4495 C 438.003 2.87495 -5.40382 0
M  V30 4496 N 437.14 4.02749 -5.75098 0
M  V30 4497 H 441.98 0.547973 -2.92919 0
M  V30 4498 H 439.517 0.258917 -1.44803 0
M  V30 4499 H 441.475 3.02729 -2.87073 0
M  V30 4500 H 440.105 2.69325 -1.77943 0
M  V30 4501 H 439.157 1.13482 -3.63078 0
M  V30 4502 H 440.469 1.69601 -4.69081 0
M  V30 4503 H 439.623 4.04561 -4.52123 0
M  V30 4504 H 438.362 3.52877 -3.36644 0
M  V30 4505 H 437.367 2.02367 -5.11202 0
M  V30 4506 H 438.592 2.56889 -6.28637 0
M  V30 4507 H 436.538 4.34494 -4.91478 0
M  V30 4508 H 436.455 3.77566 -6.54966 0
M  V30 4509 H 437.723 4.87068 -6.08592 0
M  V30 4510 N 441.952 1.55251 0.271103 0
M  V30 4511 C 443.368 1.47133 0.618393 0
M  V30 4512 C 443.568 0.686994 1.89427 0
M  V30 4513 O 442.624 0.206609 2.51653 0
M  V30 4514 C 443.937 2.91361 0.743593 0
M  V30 4515 C 445.485 3.01587 0.837522 0
M  V30 4516 C 445.96 4.47073 0.994483 0
M  V30 4517 N 447.451 4.50909 1.05996 0
M  V30 4518 C 448.186 5.60698 1.20024 0
M  V30 4519 N 447.682 6.80348 1.30759 0
M  V30 4520 N 449.475 5.48444 1.23149 0
M  V30 4521 H 441.626 2.04698 -0.566784 0
M  V30 4522 H 443.889 0.928319 -0.192165 0
M  V30 4523 H 443.595 3.51483 -0.123493 0
M  V30 4524 H 443.469 3.40484 1.62328 0
M  V30 4525 H 445.856 2.4156 1.69507 0
M  V30 4526 H 445.937 2.55713 -0.0668086 0
M  V30 4527 H 445.581 5.07703 0.141582 0
M  V30 4528 H 445.511 4.90605 1.91349 0
M  V30 4529 H 448.002 3.6472 0.989316 0
M  V30 4530 H 448.315 7.59772 1.41303 0
M  V30 4531 H 446.66 6.83156 1.27761 0
M  V30 4532 H 449.851 4.53907 1.14394 0
M  V30 4533 H 450.024 6.34049 1.33738 0
M  V30 4534 N 443.43 -0.535701 1.48216 0
M  V30 4535 C 444.393 -1.623 1.61838 0
M  V30 4536 C 445.393 -1.53087 0.492024 0
M  V30 4537 O 446.583 -1.5686 0.757668 0
M  V30 4538 C 443.715 -3.01907 1.58319 0
M  V30 4539 H 444.908 -1.51564 2.58783 0
M  V30 4540 H 442.461 -0.757317 1.36727 0
M  V30 4541 H 443.196 -3.18155 0.628299 0
M  V30 4542 H 442.981 -3.10003 2.40085 0
M  V30 4543 H 444.471 -3.80969 1.71033 0
M  V30 4544 N 444.908 -1.36708 -0.784132 0
M  V30 4545 C 445.818 -1.3363 -1.92822 0
M  V30 4546 C 446.834 -0.237686 -1.72369 0
M  V30 4547 O 448.01 -0.470962 -1.95816 0
M  V30 4548 C 445.075 -1.13011 -3.27764 0
M  V30 4549 C 444.136 -2.32397 -3.60957 0
M  V30 4550 C 443.369 -2.12752 -4.89461 0
M  V30 4551 O 443.592 -1.10541 -5.59586 0
M  V30 4552 O 442.526 -3.00653 -5.21432 0
M  V30 4553 H 446.352 -2.29964 -1.98369 0
M  V30 4554 H 443.937 -1.1731 -0.925136 0
M  V30 4555 H 445.819 -1.03451 -4.08504 0
M  V30 4556 H 444.494 -0.19743 -3.23097 0
M  V30 4557 H 443.401 -2.47527 -2.80502 0
M  V30 4558 H 444.734 -3.2419 -3.70354 0
M  V30 4559 N 446.386 1.0089 -1.21074 0
M  V30 4560 C 447.318 2.09737 -0.924291 0
M  V30 4561 C 448.331 1.62546 0.0909809 0
M  V30 4562 O 449.52 1.77942 -0.141021 0
M  V30 4563 C 446.62 3.36922 -0.36559 0
M  V30 4564 C 445.793 4.13216 -1.43426 0
M  V30 4565 C 444.852 5.18696 -0.885496 0
M  V30 4566 O 443.878 5.47176 -1.56801 0
M  V30 4567 N 445.08 5.79718 0.301227 0
M  V30 4568 H 447.845 2.34895 -1.8613 0
M  V30 4569 H 445.406 1.17341 -1.11546 0
M  V30 4570 H 447.398 4.04697 0.0158407 0
M  V30 4571 H 445.968 3.08952 0.476149 0
M  V30 4572 H 445.188 3.40301 -1.9897 0
M  V30 4573 H 446.476 4.60967 -2.15376 0
M  V30 4574 H 445.874 5.58926 0.872849 0
M  V30 4575 H 444.431 6.48804 0.624211 0
M  V30 4576 N 447.864 1.01787 1.20321 0
M  V30 4577 C 448.774 0.598898 2.26827 0
M  V30 4578 C 449.79 -0.36418 1.70146 0
M  V30 4579 O 450.966 -0.224812 2.00141 0
M  V30 4580 C 448.031 -0.0549769 3.46656 0
M  V30 4581 C 447.092 0.954205 4.18561 0
M  V30 4582 C 446.325 0.331439 5.3267 0
M  V30 4583 O 446.548 -0.86851 5.63749 0
M  V30 4584 O 445.482 1.0488 5.92692 0
M  V30 4585 H 449.308 1.48562 2.64883 0
M  V30 4586 H 446.893 0.787434 1.26964 0
M  V30 4587 H 448.775 -0.420102 4.19301 0
M  V30 4588 H 447.45 -0.915876 3.10473 0
M  V30 4589 H 446.357 1.37072 3.48083 0
M  V30 4590 H 447.69 1.78511 4.58688 0
M  V30 4591 N 449.342 -1.36122 0.79427 0
M  V30 4592 C 450.305 -2.28309 0.201889 0
M  V30 4593 C 451.305 -1.49041 -0.603603 0
M  V30 4594 O 452.495 -1.68964 -0.423888 0
M  V30 4595 C 449.627 -3.3321 -0.719978 0
M  V30 4596 H 450.82 -2.82208 1.01481 0
M  V30 4597 H 448.373 -1.45768 0.564037 0
M  V30 4598 H 449.108 -2.84475 -1.55706 0
M  V30 4599 H 448.893 -3.91835 -0.144266 0
M  V30 4600 H 450.383 -4.02044 -1.12916 0
M  V30 4601 N 450.82 -0.546701 -1.47814 0
M  V30 4602 C 451.75 0.195317 -2.32682 0
M  V30 4603 C 452.731 0.918981 -1.43139 0
M  V30 4604 O 453.916 0.901501 -1.72008 0
M  V30 4605 C 451.046 1.23237 -3.247 0
M  V30 4606 C 450 0.625818 -4.234 0
M  V30 4607 C 449.326 1.76674 -5.04669 0
M  V30 4608 C 450.626 -0.413515 -5.2066 0
M  V30 4609 H 452.32 -0.513184 -2.94969 0
M  V30 4610 H 449.866 -0.248241 -1.41844 0
M  V30 4611 H 451.819 1.75955 -3.82907 0
M  V30 4612 H 450.543 1.97067 -2.60446 0
M  V30 4613 H 449.202 0.120023 -3.66403 0
M  V30 4614 H 448.85 2.49383 -4.36826 0
M  V30 4615 H 448.55 1.36673 -5.71484 0
M  V30 4616 H 450.074 2.29738 -5.65732 0
M  V30 4617 H 451.488 0.0272042 -5.73294 0
M  V30 4618 H 449.885 -0.731825 -5.95621 0
M  V30 4619 H 450.955 -1.31325 -4.66778 0
M  V30 4620 N 452.299 1.55045 -0.282633 0
M  V30 4621 C 453.527 2.04168 0.33512 0
M  V30 4622 C 453.942 1.16071 1.48906 0
M  V30 4623 O 453.299 0.182391 1.81586 0
M  V30 4624 C 453.35 3.52332 0.808957 0
M  V30 4625 O 453.071 4.37078 -0.299038 0
M  V30 4626 C 454.572 4.17375 1.49375 0
M  V30 4627 H 451.792 0.666744 0.0754543 0
M  V30 4628 H 454.336 2.00205 -0.416918 0
M  V30 4629 H 452.491 3.56715 1.51106 0
M  V30 4630 H 452.905 5.24458 0.0665514 0
M  V30 4631 H 454.379 5.22627 1.77664 0
M  V30 4632 H 454.856 3.65999 2.42778 0
M  V30 4633 H 455.462 4.17016 0.835305 0
M  V30 4634 N 453.777 0.010035 1.57597 0
M  V30 4635 C 455.025 -0.671371 1.90623 0
M  V30 4636 C 455.346 -1.73753 0.885151 0
M  V30 4637 O 454.616 -1.95752 -0.0760611 0
M  V30 4638 H 453.196 -0.250968 0.703579 0
M  V30 4639 H 455.858 0.0533325 1.94827 0
M  V30 4640 H 454.954 -1.13626 2.90681 0
M  V30 4641 N 455.255 -1.55392 -0.262866 0
M  V30 4642 C 456.165 -1.92077 -1.34698 0
M  V30 4643 C 457.181 -0.819227 -1.53508 0
M  V30 4644 O 458.357 -1.11921 -1.67439 0
M  V30 4645 C 455.422 -2.19407 -2.68443 0
M  V30 4646 C 454.483 -3.42905 -2.58292 0
M  V30 4647 C 453.716 -3.68921 -3.85659 0
M  V30 4648 O 453.939 -2.97275 -4.8681 0
M  V30 4649 O 452.873 -4.62455 -3.85252 0
M  V30 4650 H 456.699 -2.84384 -1.06581 0
M  V30 4651 H 454.284 -1.42069 -0.462264 0
M  V30 4652 H 456.166 -2.38365 -3.47506 0
M  V30 4653 H 454.841 -1.30282 -2.96325 0
M  V30 4654 H 453.748 -3.29272 -1.7757 0
M  V30 4655 H 455.081 -4.32282 -2.35358 0
M  V30 4656 N 456.733 0.527833 -1.48498 0
M  V30 4657 C 457.973 1.29401 -1.58224 0
M  V30 4658 C 458.337 1.90348 -0.251327 0
M  V30 4659 O 459.538 2.67868 -0.223588 0
M  V30 4660 C 457.809 2.35266 -2.69044 0
M  V30 4661 S 459.368 3.2158 -2.98549 0
M  V30 4662 H 456.186 0.440138 -0.558391 0
M  V30 4663 H 458.788 0.601079 -1.8603 0
M  V30 4664 H 457.492 1.88975 -3.64303 0
M  V30 4665 H 457.023 3.09263 -2.43146 0
M  V30 4666 H 459.038 4.35391 -2.38011 0
M  V30 4667 N 458.211 1.37122 0.776871 0
M  V30 4668 C 459.158 1.3247 1.88998 0
M  V30 4669 C 460.128 0.191143 1.64997 0
M  V30 4670 O 461.313 0.379683 1.86984 0
M  V30 4671 C 458.453 1.13241 3.25992 0
M  V30 4672 C 457.566 2.35782 3.61982 0
M  V30 4673 C 456.701 2.09465 4.88158 0
M  V30 4674 C 455.74 3.279 5.16864 0
M  V30 4675 N 454.877 3.01167 6.34226 0
M  V30 4676 H 459.717 2.27642 1.9231 0
M  V30 4677 H 457.254 1.13125 0.94027 0
M  V30 4678 H 459.212 1.00115 4.0501 0
M  V30 4679 H 457.842 0.217186 3.22069 0
M  V30 4680 H 456.894 2.59666 2.77989 0
M  V30 4681 H 458.206 3.24125 3.79137 0
M  V30 4682 H 457.36 1.93341 5.75069 0
M  V30 4683 H 456.099 1.18452 4.73097 0
M  V30 4684 H 455.104 3.44569 4.2843 0
M  V30 4685 H 456.329 4.19757 5.33836 0
M  V30 4686 H 454.275 2.12779 6.20533 0
M  V30 4687 H 454.192 3.83052 6.51772 0
M  V30 4688 H 455.46 2.88649 7.24087 0
M  V30 4689 N 459.689 -1.00246 1.21608 0
M  V30 4690 C 460.599 -2.12515 0.993709 0
M  V30 4691 C 461.615 -1.73913 -0.0549939 0
M  V30 4692 O 462.791 -2.00943 0.135619 0
M  V30 4693 C 459.856 -3.42083 0.563953 0
M  V30 4694 C 458.917 -3.94843 1.68516 0
M  V30 4695 C 458.15 -5.18226 1.27582 0
M  V30 4696 O 458.373 -5.70201 0.150506 0
M  V30 4697 O 457.307 -5.64497 2.0887 0
M  V30 4698 H 461.133 -2.34152 1.93407 0
M  V30 4699 H 458.718 -1.10891 1.00118 0
M  V30 4700 H 460.6 -4.20073 0.334194 0
M  V30 4701 H 459.275 -3.21828 -0.347665 0
M  V30 4702 H 458.182 -3.18068 1.96935 0
M  V30 4703 H 459.515 -4.19512 2.5743 0
M  V30 4704 N 461.167 -1.02423 -1.1978 0
M  V30 4705 C 462.097 -0.62157 -2.25075 0
M  V30 4706 C 463.078 0.367148 -1.6609 0
M  V30 4707 O 464.263 0.250892 -1.92573 0
M  V30 4708 C 461.393 0.0331826 -3.47284 0
M  V30 4709 C 460.347 -0.877323 -4.18912 0
M  V30 4710 C 459.673 -0.0879296 -5.34628 0
M  V30 4711 C 460.973 -2.18892 -4.74219 0
M  V30 4712 H 462.667 -1.50179 -2.59011 0
M  V30 4713 H 460.213 -0.723547 -1.24502 0
M  V30 4714 H 462.166 0.326488 -4.20133 0
M  V30 4715 H 460.89 0.948164 -3.12534 0
M  V30 4716 H 459.549 -1.15475 -3.47938 0
M  V30 4717 H 459.197 0.828941 -4.96123 0
M  V30 4718 H 458.897 -0.694359 -5.83483 0
M  V30 4719 H 460.421 0.198743 -6.10276 0
M  V30 4720 H 461.835 -1.95746 -5.38847 0
M  V30 4721 H 460.232 -2.74686 -5.33542 0
M  V30 4722 H 461.302 -2.84674 -3.92541 0
M  V30 4723 N 462.645 1.35699 -0.801477 0
M  V30 4724 C 463.555 2.33661 -0.209691 0
M  V30 4725 C 464.571 1.6162 0.644591 0
M  V30 4726 O 465.747 1.93529 0.557545 0
M  V30 4727 C 462.812 3.40816 0.636033 0
M  V30 4728 C 461.873 4.28639 -0.238147 0
M  V30 4729 C 461.106 5.30676 0.567307 0
M  V30 4730 O 461.329 5.41174 1.8024 0
M  V30 4731 O 460.263 6.01887 -0.0391336 0
M  V30 4732 H 464.089 2.8606 -1.01996 0
M  V30 4733 H 461.674 1.38379 -0.563164 0
M  V30 4734 H 463.556 4.06301 1.11791 0
M  V30 4735 H 462.231 2.90696 1.42399 0
M  V30 4736 H 461.138 3.66152 -0.767044 0
M  V30 4737 H 462.471 4.82143 -0.989915 0
M  V30 4738 N 464.123 0.554532 1.47522 0
M  V30 4739 C 465.07 -0.19466 2.29978 0
M  V30 4740 C 466.04 -0.910882 1.38896 0
M  V30 4741 O 467.225 -0.907102 1.67858 0
M  V30 4742 C 464.365 -1.22035 3.22802 0
M  V30 4743 C 463.478 -0.510474 4.28973 0
M  V30 4744 C 462.613 -1.52123 5.08952 0
M  V30 4745 C 461.652 -0.796173 6.069 0
M  V30 4746 N 460.789 -1.75363 6.79847 0
M  V30 4747 H 465.629 0.51461 2.93523 0
M  V30 4748 H 463.166 0.265607 1.44682 0
M  V30 4749 H 465.124 -1.8276 3.7504 0
M  V30 4750 H 463.754 -1.89769 2.61127 0
M  V30 4751 H 462.806 0.211234 3.79813 0
M  V30 4752 H 464.118 0.0576503 4.98767 0
M  V30 4753 H 463.272 -2.20207 5.65326 0
M  V30 4754 H 462.011 -2.12327 4.39054 0
M  V30 4755 H 461.016 -0.101388 5.49707 0
M  V30 4756 H 462.241 -0.199911 6.78806 0
M  V30 4757 H 460.187 -2.3443 6.12682 0
M  V30 4758 H 460.104 -1.23759 7.45801 0
M  V30 4759 H 461.372 -2.4257 7.40797 0
M  V30 4760 N 465.601 -1.54893 0.290851 0
M  V30 4761 C 466.548 -2.23138 -0.58974 0
M  V30 4762 C 467.518 -1.21036 -1.13752 0
M  V30 4763 O 468.703 -1.49626 -1.18392 0
M  V30 4764 C 465.843 -2.96811 -1.76061 0
M  V30 4765 C 464.956 -4.13665 -1.24519 0
M  V30 4766 C 464.091 -4.74944 -2.3791 0
M  V30 4767 C 463.13 -5.83963 -1.83451 0
M  V30 4768 N 462.267 -6.39239 -2.90376 0
M  V30 4769 H 467.107 -2.98 -0.00114915 0
M  V30 4770 H 464.644 -1.47096 0.0112006 0
M  V30 4771 H 466.602 -3.37751 -2.44909 0
M  V30 4772 H 465.232 -2.24344 -2.32098 0
M  V30 4773 H 464.284 -3.77737 -0.449288 0
M  V30 4774 H 465.596 -4.92238 -0.806424 0
M  V30 4775 H 464.75 -5.18684 -3.14724 0
M  V30 4776 H 463.489 -3.95682 -2.85109 0
M  V30 4777 H 462.494 -5.39657 -1.05122 0
M  V30 4778 H 463.719 -6.65103 -1.37169 0
M  V30 4779 H 461.665 -5.62864 -3.36927 0
M  V30 4780 H 461.582 -7.13129 -2.50965 0
M  V30 4781 H 462.85 -6.87637 -3.67118 0
M  V30 4782 N 467.08 -0.0183926 -1.57589 0
M  V30 4783 C 468.028 0.985111 -2.10709 0
M  V30 4784 C 469.022 1.34397 -1.0312 0
M  V30 4785 O 470.228 1.32746 -1.21567 0
M  V30 4786 H 466.603 0.335418 -0.673052 0
M  V30 4787 H 468.574 0.511689 -2.9398 0
M  V30 4788 C 467.323 2.26202 -2.64061 0
M  V30 4789 H 466.646 1.9946 -3.4649 0
M  V30 4790 H 468.086 2.94652 -3.04887 0
M  V30 4791 C 466.545 2.98444 -1.5631 0
M  V30 4792 O 467.075 3.90142 -0.956674 0
M  V30 4793 N 465.281 2.6059 -1.28612 0
M  V30 4794 H 464.828 1.86101 -1.78112 0
M  V30 4795 H 464.786 3.09238 -0.567406 0
M  V30 4796 N 468.558 1.5553 0.254621 0
M  V30 4797 C 469.468 1.92789 1.33677 0
M  V30 4798 C 470.484 0.827356 1.53071 0
M  V30 4799 O 471.66 1.12807 1.66843 0
M  V30 4800 C 468.725 2.20827 2.67275 0
M  V30 4801 C 467.786 3.4427 2.5647 0
M  V30 4802 C 467.019 3.70961 3.83697 0
M  V30 4803 O 467.242 2.99852 4.85227 0
M  V30 4804 O 466.176 4.64491 3.82794 0
M  V30 4805 H 470.002 2.84945 1.05071 0
M  V30 4806 H 467.587 1.42312 0.454723 0
M  V30 4807 H 469.469 2.40204 3.46237 0
M  V30 4808 H 468.144 1.31851 2.9563 0
M  V30 4809 H 467.051 3.30209 1.75821 0
M  V30 4810 H 468.384 4.33524 2.33062 0
M  V30 4811 N 470.036 -0.519951 1.48776 0
M  V30 4812 C 470.999 -1.60574 1.6355 0
M  V30 4813 C 471.999 -1.52557 0.508234 0
M  V30 4814 O 473.189 -1.56047 0.774262 0
M  V30 4815 C 470.321 -3.00211 1.61512 0
M  V30 4816 H 471.514 -1.4881 2.60376 0
M  V30 4817 H 469.067 -0.742772 1.37523 0
M  V30 4818 H 469.802 -3.17471 0.662009 0
M  V30 4819 H 469.587 -3.07439 2.43359 0
M  V30 4820 H 471.077 -3.79134 1.75064 0
M  V30 4821 N 471.514 -1.37532 -0.769588 0
M  V30 4822 C 472.444 -1.36172 -1.89682 0
M  V30 4823 C 473.425 -0.23001 -1.68538 0
M  V30 4824 O 474.61 -0.43069 -1.89364 0
M  V30 4825 C 471.74 -1.1701 -3.26995 0
M  V30 4826 C 470.694 -2.27216 -3.62708 0
M  V30 4827 C 470.02 -1.93174 -4.98586 0
M  V30 4828 C 471.32 -3.6941 -3.69234 0
M  V30 4829 H 473.014 -2.30499 -1.91078 0
M  V30 4830 H 470.56 -1.10953 -0.917902 0
M  V30 4831 H 472.513 -1.14688 -4.05493 0
M  V30 4832 H 471.237 -0.191395 -3.26039 0
M  V30 4833 H 469.896 -2.28697 -2.86519 0
M  V30 4834 H 469.544 -0.938281 -4.94171 0
M  V30 4835 H 469.244 -2.66973 -5.23449 0
M  V30 4836 H 470.768 -1.92443 -5.79481 0
M  V30 4837 H 472.182 -3.70047 -4.37879 0
M  V30 4838 H 470.579 -4.4228 -4.05597 0
M  V30 4839 H 471.649 -4.0288 -2.69844 0
M  V30 4840 N 472.992 0.995999 -1.22138 0
M  V30 4841 C 473.939 2.08551 -0.988687 0
M  V30 4842 C 474.909 1.65864 0.0885021 0
M  V30 4843 O 476.094 1.90704 -0.0604589 0
M  V30 4844 C 473.234 3.40374 -0.569191 0
M  V30 4845 C 472.347 3.96421 -1.71681 0
M  V30 4846 C 471.482 5.1639 -1.2456 0
M  V30 4847 C 470.521 5.64567 -2.36497 0
M  V30 4848 N 469.658 6.75777 -1.90445 0
M  V30 4849 H 474.498 2.2779 -1.92135 0
M  V30 4850 H 472.035 1.1168 -0.957388 0
M  V30 4851 H 473.993 4.16068 -0.307166 0
M  V30 4852 H 472.623 3.21145 0.326462 0
M  V30 4853 H 471.675 3.17628 -2.09324 0
M  V30 4854 H 472.987 4.2816 -2.55891 0
M  V30 4855 H 472.141 5.99362 -0.940774 0
M  V30 4856 H 470.88 4.86266 -0.373662 0
M  V30 4857 H 469.885 4.80185 -2.67772 0
M  V30 4858 H 471.11 5.96716 -3.24202 0
M  V30 4859 H 469.056 6.47443 -1.05609 0
M  V30 4860 H 468.973 7.06818 -2.68223 0
M  V30 4861 H 470.241 7.62262 -1.63022 0
M  V30 4862 N 474.47 1.03057 1.19235 0
M  V30 4863 C 475.38 0.622922 2.26179 0
M  V30 4864 C 476.396 -0.346113 1.70523 0
M  V30 4865 O 477.572 -0.203572 2.00369 0
M  V30 4866 C 474.637 -0.0182063 3.46695 0
M  V30 4867 C 473.698 0.998546 4.17526 0
M  V30 4868 C 472.931 0.387917 5.32288 0
M  V30 4869 O 473.154 -0.808668 5.64639 0
M  V30 4870 O 472.088 1.1116 5.91546 0
M  V30 4871 H 475.914 1.51363 2.63292 0
M  V30 4872 H 473.499 0.800856 1.26122 0
M  V30 4873 H 475.381 -0.375606 4.19723 0
M  V30 4874 H 474.056 -0.882895 3.11427 0
M  V30 4875 H 472.963 1.40756 3.4661 0
M  V30 4876 H 474.296 1.83366 4.56769 0
M  V30 4877 N 475.948 -1.35272 0.808662 0
M  V30 4878 C 477.364 -1.51806 0.492653 0
M  V30 4879 C 477.564 -1.7574 -0.985778 0
M  V30 4880 O 476.62 -1.80003 -1.77074 0
M  V30 4881 C 477.933 -2.69202 1.33981 0
M  V30 4882 C 479.481 -2.8308 1.33547 0
M  V30 4883 C 479.956 -4.03502 2.16679 0
M  V30 4884 N 481.447 -4.10684 2.14227 0
M  V30 4885 C 482.182 -5.02984 2.75308 0
M  V30 4886 N 481.678 -6.00603 3.45323 0
M  V30 4887 N 483.471 -4.95746 2.64938 0
M  V30 4888 H 475.622 -1.17993 1.76611 0
M  V30 4889 H 477.885 -0.577476 0.751814 0
M  V30 4890 H 477.591 -2.581 2.38909 0
M  V30 4891 H 477.465 -3.63854 0.994491 0
M  V30 4892 H 479.852 -2.93631 0.294036 0
M  V30 4893 H 479.933 -1.89278 1.72068 0
M  V30 4894 H 479.577 -3.93711 3.20864 0
M  V30 4895 H 479.507 -4.96489 1.75517 0
M  V30 4896 H 481.998 -3.40802 1.63285 0
M  V30 4897 H 482.311 -6.67633 3.89212 0
M  V30 4898 H 480.656 -6.0077 3.49428 0
M  V30 4899 H 483.847 -4.18439 2.09825 0
M  V30 4900 H 484.02 -5.67487 3.12829 0
M  V30 4901 N 477.426 -0.562348 -1.47226 0
M  V30 4902 C 478.389 0.172056 -2.28553 0
M  V30 4903 C 479.389 0.837928 -1.37242 0
M  V30 4904 O 480.579 0.693001 -1.59822 0
M  V30 4905 C 477.711 1.25223 -3.17068 0
M  V30 4906 H 478.904 -0.542401 -2.94954 0
M  V30 4907 H 476.457 -0.319493 -1.53 0
M  V30 4908 H 477.192 1.99892 -2.55369 0
M  V30 4909 H 476.977 0.779515 -3.84273 0
M  V30 4910 H 478.467 1.76791 -3.78332 0
M  V30 4911 N 478.904 1.54736 -0.299062 0
M  V30 4912 C 480.181 1.92187 0.363802 0
M  V30 4913 C 480.561 1.22607 1.71845 0
M  V30 4914 O 479.909 0.361141 2.25628 0
M  V30 4915 C 480.119 3.45678 0.480377 0
M  V30 4916 C 481.467 4.17885 0.752147 0
M  V30 4917 O 482.491 3.51702 0.564264 0
M  V30 4918 O 481.35 5.35048 1.11294 0
M  V30 4919 H 478.444 0.801681 0.203066 0
M  V30 4920 H 480.99 1.66115 -0.346978 0
M  V30 4921 H 479.762 3.88443 -0.471999 0
M  V30 4922 H 479.385 3.77779 1.2397 0
M  V30 4923 N 480.382 0.0267497 1.57577 0
M  V30 4924 C 481.607 -0.666227 1.96408 0
M  V30 4925 C 482.032 -1.65004 0.903071 0
M  V30 4926 O 481.39 -1.80787 -0.136263 0
M  V30 4927 C 481.438 -1.35101 3.34335 0
M  V30 4928 O 480.542 -2.46623 3.30531 0
M  V30 4929 H 479.883 -0.175206 0.640468 0
M  V30 4930 H 482.413 0.0878977 2.04411 0
M  V30 4931 H 482.423 -1.70834 3.70513 0
M  V30 4932 H 481.098 -0.629844 4.11103 0
M  V30 4933 H 479.675 -2.13019 3.06068 0
M  V30 4934 N 481.861 -1.55662 -0.24637 0
M  V30 4935 C 482.791 -1.93377 -1.30873 0
M  V30 4936 C 483.772 -0.798773 -1.50179 0
M  V30 4937 O 484.957 -1.0591 -1.62778 0
M  V30 4938 C 482.087 -2.22893 -2.66338 0
M  V30 4939 C 481.041 -3.38649 -2.61727 0
M  V30 4940 C 480.367 -3.53708 -4.00992 0
M  V30 4941 C 481.667 -4.74323 -2.18666 0
M  V30 4942 H 483.361 -2.82363 -0.995552 0
M  V30 4943 H 480.907 -1.35854 -0.477464 0
M  V30 4944 H 482.86 -2.47866 -3.40794 0
M  V30 4945 H 481.584 -1.30733 -2.99293 0
M  V30 4946 H 480.243 -3.13685 -1.89729 0
M  V30 4947 H 479.891 -2.58967 -4.31214 0
M  V30 4948 H 479.591 -4.31551 -3.98795 0
M  V30 4949 H 481.115 -3.81003 -4.77147 0
M  V30 4950 H 482.529 -4.98665 -2.82854 0
M  V30 4951 H 480.926 -5.55273 -2.27579 0
M  V30 4952 H 481.996 -4.71349 -1.13834 0
M  V30 4953 N 483.339 0.512053 -1.4905 0
M  V30 4954 C 484.302 1.59704 -1.64399 0
M  V30 4955 C 485.302 1.52285 -0.516317 0
M  V30 4956 O 486.492 1.55635 -0.782527 0
M  V30 4957 C 483.624 2.9935 -1.63102 0
M  V30 4958 H 484.817 1.47428 -2.61161 0
M  V30 4959 H 482.37 0.735469 -1.37915 0
M  V30 4960 H 483.105 3.17116 -0.678836 0
M  V30 4961 H 482.89 3.06144 -2.44986 0
M  V30 4962 H 484.38 3.782 -1.77072 0
M  V30 4963 N 484.817 1.37938 0.762283 0
M  V30 4964 C 485.764 1.34467 1.87583 0
M  V30 4965 C 486.734 0.208633 1.64785 0
M  V30 4966 O 487.919 0.399494 1.86571 0
M  V30 4967 C 485.059 1.16692 3.24772 0
M  V30 4968 C 484.172 2.39608 3.59461 0
M  V30 4969 C 483.307 2.14631 4.85908 0
M  V30 4970 C 482.346 3.33364 5.13357 0
M  V30 4971 N 481.483 3.07877 6.30996 0
M  V30 4972 H 486.323 2.29669 1.89885 0
M  V30 4973 H 483.86 1.14116 0.928219 0
M  V30 4974 H 485.818 1.04405 4.03925 0
M  V30 4975 H 484.448 0.251333 3.2182 0
M  V30 4976 H 483.5 2.626 2.75219 0
M  V30 4977 H 484.812 3.28128 3.75678 0
M  V30 4978 H 483.966 1.99429 5.72986 0
M  V30 4979 H 482.705 1.23463 4.71814 0
M  V30 4980 H 481.71 3.49094 4.24751 0
M  V30 4981 H 482.935 4.25395 5.29354 0
M  V30 4982 H 480.881 2.19348 6.18241 0
M  V30 4983 H 480.798 3.89944 6.47673 0
M  V30 4984 H 482.066 2.96313 7.20985 0
M  V30 4985 N 486.295 -0.989507 1.22664 0
M  V30 4986 C 487.205 -2.11449 1.01619 0
M  V30 4987 C 488.221 -1.73962 -0.036545 0
M  V30 4988 O 489.397 -2.00788 0.156924 0
M  V30 4989 C 486.462 -3.41465 0.600204 0
M  V30 4990 C 485.523 -3.93033 1.72695 0
M  V30 4991 C 484.756 -5.16844 1.33071 0
M  V30 4992 O 484.979 -5.7001 0.210975 0
M  V30 4993 O 483.913 -5.6225 2.14845 0
M  V30 4994 H 487.739 -2.32088 1.9588 0
M  V30 4995 H 485.324 -1.09823 1.01289 0
M  V30 4996 H 487.206 -4.19695 0.37873 0
M  V30 4997 H 485.881 -3.22178 -0.313511 0
M  V30 4998 H 484.788 -3.15961 2.00298 0
M  V30 4999 H 486.121 -4.16758 2.61865 0
M  V30 5000 N 487.773 -1.03688 -1.18687 0
M  V30 5001 C 489.022 -0.733235 -1.879 0
M  V30 5002 C 489.335 0.741745 -1.8099 0
M  V30 5003 O 490.541 1.15875 -2.4553 0
M  V30 5004 C 488.997 -1.26127 -3.37076 0
M  V30 5005 C 488.605 -2.76461 -3.52524 0
M  V30 5006 C 490.349 -1.03398 -4.11715 0
M  V30 5007 C 488.256 -3.22642 -4.95637 0
M  V30 5008 H 487.186 -0.270584 -0.703776 0
M  V30 5009 H 489.837 -1.25222 -1.34133 0
M  V30 5010 H 488.219 -0.670165 -3.90288 0
M  V30 5011 H 489.393 -3.41296 -3.09602 0
M  V30 5012 H 487.708 -2.97559 -2.91286 0
M  V30 5013 H 490.305 -1.3542 -5.17267 0
M  V30 5014 H 490.648 0.0289246 -4.1629 0
M  V30 5015 H 491.181 -1.5895 -3.64664 0
M  V30 5016 H 487.92 -4.28296 -4.96228 0
M  V30 5017 H 487.44 -2.62539 -5.39289 0
M  V30 5018 H 489.119 -3.16444 -5.64333 0
M  V30 5019 N 489.251 1.34841 -0.815825 0
M  V30 5020 C 490.183 2.28409 -0.190265 0
M  V30 5021 C 491.196 1.50705 0.615771 0
M  V30 5022 O 492.385 1.72822 0.446616 0
M  V30 5023 C 489.485 3.30441 0.752446 0
M  V30 5024 C 488.658 4.37399 -0.00922152 0
M  V30 5025 C 487.717 5.19234 0.853351 0
M  V30 5026 O 486.743 5.68404 0.300919 0
M  V30 5027 N 487.945 5.38248 2.17416 0
M  V30 5028 H 490.71 2.82732 -0.994114 0
M  V30 5029 H 488.271 1.47289 -0.672129 0
M  V30 5030 H 490.263 3.82084 1.33394 0
M  V30 5031 H 488.833 2.76565 1.45707 0
M  V30 5032 H 488.053 3.86567 -0.771979 0
M  V30 5033 H 489.341 5.05992 -0.533807 0
M  V30 5034 H 488.739 4.99961 2.6468 0
M  V30 5035 H 487.296 5.93035 2.70467 0
M  V30 5036 N 490.729 0.570148 1.46925 0
M  V30 5037 C 491.959 0.0561151 2.06524 0
M  V30 5038 C 492.367 -1.24874 1.42137 0
M  V30 5039 O 491.71 -1.76292 0.516417 0
M  V30 5040 C 491.772 -0.197035 3.5896 0
M  V30 5041 C 491.436 1.02033 4.45464 0
M  V30 5042 C 492.433 1.92921 4.82781 0
M  V30 5043 C 490.118 1.23864 4.86788 0
M  V30 5044 C 492.112 3.03999 5.60235 0
M  V30 5045 C 489.799 2.35249 5.64004 0
M  V30 5046 C 490.797 3.25146 6.0064 0
M  V30 5047 O 490.485 4.34598 6.76299 0
M  V30 5048 H 490.217 0.0487409 0.674241 0
M  V30 5049 H 492.771 0.786915 1.89728 0
M  V30 5050 H 491.001 -0.982299 3.74016 0
M  V30 5051 H 492.69 -0.658032 4.00531 0
M  V30 5052 H 493.456 1.77265 4.51444 0
M  V30 5053 H 489.335 0.54805 4.57731 0
M  V30 5054 H 492.879 3.74192 5.8875 0
M  V30 5055 H 488.776 2.50873 5.94755 0
M  V30 5056 H 489.544 4.32808 6.94708 0
M  V30 5057 N 492.207 -1.54576 0.307264 0
M  V30 5058 C 493.137 -2.26708 -0.55907 0
M  V30 5059 C 494.118 -1.26893 -1.1328 0
M  V30 5060 O 495.303 -1.55677 -1.16097 0
M  V30 5061 C 492.433 -3.01259 -1.72801 0
M  V30 5062 C 491.387 -4.08275 -1.28435 0
M  V30 5063 C 490.713 -4.70575 -2.53895 0
M  V30 5064 C 492.013 -5.2068 -0.411038 0
M  V30 5065 H 493.707 -2.9937 0.042576 0
M  V30 5066 H 491.253 -1.43983 0.0219173 0
M  V30 5067 H 493.206 -3.50444 -2.34023 0
M  V30 5068 H 491.93 -2.26187 -2.356 0
M  V30 5069 H 490.589 -3.59949 -0.695161 0
M  V30 5070 H 490.237 -3.92136 -3.15021 0
M  V30 5071 H 489.937 -5.42854 -2.24908 0
M  V30 5072 H 491.461 -5.22527 -3.15908 0
M  V30 5073 H 492.875 -5.65721 -0.929097 0
M  V30 5074 H 491.272 -5.99716 -0.214664 0
M  V30 5075 H 492.342 -4.81629 0.562287 0
M  V30 5076 N 493.685 -0.035106 -1.57561 0
M  V30 5077 C 494.632 0.94474 -2.10578 0
M  V30 5078 C 495.602 1.3192 -1.00927 0
M  V30 5079 O 496.787 1.41147 -1.28382 0
M  V30 5080 C 493.927 2.21982 -2.64231 0
M  V30 5081 C 493.04 1.90128 -3.87911 0
M  V30 5082 C 492.175 3.11975 -4.29936 0
M  V30 5083 C 491.214 2.75968 -5.46359 0
M  V30 5084 N 490.351 3.90459 -5.83512 0
M  V30 5085 H 495.191 0.485717 -2.94015 0
M  V30 5086 H 492.728 0.228143 -1.4532 0
M  V30 5087 H 494.686 2.96572 -2.9343 0
M  V30 5088 H 493.316 2.6549 -1.83616 0
M  V30 5089 H 492.368 1.05755 -3.65404 0
M  V30 5090 H 493.68 1.59613 -4.72573 0
M  V30 5091 H 492.834 3.9488 -4.60603 0
M  V30 5092 H 491.573 3.45657 -3.44053 0
M  V30 5093 H 490.578 1.91478 -5.1538 0
M  V30 5094 H 491.803 2.43497 -6.33945 0
M  V30 5095 H 489.749 4.23971 -5.00584 0
M  V30 5096 H 489.666 3.63588 -6.62827 0
M  V30 5097 H 490.934 4.7405 -6.18787 0
M  V30 5098 N 495.163 1.55791 0.238111 0
M  V30 5099 C 496.44 1.68798 0.98826 0
M  V30 5100 C 496.82 0.577562 2.03045 0
M  V30 5101 O 496.168 -0.41778 2.24648 0
M  V30 5102 C 496.378 3.09454 1.61367 0
M  V30 5103 C 497.726 3.68335 2.11221 0
M  V30 5104 O 498.75 3.1231 1.71292 0
M  V30 5105 O 497.609 4.6657 2.84561 0
M  V30 5106 H 494.703 0.686881 0.460568 0
M  V30 5107 H 497.249 1.68118 0.231202 0
M  V30 5108 H 496.021 3.81726 0.860295 0
M  V30 5109 H 495.644 3.14182 2.4367 0
M  V30 5110 N 496.642 -0.504142 1.49319 0
M  V30 5111 C 497.572 -1.61473 1.68667 0
M  V30 5112 C 498.553 -1.61455 0.535378 0
M  V30 5113 O 499.738 -1.78245 0.770868 0
M  V30 5114 C 496.868 -2.99971 1.75028 0
M  V30 5115 C 495.822 -3.14854 2.89916 0
M  V30 5116 C 495.148 -4.54671 2.81387 0
M  V30 5117 C 496.448 -2.95176 4.30893 0
M  V30 5118 H 498.142 -1.45535 2.61648 0
M  V30 5119 H 495.688 -0.698711 1.25913 0
M  V30 5120 H 497.641 -3.77562 1.8715 0
M  V30 5121 H 496.365 -3.1699 0.786441 0
M  V30 5122 H 495.024 -2.39687 2.77391 0
M  V30 5123 H 494.672 -4.68562 1.82917 0
M  V30 5124 H 494.372 -4.6557 3.58494 0
M  V30 5125 H 495.896 -5.34327 2.95512 0
M  V30 5126 H 497.31 -3.62538 4.44116 0
M  V30 5127 H 495.707 -3.17549 5.09198 0
M  V30 5128 H 496.777 -1.91332 4.45556 0
M  V30 5129 N 498.12 -1.38341 -0.754957 0
M  V30 5130 C 499.369 -1.33791 -1.5094 0
M  V30 5131 C 499.682 0.0699267 -1.95475 0
M  V30 5132 O 500.888 0.237956 -2.70455 0
M  V30 5133 C 499.344 -2.34934 -2.72643 0
M  V30 5134 C 498.952 -3.81332 -2.35138 0
M  V30 5135 C 500.696 -2.39425 -3.50536 0
M  V30 5136 C 498.603 -4.74164 -3.53444 0
M  V30 5137 H 497.533 -0.497314 -0.566741 0
M  V30 5138 H 500.184 -1.63888 -0.825403 0
M  V30 5139 H 498.566 -1.97878 -3.43017 0
M  V30 5140 H 499.74 -4.27319 -1.7244 0
M  V30 5141 H 498.055 -3.79946 -1.70382 0
M  V30 5142 H 500.652 -3.0598 -4.38498 0
M  V30 5143 H 500.995 -1.41278 -3.91594 0
M  V30 5144 H 501.528 -2.75274 -2.87174 0
M  V30 5145 H 498.267 -5.73501 -3.17453 0
M  V30 5146 H 497.787 -4.3287 -4.15191 0
M  V30 5147 H 499.466 -4.92111 -4.20043 0
M  V30 5148 N 499.598 0.982988 -1.23187 0
M  V30 5149 C 500.508 2.10907 -1.02739 0
M  V30 5150 C 501.524 1.73979 0.0273188 0
M  V30 5151 O 502.7 2.00702 -0.16757 0
M  V30 5152 C 499.765 3.41142 -0.618304 0
M  V30 5153 C 498.826 3.92112 -1.74777 0
M  V30 5154 C 498.059 5.16131 -1.3581 0
M  V30 5155 O 498.282 5.6989 -0.241201 0
M  V30 5156 O 497.216 5.61103 -2.17824 0
M  V30 5157 H 501.042 2.31046 -1.97108 0
M  V30 5158 H 498.627 1.09284 -1.01869 0
M  V30 5159 H 500.509 4.19488 -0.400982 0
M  V30 5160 H 499.184 3.2234 0.296421 0
M  V30 5161 H 498.091 3.14895 -2.0197 0
M  V30 5162 H 499.424 4.15364 -2.64071 0
M  V30 5163 N 501.076 1.04316 1.18135 0
M  V30 5164 C 501.986 0.646876 2.25505 0
M  V30 5165 C 503.002 -0.328008 1.7088 0
M  V30 5166 O 504.178 -0.182309 2.00573 0
M  V30 5167 C 501.243 0.0185664 3.46695 0
M  V30 5168 C 500.304 1.04277 4.16443 0
M  V30 5169 C 499.537 0.444352 5.31847 0
M  V30 5170 O 499.76 -0.748735 5.65465 0
M  V30 5171 O 498.694 1.17428 5.90334 0
M  V30 5172 H 502.52 1.54147 2.61672 0
M  V30 5173 H 500.105 0.814188 1.25265 0
M  V30 5174 H 501.987 -0.331068 4.20097 0
M  V30 5175 H 500.662 -0.849814 3.12346 0
M  V30 5176 H 499.569 1.44425 3.45098 0
M  V30 5177 H 500.902 1.882 4.54798 0
M  V30 5178 N 502.554 -1.34406 0.822964 0
M  V30 5179 C 503.8 -1.98578 0.411666 0
M  V30 5180 C 504.133 -1.65093 -1.02264 0
M  V30 5181 O 503.408 -0.92258 -1.71227 0
M  V30 5182 C 503.691 -3.54823 0.614235 0
M  V30 5183 C 503.544 -3.9805 2.09466 0
M  V30 5184 C 504.863 -4.40071 0.050221 0
M  V30 5185 H 501.982 -0.721355 0.151047 0
M  V30 5186 H 504.624 -1.59301 1.03554 0
M  V30 5187 H 502.774 -3.88411 0.0831774 0
M  V30 5188 H 504.446 -3.74795 2.68936 0
M  V30 5189 H 502.689 -3.4836 2.5851 0
M  V30 5190 H 503.36 -5.06819 2.18721 0
M  V30 5191 H 505.836 -4.13037 0.503953 0
M  V30 5192 H 504.712 -5.48452 0.221759 0
M  V30 5193 H 504.973 -4.29576 -1.04482 0
M  V30 5194 N 504.032 -0.577932 -1.46621 0
M  V30 5195 C 505.448 -0.239242 -1.57797 0
M  V30 5196 C 505.648 1.25843 -1.57371 0
M  V30 5197 O 504.704 2.03988 -1.48813 0
M  V30 5198 C 506.017 -0.884227 -2.87405 0
M  V30 5199 C 507.565 -0.857373 -3.01028 0
M  V30 5200 C 508.04 -1.48181 -4.33366 0
M  V30 5201 N 509.531 -1.44593 -4.40053 0
M  V30 5202 C 510.266 -1.89852 -5.41058 0
M  V30 5203 N 509.762 -2.43062 -6.48762 0
M  V30 5204 N 511.555 -1.80797 -5.3223 0
M  V30 5205 H 503.706 -1.55073 -1.45142 0
M  V30 5206 H 505.969 -0.647903 -0.692044 0
M  V30 5207 H 505.675 -1.93759 -2.93514 0
M  V30 5208 H 505.549 -0.389585 -3.75183 0
M  V30 5209 H 507.936 0.187357 -2.94505 0
M  V30 5210 H 508.017 -1.38999 -2.14739 0
M  V30 5211 H 507.661 -2.52572 -4.40647 0
M  V30 5212 H 507.591 -0.924464 -5.18422 0
M  V30 5213 H 510.082 -1.05694 -3.62819 0
M  V30 5214 H 510.395 -2.75466 -7.22038 0
M  V30 5215 H 508.74 -2.47085 -6.49595 0
M  V30 5216 H 511.931 -1.38989 -4.46989 0
M  V30 5217 H 512.104 -2.16385 -6.10804 0
M  V30 5218 N 505.51 1.54411 -0.315457 0
M  V30 5219 C 506.457 2.24048 0.554166 0
M  V30 5220 C 507.427 1.2283 1.11812 0
M  V30 5221 O 508.612 1.51491 1.15997 0
M  V30 5222 C 505.752 2.99574 1.71316 0
M  V30 5223 C 504.865 4.15594 1.17922 0
M  V30 5224 C 504 4.78669 2.30324 0
M  V30 5225 C 503.039 5.86807 1.74137 0
M  V30 5226 N 502.176 6.43777 2.8017 0
M  V30 5227 H 507.016 2.97964 -0.0462602 0
M  V30 5228 H 504.553 1.47059 -0.0346009 0
M  V30 5229 H 506.511 3.41604 2.39505 0
M  V30 5230 H 505.141 2.28008 2.285 0
M  V30 5231 H 504.193 3.78404 0.389136 0
M  V30 5232 H 505.505 4.93459 0.728012 0
M  V30 5233 H 504.659 5.23626 3.06433 0
M  V30 5234 H 503.398 4.00168 2.78778 0
M  V30 5235 H 502.403 5.41261 0.965236 0
M  V30 5236 H 503.628 6.67201 1.2657 0
M  V30 5237 H 501.574 5.68153 3.2793 0
M  V30 5238 H 501.491 7.17031 2.39588 0
M  V30 5239 H 502.759 6.9339 3.56132 0
M  V30 5240 N 506.988 0.0434614 1.5754 0
M  V30 5241 C 507.951 -0.918696 2.09982 0
M  V30 5242 C 508.951 -1.24488 1.01781 0
M  V30 5243 O 510.141 -1.18284 1.27885 0
M  V30 5244 C 507.273 -2.23093 2.57764 0
M  V30 5245 H 508.466 -0.464229 2.96285 0
M  V30 5246 H 506.019 -0.204818 1.54952 0
M  V30 5247 H 506.754 -2.73137 1.74832 0
M  V30 5248 H 506.539 -2.00724 3.36827 0
M  V30 5249 H 508.029 -2.92028 2.98512 0
M  V30 5250 N 508.466 -1.55915 -0.229846 0
M  V30 5251 C 509.882 -1.48721 -0.579166 0
M  V30 5252 C 510.082 -0.736976 -1.87539 0
M  V30 5253 O 509.138 -0.273258 -2.51017 0
M  V30 5254 C 510.451 -2.9323 -0.666082 0
M  V30 5255 C 511.999 -3.03701 -0.757267 0
M  V30 5256 C 512.474 -4.49552 -0.8756 0
M  V30 5257 N 513.965 -4.53561 -0.940035 0
M  V30 5258 C 514.7 -5.63683 -1.05116 0
M  V30 5259 N 514.196 -6.83576 -1.12675 0
M  V30 5260 N 515.989 -5.51516 -1.08565 0
M  V30 5261 H 508.14 -2.03123 0.620857 0
M  V30 5262 H 510.403 -0.922898 0.21671 0
M  V30 5263 H 510.109 -3.51032 0.21664 0
M  V30 5264 H 509.983 -3.44668 -1.53243 0
M  V30 5265 H 512.37 -2.45969 -1.63043 0
M  V30 5266 H 512.451 -2.55446 0.134583 0
M  V30 5267 H 512.095 -5.079 -0.00692351 0
M  V30 5268 H 512.025 -4.95506 -1.78274 0
M  V30 5269 H 514.516 -3.67215 -0.892269 0
M  V30 5270 H 514.829 -7.63251 -1.21109 0
M  V30 5271 H 513.174 -6.86303 -1.09603 0
M  V30 5272 H 516.365 -4.5678 -1.02319 0
M  V30 5273 H 516.538 -6.37372 -1.1688 0
M  V30 5274 N 509.944 0.496216 -1.49584 0
M  V30 5275 C 511.192 1.24756 -1.58998 0
M  V30 5276 C 511.513 1.92968 -0.280775 0
M  V30 5277 O 510.783 1.82959 0.700198 0
M  V30 5278 H 509.363 0.463471 -0.585836 0
M  V30 5279 H 512.025 0.574678 -1.86235 0
M  V30 5280 H 511.121 2.00895 -2.38847 0
M  V30 5281 N 511.423 1.38739 0.74761 0
M  V30 5282 C 512.37 1.36449 1.86146 0
M  V30 5283 C 513.34 0.226098 1.64554 0
M  V30 5284 O 514.525 0.41926 1.86137 0
M  V30 5285 C 511.665 1.2013 3.23516 0
M  V30 5286 C 510.778 2.43407 3.56899 0
M  V30 5287 C 509.913 2.19773 4.83605 0
M  V30 5288 C 508.952 3.3879 5.09792 0
M  V30 5289 N 508.089 3.14553 6.27695 0
M  V30 5290 H 512.929 2.3167 1.87438 0
M  V30 5291 H 510.466 1.15094 0.916063 0
M  V30 5292 H 512.424 1.08683 4.02795 0
M  V30 5293 H 511.054 0.285453 3.21535 0
M  V30 5294 H 510.106 2.65504 2.72418 0
M  V30 5295 H 511.418 3.32094 3.72176 0
M  V30 5296 H 510.572 2.05496 5.70838 0
M  V30 5297 H 509.311 1.28461 4.70478 0
M  V30 5298 H 508.316 3.53579 4.21025 0
M  V30 5299 H 509.541 4.30986 5.24812 0
M  V30 5300 H 507.487 2.25893 6.1588 0
M  V30 5301 H 507.404 3.96791 6.435 0
M  V30 5302 H 508.672 3.03943 7.17801 0
M  V30 5303 N 512.901 -0.976442 1.23707 0
M  V30 5304 C 513.848 -2.06952 1.02174 0
M  V30 5305 C 514.818 -1.65984 -0.0621034 0
M  V30 5306 O 516.003 -1.90584 0.0907906 0
M  V30 5307 C 513.143 -3.39425 0.62327 0
M  V30 5308 C 512.256 -3.9364 1.77966 0
M  V30 5309 C 511.391 -5.14343 1.3276 0
M  V30 5310 C 510.43 -5.60733 2.45449 0
M  V30 5311 N 509.567 -6.72662 2.01172 0
M  V30 5312 H 514.407 -2.24704 1.95734 0
M  V30 5313 H 511.944 -1.10143 0.975034 0
M  V30 5314 H 513.902 -4.15526 0.37332 0
M  V30 5315 H 512.532 -3.21624 -0.275329 0
M  V30 5316 H 511.584 -3.14258 2.14351 0
M  V30 5317 H 512.896 -4.24035 2.62671 0
M  V30 5318 H 512.05 -5.97789 1.03601 0
M  V30 5319 H 510.789 -4.8561 0.450975 0
M  V30 5320 H 509.794 -4.75865 2.75378 0
M  V30 5321 H 511.019 -5.91483 3.33654 0
M  V30 5322 H 508.965 -6.45681 1.15895 0
M  V30 5323 H 508.882 -7.02462 2.79434 0
M  V30 5324 H 510.15 -7.59572 1.75129 0
M  V30 5325 N 514.379 -1.04941 -1.1758 0
M  V30 5326 C 515.795 -0.770282 -1.39781 0
M  V30 5327 C 515.995 0.636417 -1.91186 0
M  V30 5328 O 515.051 1.39923 -2.10185 0
M  V30 5329 C 516.364 -1.82376 -2.3908 0
M  V30 5330 C 517.912 -1.84569 -2.52791 0
M  V30 5331 C 518.387 -2.88933 -3.55361 0
M  V30 5332 N 519.878 -2.8788 -3.62877 0
M  V30 5333 C 520.613 -3.65282 -4.41992 0
M  V30 5334 N 520.109 -4.52461 -5.24643 0
M  V30 5335 N 521.902 -3.53732 -4.36841 0
M  V30 5336 H 514.053 -1.95705 -0.825438 0
M  V30 5337 H 516.316 -0.847284 -0.425222 0
M  V30 5338 H 516.022 -2.83323 -2.08376 0
M  V30 5339 H 515.896 -1.66327 -3.38549 0
M  V30 5340 H 518.283 -0.842879 -2.82807 0
M  V30 5341 H 518.364 -2.04696 -1.53406 0
M  V30 5342 H 518.008 -3.89398 -3.26085 0
M  V30 5343 H 517.938 -2.66059 -4.54445 0
M  V30 5344 H 520.429 -2.24666 -3.03864 0
M  V30 5345 H 520.742 -5.08211 -5.82187 0
M  V30 5346 H 519.087 -4.56524 -5.24033 0
M  V30 5347 H 522.278 -2.85021 -3.71323 0
M  V30 5348 H 522.451 -4.14302 -4.98255 0
M  V30 5349 N 515.857 1.33968 -0.830081 0
M  V30 5350 C 517.103 1.98357 -0.422191 0
M  V30 5351 C 517.436 1.65633 1.01387 0
M  V30 5352 O 516.711 0.931648 1.70735 0
M  V30 5353 C 516.994 3.54492 -0.633043 0
M  V30 5354 C 516.847 3.96934 -2.11574 0
M  V30 5355 C 518.166 4.40039 -0.0735584 0
M  V30 5356 H 515.285 0.720544 -0.154871 0
M  V30 5357 H 517.927 1.58749 -1.04397 0
M  V30 5358 H 516.077 3.88361 -0.103775 0
M  V30 5359 H 517.749 3.73363 -2.7092 0
M  V30 5360 H 515.992 3.46984 -2.60354 0
M  V30 5361 H 516.663 5.05651 -2.21406 0
M  V30 5362 H 519.139 4.12764 -0.52585 0
M  V30 5363 H 518.015 5.48327 -0.250841 0
M  V30 5364 H 518.276 4.30124 1.02202 0
M  V30 5365 N 517.335 0.585699 1.46312 0
M  V30 5366 C 518.746 0.159938 1.86014 0
M  V30 5367 C 519.097 -1.27775 1.48889 0
M  V30 5368 O 518.222 -1.96559 0.90519 0
M  V30 5369 C 518.817 0.283485 3.37612 0
M  V30 5370 C 517.376 -0.0874256 3.76298 0
M  V30 5371 C 516.523 0.618055 2.70325 0
M  V30 5372 H 519.474 0.793737 1.37425 0
M  V30 5373 H 519.495 -0.490348 3.77327 0
M  V30 5374 H 519.007 1.32995 3.64601 0
M  V30 5375 H 517.108 -1.13391 3.54927 0
M  V30 5376 H 517.221 0.290975 4.78216 0
M  V30 5377 H 515.585 0.057993 2.54634 0
M  V30 5378 H 516.368 1.66623 3.00153 0
M  V30 5379 O 518.852 -1.54637 0.465785 0
M  V30 5380 H 519.543 -1.93604 -0.0608748 0
M  V30 END ATOM
M  V30 BEGIN BOND
M  V30 END BOND
M  V30 END CTAB
M  END
$$$$
