drugbank_target|Q16795 NADH dehydrogenase [ubiquinone] 1 alpha subcomplex subunit 9, mitochondrial (DB00157; DB03147)
 OpenBabel12092119283D

  0  0  0     0  0            999 V3000
M  V30 BEGIN CTAB
M  V30 COUNTS 6067 6145 0 0 0
M  V30 BEGIN ATOM
M  V30 1 H -0.908 1.98254 -0.117106 0
M  V30 2 N 0 1.576 0 0
M  V30 3 C 0.933 2.03868 1.02534 0
M  V30 4 C 1.911 0.928543 1.3348 0
M  V30 5 O 3.095 1.19667 1.45644 0
M  V30 6 C 0.222 2.43627 2.35294 0
M  V30 7 C -0.732 3.65373 2.2001 0
M  V30 8 S 0.101 5.13292 1.52614 0
M  V30 9 C 1.257 5.56322 2.86805 0
M  V30 10 H 1.49 2.90518 0.631377 0
M  V30 11 H -0.977 1.52953 0.210867 0
M  V30 12 H 0.981 2.67203 3.11629 0
M  V30 13 H -0.358 1.57376 2.7183 0
M  V30 14 H -1.165 3.90944 3.18086 0
M  V30 15 H -1.563 3.418 1.51819 0
M  V30 16 H 0.729 5.58782 3.83104 0
M  V30 17 H 1.672 6.56266 2.65933 0
M  V30 18 H 2.08 4.83886 2.90714 0
M  V30 19 N 1.4781 -0.272755 1.55222 0
M  V30 20 C 2.4411 -1.32041 1.87344 0
M  V30 21 C 3.4411 -1.42342 0.74803 0
M  V30 22 O 4.6311 -1.41488 1.0162 0
M  V30 23 C 1.7631 -2.70173 2.07893 0
M  V30 24 H 2.9561 -1.04789 2.80997 0
M  V30 25 H 0.5091 -0.51083 1.47717 0
M  V30 26 H 1.2441 -3.02605 1.16622 0
M  V30 27 H 1.0291 -2.64082 2.89833 0
M  V30 28 H 2.5191 -3.45869 2.34017 0
M  V30 29 N 2.9562 -1.48159 -0.537278 0
M  V30 30 C 3.9192 -1.61665 -1.62472 0
M  V30 31 C 4.9192 -0.490395 -1.5314 0
M  V30 32 O 6.1092 -0.755998 -1.5694 0
M  V30 33 C 3.2412 -1.57997 -3.02076 0
M  V30 34 H 4.4342 -2.58621 -1.51839 0
M  V30 35 H 1.9872 -1.36647 -0.758771 0
M  V30 36 H 2.7222 -0.624913 -3.18222 0
M  V30 37 H 2.5072 -2.39755 -3.10258 0
M  V30 38 H 3.9972 -1.70627 -3.81151 0
M  V30 39 N 4.4343 0.785586 -1.36625 0
M  V30 40 C 5.3973 1.87999 -1.31107 0
M  V30 41 C 6.3973 1.59316 -0.217959 0
M  V30 42 O 7.5873 1.67656 -0.472977 0
M  V30 43 C 4.7193 3.24861 -1.03334 0
M  V30 44 H 5.9123 1.94307 -2.2844 0
M  V30 45 H 3.4653 0.983813 -1.21453 0
M  V30 46 H 4.2003 3.24235 -0.0647432 0
M  V30 47 H 3.9853 3.4707 -1.82441 0
M  V30 48 H 5.4753 4.04929 -1.02088 0
M  V30 49 N 5.9124 1.20967 1.01018 0
M  V30 50 C 6.8754 0.965918 2.07853 0
M  V30 51 C 7.8754 -0.0610545 1.60684 0
M  V30 52 O 9.0654 0.175681 1.73312 0
M  V30 53 C 6.1974 0.455513 3.37843 0
M  V30 54 H 7.3904 1.91365 2.3091 0
M  V30 55 H 4.9434 1.02594 1.17916 0
M  V30 56 H 5.6784 -0.497381 3.20463 0
M  V30 57 H 5.4634 1.19622 3.73407 0
M  V30 58 H 6.9534 0.304667 4.16487 0
M  V30 59 N 7.3905 -1.2043 1.01659 0
M  V30 60 C 8.3225 -2.22626 0.544988 0
M  V30 61 C 9.3355 -1.58479 -0.372609 0
M  V30 62 O 10.5245 -1.77679 -0.170958 0
M  V30 63 C 7.6245 -3.38141 -0.22663 0
M  V30 64 C 6.7975 -4.31877 0.692876 0
M  V30 65 C 5.8565 -5.26191 -0.0311616 0
M  V30 66 O 4.8825 -5.6612 0.591343 0
M  V30 67 N 6.0845 -5.65618 -1.30601 0
M  V30 68 H 8.8495 -2.63716 1.42388 0
M  V30 69 H 6.4105 -1.34971 0.894116 0
M  V30 70 H 8.4025 -3.98239 -0.72024 0
M  V30 71 H 6.9725 -2.95943 -1.00681 0
M  V30 72 H 6.1925 -3.69746 1.36679 0
M  V30 73 H 7.4805 -4.91426 1.31824 0
M  V30 74 H 6.8785 -5.3519 -1.83269 0
M  V30 75 H 5.4355 -6.28025 -1.74435 0
M  V30 76 N 8.8686 -0.792821 -1.36206 0
M  V30 77 C 10.0936 -0.377701 -2.03932 0
M  V30 78 C 10.5186 0.998947 -1.59382 0
M  V30 79 O 9.8766 1.64421 -0.763903 0
M  V30 80 C 9.9246 -0.453635 -3.57735 0
M  V30 81 O 9.0286 0.538151 -4.08874 0
M  V30 82 H 8.3696 -0.159855 -0.644471 0
M  V30 83 H 10.8996 -1.07488 -1.7409 0
M  V30 84 H 10.9096 -0.318464 -4.06755 0
M  V30 85 H 9.5846 -1.45784 -3.89512 0
M  V30 86 H 8.1616 0.364359 -3.71116 0
M  V30 87 N 10.3467 1.47872 -0.545128 0
M  V30 88 C 11.7627 1.5829 -0.204032 0
M  V30 89 C 11.9627 1.54529 1.29317 0
M  V30 90 O 11.0187 1.44232 2.07252 0
M  V30 91 C 12.3317 2.89304 -0.819987 0
M  V30 92 C 13.8797 3.02864 -0.790105 0
M  V30 93 C 14.3547 4.3656 -1.38491 0
M  V30 94 N 15.8457 4.43165 -1.34755 0
M  V30 95 C 16.5807 5.45153 -1.77753 0
M  V30 96 N 16.0767 6.54016 -2.2855 0
M  V30 97 N 17.8697 5.36125 -1.68897 0
M  V30 98 H 10.0207 1.4856 -1.51802 0
M  V30 99 H 12.2837 0.706305 -0.632327 0
M  V30 100 H 11.9897 2.97757 -1.87173 0
M  V30 101 H 11.8637 3.75957 -0.305915 0
M  V30 102 H 14.2507 2.94014 0.252913 0
M  V30 103 H 14.3317 2.17782 -1.34181 0
M  V30 104 H 13.9757 4.46164 -2.42693 0
M  V30 105 H 13.9057 5.20353 -0.808754 0
M  V30 106 H 16.3967 3.65083 -0.975855 0
M  V30 107 H 16.7097 7.27994 -2.59314 0
M  V30 108 H 15.0547 6.54938 -2.32553 0
M  V30 109 H 18.2457 4.49975 -1.28998 0
M  V30 110 H 18.4187 6.15472 -2.02726 0
M  V30 111 N 11.8248 0.280983 1.55075 0
M  V30 112 C 13.0708 -0.33461 2.00021 0
M  V30 113 C 13.4038 -1.55063 1.16915 0
M  V30 114 O 12.6788 -1.93006 0.240646 0
M  V30 115 C 12.9618 -0.711007 3.53011 0
M  V30 116 C 12.8148 0.512766 4.46868 0
M  V30 117 C 14.1338 -1.54522 4.12081 0
M  V30 118 H 11.2528 -0.120147 0.727141 0
M  V30 119 H 13.8948 0.389097 1.85973 0
M  V30 120 H 12.0448 -1.32761 3.65112 0
M  V30 121 H 13.7168 1.15131 4.46702 0
M  V30 122 H 11.9598 1.14975 4.18286 0
M  V30 123 H 12.6308 0.205556 5.51617 0
M  V30 124 H 15.1068 -1.02442 4.03293 0
M  V30 125 H 13.9828 -1.77739 5.19327 0
M  V30 126 H 14.2438 -2.52813 3.62682 0
M  V30 127 N 13.3029 -1.57598 0.00835791 0
M  V30 128 C 14.5489 -1.91211 -0.675732 0
M  V30 129 C 14.8819 -0.883139 -1.72958 0
M  V30 130 O 14.1569 0.097016 -1.94258 0
M  V30 131 C 14.4399 -3.35379 -1.31123 0
M  V30 132 C 14.2929 -4.48999 -0.268356 0
M  V30 133 C 15.6119 -3.7912 -2.23508 0
M  V30 134 H 12.7309 -0.695374 -0.244179 0
M  V30 135 H 15.3729 -1.89901 0.0613655 0
M  V30 136 H 13.5229 -3.36626 -1.93946 0
M  V30 137 H 15.1949 -4.59887 0.360844 0
M  V30 138 H 13.4379 -4.31873 0.408482 0
M  V30 139 H 14.1089 -5.46851 -0.752218 0
M  V30 140 H 16.5849 -3.79477 -1.70693 0
M  V30 141 H 15.4609 -4.80729 -2.64936 0
M  V30 142 H 15.7219 -3.13455 -3.11766 0
M  V30 143 N 14.781 0.264519 -1.55364 0
M  V30 144 C 16.197 0.61215 -1.47394 0
M  V30 145 C 16.397 1.89134 -0.695018 0
M  V30 146 O 15.453 2.51563 -0.217275 0
M  V30 147 C 16.766 0.731235 -2.91674 0
M  V30 148 C 18.314 0.82473 -3.01939 0
M  V30 149 C 18.789 0.975522 -4.4749 0
M  V30 150 N 20.28 1.04083 -4.51354 0
M  V30 151 C 21.015 1.17646 -5.61201 0
M  V30 152 N 20.511 1.27874 -6.80896 0
M  V30 153 N 22.304 1.20823 -5.48961 0
M  V30 154 H 14.455 -0.575456 -2.04456 0
M  V30 155 H 16.718 -0.196099 -0.927496 0
M  V30 156 H 16.424 -0.138392 -3.51428 0
M  V30 157 H 16.298 1.60883 -3.41169 0
M  V30 158 H 18.685 1.68482 -2.42276 0
M  V30 159 H 18.766 -0.0776479 -2.55682 0
M  V30 160 H 18.41 0.120058 -5.07758 0
M  V30 161 H 18.34 1.89268 -4.91412 0
M  V30 162 H 20.831 0.973846 -3.65136 0
M  V30 163 H 21.144 1.38081 -7.60364 0
M  V30 164 H 19.489 1.24863 -6.83692 0
M  V30 165 H 22.68 1.12469 -4.54388 0
M  V30 166 H 22.853 1.31049 -6.3461 0
M  V30 167 N 16.2591 1.48442 0.529413 0
M  V30 168 C 17.5051 1.5672 1.28711 0
M  V30 169 C 17.8381 0.2406 1.92704 0
M  V30 170 O 17.1131 -0.753454 1.79313 0
M  V30 171 C 17.3961 2.70587 2.37603 0
M  V30 172 C 17.2491 4.12953 1.78297 0
M  V30 173 C 18.5681 2.80212 3.39366 0
M  V30 174 H 15.6871 0.570474 0.466613 0
M  V30 175 H 18.3291 1.80617 0.589706 0
M  V30 176 H 16.4791 2.50342 2.97088 0
M  V30 177 H 18.1511 4.44639 1.22858 0
M  V30 178 H 16.3941 4.19927 1.0883 0
M  V30 179 H 17.0651 4.88448 2.57144 0
M  V30 180 H 19.5411 2.98553 2.89836 0
M  V30 181 H 18.4171 3.61611 4.12951 0
M  V30 182 H 18.6781 1.88393 3.99951 0
M  V30 183 N 17.7372 -0.778329 1.37039 0
M  V30 184 C 18.6672 -1.90546 1.34962 0
M  V30 185 C 19.6482 -1.68681 0.219274 0
M  V30 186 O 20.8332 -1.89634 0.418624 0
M  V30 187 C 17.9632 -3.27734 1.14925 0
M  V30 188 C 16.9172 -3.64147 2.24902 0
M  V30 189 C 16.2432 -4.99806 1.89996 0
M  V30 190 C 17.5432 -3.71579 3.67051 0
M  V30 191 H 19.2372 -1.92541 2.29277 0
M  V30 192 H 16.7832 -0.924948 1.10366 0
M  V30 193 H 18.7362 -4.06215 1.12104 0
M  V30 194 H 17.4602 -3.26154 0.170631 0
M  V30 195 H 16.1192 -2.8797 2.26868 0
M  V30 196 H 15.7672 -4.94759 0.906796 0
M  V30 197 H 15.4672 -5.25139 2.63634 0
M  V30 198 H 16.9912 -5.80694 1.88749 0
M  V30 199 H 18.4052 -4.40227 3.67251 0
M  V30 200 H 16.8022 -4.08405 4.39688 0
M  V30 201 H 17.8722 -2.72404 4.01154 0
M  V30 202 N 19.2153 -1.21501 -1.00376 0
M  V30 203 C 20.4403 -1.05977 -1.78279 0
M  V30 204 C 20.8653 0.385994 -1.84097 0
M  V30 205 O 20.2233 1.27849 -1.28547 0
M  V30 206 C 20.2713 -1.66302 -3.19963 0
M  V30 207 O 19.3753 -0.909333 -4.0225 0
M  V30 208 H 18.7163 -0.372906 -0.549397 0
M  V30 209 H 21.2463 -1.6107 -1.26165 0
M  V30 210 H 21.2563 -1.70574 -3.70632 0
M  V30 211 H 19.9313 -2.71515 -3.15043 0
M  V30 212 H 18.5083 -0.941795 -3.60811 0
M  V30 213 N 20.6934 1.19889 -1.02296 0
M  V30 214 C 21.6264 2.21639 -0.543282 0
M  V30 215 C 22.6044 1.57275 0.412698 0
M  V30 216 O 23.7884 1.85568 0.331198 0
M  V30 217 C 20.9154 3.38057 0.208571 0
M  V30 218 C 19.9614 4.20751 -0.697933 0
M  V30 219 S 20.7944 4.89529 -2.17075 0
M  V30 220 C 21.9504 6.09363 -1.42923 0
M  V30 221 H 22.1834 2.61984 -1.40541 0
M  V30 222 H 19.7164 1.30041 -0.832387 0
M  V30 223 H 21.6744 4.05539 0.63624 0
M  V30 224 H 20.3354 2.96159 1.04635 0
M  V30 225 H 19.5284 5.03862 -0.117831 0
M  V30 226 H 19.1304 3.58556 -1.06366 0
M  V30 227 H 21.4224 6.73742 -0.712637 0
M  V30 228 H 22.3654 6.71845 -2.23673 0
M  V30 229 H 22.7734 5.56798 -0.929327 0
M  V30 230 N 22.1715 0.800033 1.35784 0
M  V30 231 C 23.3965 0.388511 2.03729 0
M  V30 232 C 23.8215 -0.990481 1.5991 0
M  V30 233 O 23.1795 -1.64013 0.772612 0
M  V30 234 C 23.2275 0.4726 3.5749 0
M  V30 235 O 22.3315 -0.51646 4.09153 0
M  V30 236 H 21.6725 0.163271 0.643614 0
M  V30 237 H 24.2025 1.0841 1.73518 0
M  V30 238 H 24.2125 0.34003 4.06581 0
M  V30 239 H 22.8875 1.47848 3.88734 0
M  V30 240 H 21.4645 -0.344673 3.71304 0
M  V30 241 N 23.6496 -1.47581 0.552962 0
M  V30 242 C 25.0656 -1.5818 0.212424 0
M  V30 243 C 25.2656 -1.55213 -1.28496 0
M  V30 244 O 24.3216 -1.45329 -2.06484 0
M  V30 245 C 25.6346 -2.88865 0.835318 0
M  V30 246 C 27.1826 -3.0244 0.806156 0
M  V30 247 C 27.6576 -4.35819 1.40804 0
M  V30 248 N 29.1486 -4.42444 1.37103 0
M  V30 249 C 29.8836 -5.44202 1.80641 0
M  V30 250 N 29.3796 -6.52795 2.32015 0
M  V30 251 N 31.1726 -5.35222 1.71738 0
M  V30 252 H 23.3236 -1.47753 1.52587 0
M  V30 253 H 25.5866 -0.702941 0.636064 0
M  V30 254 H 25.2926 -2.9676 1.88749 0
M  V30 255 H 25.1666 -3.7579 0.325848 0
M  V30 256 H 27.5536 -2.94144 -0.237317 0
M  V30 257 H 27.6346 -2.17068 1.35334 0
M  V30 258 H 27.2786 -4.44871 2.45056 0
M  V30 259 H 27.2086 -5.19916 0.836338 0
M  V30 260 H 29.6996 -3.6456 0.995202 0
M  V30 261 H 30.0126 -7.26609 2.63171 0
M  V30 262 H 28.3576 -6.53696 2.36023 0
M  V30 263 H 31.5486 -4.49284 1.31382 0
M  V30 264 H 31.7216 -6.14389 2.05987 0
M  V30 265 N 25.1277 -0.289203 -1.54924 0
M  V30 266 C 26.3527 0.329299 -2.04769 0
M  V30 267 C 26.7777 1.4763 -1.16564 0
M  V30 268 O 26.1357 1.80527 -0.167186 0
M  V30 269 C 26.1837 0.774438 -3.52186 0
M  V30 270 O 25.2877 1.88038 -3.67036 0
M  V30 271 H 24.6287 0.0659259 -0.660719 0
M  V30 272 H 27.1587 -0.42761 -2.00082 0
M  V30 273 H 27.1687 1.06642 -3.93816 0
M  V30 274 H 25.8437 -0.0646707 -4.1585 0
M  V30 275 H 24.4207 1.58985 -3.3731 0
M  V30 276 N 26.6058 1.57591 -0.0167156 0
M  V30 277 C 27.5688 2.08393 0.954204 0
M  V30 278 C 28.5688 0.996531 1.26198 0
M  V30 279 O 29.7588 1.25858 1.20438 0
M  V30 280 C 26.8908 2.5394 2.27436 0
M  V30 281 H 28.0838 2.95455 0.514451 0
M  V30 282 H 25.6368 1.54582 0.231089 0
M  V30 283 H 26.3718 1.70171 2.76066 0
M  V30 284 H 26.1568 3.33371 2.06412 0
M  V30 285 H 27.6468 2.93512 2.97053 0
M  V30 286 N 28.0839 -0.256276 1.55502 0
M  V30 287 C 29.3329 -0.983486 1.76098 0
M  V30 288 C 29.6459 -1.86837 0.578896 0
M  V30 289 O 30.8519 -2.63163 0.667648 0
M  V30 290 C 29.3079 -1.79868 3.1173 0
M  V30 291 C 28.9159 -0.961648 4.37557 0
M  V30 292 C 30.6599 -2.51919 3.41668 0
M  V30 293 C 28.5669 -1.77219 5.64223 0
M  V30 294 H 27.4969 -0.370936 0.656447 0
M  V30 295 H 30.1479 -0.238492 1.81944 0
M  V30 296 H 28.5299 -2.58527 2.99966 0
M  V30 297 H 29.7039 -0.218048 4.60284 0
M  V30 298 H 28.0189 -0.354913 4.14885 0
M  V30 299 H 30.6159 -3.12998 4.33516 0
M  V30 300 H 30.9589 -3.23059 2.62562 0
M  V30 301 H 31.4919 -1.80278 3.54605 0
M  V30 302 H 28.2309 -1.10471 6.46124 0
M  V30 303 H 27.7509 -2.49132 5.45613 0
M  V30 304 H 29.4299 -2.34169 6.03137 0
M  V30 305 N 29.562 -1.4872 -0.521534 0
M  V30 306 C 30.79 -1.60843 -1.30142 0
M  V30 307 C 31.205 -0.271897 -1.86832 0
M  V30 308 O 30.562 0.739969 -1.66825 0
M  V30 309 C 30.613 -2.66155 -2.4463 0
M  V30 310 O 30.334 -3.94623 -1.90275 0
M  V30 311 C 31.835 -2.88795 -3.36322 0
M  V30 312 H 29.055 -0.542075 -0.395468 0
M  V30 313 H 31.599 -1.94609 -0.628285 0
M  V30 314 H 29.754 -2.35224 -3.07812 0
M  V30 315 H 30.168 -4.52468 -2.65279 0
M  V30 316 H 31.642 -3.66264 -4.12983 0
M  V30 317 H 32.119 -1.97934 -3.9207 0
M  V30 318 H 32.725 -3.21063 -2.78924 0
M  V30 319 N 31.0401 0.771051 -1.3745 0
M  V30 320 C 32.0031 1.86598 -1.33093 0
M  V30 321 C 33.0031 1.59076 -0.234845 0
M  V30 322 O 34.1931 1.67145 -0.490732 0
M  V30 323 C 31.3251 3.23747 -1.06773 0
M  V30 324 H 32.5181 1.91873 -2.30488 0
M  V30 325 H 30.0711 0.970876 -1.2249 0
M  V30 326 H 30.8061 3.24148 -0.099129 0
M  V30 327 H 30.5911 3.45115 -1.86112 0
M  V30 328 H 32.0811 4.03824 -1.06377 0
M  V30 329 N 32.5182 1.22032 0.997298 0
M  V30 330 C 33.7672 1.03637 1.73038 0
M  V30 331 C 34.0802 -0.429475 1.90827 0
M  V30 332 O 35.2862 -0.732995 2.61418 0
M  V30 333 C 33.7422 1.80582 3.11317 0
M  V30 334 C 33.3502 3.31387 3.01474 0
M  V30 335 C 35.0942 1.70621 3.88701 0
M  V30 336 C 33.0012 4.00791 4.3488 0
M  V30 337 H 31.9312 0.384179 0.648785 0
M  V30 338 H 34.5822 1.4584 1.11368 0
M  V30 339 H 32.9642 1.31175 3.73643 0
M  V30 340 H 34.1382 3.88155 2.4834 0
M  V30 341 H 32.4532 3.41976 2.37575 0
M  V30 342 H 35.0502 2.19799 4.87434 0
M  V30 343 H 35.3932 0.665823 4.10941 0
M  V30 344 H 35.9262 2.17547 3.33044 0
M  V30 345 H 32.6652 5.05064 4.1784 0
M  V30 346 H 32.1852 3.48811 4.87945 0
M  V30 347 H 33.8642 4.06139 5.03647 0
M  V30 348 N 33.9963 -1.19345 1.0293 0
M  V30 349 C 34.9593 -2.20793 0.615069 0
M  V30 350 C 35.9593 -1.57553 -0.321533 0
M  V30 351 O 37.1493 -1.73862 -0.108483 0
M  V30 352 C 34.2813 -3.40754 -0.0999222 0
M  V30 353 H 35.4743 -2.58955 1.51269 0
M  V30 354 H 33.0273 -1.3303 0.820534 0
M  V30 355 H 33.7623 -3.0811 -1.01187 0
M  V30 356 H 33.5473 -3.87889 0.57309 0
M  V30 357 H 35.0373 -4.15898 -0.376645 0
M  V30 358 N 35.4744 -0.807222 -1.35358 0
M  V30 359 C 36.7024 -0.400377 -2.02989 0
M  V30 360 C 37.1174 0.988859 -1.60832 0
M  V30 361 O 36.4744 1.63729 -0.806175 0
M  V30 362 C 36.5254 -0.474867 -3.58368 0
M  V30 363 O 36.2464 -1.80933 -3.98992 0
M  V30 364 C 37.7474 -0.0609112 -4.43258 0
M  V30 365 H 34.9674 -0.162587 -0.651004 0
M  V30 366 H 37.5114 -1.09102 -1.72965 0
M  V30 367 H 35.6664 0.167534 -3.87038 0
M  V30 368 H 36.0804 -1.77256 -4.9364 0
M  V30 369 H 37.5544 -0.164145 -5.51756 0
M  V30 370 H 38.0314 0.993831 -4.27808 0
M  V30 371 H 38.6374 -0.676492 -4.19885 0
M  V30 372 N 36.9525 1.47285 -0.560781 0
M  V30 373 C 38.1775 2.07359 -0.0410566 0
M  V30 374 C 38.6025 1.41017 1.24483 0
M  V30 375 O 37.9605 0.486368 1.74654 0
M  V30 376 C 38.0085 3.6035 0.134123 0
M  V30 377 O 37.1125 3.94681 1.19587 0
M  V30 378 H 36.4535 0.661887 -0.0529291 0
M  V30 379 H 38.9835 1.89252 -0.777482 0
M  V30 380 H 38.9935 4.0652 0.347207 0
M  V30 381 H 37.6685 4.08034 -0.805047 0
M  V30 382 H 36.2455 3.60251 0.962987 0
M  V30 383 N 38.4306 0.297415 1.54768 0
M  V30 384 C 39.6766 -0.313376 2.00364 0
M  V30 385 C 40.0096 -1.53815 1.18553 0
M  V30 386 O 39.2846 -1.92739 0.261103 0
M  V30 387 C 39.5676 -0.673525 3.53745 0
M  V30 388 C 39.4206 0.560133 4.46299 0
M  V30 389 C 40.7396 -1.50143 4.13697 0
M  V30 390 H 37.8586 -0.112428 0.728374 0
M  V30 391 H 40.5006 0.4088 1.8555 0
M  V30 392 H 38.6506 -1.28881 3.665 0
M  V30 393 H 40.3226 1.19863 4.45455 0
M  V30 394 H 38.5656 1.19405 4.17043 0
M  V30 395 H 39.2366 0.26405 5.51368 0
M  V30 396 H 41.7126 -0.981588 4.04356 0
M  V30 397 H 40.5886 -1.72221 5.21182 0
M  V30 398 H 40.8496 -2.48952 3.65343 0
M  V30 399 N 39.9087 -1.5758 0.0250728 0
M  V30 400 C 41.1487 -1.93497 -0.65865 0
M  V30 401 C 41.5127 -0.901409 -1.69525 0
M  V30 402 O 42.7137 -1.14664 -2.43116 0
M  V30 403 C 40.9847 -3.34352 -1.26267 0
M  V30 404 S 42.5437 -3.92191 -1.96803 0
M  V30 405 H 39.3617 -0.67709 -0.216958 0
M  V30 406 H 41.9637 -1.95303 0.0877692 0
M  V30 407 H 40.6677 -4.07395 -0.495741 0
M  V30 408 H 40.1987 -3.3598 -2.04648 0
M  V30 409 H 42.2137 -3.75298 -3.24601 0
M  V30 410 N 41.3868 0.248026 -1.55636 0
M  V30 411 C 42.3368 1.30994 -1.86614 0
M  V30 412 C 43.3208 1.43543 -0.726918 0
M  V30 413 O 44.5128 1.46804 -0.988818 0
M  V30 414 C 41.6418 2.6656 -2.16335 0
M  V30 415 C 40.7278 2.58019 -3.36581 0
M  V30 416 N 41.1188 2.1911 -4.55878 0
M  V30 417 C 39.4168 2.89035 -3.39669 0
M  V30 418 C 40.1178 2.21174 -5.38012 0
M  V30 419 N 39.0938 2.60632 -4.77045 0
M  V30 420 H 42.8958 0.999583 -2.76379 0
M  V30 421 H 40.4098 0.456652 -1.55848 0
M  V30 422 H 42.4068 3.43194 -2.36692 0
M  V30 423 H 41.0668 2.98463 -1.27867 0
M  V30 424 H 42.0778 1.90672 -4.81523 0
M  V30 425 H 38.7548 3.25485 -2.61469 0
M  V30 426 H 40.1448 1.9344 -6.43452 0
M  V30 427 N 42.8649 1.48995 0.513639 0
M  V30 428 C 44.1129 1.57531 1.26604 0
M  V30 429 C 44.4339 0.258236 1.93283 0
M  V30 430 O 43.7039 -0.721502 1.8213 0
M  V30 431 H 42.2839 0.580387 0.470276 0
M  V30 432 H 44.9459 1.85552 0.596373 0
M  V30 433 H 44.0419 2.36486 2.03669 0
M  V30 434 N 44.343 -0.763751 1.37857 0
M  V30 435 C 45.754 -1.3405 1.29952 0
M  V30 436 C 46.105 -1.96138 -0.0492898 0
M  V30 437 O 45.23 -1.94372 -0.951239 0
M  V30 438 C 45.825 -2.43729 2.35333 0
M  V30 439 C 44.384 -2.97151 2.31037 0
M  V30 440 C 43.531 -1.70438 2.18738 0
M  V30 441 H 46.482 -0.563396 1.48363 0
M  V30 442 H 46.503 -3.23412 2.00462 0
M  V30 443 H 46.015 -1.9851 3.33489 0
M  V30 444 H 44.116 -3.46724 1.3643 0
M  V30 445 H 44.229 -3.52221 3.24772 0
M  V30 446 H 42.593 -1.93673 1.65418 0
M  V30 447 H 43.376 -1.27312 3.18821 0
M  V30 448 N 45.8211 -1.22559 -0.990812 0
M  V30 449 C 47.2321 -1.04791 -1.54518 0
M  V30 450 C 47.5831 0.387998 -1.92325 0
M  V30 451 O 46.7081 1.27328 -1.74976 0
M  V30 452 C 47.3031 -1.896 -2.80779 0
M  V30 453 C 45.8621 -1.76124 -3.32652 0
M  V30 454 C 45.0091 -1.8594 -2.05722 0
M  V30 455 H 47.9601 -1.36374 -0.811662 0
M  V30 456 H 47.9811 -1.41464 -3.53225 0
M  V30 457 H 47.4931 -2.94101 -2.53231 0
M  V30 458 H 45.5941 -0.743643 -3.65104 0
M  V30 459 H 45.7071 -2.58913 -4.03114 0
M  V30 460 H 44.0711 -1.29403 -2.19379 0
M  V30 461 H 44.8541 -2.91976 -1.80568 0
M  V30 462 N 47.2992 1.18797 -1.03562 0
M  V30 463 C 48.5392 1.90346 -0.744832 0
M  V30 464 C 48.9032 1.78231 0.713972 0
M  V30 465 O 50.1042 2.44441 1.11813 0
M  V30 466 C 48.3752 3.36942 -1.19184 0
M  V30 467 S 49.9342 4.26638 -1.02593 0
M  V30 468 H 46.7522 0.657343 -0.270963 0
M  V30 469 H 49.3542 1.43579 -1.32685 0
M  V30 470 H 48.0582 3.43287 -2.24905 0
M  V30 471 H 47.5892 3.88745 -0.603397 0
M  V30 472 H 49.6042 4.96164 0.0596033 0
M  V30 473 N 48.7773 0.814389 1.34928 0
M  V30 474 C 50.1933 0.499084 1.51596 0
M  V30 475 C 50.3933 -0.978319 1.76157 0
M  V30 476 O 49.4493 -1.76309 1.80752 0
M  V30 477 C 50.7623 1.35121 2.68631 0
M  V30 478 C 52.3103 1.34746 2.82511 0
M  V30 479 C 52.7853 2.18388 4.0258 0
M  V30 480 N 54.2763 2.15966 4.09772 0
M  V30 481 C 55.0113 2.77437 5.01813 0
M  V30 482 N 54.5073 3.47866 5.99134 0
M  V30 483 N 56.3003 2.67037 4.94619 0
M  V30 484 H 48.4513 1.7711 1.17243 0
M  V30 485 H 50.7143 0.754256 0.574284 0
M  V30 486 H 50.4203 2.40001 2.57085 0
M  V30 487 H 50.2943 1.00991 3.63429 0
M  V30 488 H 52.6813 0.30648 2.93504 0
M  V30 489 H 52.7623 1.72869 1.88547 0
M  V30 490 H 52.4063 3.2253 3.92347 0
M  V30 491 H 52.3363 1.77621 4.9574 0
M  V30 492 H 54.8273 1.64729 3.40107 0
M  V30 493 H 55.1403 3.92038 6.65977 0
M  V30 494 H 53.4853 3.51972 5.99284 0
M  V30 495 H 56.6763 2.11597 4.17546 0
M  V30 496 H 56.8493 3.15232 5.66156 0
M  V30 497 N 50.2554 -1.46986 0.568584 0
M  V30 498 C 51.1874 -2.28233 -0.210337 0
M  V30 499 C 52.2004 -1.37682 -0.868767 0
M  V30 500 O 53.3894 -1.62406 -0.740705 0
M  V30 501 C 50.4894 -3.12293 -1.3163 0
M  V30 502 C 49.6624 -4.30878 -0.7525 0
M  V30 503 C 48.7214 -4.96445 -1.74439 0
M  V30 504 O 47.7474 -5.54482 -1.286 0
M  V30 505 N 48.9494 -4.92171 -3.07812 0
M  V30 506 H 51.7144 -2.95723 0.486648 0
M  V30 507 H 49.2754 -1.56742 0.405409 0
M  V30 508 H 51.2674 -3.53022 -1.97883 0
M  V30 509 H 49.8374 -2.46971 -1.91636 0
M  V30 510 H 49.0574 -3.94104 0.0871128 0
M  V30 511 H 50.3454 -5.07558 -0.35536 0
M  V30 512 H 49.7434 -4.46239 -3.47688 0
M  V30 513 H 48.3004 -5.36884 -3.69592 0
M  V30 514 N 51.7335 -0.305618 -1.54608 0
M  V30 515 C 52.6635 0.561482 -2.26649 0
M  V30 516 C 53.6445 1.13415 -1.26772 0
M  V30 517 O 54.8295 1.16262 -1.55553 0
M  V30 518 C 51.9595 1.73122 -3.01075 0
M  V30 519 C 50.9135 1.2887 -4.08138 0
M  V30 520 C 50.2395 2.54396 -4.70305 0
M  V30 521 C 51.5395 0.416578 -5.20636 0
M  V30 522 H 53.2335 -0.0393902 -2.99374 0
M  V30 523 H 50.7795 -0.020385 -1.43986 0
M  V30 524 H 52.7325 2.34396 -3.50195 0
M  V30 525 H 51.4565 2.3584 -2.25936 0
M  V30 526 H 50.1155 0.698991 -3.59875 0
M  V30 527 H 49.7635 3.15439 -3.918 0
M  V30 528 H 49.4635 2.25486 -5.42614 0
M  V30 529 H 50.9875 3.16464 -5.2219 0
M  V30 530 H 52.4015 0.935116 -5.65622 0
M  V30 531 H 50.7985 0.221046 -5.99693 0
M  V30 532 H 51.8685 -0.557162 -4.81688 0
M  V30 533 N 53.2116 1.57565 -0.0334293 0
M  V30 534 C 54.1616 2.06978 0.956237 0
M  V30 535 C 55.1456 0.971193 1.28283 0
M  V30 536 O 56.3376 1.23471 1.26822 0
M  V30 537 C 53.4666 2.60393 2.23719 0
M  V30 538 C 52.5526 3.7719 1.93877 0
M  V30 539 N 52.9436 4.87639 1.34321 0
M  V30 540 C 51.2416 3.85758 2.23845 0
M  V30 541 C 51.9426 5.68825 1.21709 0
M  V30 542 N 50.9186 5.1587 1.71404 0
M  V30 543 H 54.7206 2.89773 0.490815 0
M  V30 544 H 52.2346 1.61492 0.171478 0
M  V30 545 H 54.2316 2.94088 2.95496 0
M  V30 546 H 52.8916 1.79031 2.70884 0
M  V30 547 H 53.9026 5.07803 1.01767 0
M  V30 548 H 50.5796 3.1531 2.73653 0
M  V30 549 H 51.9696 6.67631 0.75621 0
M  V30 550 N 54.6897 -0.239769 1.55765 0
M  V30 551 C 55.6397 -1.30002 1.87306 0
M  V30 552 C 56.6237 -1.43156 0.73452 0
M  V30 553 O 57.8157 -1.46277 0.99659 0
M  V30 554 C 54.9447 -2.65409 2.17745 0
M  V30 555 C 54.0307 -2.56231 3.37945 0
M  V30 556 N 54.4217 -2.16689 4.57033 0
M  V30 557 C 52.7197 -2.87229 3.41197 0
M  V30 558 C 53.4207 -2.18318 5.39177 0
M  V30 559 N 52.3967 -2.58098 4.78421 0
M  V30 560 H 56.1987 -0.984912 2.76906 0
M  V30 561 H 53.7127 -0.448381 1.56087 0
M  V30 562 H 55.7097 -3.41934 2.38509 0
M  V30 563 H 54.3697 -2.97781 1.29448 0
M  V30 564 H 55.3807 -1.88116 4.82528 0
M  V30 565 H 52.0577 -3.24094 2.63191 0
M  V30 566 H 53.4477 -1.90025 6.44469 0
M  V30 567 N 56.1678 -1.49265 -0.50573 0
M  V30 568 C 57.1308 -1.65075 -1.59006 0
M  V30 569 C 58.1308 -0.522768 -1.52065 0
M  V30 570 O 59.3208 -0.789117 -1.55302 0
M  V30 571 C 56.4528 -1.64369 -2.98656 0
M  V30 572 H 57.6458 -2.61784 -1.46319 0
M  V30 573 H 55.1988 -1.38226 -0.729616 0
M  V30 574 H 55.9338 -0.692272 -3.16825 0
M  V30 575 H 55.7188 -2.46282 -3.05103 0
M  V30 576 H 57.2088 -1.78674 -3.77446 0
M  V30 577 N 57.6459 0.756429 -1.3826 0
M  V30 578 C 58.5759 1.88374 -1.37976 0
M  V30 579 C 59.5569 1.68311 -0.246082 0
M  V30 580 O 60.7419 1.88944 -0.44874 0
M  V30 581 C 57.8719 3.25864 -1.20125 0
M  V30 582 C 56.8259 3.60523 -2.30666 0
M  V30 583 C 56.1519 4.9672 -1.97923 0
M  V30 584 C 57.4519 3.65692 -3.72916 0
M  V30 585 H 59.1459 1.88869 -2.32312 0
M  V30 586 H 56.6919 0.907272 -1.11824 0
M  V30 587 H 58.6449 4.0438 -1.18552 0
M  V30 588 H 57.3689 3.25841 -0.222498 0
M  V30 589 H 56.0279 2.84324 -2.3142 0
M  V30 590 H 55.6759 4.93253 -0.985393 0
M  V30 591 H 55.3759 5.20878 -2.71955 0
M  V30 592 H 56.8999 5.77618 -1.97964 0
M  V30 593 H 58.3139 4.34328 -3.74208 0
M  V30 594 H 56.7109 4.01358 -4.4613 0
M  V30 595 H 57.7809 2.65987 -4.05436 0
M  V30 596 N 59.124 1.23083 0.984299 0
M  V30 597 C 60.057 0.951786 2.07404 0
M  V30 598 C 61.035 -0.10848 1.62238 0
M  V30 599 O 62.219 0.0249467 1.88483 0
M  V30 600 C 59.346 0.433142 3.35919 0
M  V30 601 C 58.392 1.47941 4.0002 0
M  V30 602 S 59.225 3.05556 4.39768 0
M  V30 603 C 60.381 2.55351 5.71442 0
M  V30 604 H 60.614 1.87456 2.30754 0
M  V30 605 H 58.147 1.06284 1.11996 0
M  V30 606 H 60.105 0.140506 4.10259 0
M  V30 607 H 58.766 -0.468656 3.10584 0
M  V30 608 H 57.959 1.06658 4.92585 0
M  V30 609 H 57.561 1.7212 3.3204 0
M  V30 610 H 59.853 1.97128 6.48187 0
M  V30 611 H 60.796 3.46441 6.17563 0
M  V30 612 H 61.204 1.96339 5.29255 0
M  V30 613 N 60.6021 -1.18246 1.0419 0
M  V30 614 C 62.0131 -1.69914 0.773698 0
M  V30 615 C 62.3641 -1.83085 -0.705297 0
M  V30 616 O 61.4891 -1.51123 -1.5489 0
M  V30 617 C 62.0841 -3.08619 1.39784 0
M  V30 618 C 60.6431 -3.57494 1.17792 0
M  V30 619 C 59.7901 -2.34013 1.48773 0
M  V30 620 H 62.7411 -1.02904 1.20816 0
M  V30 621 H 62.7621 -3.71958 0.801714 0
M  V30 622 H 62.2741 -2.99001 2.47426 0
M  V30 623 H 60.3751 -3.72406 0.120295 0
M  V30 624 H 60.4881 -4.40852 1.87581 0
M  V30 625 H 58.8521 -2.37986 0.907463 0
M  V30 626 H 59.6351 -2.27013 2.57527 0
M  V30 627 N 62.0802 -0.821533 -1.34494 0
M  V30 628 C 63.0302 -0.214793 -2.26986 0
M  V30 629 C 64.0142 0.620125 -1.4847 0
M  V30 630 O 65.2062 0.474933 -1.70509 0
M  V30 631 C 62.3352 0.623566 -3.37589 0
M  V30 632 C 61.4212 -0.221904 -4.23519 0
M  V30 633 N 61.8122 -1.29223 -4.89014 0
M  V30 634 C 60.1102 -0.00600922 -4.46 0
M  V30 635 C 60.8112 -1.80965 -5.52835 0
M  V30 636 N 59.7872 -1.11376 -5.32068 0
M  V30 637 H 63.5892 -1.03354 -2.75128 0
M  V30 638 H 61.1032 -0.6642 -1.48196 0
M  V30 639 H 63.1002 1.0744 -4.02818 0
M  V30 640 H 61.7602 1.44049 -2.90998 0
M  V30 641 H 62.7712 -1.67502 -4.90065 0
M  V30 642 H 59.4482 0.77886 -4.10171 0
M  V30 643 H 60.8382 -2.70502 -6.15043 0
M  V30 644 N 63.5583 1.46682 -0.576371 0
M  V30 645 C 64.8063 2.02013 -0.0594163 0
M  V30 646 C 65.1273 1.45101 1.30271 0
M  V30 647 O 64.3973 0.633317 1.8538 0
M  V30 648 H 62.9773 0.746759 -0.0189745 0
M  V30 649 H 65.6393 1.79862 -0.750717 0
M  V30 650 H 64.7353 3.12097 0.014345 0
M  V30 651 N 65.0364 0.313813 1.54444 0
M  V30 652 C 65.9834 -0.55655 2.23989 0
M  V30 653 C 66.9534 -1.11943 1.22711 0
M  V30 654 O 68.1384 -1.16158 1.51367 0
M  V30 655 C 65.2784 -1.71635 2.99392 0
M  V30 656 C 64.3914 -1.18364 4.15468 0
M  V30 657 C 63.5264 -2.30834 4.78424 0
M  V30 658 C 62.5654 -1.74762 5.86622 0
M  V30 659 N 61.7024 -2.80855 6.43479 0
M  V30 660 H 66.5424 0.0430893 2.97969 0
M  V30 661 H 64.0794 0.0330359 1.47063 0
M  V30 662 H 66.0374 -2.39868 3.41349 0
M  V30 663 H 64.6674 -2.28742 2.27765 0
M  V30 664 H 63.7194 -0.393163 3.78363 0
M  V30 665 H 65.0314 -0.733262 4.93381 0
M  V30 666 H 64.1854 -3.0699 5.23299 0
M  V30 667 H 62.9244 -2.79204 3.99871 0
M  V30 668 H 61.9294 -0.970995 5.41158 0
M  V30 669 H 63.1544 -1.2728 6.67066 0
M  V30 670 H 61.1004 -3.28535 5.67804 0
M  V30 671 H 61.0174 -2.40351 7.16776 0
M  V30 672 H 62.2854 -3.5687 6.93011 0
M  V30 673 N 66.5145 -1.57545 0.0417849 0
M  V30 674 C 67.7625 -1.91937 -0.632829 0
M  V30 675 C 68.0835 -0.919978 -1.71934 0
M  V30 676 O 67.3535 0.0366064 -1.95866 0
M  V30 677 H 65.9335 -0.708493 -0.236742 0
M  V30 678 H 68.5955 -1.9468 0.0925745 0
M  V30 679 H 67.6915 -2.92912 -1.07746 0
M  V30 680 N 67.9926 0.231505 -1.5589 0
M  V30 681 C 69.2406 0.955461 -1.78088 0
M  V30 682 C 69.5616 1.85262 -0.608533 0
M  V30 683 O 68.8316 1.92277 0.375035 0
M  V30 684 H 67.4116 0.355787 -0.656829 0
M  V30 685 H 70.0736 0.245751 -1.93344 0
M  V30 686 H 69.1696 1.56814 -2.69844 0
M  V30 687 N 69.4707 1.49531 0.497807 0
M  V30 688 C 70.8867 1.36365 0.829266 0
M  V30 689 C 71.0867 0.399184 1.97506 0
M  V30 690 O 70.1427 -0.167977 2.51941 0
M  V30 691 C 71.4557 2.77153 1.16647 0
M  V30 692 C 73.0037 2.85877 1.27449 0
M  V30 693 C 73.4787 4.2744 1.64497 0
M  V30 694 N 74.9697 4.30265 1.7154 0
M  V30 695 C 75.7047 5.3677 2.01656 0
M  V30 696 N 75.2007 6.53516 2.29976 0
M  V30 697 N 76.9937 5.24189 2.02934 0
M  V30 698 H 69.1447 2.10831 -0.257703 0
M  V30 699 H 71.4077 0.946534 -0.0527091 0
M  V30 700 H 71.1137 3.49442 0.397872 0
M  V30 701 H 70.9877 3.12722 2.10915 0
M  V30 702 H 73.3747 2.13824 2.0338 0
M  V30 703 H 73.4557 2.53887 0.312244 0
M  V30 704 H 73.0997 5.00021 0.891151 0
M  V30 705 H 73.0297 4.56896 2.61827 0
M  V30 706 H 75.5207 3.4607 1.51802 0
M  V30 707 H 75.8337 7.30506 2.52153 0
M  V30 708 H 74.1787 6.56737 2.27425 0
M  V30 709 H 77.3697 4.31988 1.80289 0
M  V30 710 H 77.5427 6.07286 2.26071 0
M  V30 711 N 70.9488 -0.749086 1.3866 0
M  V30 712 C 72.1738 -1.54344 1.38538 0
M  V30 713 C 72.5988 -1.88088 -0.0216655 0
M  V30 714 O 71.9568 -1.50899 -1.00494 0
M  V30 715 C 72.0048 -2.8164 2.25192 0
M  V30 716 O 71.1088 -3.7698 1.67212 0
M  V30 717 H 70.4498 -0.466654 0.472367 0
M  V30 718 H 72.9798 -0.925355 1.82478 0
M  V30 719 H 72.9898 -3.30519 2.3921 0
M  V30 720 H 71.6648 -2.56411 3.27454 0
M  V30 721 H 70.2418 -3.35699 1.6236 0
M  V30 722 N 72.4269 -1.23603 -0.977757 0
M  V30 723 C 73.6519 -1.09735 -1.75991 0
M  V30 724 C 74.0769 0.346858 -1.84874 0
M  V30 725 O 73.4349 1.25093 -1.3123 0
M  V30 726 C 73.4829 -1.73051 -3.16363 0
M  V30 727 O 72.5869 -0.994452 -4.0023 0
M  V30 728 H 71.9279 -0.384476 -0.541364 0
M  V30 729 H 74.4579 -1.6371 -1.2272 0
M  V30 730 H 74.4679 -1.78398 -3.66931 0
M  V30 731 H 73.1429 -2.78137 -3.09213 0
M  V30 732 H 71.7199 -1.01812 -3.58732 0
M  V30 733 N 73.905 1.17692 -1.04816 0
M  V30 734 C 75.151 1.88137 -0.75711 0
M  V30 735 C 75.484 1.80604 0.713841 0
M  V30 736 O 74.759 1.21146 1.52164 0
M  V30 737 C 75.042 3.38318 -1.2334 0
M  V30 738 C 74.895 3.54622 -2.76701 0
M  V30 739 C 76.214 4.32214 -0.829415 0
M  V30 740 H 73.333 0.683163 -0.27651 0
M  V30 741 H 75.975 1.38424 -1.30149 0
M  V30 742 H 74.125 3.80787 -0.770286 0
M  V30 743 H 75.797 3.21194 -3.31107 0
M  V30 744 H 74.04 2.97026 -3.16161 0
M  V30 745 H 74.711 4.60028 -3.05088 0
M  V30 746 H 77.187 3.97565 -1.22805 0
M  V30 747 H 76.063 5.35838 -1.19033 0
M  V30 748 H 76.324 4.41294 0.266891 0
M  V30 749 N 75.3831 0.828654 1.34056 0
M  V30 750 C 76.6081 0.431637 2.02859 0
M  V30 751 C 77.0331 -0.956339 1.61975 0
M  V30 752 O 76.3911 -1.62338 0.807228 0
M  V30 753 C 76.4391 0.548323 3.56407 0
M  V30 754 O 75.5431 -0.429556 4.10157 0
M  V30 755 H 74.8841 0.176886 0.640006 0
M  V30 756 H 77.4141 1.12066 1.71179 0
M  V30 757 H 77.4241 0.426196 4.05768 0
M  V30 758 H 76.0991 1.5606 3.8551 0
M  V30 759 H 74.6761 -0.265836 3.71951 0
M  V30 760 N 76.8612 -1.46375 0.584142 0
M  V30 761 C 78.1092 -2.01978 0.0701287 0
M  V30 762 C 78.4302 -1.4579 -1.295 0
M  V30 763 O 77.7002 -0.64314 -1.85042 0
M  V30 764 H 76.2802 -0.746648 0.0229345 0
M  V30 765 H 78.9422 -1.79461 0.760245 0
M  V30 766 H 78.0382 -3.121 0.0022064 0
M  V30 767 N 78.3393 -0.321999 -1.54275 0
M  V30 768 C 79.5883 0.281931 -1.9972 0
M  V30 769 C 79.9013 1.53369 -1.21397 0
M  V30 770 O 81.1073 2.21352 -1.57211 0
M  V30 771 C 79.5633 0.5529 -3.55628 0
M  V30 772 C 79.1713 -0.681721 -4.42783 0
M  V30 773 C 80.9153 1.11687 -4.09544 0
M  V30 774 C 78.8223 -0.382742 -5.9016 0
M  V30 775 H 77.7523 0.109124 -0.746062 0
M  V30 776 H 80.4033 -0.43398 -1.78294 0
M  V30 777 H 78.7853 1.32896 -3.73035 0
M  V30 778 H 79.9593 -1.45723 -4.37151 0
M  V30 779 H 78.2743 -1.1658 -3.99748 0
M  V30 780 H 80.8713 1.35515 -5.17242 0
M  V30 781 H 81.2143 2.06575 -3.61431 0
M  V30 782 H 81.7473 0.402032 -3.95763 0
M  V30 783 H 78.4863 -1.30076 -6.42464 0
M  V30 784 H 78.0063 0.355094 -5.98748 0
M  V30 785 H 79.6853 0.00800157 -6.47 0
M  V30 786 N 79.8174 1.5752 -0.0501392 0
M  V30 787 C 81.0634 1.92936 0.624798 0
M  V30 788 C 81.3964 0.928685 1.70555 0
M  V30 789 O 80.6714 -0.0454779 1.94447 0
M  V30 790 C 80.9544 3.38737 1.22185 0
M  V30 791 C 80.8074 4.49552 0.149218 0
M  V30 792 C 82.1264 3.84913 2.13378 0
M  V30 793 H 79.2454 0.701604 0.225657 0
M  V30 794 H 81.8874 1.89671 -0.111693 0
M  V30 795 H 80.0374 3.4165 1.84953 0
M  V30 796 H 81.7094 4.58768 -0.482648 0
M  V30 797 H 79.9524 4.30638 -0.522841 0
M  V30 798 H 80.6234 5.48653 0.606966 0
M  V30 799 H 83.0994 3.8387 1.60572 0
M  V30 800 H 81.9754 4.87584 2.52097 0
M  V30 801 H 82.2364 3.21611 3.03346 0
M  V30 802 N 81.2955 -0.223234 1.56011 0
M  V30 803 C 82.2585 -1.26014 1.9145 0
M  V30 804 C 83.2585 -1.3989 0.792937 0
M  V30 805 O 84.4485 -1.38184 1.0607 0
M  V30 806 C 81.5805 -2.63422 2.16383 0
M  V30 807 H 82.7735 -0.95796 2.84189 0
M  V30 808 H 80.3265 -0.463576 1.49267 0
M  V30 809 H 81.0615 -2.98741 1.2619 0
M  V30 810 H 80.8465 -2.54728 2.98088 0
M  V30 811 H 82.3365 -3.38249 2.44903 0
M  V30 812 N 82.7736 -1.49793 -0.48987 0
M  V30 813 C 84.0016 -1.63568 -1.26701 0
M  V30 814 C 84.4166 -0.311465 -1.86213 0
M  V30 815 O 83.7736 0.704416 -1.68357 0
M  V30 816 C 83.8246 -2.71284 -2.38929 0
M  V30 817 O 83.5456 -3.9857 -1.81861 0
M  V30 818 C 85.0466 -2.95864 -3.3012 0
M  V30 819 H 82.2666 -0.550342 -0.383881 0
M  V30 820 H 84.8106 -1.95898 -0.586864 0
M  V30 821 H 82.9656 -2.417 -3.02753 0
M  V30 822 H 83.3796 -4.57993 -2.55622 0
M  V30 823 H 84.8536 -3.74941 -4.05121 0
M  V30 824 H 85.3306 -2.06206 -3.87783 0
M  V30 825 H 85.9366 -3.26907 -2.72051 0
M  V30 826 N 84.2517 0.741722 -1.39055 0
M  V30 827 C 85.4977 1.50336 -1.36113 0
M  V30 828 C 85.8307 1.94148 0.0450796 0
M  V30 829 O 85.1057 1.66301 1.00868 0
M  V30 830 C 85.3887 2.74773 -2.32749 0
M  V30 831 C 85.2417 2.37023 -3.82283 0
M  V30 832 C 86.5607 3.76846 -2.27322 0
M  V30 833 H 83.6797 0.545351 -0.495743 0
M  V30 834 H 86.3217 0.848624 -1.69995 0
M  V30 835 H 84.4717 3.30639 -2.03986 0
M  V30 836 H 86.1437 1.8684 -4.21768 0
M  V30 837 H 84.3867 1.69334 -3.99385 0
M  V30 838 H 85.0577 3.26104 -4.45376 0
M  V30 839 H 87.5337 3.30548 -2.5274 0
M  V30 840 H 86.4097 4.6159 -2.97028 0
M  V30 841 H 86.6707 4.23286 -1.27599 0
M  V30 842 N 85.7298 1.2412 0.971189 0
M  V30 843 C 86.9768 1.07881 1.71371 0
M  V30 844 C 87.3048 -0.382901 1.90694 0
M  V30 845 O 86.5598 -1.29945 1.46331 0
M  V30 846 C 86.8588 1.75983 3.11071 0
M  V30 847 C 86.5248 3.25909 3.11599 0
M  V30 848 C 85.1868 3.66813 3.11451 0
M  V30 849 C 87.5388 4.21771 3.062 0
M  V30 850 C 84.8668 5.02021 3.03631 0
M  V30 851 C 87.2188 5.56982 2.99923 0
M  V30 852 C 85.8828 5.97237 2.98102 0
M  V30 853 H 85.1528 0.394764 0.62709 0
M  V30 854 H 87.7998 1.54176 1.13587 0
M  V30 855 H 86.1048 1.22072 3.72298 0
M  V30 856 H 87.8018 1.60887 3.6731 0
M  V30 857 H 84.3918 2.93353 3.12477 0
M  V30 858 H 88.5758 3.91172 3.05447 0
M  V30 859 H 83.8318 5.32411 3.0058 0
M  V30 860 H 88.0058 6.30969 2.94704 0
M  V30 861 H 85.6328 7.01967 2.91798 0
M  V30 862 N 87.2079 -1.17134 1.05439 0
M  V30 863 C 88.4559 -1.87085 0.764429 0
M  V30 864 C 88.7769 -1.81584 -0.710787 0
M  V30 865 O 88.0469 -1.24349 -1.51374 0
M  V30 866 H 86.6269 -0.692627 0.279779 0
M  V30 867 H 89.2889 -1.42087 1.33406 0
M  V30 868 H 88.3849 -2.92759 1.0816 0
M  V30 869 N 88.686 -0.835752 -1.33615 0
M  V30 870 C 89.649 -0.272 -2.2758 0
M  V30 871 C 90.649 0.557487 -1.50827 0
M  V30 872 O 91.839 0.37173 -1.70188 0
M  V30 873 C 88.971 0.617173 -3.35267 0
M  V30 874 H 90.164 -1.10111 -2.78954 0
M  V30 875 H 87.717 -0.608594 -1.43965 0
M  V30 876 H 88.452 1.46884 -2.89129 0
M  V30 877 H 88.237 0.0237066 -3.92093 0
M  V30 878 H 89.727 1.005 -4.05326 0
M  V30 879 N 90.1641 1.46063 -0.591896 0
M  V30 880 C 91.3921 2.06717 -0.0868936 0
M  V30 881 C 91.8071 1.43916 1.22203 0
M  V30 882 O 91.1641 0.547698 1.74088 0
M  V30 883 C 91.2151 3.6142 0.0758725 0
M  V30 884 O 90.9361 4.21874 -1.18126 0
M  V30 885 C 92.4371 4.39025 0.61416 0
M  V30 886 H 89.6571 0.668162 -0.0616518 0
M  V30 887 H 92.2011 1.8755 -0.815175 0
M  V30 888 H 90.3561 3.79983 0.754413 0
M  V30 889 H 90.7701 5.14861 -1.00092 0
M  V30 890 H 92.2441 5.4783 0.677193 0
M  V30 891 H 92.7211 4.07708 1.63312 0
M  V30 892 H 93.3271 4.2529 -0.0298142 0
M  V30 893 N 91.6422 0.330177 1.54103 0
M  V30 894 C 92.8902 -0.269871 2.0029 0
M  V30 895 C 93.2112 -1.52133 1.21986 0
M  V30 896 O 92.4812 -1.93212 0.323438 0
M  V30 897 H 91.0612 -0.10271 0.739905 0
M  V30 898 H 93.7232 0.448249 1.89675 0
M  V30 899 H 92.8192 -0.52166 3.07709 0
M  V30 900 N 93.1203 -1.57491 0.0584922 0
M  V30 901 C 94.3673 -1.92978 -0.613648 0
M  V30 902 C 94.6953 -0.937461 -1.70417 0
M  V30 903 O 93.9503 0.049078 -1.95638 0
M  V30 904 C 94.2493 -3.3513 -1.24188 0
M  V30 905 C 93.9153 -4.50037 -0.278826 0
M  V30 906 C 92.5773 -4.81198 -0.0138447 0
M  V30 907 C 94.9293 -5.19807 0.380777 0
M  V30 908 C 92.2573 -5.79473 0.918052 0
M  V30 909 C 94.6093 -6.19079 1.30091 0
M  V30 910 C 93.2733 -6.48665 1.57449 0
M  V30 911 H 92.5433 -0.706157 -0.22455 0
M  V30 912 H 95.1903 -1.91082 0.126533 0
M  V30 913 H 93.4953 -3.33429 -2.05749 0
M  V30 914 H 95.1923 -3.59871 -1.769 0
M  V30 915 H 91.7823 -4.25726 -0.495539 0
M  V30 916 H 95.9663 -4.95939 0.189158 0
M  V30 917 H 91.2223 -6.00727 1.1374 0
M  V30 918 H 95.3963 -6.7225 1.81804 0
M  V30 919 H 93.0233 -7.24628 2.29822 0
M  V30 920 N 94.5984 0.214957 -1.56127 0
M  V30 921 C 95.5284 1.2695 -1.95974 0
M  V30 922 C 96.5094 1.48539 -0.828868 0
M  V30 923 O 97.6944 1.60611 -1.09168 0
M  V30 924 C 94.8244 2.61794 -2.28214 0
M  V30 925 C 93.7784 2.54851 -3.43853 0
M  V30 926 C 93.1044 3.93785 -3.61715 0
M  V30 927 C 94.4044 2.09065 -4.78632 0
M  V30 928 H 96.0984 0.93846 -2.84312 0
M  V30 929 H 93.6444 0.449996 -1.36788 0
M  V30 930 H 95.5974 3.35731 -2.54682 0
M  V30 931 H 94.3214 2.96599 -1.36736 0
M  V30 932 H 92.9804 1.8337 -3.17444 0
M  V30 933 H 92.6284 4.25908 -2.67602 0
M  V30 934 H 92.3284 3.90019 -4.39498 0
M  V30 935 H 93.8524 4.69374 -3.90539 0
M  V30 936 H 95.2664 2.7275 -5.04262 0
M  V30 937 H 93.6634 2.16346 -5.59745 0
M  V30 938 H 94.7334 1.04315 -4.73547 0
M  V30 939 N 96.0765 1.50051 0.48192 0
M  V30 940 C 97.3245 1.60181 1.23234 0
M  V30 941 C 97.6455 0.299176 1.92691 0
M  V30 942 O 96.9155 -0.682708 1.83619 0
M  V30 943 H 95.4955 0.590232 0.457859 0
M  V30 944 H 98.1575 1.86775 0.556881 0
M  V30 945 H 97.2535 2.40753 1.98607 0
M  V30 946 N 97.5546 -0.734337 1.39446 0
M  V30 947 C 98.9706 -1.03997 1.21065 0
M  V30 948 C 99.1706 -2.01369 0.0727019 0
M  V30 949 O 98.2266 -2.45856 -0.575426 0
M  V30 950 C 99.5396 -1.60163 2.54496 0
M  V30 951 C 101.088 -1.7224 2.61347 0
M  V30 952 C 101.563 -2.31814 3.95002 0
M  V30 953 N 103.054 -2.39223 3.96644 0
M  V30 954 C 103.789 -2.86258 4.96834 0
M  V30 955 N 103.285 -3.33184 6.07421 0
M  V30 956 N 105.078 -2.85473 4.84213 0
M  V30 957 H 97.2286 -0.0885624 2.12215 0
M  V30 958 H 99.4916 -0.10191 0.942506 0
M  V30 959 H 99.1976 -0.960811 3.38321 0
M  V30 960 H 99.0716 -2.5896 2.74262 0
M  V30 961 H 101.459 -2.35443 1.77906 0
M  V30 962 H 101.54 -0.720939 2.4543 0
M  V30 963 H 101.184 -1.69238 4.78875 0
M  V30 964 H 101.114 -3.32638 4.08239 0
M  V30 965 H 103.605 -2.06057 3.16779 0
M  V30 966 H 103.918 -3.67586 6.7978 0
M  V30 967 H 102.263 -3.31191 6.11013 0
M  V30 968 H 105.454 -2.48136 3.96921 0
M  V30 969 H 105.627 -3.21814 5.62441 0
M  V30 970 N 99.0327 -1.24633 -0.964593 0
M  V30 971 C 100.263 -1.11339 -1.74032 0
M  V30 972 C 100.671 0.336593 -1.86182 0
M  V30 973 O 100.014 1.24389 -1.35178 0
M  V30 974 C 100.076 -1.68284 -3.1768 0
M  V30 975 C 99.7397 -3.17196 -3.28992 0
M  V30 976 C 100.737 -4.14308 -3.14078 0
M  V30 977 C 98.4217 -3.57215 -3.53133 0
M  V30 978 C 100.416 -5.4942 -3.23135 0
M  V30 979 C 98.1027 -4.92468 -3.61827 0
M  V30 980 C 99.1007 -5.8838 -3.46841 0
M  V30 981 O 98.7887 -7.21173 -3.55197 0
M  V30 982 H 98.5207 -0.389551 -0.552472 0
M  V30 983 H 101.075 -1.65282 -1.21946 0
M  V30 984 H 99.3047 -1.08777 -3.71085 0
M  V30 985 H 100.994 -1.50234 -3.77074 0
M  V30 986 H 101.76 -3.84731 -2.95308 0
M  V30 987 H 97.6387 -2.83063 -3.63863 0
M  V30 988 H 101.183 -6.24263 -3.11355 0
M  V30 989 H 97.0797 -5.21714 -3.80111 0
M  V30 990 H 97.8477 -7.29135 -3.71892 0
M  V30 991 N 100.511 1.16574 -1.06058 0
M  V30 992 C 101.757 1.87324 -0.777022 0
M  V30 993 C 102.09 1.81351 0.694645 0
M  V30 994 O 101.365 1.22753 1.50871 0
M  V30 995 C 101.648 3.36991 -1.26922 0
M  V30 996 C 101.501 3.51667 -2.80447 0
M  V30 997 C 102.82 4.3131 -0.87521 0
M  V30 998 H 99.9388 0.680191 -0.28374 0
M  V30 999 H 102.581 1.37036 -1.3161 0
M  V30 1000 H 100.731 3.79949 -0.81063 0
M  V30 1001 H 102.403 3.17664 -3.34495 0
M  V30 1002 H 100.646 2.93656 -3.19294 0
M  V30 1003 H 101.317 4.56766 -3.0995 0
M  V30 1004 H 103.793 3.9624 -1.27014 0
M  V30 1005 H 102.669 5.34545 -1.2471 0
M  V30 1006 H 102.93 4.41552 0.220071 0
M  V30 1007 N 101.989 0.842826 1.3317 0
M  V30 1008 C 103.235 0.441099 1.97945 0
M  V30 1009 C 103.568 -0.998024 1.66593 0
M  V30 1010 O 102.843 -1.69839 0.947898 0
M  V30 1011 C 103.126 0.666841 3.53872 0
M  V30 1012 C 102.979 2.15352 3.94897 0
M  V30 1013 C 104.298 0.115544 4.39948 0
M  V30 1014 H 101.417 0.161739 0.719034 0
M  V30 1015 H 104.059 1.05907 1.57746 0
M  V30 1016 H 102.209 0.140828 3.88245 0
M  V30 1017 H 103.881 2.7447 3.70761 0
M  V30 1018 H 102.124 2.63653 3.44484 0
M  V30 1019 H 102.795 2.26221 5.03516 0
M  V30 1020 H 105.271 0.565213 4.12243 0
M  V30 1021 H 104.147 0.303152 5.48062 0
M  V30 1022 H 104.408 -0.980935 4.3108 0
M  V30 1023 N 103.467 -1.45747 0.599634 0
M  V30 1024 C 104.415 -2.322 -0.136426 0
M  V30 1025 C 105.409 -1.45497 -0.867583 0
M  V30 1026 O 106.615 -1.62027 -0.78405 0
M  V30 1027 H 102.99 -0.749368 -0.0628588 0
M  V30 1028 H 104.961 -2.92072 0.611281 0
M  V30 1029 C 103.71 -3.28974 -1.12567 0
M  V30 1030 H 103.033 -3.9568 -0.572484 0
M  V30 1031 H 104.473 -3.92212 -1.61077 0
M  V30 1032 C 102.932 -2.55561 -2.19523 0
M  V30 1033 O 103.462 -2.33111 -3.27143 0
M  V30 1034 N 101.668 -2.15832 -1.94589 0
M  V30 1035 H 101.215 -2.3429 -1.07078 0
M  V30 1036 H 101.173 -1.67034 -2.66359 0
M  V30 1037 N 104.945 -0.338344 -1.53925 0
M  V30 1038 C 105.895 0.536712 -2.21593 0
M  V30 1039 C 106.879 1.07015 -1.20153 0
M  V30 1040 O 108.071 1.00471 -1.45721 0
M  V30 1041 C 105.2 1.68977 -2.98834 0
M  V30 1042 C 104.286 1.17052 -4.07627 0
M  V30 1043 N 104.677 0.372085 -5.0443 0
M  V30 1044 C 102.975 1.44789 -4.21844 0
M  V30 1045 C 103.676 0.0909171 -5.81629 0
M  V30 1046 N 102.652 0.681131 -5.39316 0
M  V30 1047 H 106.454 -0.0804298 -2.9379 0
M  V30 1048 H 103.968 -0.144943 -1.61752 0
M  V30 1049 H 105.965 2.32857 -3.45808 0
M  V30 1050 H 104.625 2.31024 -2.28162 0
M  V30 1051 H 105.636 0.0136217 -5.17898 0
M  V30 1052 H 102.313 2.07313 -3.62391 0
M  V30 1053 H 103.703 -0.552817 -6.69622 0
M  V30 1054 N 106.423 1.57458 -0.0668435 0
M  V30 1055 C 107.353 2.15468 0.899764 0
M  V30 1056 C 108.334 1.08042 1.31381 0
M  V30 1057 O 109.519 1.36054 1.38574 0
M  V30 1058 C 106.649 2.71232 2.16911 0
M  V30 1059 C 105.603 3.83781 1.89463 0
M  V30 1060 C 104.929 4.26127 3.22986 0
M  V30 1061 C 106.229 5.08238 1.20381 0
M  V30 1062 H 107.923 2.96488 0.416529 0
M  V30 1063 H 105.469 1.4262 0.198908 0
M  V30 1064 H 107.422 3.10458 2.84945 0
M  V30 1065 H 106.146 1.87426 2.67468 0
M  V30 1066 H 104.805 3.45051 1.23836 0
M  V30 1067 H 104.453 3.39249 3.71374 0
M  V30 1068 H 104.153 5.01993 3.05413 0
M  V30 1069 H 105.677 4.67966 3.92225 0
M  V30 1070 H 107.091 5.44811 1.78475 0
M  V30 1071 H 105.488 5.89349 1.13083 0
M  V30 1072 H 106.558 4.84558 0.182153 0
M  V30 1073 N 107.901 -0.206675 1.56239 0
M  V30 1074 C 109.149 -0.927007 1.79586 0
M  V30 1075 C 109.47 -1.8427 0.637929 0
M  V30 1076 O 108.74 -1.92849 -0.344398 0
M  V30 1077 H 107.32 -0.345292 0.662407 0
M  V30 1078 H 109.982 -0.21496 1.93711 0
M  V30 1079 H 109.078 -1.52501 2.72305 0
M  V30 1080 N 109.379 -1.50304 -0.473955 0
M  V30 1081 C 110.795 -1.37667 -0.807466 0
M  V30 1082 C 110.995 -0.430555 -1.96846 0
M  V30 1083 O 110.051 0.127874 -2.52176 0
M  V30 1084 C 111.364 -2.78974 -1.12223 0
M  V30 1085 C 112.912 -2.87868 -1.22885 0
M  V30 1086 C 113.387 -4.30003 -1.57676 0
M  V30 1087 N 114.878 -4.3294 -1.64673 0
M  V30 1088 C 115.613 -5.3991 -1.93091 0
M  V30 1089 N 115.109 -6.57092 -2.1955 0
M  V30 1090 N 116.902 -5.27351 -1.94569 0
M  V30 1091 H 109.053 -2.10394 0.291212 0
M  V30 1092 H 111.316 -0.945575 0.0677609 0
M  V30 1093 H 111.022 -3.50031 -0.342229 0
M  V30 1094 H 110.896 -3.16038 -2.05913 0
M  V30 1095 H 113.283 -2.17032 -1.99953 0
M  V30 1096 H 113.364 -2.54352 -0.271814 0
M  V30 1097 H 113.008 -5.01375 -0.81149 0
M  V30 1098 H 112.938 -4.61004 -2.54525 0
M  V30 1099 H 115.429 -3.48441 -1.46277 0
M  V30 1100 H 115.742 -7.34425 -2.405 0
M  V30 1101 H 114.087 -6.60272 -2.16948 0
M  V30 1102 H 117.278 -4.34801 -1.73394 0
M  V30 1103 H 117.451 -6.10805 -2.16381 0
M  V30 1104 N 110.857 0.726932 -1.39834 0
M  V30 1105 C 111.79 1.8501 -1.33592 0
M  V30 1106 C 112.768 1.61262 -0.208191 0
M  V30 1107 O 113.952 1.84422 -0.389981 0
M  V30 1108 C 111.079 3.21143 -1.07633 0
M  V30 1109 C 110.125 3.63737 -2.22705 0
M  V30 1110 S 110.958 3.72167 -3.85035 0
M  V30 1111 C 112.114 5.11077 -3.61318 0
M  V30 1112 H 112.347 1.90022 -2.28646 0
M  V30 1113 H 109.88 0.892595 -1.25985 0
M  V30 1114 H 111.838 3.99747 -0.933415 0
M  V30 1115 H 110.499 3.13776 -0.142526 0
M  V30 1116 H 109.692 4.62551 -2.00155 0
M  V30 1117 H 109.294 2.9236 -2.33242 0
M  V30 1118 H 111.586 5.97656 -3.19083 0
M  V30 1119 H 112.529 5.38658 -4.59623 0
M  V30 1120 H 112.937 4.81135 -2.95245 0
M  V30 1121 N 112.336 1.25143 0.95797 0
M  V30 1122 C 113.584 1.09476 1.69881 0
M  V30 1123 C 113.905 -0.365502 1.91544 0
M  V30 1124 O 113.175 -1.25985 1.50015 0
M  V30 1125 H 111.755 0.402128 0.629525 0
M  V30 1126 H 114.417 1.57214 1.15194 0
M  V30 1127 H 113.513 1.60046 2.6794 0
M  V30 1128 N 113.814 -1.1601 1.06675 0
M  V30 1129 C 115.039 -1.91068 0.806706 0
M  V30 1130 C 115.464 -1.77112 -0.633485 0
M  V30 1131 O 114.822 -1.09908 -1.44187 0
M  V30 1132 C 114.87 -3.39655 1.21106 0
M  V30 1133 O 113.974 -4.10893 0.352189 0
M  V30 1134 H 113.315 -0.595125 0.294486 0
M  V30 1135 H 115.845 -1.46955 1.42356 0
M  V30 1136 H 115.855 -3.90434 1.18428 0
M  V30 1137 H 114.53 -3.49132 2.26008 0
M  V30 1138 H 113.107 -3.70285 0.440868 0
M  V30 1139 N 115.292 -0.849877 -1.32721 0
M  V30 1140 C 116.224 -0.248332 -2.27851 0
M  V30 1141 C 117.237 0.577218 -1.52224 0
M  V30 1142 O 118.426 0.402489 -1.73903 0
M  V30 1143 C 115.526 0.668107 -3.32249 0
M  V30 1144 C 114.699 -0.120534 -4.37234 0
M  V30 1145 C 113.758 0.720932 -5.21238 0
M  V30 1146 O 112.784 0.156166 -5.68986 0
M  V30 1147 N 113.986 2.03647 -5.43607 0
M  V30 1148 H 116.751 -1.06575 -2.80111 0
M  V30 1149 H 114.312 -0.709395 -1.45531 0
M  V30 1150 H 116.304 1.23627 -3.85355 0
M  V30 1151 H 114.874 1.38621 -2.80184 0
M  V30 1152 H 114.094 -0.870108 -3.84477 0
M  V30 1153 H 115.382 -0.662406 -5.0447 0
M  V30 1154 H 114.78 2.51871 -5.06535 0
M  V30 1155 H 113.337 2.55287 -5.99727 0
M  V30 1156 N 116.77 1.45427 -0.607355 0
M  V30 1157 C 118.016 2.0254 -0.102607 0
M  V30 1158 C 118.349 1.47478 1.26348 0
M  V30 1159 O 117.624 0.64939 1.83339 0
M  V30 1160 C 117.907 3.60044 -0.0634347 0
M  V30 1161 C 117.76 4.2544 -1.46017 0
M  V30 1162 C 119.079 4.35646 0.624514 0
M  V30 1163 H 116.198 0.73598 -0.0387607 0
M  V30 1164 H 118.84 1.73284 -0.779282 0
M  V30 1165 H 116.99 3.85101 0.512808 0
M  V30 1166 H 118.662 4.11569 -2.08347 0
M  V30 1167 H 116.905 3.83849 -2.02094 0
M  V30 1168 H 117.576 5.34342 -1.385 0
M  V30 1169 H 120.052 4.15882 0.134723 0
M  V30 1170 H 118.928 5.45376 0.621028 0
M  V30 1171 H 119.189 4.08501 1.69055 0
M  V30 1172 N 118.248 0.346503 1.53744 0
M  V30 1173 C 119.497 -0.250122 2.00143 0
M  V30 1174 C 119.81 -1.51418 1.23822 0
M  V30 1175 O 121.016 -2.18823 1.60713 0
M  V30 1176 C 119.472 -0.496252 3.56462 0
M  V30 1177 C 119.08 0.752077 4.41642 0
M  V30 1178 C 120.824 -1.05157 4.11269 0
M  V30 1179 C 118.731 0.476583 5.89477 0
M  V30 1180 H 117.661 -0.0972409 0.747703 0
M  V30 1181 H 120.312 0.46229 1.77581 0
M  V30 1182 H 118.694 -1.26944 3.75102 0
M  V30 1183 H 119.868 1.5266 4.34778 0
M  V30 1184 H 118.183 1.22925 3.97842 0
M  V30 1185 H 120.78 -1.27269 5.19333 0
M  V30 1186 H 121.123 -2.00799 3.64672 0
M  V30 1187 H 121.656 -0.339019 3.96353 0
M  V30 1188 H 118.395 1.4028 6.40314 0
M  V30 1189 H 117.915 -0.259794 5.99237 0
M  V30 1190 H 119.594 0.0949315 6.4693 0
M  V30 1191 N 119.726 -1.57421 0.075193 0
M  V30 1192 C 120.975 -1.92794 -0.592731 0
M  V30 1193 C 121.288 -0.957478 -1.70563 0
M  V30 1194 O 122.494 -1.20417 -2.43335 0
M  V30 1195 C 120.95 -3.42495 -1.10569 0
M  V30 1196 C 120.558 -4.47994 -0.0236121 0
M  V30 1197 C 122.302 -3.86864 -1.74748 0
M  V30 1198 C 120.209 -5.88829 -0.550803 0
M  V30 1199 H 119.139 -0.719591 -0.225177 0
M  V30 1200 H 121.79 -1.82902 0.147978 0
M  V30 1201 H 120.172 -3.47471 -1.89947 0
M  V30 1202 H 121.346 -4.54637 0.751099 0
M  V30 1203 H 119.661 -4.13113 0.522159 0
M  V30 1204 H 122.258 -4.8947 -2.15229 0
M  V30 1205 H 122.601 -3.24417 -2.60882 0
M  V30 1206 H 123.134 -3.84504 -1.01986 0
M  V30 1207 H 119.873 -6.54929 0.273457 0
M  V30 1208 H 119.393 -5.85698 -1.29296 0
M  V30 1209 H 121.072 -6.38811 -1.02613 0
M  V30 1210 N 121.204 0.198386 -1.56346 0
M  V30 1211 C 122.615 0.763358 -1.70381 0
M  V30 1212 C 122.966 1.83995 -0.681203 0
M  V30 1213 O 122.091 2.15785 0.16305 0
M  V30 1214 C 122.686 1.39143 -3.08909 0
M  V30 1215 C 121.245 1.90352 -3.2472 0
M  V30 1216 C 120.392 0.772233 -2.6633 0
M  V30 1217 H 123.343 -0.0266377 -1.58678 0
M  V30 1218 H 123.364 2.26076 -3.06055 0
M  V30 1219 H 122.876 0.607638 -3.83314 0
M  V30 1220 H 120.977 2.71461 -2.55225 0
M  V30 1221 H 121.09 2.06757 -4.3219 0
M  V30 1222 H 119.454 1.18566 -2.2542 0
M  V30 1223 H 120.237 0.00073556 -3.433 0
M  V30 1224 N 122.682 1.50554 0.465978 0
M  V30 1225 C 123.912 1.65323 1.23903 0
M  V30 1226 C 124.32 0.338051 1.86155 0
M  V30 1227 O 123.663 -0.690518 1.70228 0
M  V30 1228 C 123.725 2.69048 2.3844 0
M  V30 1229 C 123.389 4.12462 1.96784 0
M  V30 1230 C 124.386 4.98168 1.48745 0
M  V30 1231 C 122.071 4.58407 2.05349 0
M  V30 1232 C 124.065 6.27868 1.0982 0
M  V30 1233 C 121.752 5.88112 1.66035 0
M  V30 1234 C 122.75 6.72668 1.18349 0
M  V30 1235 O 122.438 7.99951 0.795825 0
M  V30 1236 H 122.17 0.558629 0.38067 0
M  V30 1237 H 124.724 1.97561 0.562022 0
M  V30 1238 H 122.954 2.32062 3.09328 0
M  V30 1239 H 124.643 2.72985 3.0039 0
M  V30 1240 H 125.409 4.63885 1.41546 0
M  V30 1241 H 121.288 3.92735 2.41414 0
M  V30 1242 H 124.832 6.93819 0.725293 0
M  V30 1243 H 120.729 6.21914 1.72895 0
M  V30 1244 H 121.497 8.13265 0.924222 0
M  V30 1245 N 124.16 -0.719506 1.40217 0
M  V30 1246 C 125.576 -1.02707 1.22161 0
M  V30 1247 C 125.776 -2.0128 0.0940557 0
M  V30 1248 O 124.832 -2.46452 -0.549318 0
M  V30 1249 C 126.145 -1.57454 2.56181 0
M  V30 1250 C 127.693 -1.69458 2.63159 0
M  V30 1251 C 128.168 -2.27611 3.97438 0
M  V30 1252 N 129.659 -2.35002 3.99159 0
M  V30 1253 C 130.394 -2.80972 4.99842 0
M  V30 1254 N 129.89 -3.26723 6.10921 0
M  V30 1255 N 131.683 -2.80321 4.87213 0
M  V30 1256 H 123.834 -0.0660492 2.12297 0
M  V30 1257 H 126.097 -0.0919077 0.943534 0
M  V30 1258 H 125.803 -0.924873 3.39321 0
M  V30 1259 H 125.677 -2.56036 2.76993 0
M  V30 1260 H 128.064 -2.33543 1.80393 0
M  V30 1261 H 128.145 -0.694867 2.46181 0
M  V30 1262 H 127.789 -1.6415 4.80643 0
M  V30 1263 H 127.719 -3.2829 4.11744 0
M  V30 1264 H 130.21 -2.02685 3.18947 0
M  V30 1265 H 130.523 -3.60355 6.8364 0
M  V30 1266 H 128.868 -3.24692 6.14492 0
M  V30 1267 H 132.059 -2.43912 3.9953 0
M  V30 1268 H 132.232 -3.15831 5.65822 0
M  V30 1269 N 125.638 -1.25649 -0.95132 0
M  V30 1270 C 126.878 -1.11802 -1.71113 0
M  V30 1271 C 127.242 0.334758 -1.89059 0
M  V30 1272 O 128.443 0.595121 -2.62129 0
M  V30 1273 C 126.714 -1.85512 -3.05483 0
M  V30 1274 S 128.273 -1.87597 -3.96677 0
M  V30 1275 H 125.091 -0.399552 -0.588115 0
M  V30 1276 H 127.693 -1.59222 -1.1344 0
M  V30 1277 H 126.397 -2.90299 -2.90094 0
M  V30 1278 H 125.928 -1.38493 -3.68216 0
M  V30 1279 H 127.943 -0.955389 -4.86916 0
M  V30 1280 N 127.117 1.15442 -1.07289 0
M  V30 1281 C 128.394 1.82306 -0.708792 0
M  V30 1282 C 128.774 1.94991 0.808807 0
M  V30 1283 O 128.122 1.50085 1.72298 0
M  V30 1284 C 128.332 3.18695 -1.42247 0
M  V30 1285 C 129.68 3.94341 -1.57417 0
M  V30 1286 O 130.704 3.28247 -1.38319 0
M  V30 1287 O 129.563 5.12839 -1.88834 0
M  V30 1288 H 126.657 0.787628 -0.252132 0
M  V30 1289 H 129.203 1.22559 -1.17377 0
M  V30 1290 H 127.975 3.04557 -2.45684 0
M  V30 1291 H 127.598 3.86128 -0.948223 0
M  V30 1292 N 128.595 0.856903 1.32268 0
M  V30 1293 C 129.542 0.301172 2.28827 0
M  V30 1294 C 130.512 -0.593104 1.5515 0
M  V30 1295 O 131.697 -0.527537 1.83362 0
M  V30 1296 C 128.837 -0.502523 3.41422 0
M  V30 1297 C 127.95 0.417797 4.29975 0
M  V30 1298 C 127.085 -0.398749 5.29701 0
M  V30 1299 C 126.124 0.518827 6.09897 0
M  V30 1300 N 125.261 -0.260674 7.01616 0
M  V30 1301 H 130.101 1.12983 2.75751 0
M  V30 1302 H 127.638 0.568582 1.35667 0
M  V30 1303 H 129.596 -0.984141 4.05426 0
M  V30 1304 H 128.226 -1.29599 2.95642 0
M  V30 1305 H 127.278 1.01781 3.66531 0
M  V30 1306 H 128.59 1.12191 4.86019 0
M  V30 1307 H 127.744 -0.943435 5.9932 0
M  V30 1308 H 126.483 -1.13622 4.7428 0
M  V30 1309 H 125.488 1.07538 5.39181 0
M  V30 1310 H 126.713 1.25495 6.67404 0
M  V30 1311 H 124.659 -0.981198 6.4862 0
M  V30 1312 H 124.576 0.384364 7.55022 0
M  V30 1313 H 125.844 -0.787014 7.75517 0
M  V30 1314 N 130.073 -1.45103 0.615059 0
M  V30 1315 C 131.303 -2.06254 0.119596 0
M  V30 1316 C 131.711 -1.4591 -1.20445 0
M  V30 1317 O 131.054 -0.570384 -1.7462 0
M  V30 1318 C 131.116 -3.59396 -0.0865591 0
M  V30 1319 C 130.78 -4.42116 1.15683 0
M  V30 1320 C 131.777 -4.7662 2.07676 0
M  V30 1321 C 129.462 -4.82749 1.38775 0
M  V30 1322 C 131.456 -5.50622 3.21082 0
M  V30 1323 C 129.143 -5.56504 2.52481 0
M  V30 1324 C 130.141 -5.90358 3.43463 0
M  V30 1325 O 129.829 -6.62615 4.55189 0
M  V30 1326 H 129.561 -0.672423 0.0694512 0
M  V30 1327 H 132.115 -1.87219 0.844885 0
M  V30 1328 H 130.345 -3.76859 -0.866823 0
M  V30 1329 H 132.034 -4.02365 -0.534555 0
M  V30 1330 H 132.8 -4.4578 1.91063 0
M  V30 1331 H 128.679 -4.55829 0.688545 0
M  V30 1332 H 132.223 -5.76965 3.92119 0
M  V30 1333 H 128.12 -5.86759 2.69043 0
M  V30 1334 H 128.888 -6.81071 4.53966 0
M  V30 1335 N 131.551 -0.354651 -1.53558 0
M  V30 1336 C 132.828 0.294281 -1.93374 0
M  V30 1337 C 133.208 1.67313 -1.28723 0
M  V30 1338 O 132.556 2.24179 -0.442247 0
M  V30 1339 C 132.766 0.355445 -3.47185 0
M  V30 1340 C 134.114 0.601007 -4.20325 0
M  V30 1341 O 135.138 0.437106 -3.53508 0
M  V30 1342 O 133.997 0.919322 -5.38712 0
M  V30 1343 H 131.091 0.174033 -0.808481 0
M  V30 1344 H 133.637 -0.406638 -1.64756 0
M  V30 1345 H 132.409 -0.611729 -3.86489 0
M  V30 1346 H 132.032 1.1027 -3.82003 0
M  V30 1347 N 133.029 1.57378 -0.0835403 0
M  V30 1348 C 134.278 1.93106 0.582498 0
M  V30 1349 C 134.591 0.96651 1.70053 0
M  V30 1350 O 135.797 1.21705 2.42693 0
M  V30 1351 C 134.253 3.43076 1.08751 0
M  V30 1352 C 133.861 4.48 -0.000146404 0
M  V30 1353 C 135.605 3.87785 1.72694 0
M  V30 1354 C 133.512 5.89113 0.519568 0
M  V30 1355 H 132.442 0.720775 0.221358 0
M  V30 1356 H 135.093 1.82821 -0.157675 0
M  V30 1357 H 133.475 3.48474 1.88101 0
M  V30 1358 H 134.649 4.54233 -0.775199 0
M  V30 1359 H 132.964 4.1283 -0.54406 0
M  V30 1360 H 135.561 4.90604 2.1263 0
M  V30 1361 H 135.904 3.25796 2.59158 0
M  V30 1362 H 136.437 3.8504 0.999457 0
M  V30 1363 H 133.176 6.54775 -0.308186 0
M  V30 1364 H 132.696 5.86376 1.26188 0
M  V30 1365 H 134.375 6.39346 0.992237 0
M  V30 1366 N 134.507 -0.190092 1.56449 0
M  V30 1367 C 135.44 -1.26375 1.90012 0
M  V30 1368 C 136.418 -1.43705 0.760765 0
M  V30 1369 O 137.602 -1.59014 1.01226 0
M  V30 1370 C 134.729 -2.62962 2.13468 0
M  V30 1371 C 133.775 -2.62474 3.36169 0
M  V30 1372 S 134.608 -2.13412 4.91137 0
M  V30 1373 C 135.764 -3.51812 5.17667 0
M  V30 1374 H 135.997 -0.977181 2.80782 0
M  V30 1375 H 133.53 -0.393814 1.49293 0
M  V30 1376 H 135.488 -3.41583 2.27664 0
M  V30 1377 H 134.149 -2.88828 1.23439 0
M  V30 1378 H 133.342 -3.62918 3.49723 0
M  V30 1379 H 132.944 -1.91937 3.20992 0
M  V30 1380 H 135.236 -4.47706 5.08494 0
M  V30 1381 H 136.179 -3.43148 6.19399 0
M  V30 1382 H 136.587 -3.46956 4.45288 0
M  V30 1383 N 135.985 -1.50799 -0.457987 0
M  V30 1384 C 136.935 -1.67003 -1.55222 0
M  V30 1385 C 137.919 -0.52434 -1.52117 0
M  V30 1386 O 139.111 -0.779345 -1.58919 0
M  V30 1387 C 136.24 -1.77956 -2.93576 0
M  V30 1388 C 135.326 -2.98243 -3.01516 0
M  V30 1389 N 135.717 -4.21732 -2.79241 0
M  V30 1390 C 134.015 -2.97072 -3.32662 0
M  V30 1391 C 134.716 -5.02817 -2.92489 0
M  V30 1392 N 133.692 -4.37038 -3.23262 0
M  V30 1393 H 137.494 -2.60163 -1.36721 0
M  V30 1394 H 135.008 -1.48163 -0.664952 0
M  V30 1395 H 137.005 -1.87671 -3.72271 0
M  V30 1396 H 135.665 -0.859634 -3.13114 0
M  V30 1397 H 136.676 -4.51016 -2.54567 0
M  V30 1398 H 133.353 -2.14631 -3.58106 0
M  V30 1399 H 134.743 -6.11054 -2.79396 0
M  V30 1400 N 137.463 0.71206 -1.40597 0
M  V30 1401 C 138.393 1.83889 -1.43899 0
M  V30 1402 C 139.374 1.67442 -0.299504 0
M  V30 1403 O 140.559 1.87421 -0.508624 0
M  V30 1404 C 137.689 3.21877 -1.30431 0
M  V30 1405 C 136.643 3.53002 -2.42019 0
M  V30 1406 C 135.969 4.90172 -2.13626 0
M  V30 1407 C 137.269 3.53643 -3.84362 0
M  V30 1408 H 138.963 1.81383 -2.38203 0
M  V30 1409 H 136.509 0.871237 -1.14654 0
M  V30 1410 H 138.462 4.00404 -1.31357 0
M  V30 1411 H 137.186 3.24968 -0.326049 0
M  V30 1412 H 135.845 2.76818 -2.40349 0
M  V30 1413 H 135.493 4.89869 -1.14182 0
M  V30 1414 H 135.193 5.11962 -2.88389 0
M  V30 1415 H 136.717 5.71028 -2.1624 0
M  V30 1416 H 138.131 4.22203 -3.87837 0
M  V30 1417 H 136.528 3.86961 -4.58673 0
M  V30 1418 H 137.598 2.52954 -4.13693 0
M  V30 1419 N 138.941 1.26152 0.944643 0
M  V30 1420 C 140.357 1.03189 1.21754 0
M  V30 1421 C 140.557 -0.245112 2.00004 0
M  V30 1422 O 139.613 -0.955176 2.33736 0
M  V30 1423 C 140.926 2.26119 1.98219 0
M  V30 1424 C 142.474 2.30984 2.11224 0
M  V30 1425 C 142.949 3.53597 2.91089 0
M  V30 1426 N 144.44 3.54053 2.98664 0
M  V30 1427 C 145.175 4.45593 3.60881 0
M  V30 1428 N 144.671 5.47416 4.24626 0
M  V30 1429 N 146.464 4.33252 3.58119 0
M  V30 1430 H 138.615 2.08177 0.421437 0
M  V30 1431 H 140.878 0.914723 0.248969 0
M  V30 1432 H 140.584 3.18984 1.48128 0
M  V30 1433 H 140.458 2.3009 2.98895 0
M  V30 1434 H 142.845 1.38635 2.60508 0
M  V30 1435 H 142.926 2.31026 1.09821 0
M  V30 1436 H 142.57 4.46273 2.42493 0
M  V30 1437 H 142.5 3.50802 3.92741 0
M  V30 1438 H 144.991 2.80403 2.53343 0
M  V30 1439 H 145.304 6.13459 4.69987 0
M  V30 1440 H 143.649 5.51278 4.23223 0
M  V30 1441 H 146.84 3.52924 3.0751 0
M  V30 1442 H 147.013 5.04786 4.06319 0
M  V30 1443 N 140.419 -1.14872 1.07899 0
M  V30 1444 C 141.83 -1.67367 0.827363 0
M  V30 1445 C 142.181 -1.85236 -0.646693 0
M  V30 1446 O 141.306 -1.55974 -1.50004 0
M  V30 1447 C 141.901 -3.04016 1.49532 0
M  V30 1448 C 140.46 -3.53566 1.29106 0
M  V30 1449 C 139.607 -2.29161 1.56143 0
M  V30 1450 H 142.558 -0.990083 1.24028 0
M  V30 1451 H 142.579 -3.69219 0.919643 0
M  V30 1452 H 142.091 -2.90978 2.56814 0
M  V30 1453 H 140.192 -3.71835 0.238713 0
M  V30 1454 H 140.305 -4.34661 2.01511 0
M  V30 1455 H 138.669 -2.34978 0.982717 0
M  V30 1456 H 139.452 -2.18705 2.64619 0
M  V30 1457 N 141.898 -0.863906 -1.31812 0
M  V30 1458 C 142.831 -0.259963 -2.26714 0
M  V30 1459 C 143.809 0.607392 -1.50829 0
M  V30 1460 O 144.993 0.562155 -1.79922 0
M  V30 1461 C 142.12 0.632456 -3.32743 0
M  V30 1462 C 141.166 -0.162743 -4.26189 0
M  V30 1463 S 141.999 -1.53726 -5.12961 0
M  V30 1464 C 143.155 -0.650803 -6.22507 0
M  V30 1465 H 143.388 -1.06445 -2.77591 0
M  V30 1466 H 140.921 -0.662071 -1.39485 0
M  V30 1467 H 142.879 1.14167 -3.94305 0
M  V30 1468 H 141.54 1.41083 -2.80632 0
M  V30 1469 H 140.733 0.517366 -5.01338 0
M  V30 1470 H 140.335 -0.60385 -3.69093 0
M  V30 1471 H 142.627 0.141134 -6.77353 0
M  V30 1472 H 143.57 -1.37322 -6.94657 0
M  V30 1473 H 143.978 -0.221041 -5.64067 0
M  V30 1474 N 143.376 1.44774 -0.622745 0
M  V30 1475 C 144.624 2.01721 -0.123655 0
M  V30 1476 C 144.945 1.49172 1.25589 0
M  V30 1477 O 144.215 0.691974 1.83272 0
M  V30 1478 H 142.795 0.745777 -0.0427225 0
M  V30 1479 H 145.457 1.77382 -0.807559 0
M  V30 1480 H 144.553 3.11984 -0.0849534 0
M  V30 1481 N 144.854 0.36279 1.53368 0
M  V30 1482 C 146.131 -0.284021 1.93527 0
M  V30 1483 C 146.511 -1.66628 1.29608 0
M  V30 1484 O 145.859 -2.23942 0.45413 0
M  V30 1485 C 146.069 -0.337028 3.47369 0
M  V30 1486 C 147.417 -0.578708 4.20638 0
M  V30 1487 O 148.441 -0.418352 3.53735 0
M  V30 1488 O 147.3 -0.89074 5.39192 0
M  V30 1489 H 144.394 -0.169743 0.809393 0
M  V30 1490 H 146.94 0.41537 1.64538 0
M  V30 1491 H 145.712 0.632217 3.86159 0
M  V30 1492 H 145.335 -1.08243 3.82582 0
M  V30 1493 N 146.332 -1.57332 0.0918853 0
M  V30 1494 C 147.262 -2.16872 -0.865371 0
M  V30 1495 C 148.243 -1.10118 -1.29646 0
M  V30 1496 O 149.428 -1.38242 -1.36392 0
M  V30 1497 C 146.558 -2.74649 -2.12569 0
M  V30 1498 C 145.512 -3.86747 -1.83333 0
M  V30 1499 C 144.838 -4.31212 -3.16166 0
M  V30 1500 C 146.138 -5.10089 -1.1228 0
M  V30 1501 H 147.832 -2.97114 -0.369307 0
M  V30 1502 H 145.378 -1.42918 -0.176194 0
M  V30 1503 H 147.331 -3.14952 -2.7997 0
M  V30 1504 H 146.055 -1.91657 -2.64452 0
M  V30 1505 H 144.714 -3.46978 -1.18331 0
M  V30 1506 H 144.362 -3.45115 -3.6593 0
M  V30 1507 H 144.062 -5.06788 -2.97388 0
M  V30 1508 H 145.586 -4.74146 -3.84731 0
M  V30 1509 H 147 -5.47582 -1.69785 0
M  V30 1510 H 145.397 -5.91073 -1.03693 0
M  V30 1511 H 146.467 -4.84786 -0.105041 0
M  V30 1512 N 147.81 0.181792 -1.56548 0
M  V30 1513 C 149.058 0.89832 -1.81038 0
M  V30 1514 C 149.379 1.83232 -0.667164 0
M  V30 1515 O 148.649 1.93372 0.313673 0
M  V30 1516 H 147.229 0.33471 -0.667816 0
M  V30 1517 H 149.891 0.184116 -1.94028 0
M  V30 1518 H 148.987 1.4815 -2.74696 0
M  V30 1519 N 149.288 1.51039 0.449983 0
M  V30 1520 C 150.22 1.67617 1.56324 0
M  V30 1521 C 151.233 0.557083 1.52972 0
M  V30 1522 O 152.422 0.830989 1.57977 0
M  V30 1523 C 149.522 1.66402 2.95235 0
M  V30 1524 C 148.695 2.9469 3.23229 0
M  V30 1525 C 147.754 2.85832 4.41799 0
M  V30 1526 O 146.78 3.59785 4.41071 0
M  V30 1527 N 147.982 2.00821 5.44657 0
M  V30 1528 H 150.747 2.63648 1.42512 0
M  V30 1529 H 148.308 1.48767 0.638737 0
M  V30 1530 H 150.3 1.58062 3.72557 0
M  V30 1531 H 148.87 0.780182 3.02708 0
M  V30 1532 H 148.09 3.16996 2.34323 0
M  V30 1533 H 149.378 3.79636 3.38754 0
M  V30 1534 H 148.776 1.40091 5.48079 0
M  V30 1535 H 147.333 1.98368 6.20881 0
M  V30 1536 N 150.766 -0.704594 1.40972 0
M  V30 1537 C 151.696 -1.83124 1.44872 0
M  V30 1538 C 152.677 -1.67281 0.30838 0
M  V30 1539 O 153.862 -1.87149 0.518556 0
M  V30 1540 C 150.992 -3.21181 1.32136 0
M  V30 1541 C 149.946 -3.51714 2.43888 0
M  V30 1542 C 149.272 -4.89032 2.16222 0
M  V30 1543 C 150.572 -3.516 3.86232 0
M  V30 1544 H 152.266 -1.80117 2.39161 0
M  V30 1545 H 149.812 -0.865145 1.15114 0
M  V30 1546 H 151.765 -3.99702 1.33479 0
M  V30 1547 H 150.489 -3.24791 0.343279 0
M  V30 1548 H 149.148 -2.75539 2.41813 0
M  V30 1549 H 148.796 -4.89256 1.16778 0
M  V30 1550 H 148.496 -5.10426 2.911 0
M  V30 1551 H 150.02 -5.69873 2.19265 0
M  V30 1552 H 151.434 -4.2014 3.9007 0
M  V30 1553 H 149.831 -3.84523 4.60719 0
M  V30 1554 H 150.901 -2.50757 4.15029 0
M  V30 1555 N 152.244 -1.26651 -0.937939 0
M  V30 1556 C 153.174 -1.10993 -2.05433 0
M  V30 1557 C 154.155 -0.0142161 -1.70094 0
M  V30 1558 O 155.34 -0.186837 -1.93299 0
M  V30 1559 C 152.47 -0.745561 -3.39203 0
M  V30 1560 C 151.424 -1.79337 -3.88616 0
M  V30 1561 C 150.75 -1.28324 -5.19073 0
M  V30 1562 C 152.05 -3.19553 -4.13138 0
M  V30 1563 H 153.744 -2.0438 -2.1879 0
M  V30 1564 H 151.29 -0.984041 -1.05131 0
M  V30 1565 H 153.243 -0.622888 -4.16771 0
M  V30 1566 H 151.967 0.22401 -3.25831 0
M  V30 1567 H 150.626 -1.90477 -3.13231 0
M  V30 1568 H 150.274 -0.303414 -5.02084 0
M  V30 1569 H 149.974 -1.98369 -5.53103 0
M  V30 1570 H 151.498 -1.1733 -5.99221 0
M  V30 1571 H 152.912 -3.11471 -4.81309 0
M  V30 1572 H 151.309 -3.87218 -4.58457 0
M  V30 1573 H 152.379 -3.65368 -3.18801 0
M  V30 1574 N 153.722 1.14298 -1.08507 0
M  V30 1575 C 154.969 1.85359 -0.815373 0
M  V30 1576 C 155.297 1.83001 0.658865 0
M  V30 1577 O 154.552 1.25655 1.50031 0
M  V30 1578 C 154.851 3.33547 -1.28379 0
M  V30 1579 C 154.517 3.56093 -2.76602 0
M  V30 1580 C 153.179 3.61955 -3.17084 0
M  V30 1581 C 155.531 3.64834 -3.72217 0
M  V30 1582 C 152.859 3.74082 -4.51973 0
M  V30 1583 C 155.211 3.78487 -5.06883 0
M  V30 1584 C 153.875 3.82598 -5.46969 0
M  V30 1585 H 153.145 0.678276 -0.298366 0
M  V30 1586 H 155.792 1.35002 -1.35819 0
M  V30 1587 H 154.097 3.86191 -0.660593 0
M  V30 1588 H 155.794 3.86959 -1.05186 0
M  V30 1589 H 152.384 3.52179 -2.4427 0
M  V30 1590 H 156.568 3.59595 -3.42061 0
M  V30 1591 H 151.824 3.75527 -4.82483 0
M  V30 1592 H 155.998 3.84193 -5.80834 0
M  V30 1593 H 153.625 3.91747 -6.51489 0
M  V30 1594 N 155.201 0.870884 1.31352 0
M  V30 1595 C 156.131 0.343096 2.30966 0
M  V30 1596 C 157.112 -0.566507 1.60389 0
M  V30 1597 O 158.297 -0.483336 1.88089 0
M  V30 1598 C 155.427 -0.455487 3.443 0
M  V30 1599 C 154.381 0.361103 4.26474 0
M  V30 1600 C 153.707 -0.563221 5.31725 0
M  V30 1601 C 155.007 1.59566 4.97329 0
M  V30 1602 H 156.701 1.17548 2.75359 0
M  V30 1603 H 154.247 0.566686 1.32381 0
M  V30 1604 H 156.2 -0.83525 4.13039 0
M  V30 1605 H 154.924 -1.32139 2.98675 0
M  V30 1606 H 153.583 0.722825 3.59403 0
M  V30 1607 H 153.231 -1.42643 4.82351 0
M  V30 1608 H 152.931 -0.0207409 5.87596 0
M  V30 1609 H 154.455 -0.939808 6.03324 0
M  V30 1610 H 155.869 1.28728 5.58661 0
M  V30 1611 H 154.266 2.07728 5.63 0
M  V30 1612 H 155.336 2.34798 4.24262 0
M  V30 1613 N 156.679 -1.44442 0.630414 0
M  V30 1614 C 157.589 -2.34476 -0.0761693 0
M  V30 1615 C 158.605 -1.52576 -0.836449 0
M  V30 1616 O 159.781 -1.85307 -0.788874 0
M  V30 1617 C 156.846 -3.30545 -1.04599 0
M  V30 1618 C 155.907 -4.28352 -0.28516 0
M  V30 1619 C 155.14 -5.19831 -1.20878 0
M  V30 1620 O 155.363 -5.15223 -2.44747 0
M  V30 1621 O 154.297 -5.97892 -0.693491 0
M  V30 1622 H 158.123 -2.96345 0.664324 0
M  V30 1623 H 155.708 -1.44203 0.39061 0
M  V30 1624 H 157.59 -3.89681 -1.60396 0
M  V30 1625 H 156.265 -2.7121 -1.76711 0
M  V30 1626 H 155.172 -3.72764 0.315837 0
M  V30 1627 H 156.505 -4.90605 0.395924 0
M  V30 1628 N 158.157 -0.370918 -1.53173 0
M  V30 1629 C 159.403 0.209976 -2.02313 0
M  V30 1630 C 159.758 1.45987 -1.25322 0
M  V30 1631 O 159.051 1.8856 -0.339965 0
M  V30 1632 C 159.245 0.549696 -3.53147 0
M  V30 1633 C 159.074 -0.665721 -4.44745 0
M  V30 1634 C 157.844 -1.17942 -4.91343 0
M  V30 1635 C 160.042 -1.53255 -4.90935 0
M  V30 1636 N 158.024 -2.35431 -5.66962 0
M  V30 1637 C 159.395 -2.55403 -5.64951 0
M  V30 1638 C 161.45 -1.5548 -4.73002 0
M  V30 1639 C 160.153 -3.5964 -6.22938 0
M  V30 1640 C 162.179 -2.58613 -5.31858 0
M  V30 1641 C 161.541 -3.59485 -6.05764 0
M  V30 1642 H 157.64 0.0394095 -0.781006 0
M  V30 1643 H 160.224 -0.516666 -1.8772 0
M  V30 1644 H 158.395 1.24541 -3.67891 0
M  V30 1645 H 160.127 1.11614 -3.89004 0
M  V30 1646 H 156.882 -0.743228 -4.67732 0
M  V30 1647 H 157.306 -2.94827 -6.09431 0
M  V30 1648 H 161.948 -0.788457 -4.15383 0
M  V30 1649 H 159.666 -4.37153 -6.79649 0
M  V30 1650 H 163.252 -2.61195 -5.19873 0
M  V30 1651 H 162.132 -4.3798 -6.50495 0
M  V30 1652 N 159.635 1.57281 -0.100228 0
M  V30 1653 C 160.912 1.86014 0.604812 0
M  V30 1654 C 161.292 0.998025 1.86018 0
M  V30 1655 O 160.64 0.0718184 2.28387 0
M  V30 1656 C 160.85 3.36784 0.915278 0
M  V30 1657 C 162.198 4.04957 1.27651 0
M  V30 1658 O 163.222 3.41695 1.00613 0
M  V30 1659 O 162.081 5.16593 1.7831 0
M  V30 1660 H 159.175 0.76942 0.303185 0
M  V30 1661 H 161.721 1.69176 -0.133313 0
M  V30 1662 H 160.493 3.91292 0.0248896 0
M  V30 1663 H 160.116 3.58987 1.70921 0
M  V30 1664 N 161.113 -0.173488 1.56642 0
M  V30 1665 C 162.076 -1.19859 1.95362 0
M  V30 1666 C 163.076 -1.37296 0.83704 0
M  V30 1667 O 164.266 -1.34739 1.10413 0
M  V30 1668 C 161.398 -2.56405 2.24654 0
M  V30 1669 H 162.591 -0.867062 2.87092 0
M  V30 1670 H 160.144 -0.415853 1.50666 0
M  V30 1671 H 160.879 -2.94576 1.35631 0
M  V30 1672 H 160.664 -2.45115 3.06041 0
M  V30 1673 H 162.154 -3.30287 2.5554 0
M  V30 1674 N 162.591 -1.51276 -0.441967 0
M  V30 1675 C 164.007 -1.39349 -0.778083 0
M  V30 1676 C 164.207 -0.472212 -1.95889 0
M  V30 1677 O 163.263 0.0743551 -2.5239 0
M  V30 1678 C 164.576 -2.81292 -1.0628 0
M  V30 1679 C 166.124 -2.9041 -1.16751 0
M  V30 1680 C 166.599 -4.33251 -1.48519 0
M  V30 1681 N 168.09 -4.36336 -1.55453 0
M  V30 1682 C 168.825 -5.43885 -1.81596 0
M  V30 1683 N 168.321 -6.61601 -2.05562 0
M  V30 1684 N 170.114 -5.3136 -1.8334 0
M  V30 1685 H 162.265 -2.09729 0.335774 0
M  V30 1686 H 164.528 -0.943925 0.0878028 0
M  V30 1687 H 164.234 -3.50678 -0.267905 0
M  V30 1688 H 164.108 -3.20334 -1.99163 0
M  V30 1689 H 166.495 -2.21225 -1.95304 0
M  V30 1690 H 166.576 -2.54871 -0.217801 0
M  V30 1691 H 166.22 -5.02984 -0.704958 0
M  V30 1692 H 166.15 -4.66299 -2.44689 0
M  V30 1693 H 168.641 -3.51466 -1.38853 0
M  V30 1694 H 168.954 -7.39361 -2.24867 0
M  V30 1695 H 167.299 -6.64725 -2.02894 0
M  V30 1696 H 170.49 -4.38382 -1.64132 0
M  V30 1697 H 170.663 -6.15258 -2.03377 0
M  V30 1698 N 164.069 0.697108 -1.41344 0
M  V30 1699 C 165.346 1.45154 -1.31109 0
M  V30 1700 C 165.726 2.11009 0.0620449 0
M  V30 1701 O 165.074 2.01571 1.07618 0
M  V30 1702 C 165.284 2.47223 -2.46337 0
M  V30 1703 C 166.632 3.1252 -2.87431 0
M  V30 1704 O 167.656 2.57547 -2.46065 0
M  V30 1705 O 166.515 4.12083 -3.58957 0
M  V30 1706 H 163.609 0.646365 -0.515889 0
M  V30 1707 H 166.155 0.727716 -1.53305 0
M  V30 1708 H 164.927 1.97204 -3.37974 0
M  V30 1709 H 164.55 3.27116 -2.2601 0
M  V30 1710 N 165.547 1.27147 0.931209 0
M  V30 1711 C 166.494 1.09568 2.03134 0
M  V30 1712 C 167.464 -0.00222433 1.661 0
M  V30 1713 O 168.649 0.159439 1.90133 0
M  V30 1714 C 165.789 0.745231 3.36957 0
M  V30 1715 C 164.902 1.92041 3.86968 0
M  V30 1716 C 164.037 1.51216 5.09222 0
M  V30 1717 C 163.076 2.65504 5.5152 0
M  V30 1718 N 162.213 2.25291 6.64972 0
M  V30 1719 H 167.053 2.03708 2.17502 0
M  V30 1720 H 164.59 1.01411 1.06556 0
M  V30 1721 H 166.548 0.522878 4.1391 0
M  V30 1722 H 165.178 -0.159202 3.22407 0
M  V30 1723 H 164.23 2.25541 3.06326 0
M  V30 1724 H 165.542 2.77787 4.1429 0
M  V30 1725 H 164.696 1.25084 5.93666 0
M  V30 1726 H 163.435 0.625749 4.83669 0
M  V30 1727 H 162.44 2.92354 4.65628 0
M  V30 1728 H 163.665 3.54761 5.7907 0
M  V30 1729 H 161.611 1.39098 6.41083 0
M  V30 1730 H 161.528 3.04577 6.91931 0
M  V30 1731 H 162.796 2.02398 7.52765 0
M  V30 1732 N 167.025 -1.13721 1.09112 0
M  V30 1733 C 168.302 -1.81155 0.737706 0
M  V30 1734 C 168.682 -1.96253 -0.777683 0
M  V30 1735 O 168.03 -1.52807 -1.69889 0
M  V30 1736 C 168.24 -3.16392 1.47299 0
M  V30 1737 C 169.588 -3.91787 1.63671 0
M  V30 1738 O 170.612 -3.26005 1.43524 0
M  V30 1739 O 169.471 -5.0977 1.96969 0
M  V30 1740 H 166.565 -0.783518 0.26463 0
M  V30 1741 H 169.111 -1.20676 1.19312 0
M  V30 1742 H 167.883 -3.0061 2.50498 0
M  V30 1743 H 167.506 -3.8457 1.00953 0
M  V30 1744 N 168.503 -0.877838 -1.30888 0
M  V30 1745 C 169.728 -0.506629 -2.01117 0
M  V30 1746 C 170.153 0.895564 -1.65412 0
M  V30 1747 O 169.511 1.5923 -0.866922 0
M  V30 1748 C 169.559 -0.680223 -3.54126 0
M  V30 1749 O 168.663 0.277033 -4.11468 0
M  V30 1750 H 168.004 -0.200518 -0.633 0
M  V30 1751 H 170.534 -1.18342 -1.66902 0
M  V30 1752 H 170.544 -0.5765 -4.03907 0
M  V30 1753 H 169.219 -1.70261 -3.79452 0
M  V30 1754 H 167.796 0.127606 -3.72682 0
M  V30 1755 N 169.982 1.44106 -0.638065 0
M  V30 1756 C 171.231 2.01194 -0.142744 0
M  V30 1757 C 171.544 1.50835 1.24532 0
M  V30 1758 O 172.75 2.00096 1.83504 0
M  V30 1759 C 171.206 3.59319 -0.20442 0
M  V30 1760 C 170.814 4.18674 -1.59423 0
M  V30 1761 C 172.558 4.23854 0.234079 0
M  V30 1762 C 170.465 5.69045 -1.61065 0
M  V30 1763 H 169.395 0.752367 -0.0495998 0
M  V30 1764 H 172.046 1.65246 -0.797881 0
M  V30 1765 H 170.428 3.92598 0.517946 0
M  V30 1766 H 171.602 3.96921 -2.34074 0
M  V30 1767 H 169.917 3.66453 -1.97741 0
M  V30 1768 H 172.514 5.34155 0.241443 0
M  V30 1769 H 172.857 3.96688 1.2627 0
M  V30 1770 H 173.39 3.95403 -0.436025 0
M  V30 1771 H 170.129 6.00956 -2.61787 0
M  V30 1772 H 169.649 5.929 -0.90718 0
M  V30 1773 H 171.328 6.32809 -1.34766 0
M  V30 1774 N 171.46 0.379036 1.52974 0
M  V30 1775 C 172.876 0.0285448 1.59574 0
M  V30 1776 C 173.076 -1.45542 1.39355 0
M  V30 1777 O 172.132 -2.2187 1.20541 0
M  V30 1778 C 173.445 0.496535 2.96572 0
M  V30 1779 C 174.993 0.451909 3.0972 0
M  V30 1780 C 175.468 0.895924 4.49152 0
M  V30 1781 N 176.959 0.851522 4.55306 0
M  V30 1782 C 177.694 1.16661 5.61407 0
M  V30 1783 N 177.19 1.55166 6.752 0
M  V30 1784 N 178.983 1.08853 5.51459 0
M  V30 1785 H 171.134 1.34525 1.64367 0
M  V30 1786 H 173.397 0.550733 0.771619 0
M  V30 1787 H 173.103 1.53258 3.16552 0
M  V30 1788 H 172.977 -0.109802 3.7704 0
M  V30 1789 H 175.364 -0.575029 2.89443 0
M  V30 1790 H 175.445 1.09392 2.3123 0
M  V30 1791 H 175.089 1.92104 4.70168 0
M  V30 1792 H 175.019 0.23103 5.26093 0
M  V30 1793 H 177.51 0.568038 3.73606 0
M  V30 1794 H 177.823 1.776 7.52116 0
M  V30 1795 H 176.168 1.59044 6.76557 0
M  V30 1796 H 179.359 0.786803 4.6144 0
M  V30 1797 H 179.532 1.33742 6.34048 0
M  V30 1798 N 172.938 -1.57226 0.108567 0
M  V30 1799 C 174.354 -1.5766 -0.248058 0
M  V30 1800 C 174.554 -1.12063 -1.67464 0
M  V30 1801 O 173.61 -0.803236 -2.39383 0
M  V30 1802 C 174.923 -3.0069 -0.0242287 0
M  V30 1803 C 176.471 -3.12868 -0.0909372 0
M  V30 1804 C 176.946 -4.57879 0.105067 0
M  V30 1805 N 178.437 -4.63172 0.0506846 0
M  V30 1806 C 179.172 -5.73126 0.177396 0
M  V30 1807 N 178.668 -6.91866 0.359696 0
M  V30 1808 N 180.461 -5.61977 0.117709 0
M  V30 1809 H 172.612 -1.85169 1.04049 0
M  V30 1810 H 174.875 -0.85529 0.40888 0
M  V30 1811 H 174.581 -3.38299 0.961604 0
M  V30 1812 H 174.455 -3.6945 -0.76068 0
M  V30 1813 H 176.842 -2.75124 -1.06729 0
M  V30 1814 H 176.923 -2.46672 0.677225 0
M  V30 1815 H 176.567 -4.96321 1.07834 0
M  V30 1816 H 176.497 -5.22153 -0.682954 0
M  V30 1817 H 178.988 -3.778 -0.0871266 0
M  V30 1818 H 179.301 -7.71503 0.447529 0
M  V30 1819 H 177.646 -6.93874 0.395536 0
M  V30 1820 H 180.837 -4.68094 -0.0236741 0
M  V30 1821 H 181.01 -6.47627 0.219905 0
M  V30 1822 N 174.416 0.165178 -1.56732 0
M  V30 1823 C 175.662 0.882112 -1.82611 0
M  V30 1824 C 175.995 1.81628 -0.687378 0
M  V30 1825 O 175.27 1.92009 0.310267 0
M  V30 1826 C 175.553 1.67245 -3.18906 0
M  V30 1827 C 175.406 0.760987 -4.43316 0
M  V30 1828 C 176.725 2.63884 -3.52212 0
M  V30 1829 H 173.844 0.319242 -0.664269 0
M  V30 1830 H 176.486 0.148052 -1.89422 0
M  V30 1831 H 174.636 2.29824 -3.1323 0
M  V30 1832 H 176.308 0.147596 -4.61064 0
M  V30 1833 H 174.551 0.0694102 -4.33744 0
M  V30 1834 H 175.222 1.34962 -5.35247 0
M  V30 1835 H 177.698 2.11429 -3.58381 0
M  V30 1836 H 176.574 3.16245 -4.48643 0
M  V30 1837 H 176.835 3.44377 -2.77231 0
M  V30 1838 N 175.894 1.51508 0.433938 0
M  V30 1839 C 177.14 1.64588 1.18484 0
M  V30 1840 C 177.473 0.362666 1.90784 0
M  V30 1841 O 176.748 -0.637892 1.83742 0
M  V30 1842 C 177.031 2.85149 2.19913 0
M  V30 1843 C 176.884 4.23456 1.51674 0
M  V30 1844 C 178.203 3.01227 3.20858 0
M  V30 1845 H 175.322 0.598994 0.429389 0
M  V30 1846 H 177.964 1.84002 0.473647 0
M  V30 1847 H 176.114 2.68729 2.80566 0
M  V30 1848 H 177.786 4.51552 0.943322 0
M  V30 1849 H 176.029 4.25998 0.819035 0
M  V30 1850 H 176.7 5.03812 2.2556 0
M  V30 1851 H 179.176 3.16382 2.70263 0
M  V30 1852 H 178.052 3.87141 3.89118 0
M  V30 1853 H 178.313 2.13447 3.8716 0
M  V30 1854 N 177.372 -0.689602 1.41712 0
M  V30 1855 C 178.304 -1.815 1.39966 0
M  V30 1856 C 179.317 -1.59995 0.300917 0
M  V30 1857 O 180.506 -1.69387 0.563039 0
M  V30 1858 C 177.606 -3.18364 1.16179 0
M  V30 1859 C 176.779 -3.66847 2.38206 0
M  V30 1860 C 175.838 -4.82398 2.10186 0
M  V30 1861 O 174.864 -4.93706 2.83272 0
M  V30 1862 N 176.066 -5.70064 1.0958 0
M  V30 1863 H 178.831 -1.83488 2.36965 0
M  V30 1864 H 176.392 -0.872149 1.36401 0
M  V30 1865 H 178.384 -3.93301 0.953756 0
M  V30 1866 H 176.954 -3.11365 0.27756 0
M  V30 1867 H 176.174 -2.82751 2.74673 0
M  V30 1868 H 177.462 -3.95978 3.19498 0
M  V30 1869 H 176.86 -5.63565 0.491019 0
M  V30 1870 H 175.417 -6.44874 0.947656 0
M  V30 1871 N 178.85 -1.27639 -0.924453 0
M  V30 1872 C 179.8 -1.07295 -2.01176 0
M  V30 1873 C 180.784 5.77352e-05 -1.609 0
M  V30 1874 O 181.976 -0.218855 -1.75642 0
M  V30 1875 C 179.105 -0.725592 -3.35544 0
M  V30 1876 C 178.191 -1.83691 -3.82254 0
M  V30 1877 N 178.582 -3.07697 -4.01443 0
M  V30 1878 C 176.88 -1.72433 -4.11319 0
M  V30 1879 C 177.581 -3.80037 -4.40394 0
M  V30 1880 N 176.557 -3.0782 -4.48049 0
M  V30 1881 H 180.359 -2.01399 -2.14046 0
M  V30 1882 H 177.873 -1.18401 -1.11153 0
M  V30 1883 H 179.87 -0.560959 -4.13109 0
M  V30 1884 H 178.53 0.207782 -3.24034 0
M  V30 1885 H 179.541 -3.43424 -3.8766 0
M  V30 1886 H 176.218 -0.862005 -4.08504 0
M  V30 1887 H 177.608 -4.86632 -4.63291 0
M  V30 1888 N 180.328 1.1314 -1.09713 0
M  V30 1889 C 181.553 1.88862 -0.857081 0
M  V30 1890 C 181.978 1.78729 0.586304 0
M  V30 1891 O 181.336 1.13692 1.41222 0
M  V30 1892 C 181.384 3.36325 -1.30069 0
M  V30 1893 O 180.488 4.09815 -0.461007 0
M  V30 1894 H 179.829 0.587108 -0.310162 0
M  V30 1895 H 182.359 1.43129 -1.46203 0
M  V30 1896 H 182.369 3.87157 -1.28738 0
M  V30 1897 H 181.044 3.43017 -2.35185 0
M  V30 1898 H 179.621 3.68986 -0.538888 0
M  V30 1899 N 181.806 0.884767 1.30421 0
M  V30 1900 C 182.754 0.340869 2.30089 0
M  V30 1901 C 183.748 -0.55201 1.60154 0
M  V30 1902 O 184.954 -0.436467 1.74628 0
M  V30 1903 H 181.329 0.0915739 0.746404 0
M  V30 1904 H 183.3 1.19513 2.73421 0
M  V30 1905 C 182.049 -0.429779 3.45034 0
M  V30 1906 H 181.372 0.248024 3.9903 0
M  V30 1907 H 182.812 -0.775445 4.16849 0
M  V30 1908 C 181.271 -1.62677 2.95022 0
M  V30 1909 O 181.801 -2.72614 2.95033 0
M  V30 1910 N 180.007 -1.46387 2.51036 0
M  V30 1911 H 179.554 -0.569506 2.51226 0
M  V30 1912 H 179.512 -2.26612 2.17932 0
M  V30 1913 N 183.284 -1.43765 0.645699 0
M  V30 1914 C 184.53 -2.02197 0.156271 0
M  V30 1915 C 184.863 -1.50776 -1.22393 0
M  V30 1916 O 184.138 -0.697771 -1.81553 0
M  V30 1917 C 184.421 -3.59749 0.158872 0
M  V30 1918 C 184.274 -4.21419 1.57245 0
M  V30 1919 C 185.593 -4.37149 -0.50879 0
M  V30 1920 H 182.712 -0.734694 0.0582602 0
M  V30 1921 H 185.354 -1.71157 0.824951 0
M  V30 1922 H 183.504 -3.86325 -0.410525 0
M  V30 1923 H 185.176 -4.059 2.19186 0
M  V30 1924 H 183.419 -3.78356 2.122 0
M  V30 1925 H 184.09 -5.30482 1.52619 0
M  V30 1926 H 186.566 -4.16093 -0.024412 0
M  V30 1927 H 185.442 -5.4683 -0.476213 0
M  V30 1928 H 185.703 -4.12839 -1.58165 0
M  V30 1929 N 184.763 -0.387143 -1.52771 0
M  V30 1930 C 186.009 0.196025 -2.0185 0
M  V30 1931 C 186.342 1.46641 -1.27319 0
M  V30 1932 O 185.617 1.90889 -0.373032 0
M  V30 1933 C 185.9 0.466136 -3.5707 0
M  V30 1934 C 185.753 -0.819385 -4.42274 0
M  V30 1935 C 187.072 1.25768 -4.21747 0
M  V30 1936 H 184.191 0.0697708 -0.73369 0
M  V30 1937 H 186.833 -0.516286 -1.82851 0
M  V30 1938 H 184.983 1.07293 -3.7339 0
M  V30 1939 H 186.655 -1.4563 -4.37709 0
M  V30 1940 H 184.898 -1.43517 -4.09372 0
M  V30 1941 H 185.569 -0.585065 -5.48891 0
M  V30 1942 H 188.045 0.744167 -4.09391 0
M  V30 1943 H 186.921 1.41541 -5.30337 0
M  V30 1944 H 187.182 2.27228 -3.79236 0
M  V30 1945 N 186.241 1.57166 -0.116904 0
M  V30 1946 C 187.49 1.94298 0.541407 0
M  V30 1947 C 187.803 1.00236 1.67964 0
M  V30 1948 O 189.009 1.26826 2.40057 0
M  V30 1949 C 187.465 3.45306 1.01449 0
M  V30 1950 C 187.073 4.47899 -0.0951738 0
M  V30 1951 C 188.817 3.91361 1.6443 0
M  V30 1952 C 186.724 5.90083 0.394491 0
M  V30 1953 H 185.654 0.725308 0.206019 0
M  V30 1954 H 188.305 1.82446 -0.196419 0
M  V30 1955 H 186.687 3.52385 1.80667 0
M  V30 1956 H 187.861 4.52486 -0.871374 0
M  V30 1957 H 186.176 4.11583 -0.631505 0
M  V30 1958 H 188.773 4.95004 2.02176 0
M  V30 1959 H 189.116 3.3122 2.52189 0
M  V30 1960 H 189.649 3.87073 0.917559 0
M  V30 1961 H 186.388 6.53974 -0.447004 0
M  V30 1962 H 185.908 5.88921 1.13722 0
M  V30 1963 H 187.587 6.41307 0.856399 0
M  V30 1964 N 187.719 -0.156864 1.56817 0
M  V30 1965 C 188.667 -1.21319 1.98455 0
M  V30 1966 C 189.661 -1.45025 0.875444 0
M  V30 1967 O 190.867 -1.45435 1.0606 0
M  V30 1968 H 187.242 -0.408142 0.631605 0
M  V30 1969 H 189.213 -0.835244 2.86472 0
M  V30 1970 C 187.962 -2.54148 2.37285 0
M  V30 1971 H 187.285 -2.36733 3.22176 0
M  V30 1972 H 188.725 -3.26712 2.70251 0
M  V30 1973 C 187.184 -3.13967 1.22173 0
M  V30 1974 O 187.714 -3.98357 0.517149 0
M  V30 1975 N 185.92 -2.7327 0.988536 0
M  V30 1976 H 185.467 -2.04744 1.56326 0
M  V30 1977 H 185.425 -3.13628 0.220209 0
M  V30 1978 N 189.197 -1.51736 -0.425897 0
M  V30 1979 C 190.127 -1.76827 -1.52494 0
M  V30 1980 C 191.108 -0.618524 -1.58456 0
M  V30 1981 O 192.293 -0.862416 -1.74 0
M  V30 1982 C 189.423 -1.90374 -2.90474 0
M  V30 1983 C 188.377 -3.0588 -2.99369 0
M  V30 1984 C 187.703 -3.04625 -4.3944 0
M  V30 1985 C 189.003 -4.45644 -2.72394 0
M  V30 1986 H 190.697 -2.68855 -1.31748 0
M  V30 1987 H 188.243 -1.29372 -0.632362 0
M  V30 1988 H 190.196 -2.0651 -3.6733 0
M  V30 1989 H 188.92 -0.95004 -3.12477 0
M  V30 1990 H 187.579 -2.89467 -2.24954 0
M  V30 1991 H 187.227 -2.0701 -4.58428 0
M  V30 1992 H 186.927 -3.82195 -4.46319 0
M  V30 1993 H 188.451 -3.22869 -5.18255 0
M  V30 1994 H 189.865 -4.62348 -3.38979 0
M  V30 1995 H 188.262 -5.25006 -2.9067 0
M  V30 1996 H 189.332 -4.54893 -1.67929 0
M  V30 1997 N 190.675 0.682077 -1.42076 0
M  V30 1998 C 191.924 1.43786 -1.41451 0
M  V30 1999 C 192.237 1.95574 -0.0317074 0
M  V30 2000 O 193.443 2.71326 0.0971462 0
M  V30 2001 C 191.899 2.60071 -2.48779 0
M  V30 2002 C 191.507 2.15013 -3.93031 0
M  V30 2003 C 193.251 3.37626 -2.57311 0
M  V30 2004 C 191.158 3.28336 -4.91883 0
M  V30 2005 H 190.088 0.540143 -0.526082 0
M  V30 2006 H 192.739 0.739157 -1.67955 0
M  V30 2007 H 191.121 3.32275 -2.15429 0
M  V30 2008 H 192.295 1.5001 -4.35699 0
M  V30 2009 H 190.61 1.50416 -3.88284 0
M  V30 2010 H 193.207 4.22012 -3.28345 0
M  V30 2011 H 193.55 3.83727 -1.61429 0
M  V30 2012 H 194.083 2.72488 -2.89819 0
M  V30 2013 H 190.822 2.87234 -5.89217 0
M  V30 2014 H 190.342 3.92145 -4.53853 0
M  V30 2015 H 192.021 3.93913 -5.13265 0
M  V30 2016 N 192.153 1.28127 0.917671 0
M  V30 2017 C 193.401 1.14825 1.66312 0
M  V30 2018 C 193.722 -0.304379 1.9261 0
M  V30 2019 O 192.992 -1.21149 1.53947 0
M  V30 2020 H 191.572 0.421953 0.616413 0
M  V30 2021 H 194.234 1.608 1.10134 0
M  V30 2022 H 193.33 1.68489 2.62712 0
M  V30 2023 N 193.631 -1.12557 1.10312 0
M  V30 2024 C 195.047 -1.36036 0.834649 0
M  V30 2025 C 195.247 -1.93946 -0.546539 0
M  V30 2026 O 194.303 -2.16484 -1.29966 0
M  V30 2027 C 195.616 -2.30312 1.9333 0
M  V30 2028 C 197.164 -2.43906 1.9616 0
M  V30 2029 C 197.639 -3.41496 3.05195 0
M  V30 2030 N 199.13 -3.49053 3.04494 0
M  V30 2031 C 199.865 -4.24471 3.85502 0
M  V30 2032 N 199.361 -5.02966 4.76442 0
M  V30 2033 N 201.154 -4.19864 3.73725 0
M  V30 2034 H 193.305 -0.733246 1.99342 0
M  V30 2035 H 195.568 -0.385234 0.866198 0
M  V30 2036 H 195.274 -1.94933 2.92735 0
M  V30 2037 H 195.148 -3.30421 1.81939 0
M  V30 2038 H 197.535 -2.78567 0.973886 0
M  V30 2039 H 197.616 -1.4369 2.11629 0
M  V30 2040 H 197.26 -3.07565 4.04186 0
M  V30 2041 H 197.19 -4.41539 2.86968 0
M  V30 2042 H 199.681 -2.93053 2.38596 0
M  V30 2043 H 199.994 -5.57846 5.34815 0
M  V30 2044 H 198.339 -5.02167 4.80472 0
M  V30 2045 H 201.53 -3.57623 3.02032 0
M  V30 2046 H 201.703 -4.78386 4.37093 0
M  V30 2047 N 195.109 -0.891671 -1.2995 0
M  V30 2048 C 196.386 -0.433307 -1.9074 0
M  V30 2049 C 196.766 1.08646 -1.80995 0
M  V30 2050 O 196.114 1.92476 -1.23147 0
M  V30 2051 C 196.324 -0.938895 -3.36134 0
M  V30 2052 C 197.672 -0.977829 -4.13187 0
M  V30 2053 O 198.696 -0.886015 -3.45005 0
M  V30 2054 O 197.555 -1.11453 -5.35015 0
M  V30 2055 H 194.649 -0.133699 -0.816121 0
M  V30 2056 H 197.195 -0.981011 -1.38471 0
M  V30 2057 H 195.967 -1.98281 -3.37343 0
M  V30 2058 H 195.59 -0.37074 -3.95868 0
M  V30 2059 N 196.587 1.43421 -0.653314 0
M  V30 2060 C 197.833 2.02641 -0.175593 0
M  V30 2061 C 198.188 1.5062 1.19713 0
M  V30 2062 O 197.481 0.689697 1.78756 0
M  V30 2063 C 197.675 3.57176 -0.126623 0
M  V30 2064 C 197.504 4.24191 -1.49306 0
M  V30 2065 C 196.274 4.60257 -2.08547 0
M  V30 2066 C 198.472 4.53193 -2.43148 0
M  V30 2067 N 196.454 5.12345 -3.38194 0
M  V30 2068 C 197.825 5.06601 -3.57429 0
M  V30 2069 C 199.88 4.35161 -2.41949 0
M  V30 2070 C 198.583 5.43875 -4.70736 0
M  V30 2071 C 200.609 4.73498 -3.54336 0
M  V30 2072 C 199.971 5.27039 -4.67343 0
M  V30 2073 H 196.07 0.77441 -0.108686 0
M  V30 2074 H 198.654 1.74596 -0.861638 0
M  V30 2075 H 196.825 3.84784 0.528766 0
M  V30 2076 H 198.557 4.03078 0.36198 0
M  V30 2077 H 195.312 4.45302 -1.61255 0
M  V30 2078 H 195.736 5.42842 -4.04538 0
M  V30 2079 H 200.378 3.9304 -1.55818 0
M  V30 2080 H 198.096 5.8494 -5.57558 0
M  V30 2081 H 201.682 4.61241 -3.5461 0
M  V30 2082 H 200.562 5.56153 -5.52868 0
M  V30 2083 N 198.065 0.39524 1.52563 0
M  V30 2084 C 198.975 -0.444232 2.30356 0
M  V30 2085 C 199.991 -1.06615 1.37511 0
M  V30 2086 O 201.167 -1.07067 1.70583 0
M  V30 2087 C 198.232 -1.55315 3.09964 0
M  V30 2088 C 197.293 -0.955734 4.18526 0
M  V30 2089 C 196.526 -2.01181 4.9433 0
M  V30 2090 O 196.749 -3.22781 4.70285 0
M  V30 2091 O 195.683 -1.62579 5.79527 0
M  V30 2092 H 199.509 0.189667 3.03107 0
M  V30 2093 H 197.094 0.1588 1.48554 0
M  V30 2094 H 198.976 -2.19724 3.59582 0
M  V30 2095 H 197.651 -2.17191 2.4002 0
M  V30 2096 H 196.558 -0.274743 3.7309 0
M  V30 2097 H 197.891 -0.381109 4.90722 0
M  V30 2098 N 199.544 -1.57102 0.125237 0
M  V30 2099 C 200.772 -1.99761 -0.538797 0
M  V30 2100 C 201.187 -1.00503 -1.59827 0
M  V30 2101 O 200.544 0.00119474 -1.825 0
M  V30 2102 C 200.595 -3.42408 -1.15927 0
M  V30 2103 O 200.316 -4.37869 -0.142143 0
M  V30 2104 C 201.817 -4.00232 -1.90602 0
M  V30 2105 H 199.037 -0.655772 -0.14214 0
M  V30 2106 H 201.581 -2.03383 0.213413 0
M  V30 2107 H 199.736 -3.39706 -1.86223 0
M  V30 2108 H 200.15 -5.21128 -0.593775 0
M  V30 2109 H 201.624 -5.02105 -2.29335 0
M  V30 2110 H 202.101 -3.39721 -2.78363 0
M  V30 2111 H 202.707 -4.06499 -1.25055 0
M  V30 2112 N 201.022 0.148545 -1.56898 0
M  V30 2113 C 201.969 1.18345 -1.98149 0
M  V30 2114 C 202.939 1.42772 -0.848848 0
M  V30 2115 O 204.124 1.55132 -1.11079 0
M  V30 2116 C 201.264 2.51231 -2.36594 0
M  V30 2117 C 200.377 2.33991 -3.63142 0
M  V30 2118 C 199.512 3.59902 -3.90697 0
M  V30 2119 C 198.551 3.37692 -5.1052 0
M  V30 2120 N 197.688 4.5573 -5.34092 0
M  V30 2121 H 202.528 0.82467 -2.86362 0
M  V30 2122 H 200.065 0.395756 -1.41676 0
M  V30 2123 H 202.023 3.28713 -2.56912 0
M  V30 2124 H 200.653 2.85059 -1.51463 0
M  V30 2125 H 199.705 1.47572 -3.50609 0
M  V30 2126 H 201.017 2.13539 -4.5078 0
M  V30 2127 H 200.171 4.45813 -4.11505 0
M  V30 2128 H 198.91 3.83357 -3.01477 0
M  V30 2129 H 197.915 2.5017 -4.89587 0
M  V30 2130 H 199.14 3.15637 -6.0129 0
M  V30 2131 H 197.086 4.79361 -4.47827 0
M  V30 2132 H 197.003 4.38274 -6.15996 0
M  V30 2133 H 198.271 5.42858 -5.59397 0
M  V30 2134 N 202.5 1.5196 0.417844 0
M  V30 2135 C 203.448 1.75278 1.52907 0
M  V30 2136 C 204.442 0.619611 1.57662 0
M  V30 2137 O 205.648 0.801457 1.61173 0
M  V30 2138 H 202.023 0.554141 0.508362 0
M  V30 2139 H 203.994 2.68389 1.30422 0
M  V30 2140 C 202.743 1.91262 2.90369 0
M  V30 2141 H 202.066 2.77872 2.8745 0
M  V30 2142 H 203.506 2.11581 3.67436 0
M  V30 2143 C 201.965 0.677431 3.30019 0
M  V30 2144 O 202.495 -0.158799 4.01386 0
M  V30 2145 N 200.701 0.515851 2.85985 0
M  V30 2146 H 200.248 1.19744 2.28077 0
M  V30 2147 H 200.206 -0.309315 3.12875 0
M  V30 2148 N 203.978 -0.674533 1.42435 0
M  V30 2149 C 205.225 -1.43459 1.42919 0
M  V30 2150 C 205.553 -1.94446 0.0457312 0
M  V30 2151 O 204.808 -1.7132 -0.94593 0
M  V30 2152 C 205.107 -2.64767 2.40069 0
M  V30 2153 C 204.773 -2.3232 3.86443 0
M  V30 2154 C 203.435 -2.23182 4.26314 0
M  V30 2155 C 205.787 -2.05977 4.78773 0
M  V30 2156 C 203.115 -1.85827 5.56494 0
M  V30 2157 C 205.467 -1.70125 6.09295 0
M  V30 2158 C 204.131 -1.59498 6.48164 0
M  V30 2159 H 203.401 -0.524952 0.522978 0
M  V30 2160 H 206.048 -0.769097 1.75377 0
M  V30 2161 H 204.353 -3.36349 2.00939 0
M  V30 2162 H 206.05 -3.22949 2.37707 0
M  V30 2163 H 202.64 -2.40334 3.54877 0
M  V30 2164 H 206.824 -2.11969 4.48757 0
M  V30 2165 H 202.08 -1.76168 5.8547 0
M  V30 2166 H 206.254 -1.48767 6.80324 0
M  V30 2167 H 203.881 -1.30322 7.48946 0
M  V30 2168 N 205.456 -1.28612 -0.910864 0
M  V30 2169 C 206.733 -1.06632 -1.63979 0
M  V30 2170 C 207.113 0.393351 -2.07403 0
M  V30 2171 O 206.461 1.37999 -1.82122 0
M  V30 2172 C 206.671 -2.0436 -2.8291 0
M  V30 2173 C 208.019 -2.34666 -3.5386 0
M  V30 2174 O 209.043 -2.02467 -2.93062 0
M  V30 2175 O 207.902 -2.89631 -4.63439 0
M  V30 2176 H 204.996 -0.407737 -0.7195 0
M  V30 2177 H 207.542 -1.39942 -0.959914 0
M  V30 2178 H 206.314 -3.02727 -2.47936 0
M  V30 2179 H 205.937 -1.71714 -3.58609 0
M  V30 2180 N 206.934 1.1197 -1.10907 0
M  V30 2181 C 208.181 1.83588 -0.854507 0
M  V30 2182 C 208.509 1.84357 0.6199 0
M  V30 2183 O 207.764 1.28809 1.47332 0
M  V30 2184 C 208.063 3.30749 -1.35425 0
M  V30 2185 C 207.729 3.50146 -2.84093 0
M  V30 2186 C 206.391 3.55148 -3.2469 0
M  V30 2187 C 208.743 3.56857 -3.79872 0
M  V30 2188 C 206.071 3.6441 -4.59806 0
M  V30 2189 C 208.423 3.6765 -5.14797 0
M  V30 2190 C 207.087 3.7091 -5.54961 0
M  V30 2191 H 206.357 0.671795 -0.312686 0
M  V30 2192 H 209.004 1.32091 -1.38652 0
M  V30 2193 H 207.309 3.84703 -0.742361 0
M  V30 2194 H 209.006 3.8464 -1.1337 0
M  V30 2195 H 205.596 3.46919 -2.51685 0
M  V30 2196 H 209.78 3.52258 -3.49611 0
M  V30 2197 H 205.036 3.65208 -4.9034 0
M  V30 2198 H 209.21 3.71786 -5.88853 0
M  V30 2199 H 206.837 3.7784 -6.59652 0
M  V30 2200 N 208.412 0.89855 1.29475 0
M  V30 2201 C 209.322 0.379974 2.31502 0
M  V30 2202 C 210.338 -0.524695 1.659 0
M  V30 2203 O 211.514 -0.414551 1.97087 0
M  V30 2204 C 208.579 -0.385138 3.44554 0
M  V30 2205 C 207.64 0.550914 4.2575 0
M  V30 2206 C 206.873 -0.177778 5.33404 0
M  V30 2207 O 207.096 -1.40189 5.52904 0
M  V30 2208 O 206.03 0.479106 5.9999 0
M  V30 2209 H 209.856 1.22639 2.77837 0
M  V30 2210 H 207.441 0.662834 1.33891 0
M  V30 2211 H 209.323 -0.817841 4.13388 0
M  V30 2212 H 207.998 -1.20763 3.0033 0
M  V30 2213 H 206.905 1.03271 3.59564 0
M  V30 2214 H 208.238 1.33979 4.73614 0
M  V30 2215 N 209.89 -1.43072 0.660911 0
M  V30 2216 C 211.167 -1.95307 0.107017 0
M  V30 2217 C 211.547 -1.60192 -1.37484 0
M  V30 2218 O 210.895 -0.890949 -2.10415 0
M  V30 2219 C 211.105 -3.47124 0.361402 0
M  V30 2220 C 212.453 -4.23738 0.270455 0
M  V30 2221 O 213.477 -3.54981 0.294382 0
M  V30 2222 O 212.336 -5.46131 0.200737 0
M  V30 2223 H 209.43 -0.826984 -0.00517729 0
M  V30 2224 H 211.976 -1.52972 0.734681 0
M  V30 2225 H 210.748 -3.65837 1.38848 0
M  V30 2226 H 210.371 -3.96475 -0.298953 0
M  V30 2227 N 211.368 -0.403325 -1.52352 0
M  V30 2228 C 212.614 0.174605 -2.02047 0
M  V30 2229 C 212.947 1.45282 -1.28867 0
M  V30 2230 O 212.222 1.90483 -0.393257 0
M  V30 2231 C 212.505 0.428238 -3.57545 0
M  V30 2232 C 212.358 -0.866248 -4.4138 0
M  V30 2233 C 213.677 1.21287 -4.23057 0
M  V30 2234 H 210.796 0.0619851 -0.734389 0
M  V30 2235 H 213.438 -0.53565 -1.82293 0
M  V30 2236 H 211.588 1.03327 -3.74507 0
M  V30 2237 H 213.26 -1.50265 -4.3614 0
M  V30 2238 H 211.503 -1.47851 -4.07827 0
M  V30 2239 H 212.174 -0.643249 -5.48239 0
M  V30 2240 H 214.65 0.700703 -4.10158 0
M  V30 2241 H 213.526 1.35909 -5.31808 0
M  V30 2242 H 213.787 2.23193 -3.81625 0
M  V30 2243 N 212.846 1.57033 -0.133567 0
M  V30 2244 C 214.093 1.95686 0.520877 0
M  V30 2245 C 214.421 1.0177 1.6575 0
M  V30 2246 O 213.676 0.0443195 1.9565 0
M  V30 2247 C 213.975 3.40674 1.08057 0
M  V30 2248 C 213.641 4.50855 0.0637899 0
M  V30 2249 C 212.303 4.80716 -0.215757 0
M  V30 2250 C 214.655 5.17398 -0.62835 0
M  V30 2251 C 211.983 5.74433 -1.19348 0
M  V30 2252 C 214.335 6.12167 -1.5948 0
M  V30 2253 C 212.999 6.40414 -1.88218 0
M  V30 2254 H 212.269 0.716067 0.190602 0
M  V30 2255 H 214.916 1.9026 -0.217556 0
M  V30 2256 H 213.221 3.42865 1.89606 0
M  V30 2257 H 214.918 3.67902 1.59529 0
M  V30 2258 H 211.508 4.27605 0.291855 0
M  V30 2259 H 215.692 4.94472 -0.425562 0
M  V30 2260 H 210.948 5.94616 -1.42272 0
M  V30 2261 H 215.122 6.6281 -2.13671 0
M  V30 2262 H 212.749 7.12838 -2.64133 0
M  V30 2263 N 214.325 -0.140222 1.56975 0
M  V30 2264 C 215.571 -0.852949 1.83991 0
M  V30 2265 C 215.904 -1.80512 0.716187 0
M  V30 2266 O 215.179 -1.92479 -0.279681 0
M  V30 2267 C 215.462 -1.6215 3.21527 0
M  V30 2268 C 215.315 -0.690363 4.4447 0
M  V30 2269 C 216.634 -2.58247 3.56366 0
M  V30 2270 H 213.753 -0.308634 0.669264 0
M  V30 2271 H 216.395 -0.117898 1.89634 0
M  V30 2272 H 214.545 -2.24812 3.16847 0
M  V30 2273 H 216.217 -0.0742264 4.6124 0
M  V30 2274 H 214.46 -0.000396433 4.338 0
M  V30 2275 H 215.131 -1.2643 5.37326 0
M  V30 2276 H 217.607 -2.05701 3.61699 0
M  V30 2277 H 216.483 -3.09067 4.53617 0
M  V30 2278 H 216.744 -3.39923 2.82674 0
M  V30 2279 N 215.803 -1.52179 -0.40978 0
M  V30 2280 C 216.75 -1.75475 -1.49924 0
M  V30 2281 C 217.72 -0.597175 -1.54994 0
M  V30 2282 O 218.905 -0.834655 -1.71575 0
M  V30 2283 C 216.045 -1.9107 -2.87378 0
M  V30 2284 C 215.158 -3.18717 -2.91622 0
M  V30 2285 C 214.293 -3.24747 -4.20372 0
M  V30 2286 C 213.332 -4.46598 -4.18588 0
M  V30 2287 N 212.469 -4.50025 -5.38908 0
M  V30 2288 H 217.309 -2.68458 -1.29361 0
M  V30 2289 H 214.846 -1.33024 -0.627934 0
M  V30 2290 H 216.804 -1.98096 -3.6717 0
M  V30 2291 H 215.434 -1.01469 -3.06437 0
M  V30 2292 H 214.486 -3.20866 -2.04326 0
M  V30 2293 H 215.798 -4.08544 -2.86169 0
M  V30 2294 H 214.952 -3.30841 -5.08556 0
M  V30 2295 H 213.691 -2.32857 -4.28519 0
M  V30 2296 H 212.696 -4.40652 -3.28794 0
M  V30 2297 H 213.921 -5.39783 -4.12081 0
M  V30 2298 H 211.867 -3.61017 -5.47725 0
M  V30 2299 H 211.784 -5.33697 -5.35447 0
M  V30 2300 H 213.052 -4.60347 -6.29048 0
M  V30 2301 N 217.281 0.66697 -1.42791 0
M  V30 2302 C 218.53 1.42278 -1.42968 0
M  V30 2303 C 218.843 1.9553 -0.0524489 0
M  V30 2304 O 220.049 2.71414 0.068363 0
M  V30 2305 C 218.505 2.57418 -2.51524 0
M  V30 2306 C 218.113 2.10832 -3.9529 0
M  V30 2307 C 219.857 3.34878 -2.60877 0
M  V30 2308 C 217.764 3.23101 -4.95338 0
M  V30 2309 H 216.694 0.534533 -0.531781 0
M  V30 2310 H 219.345 0.721302 -1.68729 0
M  V30 2311 H 217.727 3.29971 -2.18941 0
M  V30 2312 H 218.901 1.4538 -4.37266 0
M  V30 2313 H 217.216 1.46289 -3.89857 0
M  V30 2314 H 219.813 4.18505 -3.32802 0
M  V30 2315 H 220.156 3.81993 -1.6549 0
M  V30 2316 H 220.689 2.69398 -2.92693 0
M  V30 2317 H 217.428 2.80969 -5.9223 0
M  V30 2318 H 216.948 3.87309 -4.57987 0
M  V30 2319 H 218.627 3.88447 -5.17415 0
M  V30 2320 N 218.759 1.29093 0.90403 0
M  V30 2321 C 220.17 1.15186 1.46932 0
M  V30 2322 C 220.521 -0.254587 1.94541 0
M  V30 2323 O 219.646 -1.14972 1.83332 0
M  V30 2324 C 220.241 2.08492 2.67051 0
M  V30 2325 C 218.8 1.98621 3.19729 0
M  V30 2326 C 217.947 1.9967 1.92425 0
M  V30 2327 H 220.898 1.41641 0.715789 0
M  V30 2328 H 220.919 1.65461 3.42641 0
M  V30 2329 H 220.431 3.10847 2.3237 0
M  V30 2330 H 218.532 0.993389 3.59114 0
M  V30 2331 H 218.645 2.86068 3.8432 0
M  V30 2332 H 217.009 1.44208 2.09943 0
M  V30 2333 H 217.792 3.03721 1.60026 0
M  V30 2334 N 220.237 -1.11381 1.11499 0
M  V30 2335 C 221.169 -2.17207 0.731704 0
M  V30 2336 C 222.182 -1.61066 -0.236957 0
M  V30 2337 O 223.371 -1.78489 -0.0197591 0
M  V30 2338 C 220.471 -3.38846 0.0607624 0
M  V30 2339 C 219.644 -4.24451 1.0564 0
M  V30 2340 C 218.703 -5.24562 0.4149 0
M  V30 2341 O 217.729 -5.59071 1.069 0
M  V30 2342 N 218.931 -5.74651 -0.821943 0
M  V30 2343 H 221.696 -2.50699 1.64225 0
M  V30 2344 H 219.257 -1.26908 1.00529 0
M  V30 2345 H 221.249 -4.02911 -0.380139 0
M  V30 2346 H 219.819 -3.03411 -0.752376 0
M  V30 2347 H 219.039 -3.56833 1.67524 0
M  V30 2348 H 220.327 -4.78486 1.72998 0
M  V30 2349 H 219.725 -5.48797 -1.37252 0
M  V30 2350 H 218.282 -6.40549 -1.20582 0
M  V30 2351 N 221.715 -0.905404 -1.28997 0
M  V30 2352 C 222.678 -0.392253 -2.25819 0
M  V30 2353 C 223.678 0.476753 -1.5357 0
M  V30 2354 O 224.868 0.280994 -1.71919 0
M  V30 2355 C 222 0.438588 -3.38067 0
M  V30 2356 H 223.193 -1.24743 -2.72725 0
M  V30 2357 H 220.746 -0.684051 -1.40536 0
M  V30 2358 H 221.481 1.31352 -2.96508 0
M  V30 2359 H 221.266 -0.184167 -3.91667 0
M  V30 2360 H 222.756 0.78873 -4.10084 0
M  V30 2361 N 223.193 1.4272 -0.668489 0
M  V30 2362 C 224.442 2.00846 -0.185389 0
M  V30 2363 C 224.755 1.53442 1.21305 0
M  V30 2364 O 225.961 2.03944 1.79218 0
M  V30 2365 C 224.417 3.58805 -0.280591 0
M  V30 2366 C 224.025 4.15198 -1.68268 0
M  V30 2367 C 225.769 4.24255 0.14412 0
M  V30 2368 C 223.676 5.655 -1.73099 0
M  V30 2369 H 222.606 0.751145 -0.0655475 0
M  V30 2370 H 225.257 1.63516 -0.832752 0
M  V30 2371 H 223.639 3.93608 0.434553 0
M  V30 2372 H 224.813 3.91866 -2.42441 0
M  V30 2373 H 223.128 3.62176 -2.05469 0
M  V30 2374 H 225.725 5.34547 0.128086 0
M  V30 2375 H 226.068 3.99277 1.17827 0
M  V30 2376 H 226.601 3.94389 -0.519798 0
M  V30 2377 H 223.34 5.95268 -2.74475 0
M  V30 2378 H 222.86 5.90842 -1.03274 0
M  V30 2379 H 224.539 6.29808 -1.48158 0
M  V30 2380 N 224.671 0.411399 1.52136 0
M  V30 2381 C 225.634 -0.401089 2.25663 0
M  V30 2382 C 226.634 -0.971732 1.28117 0
M  V30 2383 O 227.824 -0.850254 1.52041 0
M  V30 2384 C 224.956 -1.56483 3.02863 0
M  V30 2385 H 226.149 0.24295 2.98914 0
M  V30 2386 H 223.702 0.163968 1.55438 0
M  V30 2387 H 224.437 -2.24567 2.33967 0
M  V30 2388 H 224.222 -1.16211 3.74483 0
M  V30 2389 H 225.712 -2.13951 3.58629 0
M  V30 2390 N 226.149 -1.5696 0.141893 0
M  V30 2391 C 227.081 -2.13619 -0.830627 0
M  V30 2392 C 228.094 -1.08439 -1.21428 0
M  V30 2393 O 229.283 -1.35734 -1.15925 0
M  V30 2394 C 226.383 -2.63978 -2.12529 0
M  V30 2395 C 225.556 -3.93504 -1.9098 0
M  V30 2396 C 224.615 -4.29225 -3.04388 0
M  V30 2397 O 223.641 -4.97641 -2.76302 0
M  V30 2398 N 224.843 -3.88393 -4.31429 0
M  V30 2399 H 227.608 -2.97691 -0.34641 0
M  V30 2400 H 225.169 -1.61846 -0.0418375 0
M  V30 2401 H 227.161 -2.84891 -2.87436 0
M  V30 2402 H 225.731 -1.84659 -2.52229 0
M  V30 2403 H 224.951 -3.81269 -1.00139 0
M  V30 2404 H 226.239 -4.78154 -1.73914 0
M  V30 2405 H 225.637 -3.33257 -4.57117 0
M  V30 2406 H 224.194 -4.14368 -5.03133 0
M  V30 2407 N 227.627 0.131896 -1.57047 0
M  V30 2408 C 228.557 1.16384 -2.02428 0
M  V30 2409 C 229.538 1.43936 -0.90644 0
M  V30 2410 O 230.723 1.54599 -1.17528 0
M  V30 2411 C 227.853 2.49328 -2.4177 0
M  V30 2412 C 226.807 2.36266 -3.56879 0
M  V30 2413 C 226.133 3.74057 -3.8208 0
M  V30 2414 C 227.433 1.834 -4.89042 0
M  V30 2415 H 229.127 0.786433 -2.88887 0
M  V30 2416 H 226.673 0.376855 -1.38981 0
M  V30 2417 H 228.626 3.21759 -2.7212 0
M  V30 2418 H 227.35 2.88934 -1.52266 0
M  V30 2419 H 226.009 1.66286 -3.26718 0
M  V30 2420 H 225.657 4.11125 -2.89803 0
M  V30 2421 H 225.357 3.66174 -4.59554 0
M  V30 2422 H 226.881 4.48012 -4.1487 0
M  V30 2423 H 228.295 2.45636 -5.18011 0
M  V30 2424 H 226.692 1.8637 -5.70426 0
M  V30 2425 H 227.762 0.790662 -4.7841 0
M  V30 2426 N 229.106 1.52395 0.401703 0
M  V30 2427 C 230.331 1.70972 1.17403 0
M  V30 2428 C 230.756 0.421615 1.83314 0
M  V30 2429 O 230.114 -0.621564 1.70312 0
M  V30 2430 C 230.162 2.85151 2.20728 0
M  V30 2431 O 229.266 2.51238 3.27037 0
M  V30 2432 H 228.607 0.568927 0.342372 0
M  V30 2433 H 231.137 1.99131 0.469891 0
M  V30 2434 H 231.147 3.10279 2.64936 0
M  V30 2435 H 229.822 3.78603 1.7214 0
M  V30 2436 H 228.399 2.36808 2.88057 0
M  V30 2437 N 230.584 -0.659388 1.43143 0
M  V30 2438 C 231.531 -1.77249 1.47822 0
M  V30 2439 C 232.501 -1.62818 0.328558 0
M  V30 2440 O 233.686 -1.83151 0.534838 0
M  V30 2441 C 230.826 -3.15371 1.40126 0
M  V30 2442 C 229.939 -3.4098 2.65249 0
M  V30 2443 C 229.074 -4.68915 2.49584 0
M  V30 2444 C 228.113 -4.87608 3.70006 0
M  V30 2445 N 227.25 -6.06796 3.53189 0
M  V30 2446 H 232.09 -1.72584 2.42938 0
M  V30 2447 H 229.627 -0.842297 1.20598 0
M  V30 2448 H 231.585 -3.9521 1.33659 0
M  V30 2449 H 230.215 -3.19121 0.485964 0
M  V30 2450 H 229.267 -2.55282 2.8202 0
M  V30 2451 H 230.579 -3.50681 3.54717 0
M  V30 2452 H 229.733 -5.56871 2.4079 0
M  V30 2453 H 228.472 -4.61524 1.5763 0
M  V30 2454 H 227.477 -3.9809 3.79215 0
M  V30 2455 H 228.702 -4.96834 4.62961 0
M  V30 2456 H 226.648 -6.00549 2.63965 0
M  V30 2457 H 226.565 -6.17428 4.36255 0
M  V30 2458 H 227.833 -6.9739 3.48236 0
M  V30 2459 N 232.062 -1.29571 -0.897171 0
M  V30 2460 C 232.972 -1.16808 -2.03453 0
M  V30 2461 C 233.988 -0.0907471 -1.73763 0
M  V30 2462 O 235.164 -0.303312 -1.99103 0
M  V30 2463 C 232.229 -0.848264 -3.36163 0
M  V30 2464 C 231.29 -2.0097 -3.79354 0
M  V30 2465 C 230.523 -1.70505 -5.05731 0
M  V30 2466 O 230.746 -0.62718 -5.66941 0
M  V30 2467 O 229.68 -2.5538 -5.45036 0
M  V30 2468 H 233.506 -2.12325 -2.17144 0
M  V30 2469 H 231.091 -1.09047 -1.02123 0
M  V30 2470 H 232.973 -0.684581 -4.15802 0
M  V30 2471 H 231.648 0.0771071 -3.23608 0
M  V30 2472 H 230.555 -2.22863 -3.00471 0
M  V30 2473 H 231.888 -2.91636 -3.96496 0
M  V30 2474 N 233.54 1.10788 -1.12088 0
M  V30 2475 C 234.503 2.15207 -0.788577 0
M  V30 2476 C 235.503 1.59609 0.195317 0
M  V30 2477 O 236.693 1.74174 -0.0300193 0
M  V30 2478 C 233.825 3.4047 -0.171174 0
M  V30 2479 H 235.018 2.46116 -1.71368 0
M  V30 2480 H 232.571 1.26089 -0.923652 0
M  V30 2481 H 233.306 3.15176 0.763832 0
M  V30 2482 H 233.091 3.82109 -0.879514 0
M  V30 2483 H 234.581 4.17576 0.04496 0
M  V30 2484 N 235.018 0.912232 1.28515 0
M  V30 2485 C 236.266 0.543523 1.94654 0
M  V30 2486 C 236.587 -0.9155 1.72173 0
M  V30 2487 O 235.857 -1.64708 1.06058 0
M  V30 2488 H 234.437 0.198017 0.720277 0
M  V30 2489 H 237.099 1.16126 1.56527 0
M  V30 2490 H 236.195 0.736684 3.03281 0
M  V30 2491 N 236.496 -1.42363 0.676048 0
M  V30 2492 C 237.742 -2.0182 0.199125 0
M  V30 2493 C 238.075 -1.53339 -1.19168 0
M  V30 2494 O 237.35 -0.736124 -1.80032 0
M  V30 2495 C 237.633 -3.59331 0.235144 0
M  V30 2496 C 237.486 -4.17989 1.66149 0
M  V30 2497 C 238.805 -4.3813 -0.41595 0
M  V30 2498 H 235.924 -0.733293 0.0738311 0
M  V30 2499 H 238.566 -1.69368 0.86107 0
M  V30 2500 H 236.716 -3.87109 -0.328487 0
M  V30 2501 H 238.388 -4.0116 2.27747 0
M  V30 2502 H 236.631 -3.7377 2.20178 0
M  V30 2503 H 237.302 -5.27126 1.63837 0
M  V30 2504 H 239.778 -4.16051 0.0638529 0
M  V30 2505 H 238.654 -5.47717 -0.360115 0
M  V30 2506 H 238.915 -4.16101 -1.49373 0
M  V30 2507 N 237.974 -0.419461 -1.51915 0
M  V30 2508 C 238.884 0.407528 -2.31033 0
M  V30 2509 C 239.9 1.04413 -1.3919 0
M  V30 2510 O 241.076 1.0434 -1.72265 0
M  V30 2511 C 238.141 1.50365 -3.12396 0
M  V30 2512 C 237.202 0.889029 -4.19994 0
M  V30 2513 C 236.435 1.93291 -4.97468 0
M  V30 2514 O 236.658 3.15259 -4.75361 0
M  V30 2515 O 235.592 1.53339 -5.8204 0
M  V30 2516 H 239.418 -0.237865 -3.02767 0
M  V30 2517 H 237.003 -0.182413 -1.48282 0
M  V30 2518 H 238.885 2.13975 -3.63032 0
M  V30 2519 H 237.56 2.13345 -2.43445 0
M  V30 2520 H 236.467 0.215353 -3.7348 0
M  V30 2521 H 237.8 0.302991 -4.91267 0
M  V30 2522 N 239.452 1.56882 -0.150215 0
M  V30 2523 C 240.399 2.16922 0.788244 0
M  V30 2524 C 241.369 1.10303 1.24187 0
M  V30 2525 O 242.554 1.38359 1.31383 0
M  V30 2526 C 239.694 2.79754 2.02068 0
M  V30 2527 C 238.807 4.00775 1.61257 0
M  V30 2528 C 237.942 4.51595 2.79705 0
M  V30 2529 C 236.981 5.65074 2.35282 0
M  V30 2530 N 236.118 6.10499 3.4675 0
M  V30 2531 H 240.958 2.96779 0.269444 0
M  V30 2532 H 238.495 1.46599 0.12128 0
M  V30 2533 H 240.453 3.14329 2.74323 0
M  V30 2534 H 239.083 2.02536 2.51354 0
M  V30 2535 H 238.135 3.72158 0.787553 0
M  V30 2536 H 239.447 4.82978 1.24633 0
M  V30 2537 H 238.601 4.88242 3.60145 0
M  V30 2538 H 237.34 3.68406 3.19576 0
M  V30 2539 H 236.345 5.28 1.53283 0
M  V30 2540 H 237.57 6.50052 1.96493 0
M  V30 2541 H 235.516 5.30243 3.86236 0
M  V30 2542 H 235.433 6.87637 3.14152 0
M  V30 2543 H 236.701 6.51791 4.27537 0
M  V30 2544 N 240.93 -0.123565 1.57115 0
M  V30 2545 C 242.177 -0.832153 1.84612 0
M  V30 2546 C 242.505 -1.80093 0.734627 0
M  V30 2547 O 241.76 -1.93766 -0.27442 0
M  V30 2548 C 242.059 -1.62016 3.18568 0
M  V30 2549 C 241.725 -0.796084 4.43817 0
M  V30 2550 C 240.387 -0.568816 4.77826 0
M  V30 2551 C 242.739 -0.221364 5.2073 0
M  V30 2552 C 240.067 0.243499 5.86194 0
M  V30 2553 C 242.419 0.578117 6.29953 0
M  V30 2554 C 241.083 0.815744 6.62497 0
M  V30 2555 H 240.353 -0.304507 0.675542 0
M  V30 2556 H 243 -0.0947248 1.91266 0
M  V30 2557 H 241.305 -2.42837 3.0747 0
M  V30 2558 H 243.002 -2.17231 3.37064 0
M  V30 2559 H 239.592 -0.983307 4.17168 0
M  V30 2560 H 243.776 -0.384173 4.94811 0
M  V30 2561 H 239.032 0.436871 6.09837 0
M  V30 2562 H 243.206 1.03046 6.88734 0
M  V30 2563 H 240.833 1.44701 7.46301 0
M  V30 2564 N 242.408 -1.52605 -0.393616 0
M  V30 2565 C 243.657 -1.66649 -1.13627 0
M  V30 2566 C 243.97 -0.410364 -1.91247 0
M  V30 2567 O 245.176 -0.430854 -2.68059 0
M  V30 2568 C 243.632 -2.9449 -2.06891 0
M  V30 2569 C 243.24 -4.27266 -1.34714 0
M  V30 2570 C 244.984 -3.17899 -2.81319 0
M  V30 2571 C 242.891 -5.46217 -2.26717 0
M  V30 2572 H 241.821 -0.62084 -0.427871 0
M  V30 2573 H 244.472 -1.791 -0.399428 0
M  V30 2574 H 242.854 -2.75774 -2.84191 0
M  V30 2575 H 244.028 -4.56518 -0.626714 0
M  V30 2576 H 242.343 -4.10081 -0.722643 0
M  V30 2577 H 244.94 -4.03949 -3.50328 0
M  V30 2578 H 245.283 -2.32777 -3.45139 0
M  V30 2579 H 245.816 -3.37159 -2.11113 0
M  V30 2580 H 242.555 -6.33733 -1.67521 0
M  V30 2581 H 242.075 -5.21283 -2.96689 0
M  V30 2582 H 243.754 -5.7991 -2.86903 0
M  V30 2583 N 243.887 0.651787 -1.4349 0
M  V30 2584 C 244.837 1.75783 -1.45205 0
M  V30 2585 C 245.821 1.57679 -0.320328 0
M  V30 2586 O 247.013 1.67767 -0.564211 0
M  V30 2587 C 244.142 3.14377 -1.3792 0
M  V30 2588 C 243.228 3.38023 -2.56127 0
M  V30 2589 N 243.619 3.32135 -3.81471 0
M  V30 2590 C 241.917 3.68747 -2.50882 0
M  V30 2591 C 242.618 3.55902 -4.60118 0
M  V30 2592 N 241.594 3.77783 -3.90872 0
M  V30 2593 H 245.396 1.69657 -2.39987 0
M  V30 2594 H 242.91 0.853508 -1.38163 0
M  V30 2595 H 244.907 3.93666 -1.37231 0
M  V30 2596 H 243.567 3.21683 -0.441596 0
M  V30 2597 H 244.578 3.11515 -4.13738 0
M  V30 2598 H 241.255 3.8316 -1.65816 0
M  V30 2599 H 242.645 3.57116 -5.69138 0
M  V30 2600 N 245.365 1.30045 0.890287 0
M  V30 2601 C 246.611 1.18737 1.64406 0
M  V30 2602 C 246.944 -0.258525 1.92472 0
M  V30 2603 O 246.219 -1.18562 1.54186 0
M  V30 2604 C 246.502 2.01087 2.98724 0
M  V30 2605 C 246.355 3.53867 2.77665 0
M  V30 2606 C 247.674 1.84457 3.9958 0
M  V30 2607 H 244.793 0.432698 0.596608 0
M  V30 2608 H 247.435 1.5962 1.0306 0
M  V30 2609 H 245.585 1.66349 3.51084 0
M  V30 2610 H 247.257 3.98637 2.32133 0
M  V30 2611 H 245.5 3.78318 2.12269 0
M  V30 2612 H 246.171 4.06772 3.7315 0
M  V30 2613 H 248.647 2.14817 3.56361 0
M  V30 2614 H 247.523 2.44411 4.91482 0
M  V30 2615 H 247.784 0.802276 4.3476 0
M  V30 2616 N 246.843 -1.10192 1.12674 0
M  V30 2617 C 248.068 -1.86523 0.906853 0
M  V30 2618 C 248.493 -1.80221 -0.538711 0
M  V30 2619 O 247.851 -1.17396 -1.38158 0
M  V30 2620 C 247.899 -3.32758 1.3894 0
M  V30 2621 O 247.003 -4.08449 0.5695 0
M  V30 2622 H 246.344 -0.578678 0.325619 0
M  V30 2623 H 248.874 -1.39203 1.49946 0
M  V30 2624 H 248.884 -3.83608 1.38958 0
M  V30 2625 H 247.559 -3.36661 2.44197 0
M  V30 2626 H 246.136 -3.67427 0.636528 0
M  V30 2627 N 248.321 -0.919034 -1.28029 0
M  V30 2628 C 249.271 -0.382574 -2.24767 0
M  V30 2629 C 250.255 0.508286 -1.52661 0
M  V30 2630 O 251.447 0.347145 -1.73562 0
M  V30 2631 C 248.576 0.371432 -3.41285 0
M  V30 2632 C 247.662 -0.535449 -4.20706 0
M  V30 2633 N 248.053 -1.65141 -4.78082 0
M  V30 2634 C 246.351 -0.336824 -4.44726 0
M  V30 2635 C 247.052 -2.21475 -5.37888 0
M  V30 2636 N 246.028 -1.50537 -5.22341 0
M  V30 2637 H 249.83 -1.23477 -2.66703 0
M  V30 2638 H 247.344 -0.772299 -1.42861 0
M  V30 2639 H 249.341 0.772638 -4.09678 0
M  V30 2640 H 248.001 1.22066 -3.00882 0
M  V30 2641 H 249.012 -2.03392 -4.7629 0
M  V30 2642 H 245.689 0.47246 -4.14818 0
M  V30 2643 H 247.079 -3.15379 -5.93284 0
M  V30 2644 N 249.799 1.42003 -0.683588 0
M  V30 2645 C 250.729 2.33487 -0.024866 0
M  V30 2646 C 251.71 1.51163 0.779975 0
M  V30 2647 O 252.895 1.79739 0.735362 0
M  V30 2648 C 250.025 3.3487 0.920836 0
M  V30 2649 C 248.979 4.27414 0.223958 0
M  V30 2650 C 248.305 5.19074 1.2832 0
M  V30 2651 C 249.605 5.14445 -0.90242 0
M  V30 2652 H 251.299 2.88819 -0.788921 0
M  V30 2653 H 248.845 1.38873 -0.38083 0
M  V30 2654 H 250.798 3.97787 1.39081 0
M  V30 2655 H 249.522 2.77861 1.71642 0
M  V30 2656 H 248.181 3.65904 -0.225864 0
M  V30 2657 H 247.829 4.58387 2.071 0
M  V30 2658 H 247.529 5.81822 0.821995 0
M  V30 2659 H 249.053 5.84867 1.75392 0
M  V30 2660 H 250.467 5.70998 -0.513272 0
M  V30 2661 H 248.864 5.86072 -1.28997 0
M  V30 2662 H 249.934 4.52322 -1.74737 0
M  V30 2663 N 251.277 0.427512 1.51691 0
M  V30 2664 C 252.225 -0.403359 2.29076 0
M  V30 2665 C 253.219 -1.02962 1.34518 0
M  V30 2666 O 254.425 -0.965715 1.51901 0
M  V30 2667 H 250.8 -0.148879 0.737115 0
M  V30 2668 H 252.771 0.270295 2.97173 0
M  V30 2669 C 251.52 -1.49763 3.13794 0
M  V30 2670 H 250.843 -1.02508 3.86435 0
M  V30 2671 H 252.283 -2.05244 3.71014 0
M  V30 2672 C 250.742 -2.47536 2.28533 0
M  V30 2673 O 251.272 -3.51848 1.93819 0
M  V30 2674 N 249.478 -2.18187 1.91945 0
M  V30 2675 H 249.025 -1.33389 2.20375 0
M  V30 2676 H 248.983 -2.83848 1.35195 0
M  V30 2677 N 252.755 -1.56801 0.158532 0
M  V30 2678 C 253.718 -2.16138 -0.762705 0
M  V30 2679 C 254.718 -1.1061 -1.16713 0
M  V30 2680 O 255.908 -1.36191 -1.08617 0
M  V30 2681 C 253.04 -2.73386 -2.03649 0
M  V30 2682 H 254.233 -2.98886 -0.246354 0
M  V30 2683 H 251.786 -1.56035 -0.0909744 0
M  V30 2684 H 252.521 -1.94335 -2.59623 0
M  V30 2685 H 252.306 -3.50601 -1.75559 0
M  V30 2686 H 253.796 -3.19065 -2.6942 0
M  V30 2687 N 254.233 0.115231 -1.57178 0
M  V30 2688 C 255.181 1.16014 -2.01602 0
M  V30 2689 C 256.175 1.42653 -0.913587 0
M  V30 2690 O 257.381 1.42571 -1.09879 0
M  V30 2691 H 253.756 0.391252 -0.642204 0
M  V30 2692 H 255.727 0.758998 -2.88586 0
M  V30 2693 C 254.476 2.47767 -2.4394 0
M  V30 2694 H 253.799 2.28108 -3.28339 0
M  V30 2695 H 255.239 3.19432 -2.78818 0
M  V30 2696 C 253.698 3.10617 -1.30455 0
M  V30 2697 O 254.228 3.96846 -0.622585 0
M  V30 2698 N 252.434 2.70553 -1.06064 0
M  V30 2699 H 251.981 2.00527 -1.61699 0
M  V30 2700 H 251.939 3.12934 -0.303284 0
M  V30 2701 N 255.711 1.52812 0.385517 0
M  V30 2702 C 256.96 1.67249 1.12741 0
M  V30 2703 C 257.273 0.4205 1.91027 0
M  V30 2704 O 258.479 0.445064 2.67827 0
M  V30 2705 C 256.935 2.95583 2.05326 0
M  V30 2706 C 256.543 4.27974 1.32447 0
M  V30 2707 C 258.287 3.19386 2.7963 0
M  V30 2708 C 256.194 5.47412 2.23818 0
M  V30 2709 H 255.124 0.6231 0.424573 0
M  V30 2710 H 257.775 1.79309 0.389924 0
M  V30 2711 H 256.157 2.77277 2.82725 0
M  V30 2712 H 257.331 4.56844 0.602495 0
M  V30 2713 H 255.646 4.10459 0.700885 0
M  V30 2714 H 258.243 4.05801 3.48181 0
M  V30 2715 H 258.586 2.34604 3.43899 0
M  V30 2716 H 259.119 3.38274 2.09322 0
M  V30 2717 H 255.858 6.34612 1.64157 0
M  V30 2718 H 255.378 5.22849 2.93921 0
M  V30 2719 H 257.057 5.81423 2.83824 0
M  V30 2720 N 257.189 -0.644168 1.43834 0
M  V30 2721 C 258.136 -1.75671 1.49694 0
M  V30 2722 C 259.106 -1.6246 0.345809 0
M  V30 2723 O 260.291 -1.82573 0.554234 0
M  V30 2724 C 257.431 -3.13867 1.43463 0
M  V30 2725 C 256.544 -3.38147 2.6885 0
M  V30 2726 C 255.679 -4.66241 2.54544 0
M  V30 2727 C 254.718 -4.83657 3.75157 0
M  V30 2728 N 253.855 -6.03016 3.59605 0
M  V30 2729 H 258.695 -1.69998 2.44754 0
M  V30 2730 H 256.232 -0.829458 1.21484 0
M  V30 2731 H 258.19 -3.9377 1.37843 0
M  V30 2732 H 256.82 -3.18588 0.519783 0
M  V30 2733 H 255.872 -2.52276 2.84712 0
M  V30 2734 H 257.184 -3.46899 3.58417 0
M  V30 2735 H 256.338 -5.54285 2.46683 0
M  V30 2736 H 255.077 -4.59826 1.62516 0
M  V30 2737 H 254.082 -3.94046 3.83416 0
M  V30 2738 H 255.307 -4.91896 4.68204 0
M  V30 2739 H 253.253 -5.97715 2.7032 0
M  V30 2740 H 253.17 -6.12766 4.42779 0
M  V30 2741 H 254.438 -6.93657 3.55613 0
M  V30 2742 N 258.668 -1.30515 -0.883378 0
M  V30 2743 C 259.893 -1.22487 -1.67367 0
M  V30 2744 C 260.318 0.208767 -1.86938 0
M  V30 2745 O 259.676 1.15015 -1.40148 0
M  V30 2746 C 259.724 -1.96041 -3.02655 0
M  V30 2747 O 258.828 -1.28859 -3.91751 0
M  V30 2748 H 258.169 -0.423573 -0.511353 0
M  V30 2749 H 260.699 -1.72362 -1.10239 0
M  V30 2750 H 260.709 -2.05124 -3.52687 0
M  V30 2751 H 259.384 -3.00307 -2.8773 0
M  V30 2752 H 257.961 -1.28141 -3.50192 0
M  V30 2753 N 260.146 1.09593 -1.13257 0
M  V30 2754 C 261.371 1.8604 -0.916732 0
M  V30 2755 C 261.796 1.80504 0.529146 0
M  V30 2756 O 261.154 1.18127 1.37534 0
M  V30 2757 C 261.202 3.32017 -1.40703 0
M  V30 2758 O 260.306 4.08141 -0.591153 0
M  V30 2759 H 259.647 0.576943 -0.328683 0
M  V30 2760 H 262.177 1.38405 -1.50682 0
M  V30 2761 H 262.187 3.82865 -1.4099 0
M  V30 2762 H 260.862 3.35361 -2.45979 0
M  V30 2763 H 259.439 3.67084 -0.656005 0
M  V30 2764 N 261.624 0.925811 1.2754 0
M  V30 2765 C 262.849 0.580924 1.99098 0
M  V30 2766 C 263.274 -0.833555 1.68622 0
M  V30 2767 O 262.632 -1.55903 0.925422 0
M  V30 2768 C 262.68 0.811186 3.51358 0
M  V30 2769 O 261.784 -0.124129 4.12213 0
M  V30 2770 H 261.125 0.223873 0.625122 0
M  V30 2771 H 263.655 1.24455 1.62395 0
M  V30 2772 H 263.665 0.72601 4.01489 0
M  V30 2773 H 262.34 1.84227 3.72872 0
M  V30 2774 H 260.917 0.0108006 3.72898 0
M  V30 2775 N 263.102 -1.41638 0.69111 0
M  V30 2776 C 264.518 -1.55435 0.362224 0
M  V30 2777 C 264.718 -1.66754 -1.13117 0
M  V30 2778 O 263.774 -1.64348 -1.91692 0
M  V30 2779 C 265.087 -2.79588 1.10684 0
M  V30 2780 C 266.635 -2.9338 1.09075 0
M  V30 2781 C 267.11 -4.20414 1.81703 0
M  V30 2782 N 268.601 -4.27362 1.7865 0
M  V30 2783 C 269.336 -5.24507 2.31689 0
M  V30 2784 N 268.832 -6.27708 2.93179 0
M  V30 2785 N 270.625 -5.16416 2.2197 0
M  V30 2786 H 262.776 -1.32536 1.65976 0
M  V30 2787 H 265.039 -0.639115 0.700168 0
M  V30 2788 H 264.745 -2.77419 2.16175 0
M  V30 2789 H 264.619 -3.70973 0.682545 0
M  V30 2790 H 267.006 -2.95067 0.0441238 0
M  V30 2791 H 267.087 -2.0318 1.55407 0
M  V30 2792 H 266.731 -4.19488 2.86343 0
M  V30 2793 H 266.661 -5.09578 1.32808 0
M  V30 2794 H 269.152 -3.53415 1.33815 0
M  V30 2795 H 269.465 -6.98217 3.31229 0
M  V30 2796 H 267.81 -6.28223 2.97255 0
M  V30 2797 H 271.001 -4.34716 1.73607 0
M  V30 2798 H 271.174 -5.91958 2.63609 0
M  V30 2799 N 264.58 -0.43555 -1.51462 0
M  V30 2800 C 265.81 0.130053 -2.0619 0
M  V30 2801 C 266.218 1.37164 -1.30317 0
M  V30 2802 O 265.561 1.80225 -0.355598 0
M  V30 2803 C 265.623 0.519418 -3.55728 0
M  V30 2804 C 265.287 -0.615119 -4.52841 0
M  V30 2805 C 266.284 -1.48671 -4.9819 0
M  V30 2806 C 263.969 -0.795341 -4.95963 0
M  V30 2807 C 265.963 -2.52324 -5.8533 0
M  V30 2808 C 263.65 -1.83514 -5.82894 0
M  V30 2809 C 264.648 -2.69748 -6.27475 0
M  V30 2810 O 264.336 -3.71944 -7.1268 0
M  V30 2811 H 264.068 0.0121612 -0.675891 0
M  V30 2812 H 266.622 -0.6129 -1.96043 0
M  V30 2813 H 264.852 1.31505 -3.63653 0
M  V30 2814 H 266.541 1.01597 -3.92979 0
M  V30 2815 H 267.307 -1.359 -4.65571 0
M  V30 2816 H 263.186 -0.133713 -4.60806 0
M  V30 2817 H 266.73 -3.19665 -6.20048 0
M  V30 2818 H 262.627 -1.96306 -6.14926 0
M  V30 2819 H 263.395 -3.68503 -7.30854 0
M  V30 2820 N 266.058 1.56714 -0.166846 0
M  V30 2821 C 266.988 2.20754 0.760913 0
M  V30 2822 C 267.969 1.16178 1.24244 0
M  V30 2823 O 269.154 1.44592 1.29641 0
M  V30 2824 C 266.284 2.84478 1.99223 0
M  V30 2825 C 265.238 3.95053 1.64672 0
M  V30 2826 C 264.564 4.45805 2.95232 0
M  V30 2827 C 265.864 5.14865 0.878155 0
M  V30 2828 H 267.558 2.98537 0.22713 0
M  V30 2829 H 265.104 1.43596 0.107805 0
M  V30 2830 H 267.057 3.27951 2.64624 0
M  V30 2831 H 265.781 2.04056 2.55007 0
M  V30 2832 H 264.44 3.52228 1.01641 0
M  V30 2833 H 264.088 3.62181 3.49047 0
M  V30 2834 H 263.788 5.204 2.7287 0
M  V30 2835 H 265.312 4.91962 3.6167 0
M  V30 2836 H 266.726 5.55059 1.43466 0
M  V30 2837 H 265.123 5.95348 0.753738 0
M  V30 2838 H 266.193 4.84735 -0.126377 0
M  V30 2839 N 267.536 -0.106894 1.57237 0
M  V30 2840 C 268.952 -0.46078 1.52804 0
M  V30 2841 C 269.152 -1.81184 0.881746 0
M  V30 2842 O 268.208 -2.48102 0.469224 0
M  V30 2843 C 269.521 -0.434127 2.9755 0
M  V30 2844 C 271.069 -0.516821 3.08704 0
M  V30 2845 C 271.544 -0.520436 4.55033 0
M  V30 2846 N 273.035 -0.58153 4.59535 0
M  V30 2847 C 273.77 -0.605973 5.70189 0
M  V30 2848 N 273.266 -0.587331 6.90306 0
M  V30 2849 N 275.059 -0.649895 5.5833 0
M  V30 2850 H 267.21 0.778203 1.9763 0
M  V30 2851 H 269.473 0.288403 0.903066 0
M  V30 2852 H 269.179 0.491197 3.48253 0
M  V30 2853 H 269.053 -1.25748 3.55622 0
M  V30 2854 H 271.44 -1.43256 2.57995 0
M  V30 2855 H 271.521 0.334449 2.53604 0
M  V30 2856 H 271.165 0.391313 5.0639 0
M  V30 2857 H 271.095 -1.38876 5.07958 0
M  V30 2858 H 273.586 -0.60161 3.73081 0
M  V30 2859 H 273.899 -0.60894 7.70397 0
M  V30 2860 H 272.244 -0.554564 6.92784 0
M  V30 2861 H 275.435 -0.661907 4.63397 0
M  V30 2862 H 275.608 -0.665476 6.44574 0
M  V30 2863 N 269.014 -1.53014 -0.377408 0
M  V30 2864 C 269.962 -1.7927 -1.48206 0
M  V30 2865 C 270.956 -0.661195 -1.55963 0
M  V30 2866 O 272.162 -0.843908 -1.58991 0
M  V30 2867 H 268.537 -0.567425 -0.493491 0
M  V30 2868 H 270.508 -2.71753 -1.2326 0
M  V30 2869 C 269.257 -1.98894 -2.85196 0
M  V30 2870 H 268.58 -2.85395 -2.79981 0
M  V30 2871 H 270.02 -2.21249 -3.61698 0
M  V30 2872 C 268.479 -0.764691 -3.28107 0
M  V30 2873 O 269.009 0.0523226 -4.01666 0
M  V30 2874 N 267.215 -0.591493 -2.84517 0
M  V30 2875 H 266.762 -1.25749 -2.24822 0
M  V30 2876 H 266.72 0.226253 -3.13585 0
M  V30 2877 N 270.492 0.636531 -1.44174 0
M  V30 2878 C 271.439 1.74875 -1.50624 0
M  V30 2879 C 272.409 1.62275 -0.35442 0
M  V30 2880 O 273.594 1.82276 -0.563908 0
M  V30 2881 C 270.734 3.13102 -1.45125 0
M  V30 2882 C 269.847 3.36717 -2.7064 0
M  V30 2883 C 268.982 4.64885 -2.57013 0
M  V30 2884 C 268.021 4.8166 -3.77717 0
M  V30 2885 N 267.158 6.01101 -3.62798 0
M  V30 2886 H 271.998 1.68697 -2.45653 0
M  V30 2887 H 269.535 0.823004 -1.21922 0
M  V30 2888 H 271.493 3.93034 -1.39929 0
M  V30 2889 H 270.123 3.18308 -0.536671 0
M  V30 2890 H 269.175 2.50763 -2.86046 0
M  V30 2891 H 270.487 3.44993 -3.60252 0
M  V30 2892 H 269.641 5.52969 -2.49619 0
M  V30 2893 H 268.38 4.58957 -1.64953 0
M  V30 2894 H 267.385 3.92007 -3.85501 0
M  V30 2895 H 268.61 4.89406 -4.70807 0
M  V30 2896 H 266.556 5.96273 -2.73486 0
M  V30 2897 H 266.473 6.10409 -4.46023 0
M  V30 2898 H 267.741 6.91761 -3.59286 0
M  V30 2899 N 271.97 1.30982 0.876444 0
M  V30 2900 C 272.933 1.18054 1.96459 0
M  V30 2901 C 273.933 0.109399 1.60427 0
M  V30 2902 O 275.123 0.358173 1.70478 0
M  V30 2903 C 272.255 0.810616 3.31122 0
M  V30 2904 H 273.448 2.14735 2.09354 0
M  V30 2905 H 271.001 1.145 1.06392 0
M  V30 2906 H 271.736 -0.155322 3.23928 0
M  V30 2907 H 271.521 1.58481 3.58645 0
M  V30 2908 H 273.011 0.743876 4.10921 0
M  V30 2909 N 273.449 -1.08991 1.13837 0
M  V30 2910 C 274.695 -1.81526 0.90422 0
M  V30 2911 C 275.028 -1.85706 -0.568066 0
M  V30 2912 O 274.303 -1.32855 -1.42056 0
M  V30 2913 C 274.586 -3.27447 1.49835 0
M  V30 2914 C 274.439 -3.31512 3.04006 0
M  V30 2915 C 275.758 -4.24256 1.17025 0
M  V30 2916 H 272.877 -0.659029 0.329923 0
M  V30 2917 H 275.519 -1.27644 1.40737 0
M  V30 2918 H 273.669 -3.73462 1.07044 0
M  V30 2919 H 275.341 -2.93867 3.55584 0
M  V30 2920 H 273.584 -2.70963 3.38765 0
M  V30 2921 H 274.255 -4.34329 3.40679 0
M  V30 2922 H 276.731 -3.86549 1.54009 0
M  V30 2923 H 275.607 -5.24684 1.61237 0
M  V30 2924 H 275.868 -4.42019 0.0846274 0
M  V30 2925 N 274.927 -0.932562 -1.27047 0
M  V30 2926 C 276.175 -0.574422 -1.93765 0
M  V30 2927 C 276.496 0.887993 -1.73608 0
M  V30 2928 O 275.766 1.62999 -1.08665 0
M  V30 2929 H 274.346 -0.209451 -0.717035 0
M  V30 2930 H 277.008 -1.18601 -1.5466 0
M  V30 2931 H 276.104 -0.784841 -3.02071 0
M  V30 2932 N 276.405 1.4127 -0.698611 0
M  V30 2933 C 277.315 2.34573 -0.0357891 0
M  V30 2934 C 278.331 1.56393 0.762701 0
M  V30 2935 O 279.507 1.8886 0.699564 0
M  V30 2936 C 276.572 3.35159 0.887089 0
M  V30 2937 C 275.633 4.29225 0.0804634 0
M  V30 2938 C 274.866 5.25006 0.959387 0
M  V30 2939 O 275.089 5.26314 2.19886 0
M  V30 2940 O 274.023 6.00519 0.407439 0
M  V30 2941 H 277.849 2.92838 -0.804957 0
M  V30 2942 H 275.434 1.42175 -0.458966 0
M  V30 2943 H 277.316 3.9689 1.41621 0
M  V30 2944 H 275.991 2.79333 1.6357 0
M  V30 2945 H 274.898 3.70833 -0.493328 0
M  V30 2946 H 276.231 4.88157 -0.629547 0
M  V30 2947 N 277.883 0.443576 1.51229 0
M  V30 2948 C 278.83 -0.364716 2.279 0
M  V30 2949 C 279.8 -1.0114 1.31757 0
M  V30 2950 O 280.985 -1.02912 1.60667 0
M  V30 2951 C 278.125 -1.45644 3.12861 0
M  V30 2952 C 277.238 -0.827269 4.24005 0
M  V30 2953 C 276.373 -1.89456 4.96266 0
M  V30 2954 C 275.412 -1.24416 5.99322 0
M  V30 2955 N 274.549 -2.25309 6.64966 0
M  V30 2956 H 279.389 0.295464 2.96532 0
M  V30 2957 H 276.926 0.157554 1.46254 0
M  V30 2958 H 278.884 -2.10076 3.6045 0
M  V30 2959 H 277.514 -2.08616 2.46331 0
M  V30 2960 H 276.566 -0.0710839 3.80334 0
M  V30 2961 H 277.878 -0.312481 4.9782 0
M  V30 2962 H 277.032 -2.61535 5.47434 0
M  V30 2963 H 275.771 -2.4431 4.22095 0
M  V30 2964 H 274.776 -0.508868 5.4744 0
M  V30 2965 H 276.001 -0.702882 6.75453 0
M  V30 2966 H 273.947 -2.79231 5.93604 0
M  V30 2967 H 273.864 -1.78739 7.34567 0
M  V30 2968 H 275.132 -2.96853 7.20763 0
M  V30 2969 N 279.361 -1.56624 0.175154 0
M  V30 2970 C 280.607 -1.9729 -0.469506 0
M  V30 2971 C 280.94 -1.06128 -1.62636 0
M  V30 2972 O 280.215 -0.109183 -1.94193 0
M  V30 2973 C 280.498 -3.47375 -0.948804 0
M  V30 2974 C 280.351 -4.49317 0.208491 0
M  V30 2975 C 281.67 -4.00652 -1.82116 0
M  V30 2976 H 278.789 -0.717317 -0.16919 0
M  V30 2977 H 281.431 -1.88184 0.262062 0
M  V30 2978 H 279.581 -3.55267 -1.57219 0
M  V30 2979 H 281.253 -4.53482 0.845682 0
M  V30 2980 H 279.496 -4.25121 0.863395 0
M  V30 2981 H 280.167 -5.51741 -0.169059 0
M  V30 2982 H 282.643 -3.95416 -1.2956 0
M  V30 2983 H 281.519 -5.06075 -2.12554 0
M  V30 2984 H 281.78 -3.44699 -2.7683 0
M  V30 2985 N 280.839 0.0985539 -1.57292 0
M  V30 2986 C 282.085 0.803867 -1.86188 0
M  V30 2987 C 282.418 1.78549 -0.763794 0
M  V30 2988 O 281.693 1.93153 0.22855 0
M  V30 2989 C 281.976 1.53568 -3.25713 0
M  V30 2990 C 281.829 0.572277 -4.46145 0
M  V30 2991 C 283.148 2.48708 -3.63087 0
M  V30 2992 H 280.267 0.290781 -0.677211 0
M  V30 2993 H 282.909 0.0675783 -1.8988 0
M  V30 2994 H 281.059 2.16332 -3.22696 0
M  V30 2995 H 282.731 -0.0480894 -4.61275 0
M  V30 2996 H 280.974 -0.114618 -4.33649 0
M  V30 2997 H 281.645 1.12139 -5.40489 0
M  V30 2998 H 284.121 1.96039 -3.67026 0
M  V30 2999 H 282.997 2.96932 -4.61652 0
M  V30 3000 H 283.258 3.32309 -2.91588 0
M  V30 3001 N 282.317 1.53212 0.369288 0
M  V30 3002 C 283.733 1.42902 0.710712 0
M  V30 3003 C 283.933 0.565135 1.93413 0
M  V30 3004 O 282.989 0.0461484 2.52458 0
M  V30 3005 C 284.302 2.86042 0.927382 0
M  V30 3006 C 285.85 2.9565 1.02762 0
M  V30 3007 C 286.325 4.39843 1.27679 0
M  V30 3008 N 287.816 4.43256 1.34457 0
M  V30 3009 C 288.551 5.51929 1.55439 0
M  V30 3010 N 288.047 6.70655 1.73762 0
M  V30 3011 N 289.84 5.39502 1.57779 0
M  V30 3012 H 281.991 2.07888 -0.435457 0
M  V30 3013 H 284.254 0.938661 -0.132739 0
M  V30 3014 H 283.96 3.51557 0.100287 0
M  V30 3015 H 283.834 3.29472 1.83653 0
M  V30 3016 H 286.221 2.30291 1.84527 0
M  V30 3017 H 286.302 2.5562 0.0959504 0
M  V30 3018 H 285.946 5.05774 0.464175 0
M  V30 3019 H 285.876 4.77443 2.22162 0
M  V30 3020 H 288.367 3.5769 1.21926 0
M  V30 3021 H 288.68 7.49248 1.89335 0
M  V30 3022 H 287.025 6.73648 1.70948 0
M  V30 3023 H 290.216 4.45713 1.43029 0
M  V30 3024 H 290.389 6.2426 1.7379 0
M  V30 3025 N 283.795 -0.628877 1.44509 0
M  V30 3026 C 285.072 -1.38733 1.37886 0
M  V30 3027 C 285.452 -2.11065 0.0387008 0
M  V30 3028 O 284.8 -2.06476 -0.97878 0
M  V30 3029 C 285.01 -2.35188 2.57852 0
M  V30 3030 C 286.358 -2.9845 3.02014 0
M  V30 3031 O 287.382 -2.45513 2.58073 0
M  V30 3032 O 286.241 -3.94487 3.78209 0
M  V30 3033 H 283.335 -0.621015 0.54614 0
M  V30 3034 H 285.881 -0.653744 1.56602 0
M  V30 3035 H 284.653 -1.80855 3.46998 0
M  V30 3036 H 284.276 -3.1596 2.4136 0
M  V30 3037 N 285.273 -1.31445 -0.869486 0
M  V30 3038 C 286.236 -1.19094 -1.9583 0
M  V30 3039 C 287.236 -0.117906 -1.60367 0
M  V30 3040 O 288.426 -0.367208 -1.70286 0
M  V30 3041 C 285.558 -0.828165 -3.30688 0
M  V30 3042 H 286.751 -2.15842 -2.08212 0
M  V30 3043 H 284.304 -1.15063 -1.05784 0
M  V30 3044 H 285.039 0.138142 -3.24006 0
M  V30 3045 H 284.824 -1.6038 -3.578 0
M  V30 3046 H 286.314 -0.765658 -4.10521 0
M  V30 3047 N 286.751 1.08385 -1.14413 0
M  V30 3048 C 287.998 1.80776 -0.912482 0
M  V30 3049 C 288.326 1.86236 0.560934 0
M  V30 3050 O 287.581 1.33431 1.43159 0
M  V30 3051 C 287.88 3.26273 -1.45879 0
M  V30 3052 C 287.546 3.4093 -2.95089 0
M  V30 3053 C 286.208 3.44638 -3.35824 0
M  V30 3054 C 288.56 3.44591 -3.91033 0
M  V30 3055 C 285.888 3.49597 -4.71167 0
M  V30 3056 C 288.24 3.51086 -5.26233 0
M  V30 3057 C 286.904 3.53067 -5.6648 0
M  V30 3058 H 286.174 0.661507 -0.333901 0
M  V30 3059 H 288.821 1.27613 -1.42784 0
M  V30 3060 H 287.126 3.82146 -0.864376 0
M  V30 3061 H 288.823 3.80839 -1.2555 0
M  V30 3062 H 285.413 3.38736 -2.62594 0
M  V30 3063 H 289.597 3.40957 -3.60641 0
M  V30 3064 H 284.853 3.49424 -5.0171 0
M  V30 3065 H 289.027 3.52864 -6.00383 0
M  V30 3066 H 286.654 3.56662 -6.71339 0
M  V30 3067 N 288.23 0.939286 1.26551 0
M  V30 3068 C 289.641 0.628782 1.75793 0
M  V30 3069 C 289.992 -0.856046 1.7654 0
M  V30 3070 O 289.117 -1.66994 1.3763 0
M  V30 3071 C 289.712 1.13465 3.19235 0
M  V30 3072 C 288.271 0.874601 3.66098 0
M  V30 3073 C 287.418 1.28667 2.45642 0
M  V30 3074 H 290.369 1.1178 1.12654 0
M  V30 3075 H 290.39 0.487609 3.77363 0
M  V30 3076 H 289.902 2.21535 3.1866 0
M  V30 3077 H 288.003 -0.191793 3.72106 0
M  V30 3078 H 288.116 1.50028 4.55004 0
M  V30 3079 H 286.48 0.705109 2.44745 0
M  V30 3080 H 287.263 2.37625 2.47769 0
M  V30 3081 N 289.708 -1.40897 0.706093 0
M  V30 3082 C 290.618 -2.3455 0.0482286 0
M  V30 3083 C 291.634 -1.56796 -0.754396 0
M  V30 3084 O 292.81 -1.89228 -0.689538 0
M  V30 3085 C 289.875 -3.35625 -0.869303 0
M  V30 3086 C 288.936 -4.29261 -0.0576994 0
M  V30 3087 C 288.169 -5.25508 -0.931531 0
M  V30 3088 O 288.392 -5.27472 -2.17092 0
M  V30 3089 O 287.326 -6.00727 -0.375587 0
M  V30 3090 H 291.152 -2.92407 0.820476 0
M  V30 3091 H 288.737 -1.4193 0.4665 0
M  V30 3092 H 290.619 -3.97635 -1.39514 0
M  V30 3093 H 289.294 -2.80196 -1.62086 0
M  V30 3094 H 288.201 -3.70566 0.512988 0
M  V30 3095 H 289.534 -4.87817 0.655426 0
M  V30 3096 N 291.186 -0.45159 -1.50991 0
M  V30 3097 C 292.149 0.341117 -2.26647 0
M  V30 3098 C 293.149 0.937422 -1.30649 0
M  V30 3099 O 294.339 0.809644 -1.54241 0
M  V30 3100 C 291.471 1.48398 -3.06905 0
M  V30 3101 H 292.664 -0.322117 -2.98165 0
M  V30 3102 H 290.217 -0.205122 -1.54948 0
M  V30 3103 H 290.952 2.18284 -2.39838 0
M  V30 3104 H 290.737 1.06241 -3.77432 0
M  V30 3105 H 292.227 2.04367 -3.64176 0
M  V30 3106 N 292.664 1.56529 -0.183458 0
M  V30 3107 C 293.913 1.96419 0.458511 0
M  V30 3108 C 294.226 1.0727 1.63562 0
M  V30 3109 O 295.432 1.36893 2.34462 0
M  V30 3110 C 293.888 3.49298 0.867122 0
M  V30 3111 C 293.496 4.47092 -0.285057 0
M  V30 3112 C 295.24 3.97983 1.47683 0
M  V30 3113 C 293.147 5.91225 0.143862 0
M  V30 3114 H 292.077 0.733394 0.175071 0
M  V30 3115 H 294.728 1.81448 -0.273624 0
M  V30 3116 H 293.11 3.59731 1.65559 0
M  V30 3117 H 294.284 4.48383 -1.0625 0
M  V30 3118 H 292.599 4.08535 -0.805503 0
M  V30 3119 H 295.196 5.03134 1.80999 0
M  V30 3120 H 295.539 3.41618 2.37914 0
M  V30 3121 H 296.072 3.90617 0.752562 0
M  V30 3122 H 292.811 6.5149 -0.723974 0
M  V30 3123 H 292.331 5.93214 0.886413 0
M  V30 3124 H 294.01 6.44362 0.583628 0
M  V30 3125 N 294.142 -0.090211 1.57342 0
M  V30 3126 C 295.391 -0.791531 1.8552 0
M  V30 3127 C 295.704 -1.79659 0.773441 0
M  V30 3128 O 296.91 -2.54616 0.942497 0
M  V30 3129 C 295.366 -1.45856 3.2902 0
M  V30 3130 C 294.974 -0.493017 4.45279 0
M  V30 3131 C 296.718 -2.14332 3.66418 0
M  V30 3132 C 294.625 -1.16491 5.79814 0
M  V30 3133 H 293.555 -0.299356 0.692027 0
M  V30 3134 H 296.206 -0.0445343 1.83446 0
M  V30 3135 H 294.588 -2.25318 3.2565 0
M  V30 3136 H 295.762 0.270464 4.60006 0
M  V30 3137 H 294.077 0.0863061 4.16311 0
M  V30 3138 H 296.674 -2.65344 4.64216 0
M  V30 3139 H 297.017 -2.93447 2.95287 0
M  V30 3140 H 297.55 -1.41724 3.71698 0
M  V30 3141 H 294.289 -0.41447 6.54188 0
M  V30 3142 H 293.809 -1.8997 5.68921 0
M  V30 3143 H 295.488 -1.69001 6.24538 0
M  V30 3144 N 295.62 -1.53406 -0.361157 0
M  V30 3145 C 296.866 -1.70054 -1.10496 0
M  V30 3146 C 297.199 -0.453278 -1.88836 0
M  V30 3147 O 296.474 0.5495 -1.86576 0
M  V30 3148 C 296.757 -2.95317 -2.06058 0
M  V30 3149 C 296.61 -4.3021 -1.31298 0
M  V30 3150 C 297.929 -3.16193 -3.06121 0
M  V30 3151 H 295.048 -0.618799 -0.400321 0
M  V30 3152 H 297.69 -1.86052 -0.385318 0
M  V30 3153 H 295.84 -2.81809 -2.67425 0
M  V30 3154 H 297.512 -4.55538 -0.726807 0
M  V30 3155 H 295.755 -4.29421 -0.614853 0
M  V30 3156 H 296.426 -5.14 -2.01265 0
M  V30 3157 H 298.902 -3.28916 -2.5486 0
M  V30 3158 H 297.778 -4.05266 -3.70204 0
M  V30 3159 H 298.039 -2.31676 -3.76535 0
M  V30 3160 N 297.098 0.621204 -1.44841 0
M  V30 3161 C 298.045 1.73267 -1.5247 0
M  V30 3162 C 299.015 1.6189 -0.371611 0
M  V30 3163 O 300.2 1.81668 -0.58321 0
M  V30 3164 C 297.34 3.11545 -1.48438 0
M  V30 3165 C 296.453 3.33827 -2.74196 0
M  V30 3166 C 295.588 4.62133 -2.61929 0
M  V30 3167 C 294.627 4.77627 -3.82804 0
M  V30 3168 N 293.764 5.97219 -3.69153 0
M  V30 3169 H 298.604 1.66082 -2.47428 0
M  V30 3170 H 296.141 0.810026 -1.22788 0
M  V30 3171 H 298.099 3.91528 -1.4409 0
M  V30 3172 H 296.729 3.1772 -0.570402 0
M  V30 3173 H 295.781 2.47715 -2.88689 0
M  V30 3174 H 297.093 3.41153 -3.6389 0
M  V30 3175 H 296.247 5.50291 -2.5547 0
M  V30 3176 H 294.986 4.57182 -1.69811 0
M  V30 3177 H 293.991 3.87896 -3.89637 0
M  V30 3178 H 295.216 4.84385 -4.75971 0
M  V30 3179 H 293.162 5.93339 -2.79794 0
M  V30 3180 H 293.079 6.05644 -4.52472 0
M  V30 3181 H 294.347 6.87912 -3.66603 0
M  V30 3182 N 298.576 1.31904 0.862503 0
M  V30 3183 C 299.987 1.19803 1.43193 0
M  V30 3184 C 300.338 -0.192567 1.95253 0
M  V30 3185 O 299.463 -1.09081 1.86896 0
M  V30 3186 C 300.058 2.16883 2.60283 0
M  V30 3187 C 298.617 2.08692 3.13248 0
M  V30 3188 C 297.764 2.05691 1.85975 0
M  V30 3189 H 300.715 1.43846 0.670365 0
M  V30 3190 H 300.736 1.76278 3.37204 0
M  V30 3191 H 300.248 3.18083 2.22363 0
M  V30 3192 H 298.349 1.10713 3.55771 0
M  V30 3193 H 298.462 2.9815 3.75025 0
M  V30 3194 H 296.826 1.50814 2.05249 0
M  V30 3195 H 297.609 3.08659 1.50282 0
M  V30 3196 N 300.054 -1.07777 1.14986 0
M  V30 3197 C 301.279 -1.84558 0.946213 0
M  V30 3198 C 301.704 -1.81323 -0.500362 0
M  V30 3199 O 301.062 -1.20301 -1.35637 0
M  V30 3200 C 301.11 -3.29736 1.45968 0
M  V30 3201 O 300.214 -4.07149 0.65601 0
M  V30 3202 H 299.555 -0.571641 0.33782 0
M  V30 3203 H 302.085 -1.35991 1.52865 0
M  V30 3204 H 302.095 -3.80574 1.47063 0
M  V30 3205 H 300.77 -3.31406 2.51283 0
M  V30 3206 H 299.347 -3.65994 0.714322 0
M  V30 3207 N 301.532 -0.945985 -1.26051 0
M  V30 3208 C 302.809 -0.513816 -1.88731 0
M  V30 3209 C 303.189 1.00872 -1.8544 0
M  V30 3210 O 302.537 1.8708 -1.312 0
M  V30 3211 C 302.747 -1.08062 -3.31849 0
M  V30 3212 C 304.095 -1.1522 -4.08668 0
M  V30 3213 O 305.119 -1.03155 -3.40936 0
M  V30 3214 O 303.978 -1.34044 -5.29806 0
M  V30 3215 H 301.072 -0.168193 -0.809716 0
M  V30 3216 H 303.618 -1.03886 -1.34186 0
M  V30 3217 H 302.39 -2.1241 -3.2863 0
M  V30 3218 H 302.013 -0.538307 -3.93939 0
M  V30 3219 N 303.011 1.40521 -0.713556 0
M  V30 3220 C 304.26 2.00155 -0.249192 0
M  V30 3221 C 304.573 1.57224 1.16362 0
M  V30 3222 O 305.779 2.09542 1.72639 0
M  V30 3223 C 304.235 3.5773 -0.3946 0
M  V30 3224 C 303.843 4.09635 -1.81392 0
M  V30 3225 C 305.587 4.24499 0.00907364 0
M  V30 3226 C 303.494 5.59707 -1.91003 0
M  V30 3227 H 302.424 0.74868 -0.0894114 0
M  V30 3228 H 305.075 1.60784 -0.884352 0
M  V30 3229 H 303.457 3.94792 0.30911 0
M  V30 3230 H 304.631 3.83955 -2.54785 0
M  V30 3231 H 302.946 3.55456 -2.16888 0
M  V30 3232 H 305.543 5.34683 -0.0420404 0
M  V30 3233 H 305.886 4.02824 1.05065 0
M  V30 3234 H 306.419 3.92536 -0.645007 0
M  V30 3235 H 303.158 5.86234 -2.93275 0
M  V30 3236 H 302.678 5.87258 -1.22019 0
M  V30 3237 H 304.357 6.24776 -1.6812 0
M  V30 3238 N 304.489 0.459591 1.5075 0
M  V30 3239 C 305.736 -0.0993495 2.02256 0
M  V30 3240 C 306.064 -1.40751 1.34237 0
M  V30 3241 O 305.319 -1.90379 0.453228 0
M  V30 3242 C 305.618 -0.342866 3.55752 0
M  V30 3243 C 305.284 0.88218 4.42186 0
M  V30 3244 C 303.946 1.21808 4.65528 0
M  V30 3245 C 306.298 1.69837 4.92752 0
M  V30 3246 C 303.626 2.37045 5.36681 0
M  V30 3247 C 305.978 2.84192 5.65171 0
M  V30 3248 C 304.642 3.1821 5.8677 0
M  V30 3249 H 303.912 -0.0363545 0.740108 0
M  V30 3250 H 306.559 0.611329 1.8148 0
M  V30 3251 H 304.864 -1.13567 3.7498 0
M  V30 3252 H 306.561 -0.789121 3.93159 0
M  V30 3253 H 303.151 0.610467 4.2423 0
M  V30 3254 H 307.335 1.45205 4.74583 0
M  V30 3255 H 302.591 2.63689 5.51614 0
M  V30 3256 H 306.765 3.4779 6.03337 0
M  V30 3257 H 304.392 4.07613 6.41682 0
M  V30 3258 N 305.967 -1.56429 0.191757 0
M  V30 3259 C 307.215 -1.97095 -0.447006 0
M  V30 3260 C 307.536 -1.07967 -1.62383 0
M  V30 3261 O 306.806 -0.150248 -1.95323 0
M  V30 3262 H 305.386 -0.727832 -0.168135 0
M  V30 3263 H 308.048 -1.92911 0.27771 0
M  V30 3264 H 307.144 -3.01848 -0.793371 0
M  V30 3265 N 307.445 0.0818655 -1.57387 0
M  V30 3266 C 308.861 0.436412 -1.53517 0
M  V30 3267 C 309.061 1.79758 -0.910459 0
M  V30 3268 O 308.117 2.47324 -0.508636 0
M  V30 3269 C 309.43 0.386734 -2.98203 0
M  V30 3270 C 310.978 0.467644 -3.09487 0
M  V30 3271 C 311.453 0.447978 -4.55804 0
M  V30 3272 N 312.944 0.508348 -4.60402 0
M  V30 3273 C 313.679 0.515184 -5.71081 0
M  V30 3274 N 313.175 0.477435 -6.91153 0
M  V30 3275 N 314.968 0.560988 -5.59294 0
M  V30 3276 H 307.119 -0.809546 -1.96367 0
M  V30 3277 H 309.382 -0.302733 -0.898363 0
M  V30 3278 H 309.088 -0.546539 -3.47427 0
M  V30 3279 H 308.962 1.20075 -3.57578 0
M  V30 3280 H 311.349 1.39134 -2.60242 0
M  V30 3281 H 311.43 -0.374753 -2.5304 0
M  V30 3282 H 311.074 -0.471826 -5.05704 0
M  V30 3283 H 311.004 1.30777 -5.10103 0
M  V30 3284 H 313.495 0.54218 -3.7399 0
M  V30 3285 H 313.808 0.486299 -7.71268 0
M  V30 3286 H 312.153 0.444278 -6.93579 0
M  V30 3287 H 315.344 0.5881 -4.64391 0
M  V30 3288 H 315.517 0.562846 -6.45551 0
M  V30 3289 N 308.923 1.53595 0.353017 0
M  V30 3290 C 309.833 1.83897 1.45667 0
M  V30 3291 C 310.849 0.728334 1.58023 0
M  V30 3292 O 312.025 1.01968 1.73679 0
M  V30 3293 C 309.09 2.03383 2.80778 0
M  V30 3294 C 308.151 3.27262 2.77845 0
M  V30 3295 C 307.384 3.45809 4.06512 0
M  V30 3296 O 307.607 2.68387 5.03314 0
M  V30 3297 O 306.541 4.39207 4.11559 0
M  V30 3298 H 310.367 2.77686 1.2298 0
M  V30 3299 H 307.952 1.39132 0.544308 0
M  V30 3300 H 309.834 2.17698 3.60812 0
M  V30 3301 H 308.509 1.12783 3.03417 0
M  V30 3302 H 307.416 3.18359 1.96465 0
M  V30 3303 H 308.749 4.17824 2.60161 0
M  V30 3304 N 310.401 -0.613514 1.45168 0
M  V30 3305 C 311.678 -1.37263 1.39349 0
M  V30 3306 C 312.058 -2.11012 0.0610848 0
M  V30 3307 O 311.406 -2.07502 -0.956825 0
M  V30 3308 C 311.616 -2.3244 2.60332 0
M  V30 3309 C 312.964 -2.9523 3.05163 0
M  V30 3310 O 313.988 -2.42762 2.60663 0
M  V30 3311 O 312.847 -3.90454 3.82372 0
M  V30 3312 H 309.941 -0.615188 0.552696 0
M  V30 3313 H 312.487 -0.637097 1.57287 0
M  V30 3314 H 311.259 -1.77164 3.48896 0
M  V30 3315 H 310.882 -3.13383 2.44698 0
M  V30 3316 N 311.879 -1.3236 -0.855495 0
M  V30 3317 C 313.295 -1.11332 -1.14356 0
M  V30 3318 C 313.495 0.106751 -2.01217 0
M  V30 3319 O 312.551 0.791891 -2.39761 0
M  V30 3320 C 313.864 -2.39237 -1.82171 0
M  V30 3321 C 315.412 -2.44986 -1.9481 0
M  V30 3322 C 315.887 -3.7281 -2.66039 0
M  V30 3323 N 317.378 -3.73787 -2.73565 0
M  V30 3324 C 318.113 -4.69394 -3.29327 0
M  V30 3325 N 317.609 -5.75367 -3.85907 0
M  V30 3326 N 319.402 -4.56893 -3.27423 0
M  V30 3327 H 311.553 -2.10586 -0.277027 0
M  V30 3328 H 313.816 -0.929701 -0.185364 0
M  V30 3329 H 313.522 -3.28431 -1.25802 0
M  V30 3330 H 313.396 -2.50134 -2.82335 0
M  V30 3331 H 315.783 -1.56252 -2.50338 0
M  V30 3332 H 315.864 -2.38043 -0.936448 0
M  V30 3333 H 315.508 -4.61918 -2.11174 0
M  V30 3334 H 315.438 -3.77024 -3.67642 0
M  V30 3335 H 317.929 -2.97189 -2.33424 0
M  V30 3336 H 318.242 -6.44378 -4.26611 0
M  V30 3337 H 316.587 -5.79123 -3.84242 0
M  V30 3338 H 319.778 -3.73269 -2.82467 0
M  V30 3339 H 319.951 -5.31577 -3.7058 0
M  V30 3340 N 313.357 1.07166 -1.15556 0
M  V30 3341 C 314.604 1.79798 -0.931604 0
M  V30 3342 C 314.932 1.8682 0.54115 0
M  V30 3343 O 314.187 1.34942 1.41736 0
M  V30 3344 C 314.486 3.24707 -1.49332 0
M  V30 3345 C 314.152 3.37781 -2.98688 0
M  V30 3346 C 312.814 3.41057 -3.39461 0
M  V30 3347 C 315.166 3.40424 -3.94665 0
M  V30 3348 C 312.494 3.4458 -4.74849 0
M  V30 3349 C 314.846 3.45485 -5.29927 0
M  V30 3350 C 313.51 3.47039 -5.70193 0
M  V30 3351 H 312.78 0.657928 -0.340898 0
M  V30 3352 H 315.427 1.26091 -1.44129 0
M  V30 3353 H 313.732 3.81208 -0.904859 0
M  V30 3354 H 315.429 3.79486 -1.29582 0
M  V30 3355 H 312.019 3.35932 -2.66172 0
M  V30 3356 H 316.203 3.37113 -3.64237 0
M  V30 3357 H 311.459 3.44083 -5.05388 0
M  V30 3358 H 315.633 3.46476 -6.04092 0
M  V30 3359 H 313.26 3.49522 -6.75084 0
M  V30 3360 N 314.835 0.952656 1.25548 0
M  V30 3361 C 315.765 0.489287 2.28316 0
M  V30 3362 C 316.746 -0.463359 1.63667 0
M  V30 3363 O 317.931 -0.36274 1.90782 0
M  V30 3364 C 315.061 -0.235603 3.465 0
M  V30 3365 C 314.015 0.631593 4.23314 0
M  V30 3366 C 313.341 -0.223923 5.34231 0
M  V30 3367 C 314.641 1.90871 4.86174 0
M  V30 3368 H 316.335 1.34822 2.67326 0
M  V30 3369 H 313.881 0.649728 1.28509 0
M  V30 3370 H 315.834 -0.570882 4.17515 0
M  V30 3371 H 314.558 -1.12877 3.06474 0
M  V30 3372 H 313.217 0.949929 3.54079 0
M  V30 3373 H 312.865 -1.11678 4.90446 0
M  V30 3374 H 312.565 0.35299 5.86539 0
M  V30 3375 H 314.089 -0.554214 6.0808 0
M  V30 3376 H 315.503 1.63997 5.49343 0
M  V30 3377 H 313.9 2.43112 5.4865 0
M  V30 3378 H 314.97 2.61304 4.08471 0
M  V30 3379 N 316.313 -1.40141 0.720998 0
M  V30 3380 C 317.261 -2.3252 0.0608547 0
M  V30 3381 C 318.255 -1.52326 -0.741152 0
M  V30 3382 O 319.461 -1.68089 -0.643911 0
M  V30 3383 H 315.836 -0.751999 0.000876664 0
M  V30 3384 H 317.807 -2.8584 0.856614 0
M  V30 3385 C 316.556 -3.37331 -0.842809 0
M  V30 3386 H 315.879 -3.99108 -0.235084 0
M  V30 3387 H 317.319 -4.04452 -1.27257 0
M  V30 3388 C 315.778 -2.73246 -1.97074 0
M  V30 3389 O 316.308 -2.59998 -3.06209 0
M  V30 3390 N 314.514 -2.31547 -1.75597 0
M  V30 3391 H 314.061 -2.42522 -0.868368 0
M  V30 3392 H 314.019 -1.89007 -2.51244 0
M  V30 3393 N 317.792 -0.46758 -1.50504 0
M  V30 3394 C 319.017 0.0886943 -2.0721 0
M  V30 3395 C 319.442 1.33057 -1.32956 0
M  V30 3396 O 318.8 1.77354 -0.376197 0
M  V30 3397 C 318.848 0.359202 -3.58806 0
M  V30 3398 O 317.952 1.44034 -3.8643 0
M  V30 3399 H 317.293 -0.0114349 -0.663902 0
M  V30 3400 H 319.823 -0.657613 -1.93744 0
M  V30 3401 H 319.833 0.600742 -4.03553 0
M  V30 3402 H 318.508 -0.548311 -4.1227 0
M  V30 3403 H 317.085 1.18638 -3.53524 0
M  V30 3404 N 319.27 1.56325 -0.20005 0
M  V30 3405 C 320.517 1.97719 0.437411 0
M  V30 3406 C 320.845 1.08709 1.61284 0
M  V30 3407 O 320.1 0.127261 1.95286 0
M  V30 3408 C 320.399 3.4495 0.935103 0
M  V30 3409 C 320.065 4.5072 -0.12749 0
M  V30 3410 C 318.727 4.79368 -0.419451 0
M  V30 3411 C 321.079 5.14268 -0.847231 0
M  V30 3412 C 318.407 5.68854 -1.43604 0
M  V30 3413 C 320.759 6.04852 -1.85301 0
M  V30 3414 C 319.423 6.31855 -2.15211 0
M  V30 3415 H 318.693 0.723507 0.16006 0
M  V30 3416 H 321.34 1.89166 -0.298056 0
M  V30 3417 H 319.645 3.50599 1.74894 0
M  V30 3418 H 321.342 3.74337 1.43781 0
M  V30 3419 H 317.932 4.28458 0.11023 0
M  V30 3420 H 322.116 4.92222 -0.634901 0
M  V30 3421 H 317.372 5.88047 -1.67364 0
M  V30 3422 H 321.546 6.53152 -2.41591 0
M  V30 3423 H 319.173 7.00994 -2.94129 0
M  V30 3424 N 320.748 -0.0735177 1.57428 0
M  V30 3425 C 321.711 -1.07192 2.02589 0
M  V30 3426 C 322.711 -1.31695 0.922661 0
M  V30 3427 O 323.901 -1.27445 1.18758 0
M  V30 3428 C 321.033 -2.41599 2.40506 0
M  V30 3429 H 322.226 -0.682727 2.92025 0
M  V30 3430 H 319.779 -0.319193 1.53006 0
M  V30 3431 H 320.514 -2.85354 1.5409 0
M  V30 3432 H 320.299 -2.25156 3.21009 0
M  V30 3433 H 321.789 -3.13367 2.76027 0
M  V30 3434 N 322.226 -1.5378 -0.344866 0
M  V30 3435 C 323.451 -1.75211 -1.10977 0
M  V30 3436 C 323.876 -0.48936 -1.81623 0
M  V30 3437 O 323.234 0.557925 -1.72502 0
M  V30 3438 C 323.282 -2.93147 -2.09993 0
M  V30 3439 O 322.386 -2.63203 -3.17487 0
M  V30 3440 H 321.727 -0.581241 -0.321021 0
M  V30 3441 H 324.257 -2.00738 -0.395661 0
M  V30 3442 H 324.267 -3.19898 -2.53237 0
M  V30 3443 H 322.942 -3.84731 -1.5797 0
M  V30 3444 H 321.519 -2.47336 -2.79069 0
M  V30 3445 N 323.704 0.605807 -1.45491 0
M  V30 3446 C 324.637 1.73022 -1.48791 0
M  V30 3447 C 325.615 1.58917 -0.344112 0
M  V30 3448 O 326.799 1.80453 -0.544876 0
M  V30 3449 C 323.926 3.10865 -1.34463 0
M  V30 3450 C 322.972 3.43554 -2.5273 0
M  V30 3451 S 323.805 3.38196 -4.15191 0
M  V30 3452 C 324.961 4.78616 -4.03333 0
M  V30 3453 H 325.194 1.69961 -2.43928 0
M  V30 3454 H 322.727 0.782611 -1.33096 0
M  V30 3455 H 324.685 3.90398 -1.26884 0
M  V30 3456 H 323.346 3.1144 -0.40794 0
M  V30 3457 H 322.539 4.43924 -2.38637 0
M  V30 3458 H 322.141 2.71541 -2.5718 0
M  V30 3459 H 324.433 5.68463 -3.68587 0
M  V30 3460 H 325.376 4.97767 -5.03621 0
M  V30 3461 H 325.784 4.54381 -3.34959 0
M  V30 3462 N 325.182 1.32811 0.848464 0
M  V30 3463 C 326.132 1.18842 1.94578 0
M  V30 3464 C 327.116 0.0937517 1.60627 0
M  V30 3465 O 328.308 0.320887 1.74067 0
M  V30 3466 C 325.437 0.91999 3.30743 0
M  V30 3467 C 324.523 2.05665 3.70894 0
M  V30 3468 N 324.914 3.30579 3.8282 0
M  V30 3469 C 323.212 1.9612 4.00566 0
M  V30 3470 C 323.913 4.05067 4.17487 0
M  V30 3471 N 322.889 3.33419 4.2934 0
M  V30 3472 H 326.691 2.13536 2.0194 0
M  V30 3473 H 324.205 1.2468 1.0406 0
M  V30 3474 H 326.202 0.800859 4.09136 0
M  V30 3475 H 324.862 -0.0185076 3.24695 0
M  V30 3476 H 325.873 3.65441 3.66978 0
M  V30 3477 H 322.55 1.09871 4.02784 0
M  V30 3478 H 323.94 5.12815 4.34131 0
M  V30 3479 N 326.66 -1.06551 1.16123 0
M  V30 3480 C 328.076 -1.3142 0.905585 0
M  V30 3481 C 328.276 -1.96571 -0.442964 0
M  V30 3482 O 327.332 -2.23068 -1.18308 0
M  V30 3483 C 328.645 -2.19741 2.05267 0
M  V30 3484 C 330.193 -2.33165 2.08813 0
M  V30 3485 C 330.668 -3.24838 3.22868 0
M  V30 3486 N 332.159 -3.32421 3.22568 0
M  V30 3487 C 332.894 -4.0344 4.0746 0
M  V30 3488 N 332.39 -4.77003 5.02434 0
M  V30 3489 N 334.183 -3.99464 3.95456 0
M  V30 3490 H 326.334 -0.626548 2.02949 0
M  V30 3491 H 328.597 -0.338777 0.8854 0
M  V30 3492 H 328.303 -1.79142 3.02657 0
M  V30 3493 H 328.177 -3.20313 1.99198 0
M  V30 3494 H 330.564 -2.73013 1.12018 0
M  V30 3495 H 330.645 -1.3227 2.18948 0
M  V30 3496 H 330.289 -2.85708 4.19921 0
M  V30 3497 H 330.219 -4.25707 3.0997 0
M  V30 3498 H 332.71 -2.79994 2.53795 0
M  V30 3499 H 333.023 -5.28712 5.63634 0
M  V30 3500 H 331.368 -4.75992 5.06415 0
M  V30 3501 H 334.559 -3.4111 3.20564 0
M  V30 3502 H 334.732 -4.54544 4.61837 0
M  V30 3503 N 328.138 -0.959301 -1.25041 0
M  V30 3504 C 329.385 -0.616611 -1.92884 0
M  V30 3505 C 329.713 0.847036 -1.75087 0
M  V30 3506 O 328.968 1.62374 -1.09239 0
M  V30 3507 C 329.267 -0.927136 -3.45165 0
M  V30 3508 C 328.933 -2.37757 -3.83122 0
M  V30 3509 C 327.595 -2.77402 -3.93194 0
M  V30 3510 C 329.947 -3.31929 -4.01836 0
M  V30 3511 C 327.275 -4.10277 -4.19392 0
M  V30 3512 C 329.627 -4.64423 -4.29528 0
M  V30 3513 C 328.291 -5.03857 -4.37818 0
M  V30 3514 H 327.561 -0.225634 -0.705812 0
M  V30 3515 H 330.208 -1.20921 -1.48493 0
M  V30 3516 H 328.513 -0.252195 -3.90987 0
M  V30 3517 H 330.21 -0.6405 -3.95852 0
M  V30 3518 H 326.8 -2.06013 -3.75841 0
M  V30 3519 H 330.984 -3.02488 -3.93465 0
M  V30 3520 H 326.24 -4.40467 -4.24027 0
M  V30 3521 H 330.414 -5.37369 -4.42953 0
M  V30 3522 H 328.041 -6.06843 -4.57871 0
M  V30 3523 N 329.616 1.39756 -0.72842 0
M  V30 3524 C 330.864 2.00248 -0.272946 0
M  V30 3525 C 331.185 1.58077 1.14178 0
M  V30 3526 O 330.455 0.826014 1.77634 0
M  V30 3527 H 329.035 0.740554 -0.0979247 0
M  V30 3528 H 331.697 1.70903 -0.936912 0
M  V30 3529 H 330.793 3.10495 -0.316142 0
M  V30 3530 N 331.094 0.475555 1.50254 0
M  V30 3531 C 332.505 0.0215174 1.86688 0
M  V30 3532 C 332.856 -1.38467 1.39001 0
M  V30 3533 O 331.981 -2.02732 0.756894 0
M  V30 3534 C 332.576 0.0322715 3.38785 0
M  V30 3535 C 331.135 -0.366314 3.74613 0
M  V30 3536 C 330.282 0.415832 2.74164 0
M  V30 3537 H 333.233 0.689612 1.42934 0
M  V30 3538 H 333.254 -0.76889 3.7265 0
M  V30 3539 H 332.766 1.05584 3.73462 0
M  V30 3540 H 330.867 -1.39406 3.45538 0
M  V30 3541 H 330.98 -0.064555 4.79057 0
M  V30 3542 H 329.344 -0.131048 2.54363 0
M  V30 3543 H 330.127 1.43899 3.11686 0
M  V30 3544 N 332.573 -1.56217 0.208337 0
M  V30 3545 C 333.822 -1.97124 -0.427204 0
M  V30 3546 C 334.135 -1.09859 -1.61835 0
M  V30 3547 O 335.341 -1.40606 -2.32255 0
M  V30 3548 C 333.797 -3.50633 -0.811442 0
M  V30 3549 C 333.405 -4.46582 0.35615 0
M  V30 3550 C 335.149 -4.00282 -1.41332 0
M  V30 3551 C 333.056 -5.91379 -0.0497852 0
M  V30 3552 H 331.986 -0.736086 -0.163381 0
M  V30 3553 H 334.637 -1.8099 0.302456 0
M  V30 3554 H 333.019 -3.62319 -1.59815 0
M  V30 3555 H 334.193 -4.46636 1.1337 0
M  V30 3556 H 332.508 -4.07202 0.870396 0
M  V30 3557 H 335.105 -5.0595 -1.72972 0
M  V30 3558 H 335.448 -3.45359 -2.32449 0
M  V30 3559 H 335.981 -3.91764 -0.690323 0
M  V30 3560 H 332.72 -6.50255 0.827529 0
M  V30 3561 H 332.24 -5.94549 -0.791926 0
M  V30 3562 H 333.919 -6.45209 -0.481042 0
M  V30 3563 N 334.051 0.0651679 -1.57465 0
M  V30 3564 C 335.462 0.616213 -1.76238 0
M  V30 3565 C 335.813 1.7756 -0.834689 0
M  V30 3566 O 334.938 2.1639 -0.0204156 0
M  V30 3567 C 335.533 1.12462 -3.1959 0
M  V30 3568 C 334.092 1.62147 -3.39684 0
M  V30 3569 C 333.239 0.543739 -2.71917 0
M  V30 3570 H 336.19 -0.161022 -1.57881 0
M  V30 3571 H 336.211 1.99324 -3.24114 0
M  V30 3572 H 335.723 0.280592 -3.87084 0
M  V30 3573 H 333.824 2.48854 -2.77313 0
M  V30 3574 H 333.937 1.69385 -4.48158 0
M  V30 3575 H 332.301 0.990352 -2.34657 0
M  V30 3576 H 333.084 -0.290216 -3.42071 0
M  V30 3577 N 335.529 1.53961 0.336706 0
M  V30 3578 C 336.459 1.85417 1.41925 0
M  V30 3579 C 337.44 0.709856 1.5458 0
M  V30 3580 O 338.625 0.962396 1.68676 0
M  V30 3581 C 335.755 2.06985 2.78881 0
M  V30 3582 C 334.709 3.22813 2.81026 0
M  V30 3583 C 334.035 3.29727 4.20932 0
M  V30 3584 C 335.335 4.60767 2.45949 0
M  V30 3585 H 337.029 2.76079 1.15848 0
M  V30 3586 H 334.575 1.32839 0.555859 0
M  V30 3587 H 336.528 2.27575 3.54665 0
M  V30 3588 H 335.252 1.13061 3.06406 0
M  V30 3589 H 333.911 3.0209 2.07695 0
M  V30 3590 H 333.559 2.33385 4.45579 0
M  V30 3591 H 333.259 4.07566 4.23277 0
M  V30 3592 H 334.783 3.52536 4.98549 0
M  V30 3593 H 336.197 4.81325 3.11446 0
M  V30 3594 H 334.594 5.4106 2.59566 0
M  V30 3595 H 335.664 4.6391 1.41122 0
M  V30 3596 N 337.007 -0.598083 1.45811 0
M  V30 3597 C 338.255 -1.35413 1.50026 0
M  V30 3598 C 338.576 -1.94444 0.147177 0
M  V30 3599 O 337.846 -1.77701 -0.824571 0
M  V30 3600 H 336.426 -0.502727 0.552517 0
M  V30 3601 H 339.088 -0.701606 1.81834 0
M  V30 3602 H 338.184 -2.16871 2.2444 0
M  V30 3603 N 338.485 -1.33259 -0.841409 0
M  V30 3604 C 339.71 -1.2775 -1.63385 0
M  V30 3605 C 340.135 0.149188 -1.87507 0
M  V30 3606 O 339.493 1.10498 -1.43736 0
M  V30 3607 C 339.541 -2.05571 -2.96265 0
M  V30 3608 O 338.645 -1.41257 -3.87453 0
M  V30 3609 H 337.986 -0.439627 -0.497618 0
M  V30 3610 H 340.516 -1.75782 -1.04699 0
M  V30 3611 H 340.526 -2.16241 -3.45982 0
M  V30 3612 H 339.201 -3.09309 -2.7803 0
M  V30 3613 H 337.778 -1.39217 -3.45938 0
M  V30 3614 N 339.963 1.05934 -1.16686 0
M  V30 3615 C 340.893 2.1546 -0.899949 0
M  V30 3616 C 341.874 1.69391 0.155154 0
M  V30 3617 O 343.059 1.94199 0.00648693 0
M  V30 3618 C 340.189 3.44939 -0.404241 0
M  V30 3619 C 339.143 4.04536 -1.39767 0
M  V30 3620 C 338.469 5.29268 -0.760216 0
M  V30 3621 C 339.769 4.42893 -2.76845 0
M  V30 3622 H 341.463 2.38046 -1.81588 0
M  V30 3623 H 339.009 1.14404 -0.874514 0
M  V30 3624 H 340.962 4.20901 -0.204971 0
M  V30 3625 H 339.686 3.21983 0.547206 0
M  V30 3626 H 338.345 3.30635 -1.58355 0
M  V30 3627 H 337.993 5.02611 0.197831 0
M  V30 3628 H 337.693 5.70101 -1.42332 0
M  V30 3629 H 339.217 6.07924 -0.57105 0
M  V30 3630 H 340.631 5.09921 -2.62019 0
M  V30 3631 H 339.028 4.94721 -3.39663 0
M  V30 3632 H 340.098 3.53584 -3.31823 0
M  V30 3633 N 341.441 0.965919 1.2453 0
M  V30 3634 C 342.689 0.625593 1.92174 0
M  V30 3635 C 343.01 -0.841652 1.75901 0
M  V30 3636 O 342.28 -1.60061 1.12948 0
M  V30 3637 H 340.86 0.228388 0.71123 0
M  V30 3638 H 343.522 1.2266 1.51461 0
M  V30 3639 H 342.618 0.864653 2.99884 0
M  V30 3640 N 342.919 -1.39368 0.735821 0
M  V30 3641 C 344.165 -2.01272 0.293439 0
M  V30 3642 C 344.52 -1.57344 -1.10728 0
M  V30 3643 O 343.813 -0.792744 -1.74431 0
M  V30 3644 C 344.007 -3.5583 0.334651 0
M  V30 3645 C 343.836 -4.14764 1.73784 0
M  V30 3646 C 342.606 -4.47315 2.35026 0
M  V30 3647 C 344.804 -4.38246 2.69157 0
M  V30 3648 N 342.786 -4.91756 3.6749 0
M  V30 3649 C 344.157 -4.849 3.86357 0
M  V30 3650 C 346.212 -4.20315 2.66908 0
M  V30 3651 C 344.915 -5.15505 5.01645 0
M  V30 3652 C 346.941 -4.52033 3.8134 0
M  V30 3653 C 346.303 -4.98895 4.97276 0
M  V30 3654 H 342.402 -0.766756 0.153652 0
M  V30 3655 H 344.986 -1.69276 0.961967 0
M  V30 3656 H 343.157 -3.87212 -0.303527 0
M  V30 3657 H 344.889 -4.04503 -0.126358 0
M  V30 3658 H 341.644 -4.35143 1.86943 0
M  V30 3659 H 342.068 -5.18333 4.35499 0
M  V30 3660 H 346.71 -3.83287 1.78468 0
M  V30 3661 H 344.428 -5.51437 5.90713 0
M  V30 3662 H 348.014 -4.39781 3.80899 0
M  V30 3663 H 346.894 -5.22973 5.84353 0
M  V30 3664 N 344.397 -0.483516 -1.5 0
M  V30 3665 C 345.344 0.304164 -2.28787 0
M  V30 3666 C 346.314 0.976114 -1.34392 0
M  V30 3667 O 347.499 0.986156 -1.63339 0
M  V30 3668 C 344.639 1.37298 -3.16612 0
M  V30 3669 C 343.752 0.714561 -4.26049 0
M  V30 3670 C 342.887 1.76232 -5.01114 0
M  V30 3671 C 341.926 1.08483 -6.0241 0
M  V30 3672 N 341.063 2.076 -6.70706 0
M  V30 3673 H 345.903 -0.373981 -2.95644 0
M  V30 3674 H 343.44 -0.196275 -1.45785 0
M  V30 3675 H 345.398 2.00445 -3.65893 0
M  V30 3676 H 344.028 2.02012 -2.51776 0
M  V30 3677 H 343.08 -0.0297798 -3.80388 0
M  V30 3678 H 344.392 0.180383 -4.98474 0
M  V30 3679 H 343.546 2.46929 -5.54176 0
M  V30 3680 H 342.285 2.33033 -4.28424 0
M  V30 3681 H 341.29 0.363545 -5.48597 0
M  V30 3682 H 342.515 0.523551 -6.77079 0
M  V30 3683 H 340.461 2.63394 -6.00799 0
M  V30 3684 H 340.378 1.59201 -7.39047 0
M  V30 3685 H 341.646 2.77639 -7.2838 0
M  V30 3686 N 345.875 1.56104 -0.216619 0
M  V30 3687 C 347.103 2.02563 0.421413 0
M  V30 3688 C 347.518 1.0965 1.53695 0
M  V30 3689 O 346.875 0.10521 1.82196 0
M  V30 3690 C 346.926 3.48584 0.957665 0
M  V30 3691 O 346.647 4.37953 -0.113389 0
M  V30 3692 C 348.148 4.10664 1.66943 0
M  V30 3693 H 345.368 0.662944 0.103665 0
M  V30 3694 H 347.912 2.01793 -0.331629 0
M  V30 3695 H 346.067 3.49985 1.661 0
M  V30 3696 H 346.481 5.23704 0.288932 0
M  V30 3697 H 347.955 5.14622 1.99671 0
M  V30 3698 H 348.432 3.55373 2.58083 0
M  V30 3699 H 349.038 4.13098 1.01142 0
M  V30 3700 N 347.353 -0.0568162 1.57498 0
M  V30 3701 C 348.599 -0.75422 1.88253 0
M  V30 3702 C 348.932 -1.76461 0.810865 0
M  V30 3703 O 348.207 -1.93691 -0.177259 0
M  V30 3704 C 348.49 -1.44878 3.2967 0
M  V30 3705 C 348.343 -0.453789 4.47505 0
M  V30 3706 C 349.662 -2.38994 3.69554 0
M  V30 3707 H 346.781 -0.272724 0.684683 0
M  V30 3708 H 349.423 -0.0172113 1.89992 0
M  V30 3709 H 347.573 -2.077 3.28318 0
M  V30 3710 H 349.245 0.170371 4.60985 0
M  V30 3711 H 347.488 0.229552 4.33192 0
M  V30 3712 H 348.159 -0.977699 5.43273 0
M  V30 3713 H 350.635 -1.86239 3.72095 0
M  V30 3714 H 349.511 -2.84587 4.69363 0
M  V30 3715 H 349.772 -3.24461 3.00296 0
M  V30 3716 N 348.832 -1.54138 -0.328536 0
M  V30 3717 C 349.779 -1.83176 -1.40411 0
M  V30 3718 C 350.749 -0.678494 -1.5161 0
M  V30 3719 O 351.934 -0.92443 -1.6691 0
M  V30 3720 C 349.074 -2.06035 -2.76846 0
M  V30 3721 C 348.187 -3.33727 -2.74318 0
M  V30 3722 C 347.322 -3.46574 -4.02567 0
M  V30 3723 C 346.361 -4.68159 -3.94327 0
M  V30 3724 N 345.498 -4.77959 -5.14296 0
M  V30 3725 H 350.338 -2.74938 -1.14948 0
M  V30 3726 H 347.875 -1.36166 -0.556538 0
M  V30 3727 H 349.833 -2.1728 -3.56153 0
M  V30 3728 H 348.463 -1.1757 -3.00628 0
M  V30 3729 H 347.515 -3.31246 -1.8703 0
M  V30 3730 H 348.827 -4.23139 -2.64111 0
M  V30 3731 H 347.981 -3.57333 -4.90304 0
M  V30 3732 H 346.72 -2.55245 -4.15574 0
M  V30 3733 H 345.725 -4.57461 -3.04974 0
M  V30 3734 H 346.95 -5.60868 -3.82889 0
M  V30 3735 H 344.896 -3.89544 -5.27818 0
M  V30 3736 H 344.813 -5.6133 -5.06404 0
M  V30 3737 H 346.081 -4.93044 -6.03761 0
M  V30 3738 N 350.31 0.590341 -1.46126 0
M  V30 3739 C 351.242 1.71427 -1.52136 0
M  V30 3740 C 352.255 1.57542 -0.41042 0
M  V30 3741 O 353.444 1.65106 -0.678389 0
M  V30 3742 C 350.544 3.09605 -1.37834 0
M  V30 3743 C 349.717 3.49566 -2.62912 0
M  V30 3744 C 348.776 4.66773 -2.42918 0
M  V30 3745 O 347.802 4.73019 -3.1661 0
M  V30 3746 N 349.004 5.61161 -1.4859 0
M  V30 3747 H 351.769 1.66728 -2.49042 0
M  V30 3748 H 349.33 0.776113 -1.42085 0
M  V30 3749 H 351.322 3.85796 -1.22243 0
M  V30 3750 H 349.892 3.08714 -0.491393 0
M  V30 3751 H 349.112 2.63158 -2.93499 0
M  V30 3752 H 350.4 3.73028 -3.46017 0
M  V30 3753 H 349.798 5.58844 -0.87808 0
M  V30 3754 H 348.355 6.36814 -1.38965 0
M  V30 3755 N 351.788 1.33704 0.83433 0
M  V30 3756 C 353.199 1.22813 1.4062 0
M  V30 3757 C 353.55 -0.151107 1.95617 0
M  V30 3758 O 352.675 -1.05092 1.89168 0
M  V30 3759 C 353.27 2.22355 2.55624 0
M  V30 3760 C 351.829 2.1529 3.08751 0
M  V30 3761 C 350.976 2.09589 1.8157 0
M  V30 3762 H 353.927 1.45236 0.639702 0
M  V30 3763 H 353.948 1.83391 3.33389 0
M  V30 3764 H 353.46 3.22728 2.15566 0
M  V30 3765 H 351.561 1.18235 3.53343 0
M  V30 3766 H 351.674 3.06038 3.68616 0
M  V30 3767 H 350.038 1.55134 2.02004 0
M  V30 3768 H 350.821 3.11777 1.43701 0
M  V30 3769 N 353.266 -1.05314 1.17247 0
M  V30 3770 C 354.512 -1.78557 0.961513 0
M  V30 3771 C 354.845 -1.87419 -0.508697 0
M  V30 3772 O 354.12 -1.37307 -1.37757 0
M  V30 3773 C 354.403 -3.22514 1.60176 0
M  V30 3774 C 354.256 -3.21673 3.14399 0
M  V30 3775 C 355.575 -4.20318 1.30463 0
M  V30 3776 H 352.694 -0.6482 0.350723 0
M  V30 3777 H 355.336 -1.23102 1.44727 0
M  V30 3778 H 353.486 -3.69867 1.18871 0
M  V30 3779 H 355.158 -2.82405 3.64753 0
M  V30 3780 H 353.401 -2.60048 3.47214 0
M  V30 3781 H 354.072 -4.23271 3.54324 0
M  V30 3782 H 356.548 -3.81454 1.66229 0
M  V30 3783 H 355.424 -5.19289 1.77848 0
M  V30 3784 H 355.685 -4.41526 0.22521 0
M  V30 3785 N 354.744 -0.972509 -1.24016 0
M  V30 3786 C 355.974 -0.653853 -1.9598 0
M  V30 3787 C 356.382 0.781801 -1.72292 0
M  V30 3788 O 355.725 1.53677 -1.00644 0
M  V30 3789 C 355.787 -0.854608 -3.49194 0
M  V30 3790 C 355.451 -2.27082 -3.96589 0
M  V30 3791 C 356.448 -3.24892 -4.05883 0
M  V30 3792 C 354.133 -2.5998 -4.29786 0
M  V30 3793 C 356.127 -4.53684 -4.47716 0
M  V30 3794 C 353.814 -3.88997 -4.71301 0
M  V30 3795 C 354.812 -4.85661 -4.80232 0
M  V30 3796 O 354.5 -6.12376 -5.20818 0
M  V30 3797 H 354.232 -0.242572 -0.630979 0
M  V30 3798 H 356.786 -1.30431 -1.58673 0
M  V30 3799 H 355.016 -0.146985 -3.86421 0
M  V30 3800 H 356.705 -0.534311 -4.02368 0
M  V30 3801 H 357.471 -3.00805 -3.80449 0
M  V30 3802 H 353.35 -1.85457 -4.22051 0
M  V30 3803 H 356.894 -5.29135 -4.54601 0
M  V30 3804 H 352.791 -4.12882 -4.96184 0
M  V30 3805 H 353.559 -6.16013 -5.38953 0
M  V30 3806 N 356.222 1.38976 -0.743202 0
M  V30 3807 C 357.468 2.0064 -0.295189 0
M  V30 3808 C 357.801 1.5885 1.11716 0
M  V30 3809 O 357.076 0.821181 1.76315 0
M  V30 3810 C 357.359 3.578 -0.406318 0
M  V30 3811 C 357.212 4.09586 -1.85903 0
M  V30 3812 C 358.531 4.39616 0.206439 0
M  V30 3813 H 355.65 0.728935 -0.108733 0
M  V30 3814 H 358.292 1.65067 -0.940897 0
M  V30 3815 H 356.442 3.88235 0.143419 0
M  V30 3816 H 358.114 3.89837 -2.46627 0
M  V30 3817 H 356.357 3.6284 -2.3776 0
M  V30 3818 H 357.028 5.18708 -1.888 0
M  V30 3819 H 359.504 4.15273 -0.262283 0
M  V30 3820 H 358.38 5.48812 0.0983819 0
M  V30 3821 H 358.641 4.22754 1.2935 0
M  V30 3822 N 357.7 0.491464 1.49741 0
M  V30 3823 C 358.946 -0.0565092 2.02721 0
M  V30 3824 C 359.279 -1.37522 1.37118 0
M  V30 3825 O 358.554 -1.87866 0.503645 0
M  V30 3826 C 358.837 -0.219051 3.59433 0
M  V30 3827 C 358.69 1.12211 4.35579 0
M  V30 3828 C 360.009 -0.964157 4.29409 0
M  V30 3829 H 357.128 -0.0190627 0.736753 0
M  V30 3830 H 359.77 0.641021 1.7886 0
M  V30 3831 H 357.92 -0.813165 3.79895 0
M  V30 3832 H 359.592 1.75437 4.26637 0
M  V30 3833 H 357.835 1.71377 3.98513 0
M  V30 3834 H 358.506 0.961794 5.43556 0
M  V30 3835 H 360.982 -0.460378 4.13545 0
M  V30 3836 H 359.858 -1.04671 5.38828 0
M  V30 3837 H 360.119 -2.00563 3.93988 0
M  V30 3838 N 359.178 -1.55987 0.224894 0
M  V30 3839 C 360.455 -1.90232 -0.455083 0
M  V30 3840 C 360.835 -1.14269 -1.77499 0
M  V30 3841 O 360.183 -0.253079 -2.27094 0
M  V30 3842 C 360.393 -3.42993 -0.644758 0
M  V30 3843 C 361.741 -4.13821 -0.950669 0
M  V30 3844 O 362.765 -3.4861 -0.731423 0
M  V30 3845 O 361.624 -5.29128 -1.36695 0
M  V30 3846 H 358.718 -0.79108 -0.241084 0
M  V30 3847 H 361.264 -1.67581 0.267327 0
M  V30 3848 H 360.036 -3.90252 0.28613 0
M  V30 3849 H 359.659 -3.71434 -1.41853 0
M  V30 3850 N 360.656 0.0484629 -1.57525 0
M  V30 3851 C 361.902 0.744226 -1.88651 0
M  V30 3852 C 362.235 1.76029 -0.820212 0
M  V30 3853 O 361.51 1.93782 0.166985 0
M  V30 3854 C 361.793 1.43128 -3.30434 0
M  V30 3855 C 361.646 0.43005 -4.47739 0
M  V30 3856 C 362.965 2.37031 -3.70816 0
M  V30 3857 H 360.084 0.269089 -0.68612 0
M  V30 3858 H 362.726 0.00713532 -1.89999 0
M  V30 3859 H 360.876 2.05956 -3.29415 0
M  V30 3860 H 362.548 -0.194816 -4.60888 0
M  V30 3861 H 360.791 -0.252522 -4.33064 0
M  V30 3862 H 361.462 0.948874 -5.43783 0
M  V30 3863 H 363.938 1.84263 -3.73077 0
M  V30 3864 H 362.814 2.82094 -4.70865 0
M  V30 3865 H 363.075 3.22864 -3.02012 0
M  V30 3866 N 362.134 1.5431 0.320358 0
M  V30 3867 C 363.359 1.76954 1.08175 0
M  V30 3868 C 363.784 0.518193 1.80821 0
M  V30 3869 O 363.142 -0.530411 1.73368 0
M  V30 3870 C 363.19 2.96451 2.05303 0
M  V30 3871 O 362.294 2.68221 3.13259 0
M  V30 3872 H 361.635 0.586275 0.311733 0
M  V30 3873 H 364.165 2.01342 0.363676 0
M  V30 3874 H 364.175 3.23887 2.48116 0
M  V30 3875 H 362.85 3.87196 1.51829 0
M  V30 3876 H 361.427 2.51744 2.75099 0
M  V30 3877 N 363.613 -0.582584 1.46437 0
M  V30 3878 C 364.56 -1.69164 1.5701 0
M  V30 3879 C 365.53 -1.60847 0.414403 0
M  V30 3880 O 366.715 -1.80058 0.631171 0
M  V30 3881 C 363.855 -3.075 1.56646 0
M  V30 3882 C 362.968 -3.2644 2.82951 0
M  V30 3883 C 362.103 -4.55026 2.7409 0
M  V30 3884 C 361.142 -4.6731 3.95333 0
M  V30 3885 N 360.279 -5.87221 3.84858 0
M  V30 3886 H 365.119 -1.59464 2.51744 0
M  V30 3887 H 362.656 -0.777186 1.24893 0
M  V30 3888 H 364.614 -3.8757 1.5442 0
M  V30 3889 H 363.244 -3.16096 0.654439 0
M  V30 3890 H 362.296 -2.39974 2.95155 0
M  V30 3891 H 363.608 -3.31385 3.72808 0
M  V30 3892 H 362.762 -5.43324 2.6997 0
M  V30 3893 H 361.501 -4.52519 1.81873 0
M  V30 3894 H 360.506 -3.77429 3.99784 0
M  V30 3895 H 361.731 -4.71595 4.88646 0
M  V30 3896 H 359.677 -5.85712 2.95427 0
M  V30 3897 H 359.594 -5.93435 4.6837 0
M  V30 3898 H 360.862 -6.7795 3.84713 0
M  V30 3899 N 365.091 -1.34144 -0.827227 0
M  V30 3900 C 366.339 -1.26009 -1.58007 0
M  V30 3901 C 366.66 0.170971 -1.94249 0
M  V30 3902 O 365.93 1.10256 -1.61927 0
M  V30 3903 H 364.51 -0.463414 -0.585881 0
M  V30 3904 H 367.172 -1.68005 -0.987951 0
M  V30 3905 H 366.268 -1.86187 -2.50481 0
M  V30 3906 N 366.569 1.04691 -1.17803 0
M  V30 3907 C 367.818 1.77176 -0.963931 0
M  V30 3908 C 368.131 1.88888 0.508015 0
M  V30 3909 O 369.337 2.58164 0.840465 0
M  V30 3910 C 367.793 3.18518 -1.67555 0
M  V30 3911 C 367.401 3.14919 -3.18637 0
M  V30 3912 C 369.145 3.95424 -1.54402 0
M  V30 3913 C 367.052 4.51081 -3.82466 0
M  V30 3914 H 365.982 0.664116 -0.357023 0
M  V30 3915 H 368.633 1.17303 -1.4111 0
M  V30 3916 H 367.015 3.78748 -1.15613 0
M  V30 3917 H 368.189 2.64178 -3.77554 0
M  V30 3918 H 366.504 2.51512 -3.31859 0
M  V30 3919 H 369.101 4.96106 -1.99456 0
M  V30 3920 H 369.444 4.13343 -0.495329 0
M  V30 3921 H 369.977 3.41754 -2.0359 0
M  V30 3922 H 366.716 4.38368 -4.87354 0
M  V30 3923 H 366.236 5.01951 -3.28337 0
M  V30 3924 H 367.915 5.2001 -3.84965 0
M  V30 3925 N 368.047 0.979072 1.23499 0
M  V30 3926 C 369.293 0.648178 1.92163 0
M  V30 3927 C 369.626 -0.816049 1.76222 0
M  V30 3928 O 368.901 -1.58849 1.12237 0
M  V30 3929 C 369.184 1.03773 3.44824 0
M  V30 3930 C 369.037 2.55948 3.69879 0
M  V30 3931 C 370.356 0.580653 4.36253 0
M  V30 3932 H 367.475 0.236952 0.69787 0
M  V30 3933 H 370.117 1.22012 1.45647 0
M  V30 3934 H 368.267 0.551058 3.84572 0
M  V30 3935 H 369.939 3.12179 3.3962 0
M  V30 3936 H 368.182 2.98641 3.14636 0
M  V30 3937 H 368.853 2.78255 4.76737 0
M  V30 3938 H 371.329 0.998465 4.03943 0
M  V30 3939 H 370.205 0.881663 5.41773 0
M  V30 3940 H 370.466 -0.519052 4.39042 0
M  V30 3941 N 369.525 -1.3858 0.750561 0
M  V30 3942 C 370.473 -2.32339 0.110162 0
M  V30 3943 C 371.467 -1.53864 -0.708674 0
M  V30 3944 O 372.673 -1.69417 -0.608112 0
M  V30 3945 H 369.048 -0.751812 0.0168275 0
M  V30 3946 H 371.019 -2.83959 0.917053 0
M  V30 3947 C 369.768 -3.39043 -0.771067 0
M  V30 3948 H 369.091 -3.99517 -0.150374 0
M  V30 3949 H 370.531 -4.07061 -1.1865 0
M  V30 3950 C 368.99 -2.77365 -1.91234 0
M  V30 3951 O 369.52 -2.66434 -3.00626 0
M  V30 3952 N 367.726 -2.35219 -1.70646 0
M  V30 3953 H 367.273 -2.4431 -0.81673 0
M  V30 3954 H 367.231 -1.94294 -2.47178 0
M  V30 3955 N 371.003 -0.499398 -1.49478 0
M  V30 3956 C 371.966 0.268838 -2.27618 0
M  V30 3957 C 372.966 0.895383 -1.33565 0
M  V30 3958 O 374.156 0.760164 -1.56739 0
M  V30 3959 C 371.288 1.38559 -3.11471 0
M  V30 3960 H 372.481 -0.416812 -2.96989 0
M  V30 3961 H 370.034 -0.254313 -1.54217 0
M  V30 3962 H 370.769 2.10544 -2.46661 0
M  V30 3963 H 370.554 0.941797 -3.80621 0
M  V30 3964 H 372.044 1.92678 -3.70493 0
M  V30 3965 N 372.481 1.55866 -0.233164 0
M  V30 3966 C 373.727 1.98897 0.395959 0
M  V30 3967 C 374.06 1.12091 1.58585 0
M  V30 3968 O 373.335 0.181182 1.93654 0
M  V30 3969 C 373.618 3.50658 0.819224 0
M  V30 3970 C 373.471 4.48233 -0.375109 0
M  V30 3971 C 374.79 4.07135 1.67121 0
M  V30 3972 H 371.909 0.723102 0.142451 0
M  V30 3973 H 374.551 1.87082 -0.331725 0
M  V30 3974 H 372.701 3.60857 1.43925 0
M  V30 3975 H 374.373 4.50031 -1.01341 0
M  V30 3976 H 372.616 4.21624 -1.02058 0
M  V30 3977 H 373.287 5.51988 -0.0358328 0
M  V30 3978 H 375.763 3.99952 1.14795 0
M  V30 3979 H 374.639 5.13615 1.93625 0
M  V30 3980 H 374.9 3.54736 2.63846 0
M  V30 3981 N 373.959 -0.0401083 1.57549 0
M  V30 3982 C 374.906 -1.04413 2.05831 0
M  V30 3983 C 375.876 -1.36585 0.945184 0
M  V30 3984 O 377.061 -1.47112 1.21502 0
M  V30 3985 C 374.201 -2.34336 2.53339 0
M  V30 3986 C 373.314 -2.08419 3.78398 0
M  V30 3987 C 372.449 -3.32133 4.14561 0
M  V30 3988 C 371.488 -3.01721 5.3257 0
M  V30 3989 N 370.625 -4.17855 5.64218 0
M  V30 3990 H 375.465 -0.625442 2.91363 0
M  V30 3991 H 373.002 -0.297218 1.44066 0
M  V30 3992 H 374.96 -3.10234 2.78946 0
M  V30 3993 H 373.59 -2.73948 1.7074 0
M  V30 3994 H 372.642 -1.23069 3.59942 0
M  V30 3995 H 373.954 -1.81978 4.64419 0
M  V30 3996 H 373.108 -4.16406 4.41238 0
M  V30 3997 H 371.847 -3.61678 3.2717 0
M  V30 3998 H 370.852 -2.15849 5.05657 0
M  V30 3999 H 372.077 -2.73466 6.21605 0
M  V30 4000 H 370.023 -4.47372 4.79786 0
M  V30 4001 H 369.94 -3.94798 6.44725 0
M  V30 4002 H 371.208 -5.03033 5.95465 0
M  V30 4003 N 375.437 -1.54477 -0.31217 0
M  V30 4004 C 376.714 -1.63891 -1.06767 0
M  V30 4005 C 377.094 -0.480028 -2.0557 0
M  V30 4006 O 376.442 0.524487 -2.22399 0
M  V30 4007 C 376.652 -3.01402 -1.75948 0
M  V30 4008 C 378 -3.57838 -2.28554 0
M  V30 4009 O 379.024 -3.03782 -1.85998 0
M  V30 4010 O 377.883 -4.52462 -3.06497 0
M  V30 4011 H 374.977 -0.664125 -0.492816 0
M  V30 4012 H 377.523 -1.66823 -0.311149 0
M  V30 4013 H 376.295 -3.77187 -1.04144 0
M  V30 4014 H 375.918 -3.02199 -2.58383 0
M  V30 4015 N 376.915 0.57481 -1.46744 0
M  V30 4016 C 378.326 1.15695 -1.46532 0
M  V30 4017 C 378.677 1.95068 -0.210425 0
M  V30 4018 O 377.802 2.05241 0.685944 0
M  V30 4019 C 378.397 2.1048 -2.65487 0
M  V30 4020 C 376.956 2.64002 -2.68291 0
M  V30 4021 C 376.103 1.40026 -2.39349 0
M  V30 4022 H 379.054 0.362325 -1.54509 0
M  V30 4023 H 379.075 2.94074 -2.41455 0
M  V30 4024 H 378.587 1.52683 -3.56805 0
M  V30 4025 H 376.688 3.25646 -1.81067 0
M  V30 4026 H 376.801 3.06197 -3.68483 0
M  V30 4027 H 375.165 1.70106 -1.89568 0
M  V30 4028 H 375.948 0.840485 -3.32852 0
M  V30 4029 N 378.394 1.34581 0.820102 0
M  V30 4030 C 379.671 1.17675 1.56244 0
M  V30 4031 C 380.051 -0.249541 2.0962 0
M  V30 4032 O 379.399 -1.25125 1.91196 0
M  V30 4033 C 379.609 2.23364 2.6816 0
M  V30 4034 C 380.957 2.58485 3.36854 0
M  V30 4035 O 381.981 2.22175 2.78418 0
M  V30 4036 O 380.84 3.20868 4.42386 0
M  V30 4037 H 377.934 0.456333 0.689702 0
M  V30 4038 H 380.48 1.46222 0.861231 0
M  V30 4039 H 379.252 3.19087 2.26493 0
M  V30 4040 H 378.875 1.96009 3.45928 0
M  V30 4041 N 379.872 -1.04064 1.18357 0
M  V30 4042 C 380.835 -2.10243 0.912707 0
M  V30 4043 C 381.835 -1.60477 -0.101928 0
M  V30 4044 O 383.025 -1.73703 0.131517 0
M  V30 4045 C 380.157 -3.38893 0.369387 0
M  V30 4046 H 381.35 -2.35706 1.85426 0
M  V30 4047 H 378.903 -1.20489 0.995594 0
M  V30 4048 H 379.638 -3.19094 -0.578776 0
M  V30 4049 H 379.423 -3.76331 1.1008 0
M  V30 4050 H 380.913 -4.17128 0.198575 0
M  V30 4051 N 381.35 -0.985608 -1.22978 0
M  V30 4052 C 382.298 -0.522631 -2.26652 0
M  V30 4053 C 383.292 0.422998 -1.64034 0
M  V30 4054 O 384.498 0.296319 -1.77544 0
M  V30 4055 H 380.873 -0.150597 -0.736766 0
M  V30 4056 H 382.844 -1.40863 -2.63059 0
M  V30 4057 C 381.593 0.154238 -3.47358 0
M  V30 4058 H 380.916 -0.564329 -3.95797 0
M  V30 4059 H 382.356 0.441744 -4.21693 0
M  V30 4060 C 380.815 1.38719 -3.07016 0
M  V30 4061 O 381.345 2.48307 -3.15764 0
M  V30 4062 N 379.551 1.25975 -2.61875 0
M  V30 4063 H 379.098 0.368068 -2.54957 0
M  V30 4064 H 379.056 2.08578 -2.3525 0
M  V30 4065 N 382.828 1.3818 -0.7579 0
M  V30 4066 C 384.076 1.99624 -0.315361 0
M  V30 4067 C 384.397 1.60464 1.10799 0
M  V30 4068 O 383.667 0.863507 1.75842 0
M  V30 4069 H 382.247 0.73831 -0.113611 0
M  V30 4070 H 384.909 1.68878 -0.972952 0
M  V30 4071 H 384.005 3.09754 -0.381931 0
M  V30 4072 N 384.306 0.507319 1.49211 0
M  V30 4073 C 385.253 -0.267728 2.29242 0
M  V30 4074 C 386.223 -0.954609 1.35928 0
M  V30 4075 O 387.408 -0.960046 1.64887 0
M  V30 4076 C 384.548 -1.32243 3.18756 0
M  V30 4077 C 383.661 -0.64669 4.27132 0
M  V30 4078 C 382.796 -1.68238 5.03855 0
M  V30 4079 C 381.835 -0.98885 6.0406 0
M  V30 4080 N 380.972 -1.96903 6.73924 0
M  V30 4081 H 385.812 0.420968 2.95012 0
M  V30 4082 H 383.349 0.219443 1.45454 0
M  V30 4083 H 385.307 -1.94599 3.69036 0
M  V30 4084 H 383.937 -1.97981 2.54958 0
M  V30 4085 H 382.989 0.0902926 3.80293 0
M  V30 4086 H 384.301 -0.101058 4.98698 0
M  V30 4087 H 383.455 -2.38081 5.58034 0
M  V30 4088 H 382.194 -2.26187 4.32077 0
M  V30 4089 H 381.199 -0.276222 5.49106 0
M  V30 4090 H 382.424 -0.415767 6.77826 0
M  V30 4091 H 380.37 -2.53803 6.04913 0
M  V30 4092 H 380.287 -1.47423 7.41487 0
M  V30 4093 H 381.555 -2.66015 7.32705 0
M  V30 4094 N 385.784 -1.5574 0.241426 0
M  V30 4095 C 387.009 -2.0366 -0.392111 0
M  V30 4096 C 387.434 -1.11969 -1.51144 0
M  V30 4097 O 386.792 -0.111594 -1.80956 0
M  V30 4098 C 386.84 -3.49638 -0.882371 0
M  V30 4099 O 385.944 -3.6108 -1.99235 0
M  V30 4100 H 385.285 -0.658379 -0.0862122 0
M  V30 4101 H 387.815 -2.01302 0.365881 0
M  V30 4102 H 387.825 -3.90351 -1.18702 0
M  V30 4103 H 386.5 -4.15852 -0.0632361 0
M  V30 4104 H 385.077 -3.32262 -1.69282 0
M  V30 4105 N 387.262 0.0317525 -1.57568 0
M  V30 4106 C 388.509 0.723104 -1.89149 0
M  V30 4107 C 388.837 1.75504 -0.838377 0
M  V30 4108 O 388.092 1.95037 0.160982 0
M  V30 4109 C 388.391 1.43167 -3.27472 0
M  V30 4110 C 388.057 0.535972 -4.47703 0
M  V30 4111 C 386.719 0.289262 -4.8033 0
M  V30 4112 C 389.071 -0.0826125 -5.21135 0
M  V30 4113 C 386.399 -0.584853 -5.83778 0
M  V30 4114 C 388.751 -0.944414 -6.25511 0
M  V30 4115 C 387.415 -1.20061 -6.56614 0
M  V30 4116 H 386.685 0.264602 -0.692146 0
M  V30 4117 H 389.332 -0.0169496 -1.91492 0
M  V30 4118 H 387.637 2.24497 -3.21105 0
M  V30 4119 H 389.334 1.97209 -3.49155 0
M  V30 4120 H 385.924 0.738414 -4.22191 0
M  V30 4121 H 390.108 0.0950302 -4.96209 0
M  V30 4122 H 385.364 -0.79168 -6.06253 0
M  V30 4123 H 389.538 -1.43026 -6.81554 0
M  V30 4124 H 387.165 -1.87967 -7.36595 0
M  V30 4125 N 388.74 1.54641 0.303973 0
M  V30 4126 C 389.703 1.84646 1.35789 0
M  V30 4127 C 390.703 0.7192 1.4382 0
M  V30 4128 O 391.893 0.987491 1.43507 0
M  V30 4129 C 389.025 2.02407 2.74307 0
M  V30 4130 H 390.218 2.78829 1.10429 0
M  V30 4131 H 387.771 1.46658 0.540487 0
M  V30 4132 H 388.506 1.10502 3.04893 0
M  V30 4133 H 388.291 2.84453 2.69868 0
M  V30 4134 H 389.781 2.27002 3.50514 0
M  V30 4135 N 390.218 -0.567019 1.47046 0
M  V30 4136 C 391.465 -1.32462 1.53167 0
M  V30 4137 C 391.793 -1.93571 0.189841 0
M  V30 4138 O 391.048 -1.77865 -0.816243 0
M  V30 4139 C 391.347 -2.4623 2.59047 0
M  V30 4140 C 391.013 -2.03014 4.02612 0
M  V30 4141 C 389.675 -1.90944 4.41694 0
M  V30 4142 C 392.027 -1.69895 4.92732 0
M  V30 4143 C 389.355 -1.44035 5.68745 0
M  V30 4144 C 391.707 -1.2446 6.20236 0
M  V30 4145 C 390.371 -1.10979 6.5821 0
M  V30 4146 H 389.641 -0.484713 0.560477 0
M  V30 4147 H 392.288 -0.636888 1.80599 0
M  V30 4148 H 390.593 -3.20517 2.25335 0
M  V30 4149 H 392.29 -3.04427 2.61008 0
M  V30 4150 H 388.88 -2.13348 3.71726 0
M  V30 4151 H 393.064 -1.78098 4.63244 0
M  V30 4152 H 388.32 -1.32254 5.96925 0
M  V30 4153 H 392.494 -0.978924 6.89485 0
M  V30 4154 H 390.121 -0.744078 7.5655 0
M  V30 4155 N 391.696 -1.35014 -0.812953 0
M  V30 4156 C 392.942 -1.2812 -1.57204 0
M  V30 4157 C 393.275 0.145869 -1.93651 0
M  V30 4158 O 392.55 1.0937 -1.60836 0
M  V30 4159 C 392.833 -2.18162 -2.86492 0
M  V30 4160 C 392.686 -3.69454 -2.56561 0
M  V30 4161 C 394.005 -2.07439 -3.88145 0
M  V30 4162 H 391.124 -0.466746 -0.570366 0
M  V30 4163 H 393.766 -1.65357 -0.935783 0
M  V30 4164 H 391.916 -1.86535 -3.40789 0
M  V30 4165 H 393.588 -4.11493 -2.08497 0
M  V30 4166 H 391.831 -3.9005 -1.89851 0
M  V30 4167 H 392.502 -4.27835 -3.48799 0
M  V30 4168 H 394.978 -2.35228 -3.4323 0
M  V30 4169 H 393.854 -2.7265 -4.76396 0
M  V30 4170 H 394.115 -1.05439 -4.29343 0
M  V30 4171 N 393.175 1.03435 -1.18907 0
M  V30 4172 C 394.423 1.76394 -0.986382 0
M  V30 4173 C 394.744 1.88883 0.484567 0
M  V30 4174 O 394.014 1.41843 1.3512 0
M  V30 4175 H 392.594 0.65344 -0.361975 0
M  V30 4176 H 395.256 1.248 -1.49703 0
M  V30 4177 H 394.352 2.77424 -1.42978 0
M  V30 4178 N 394.653 0.992116 1.22453 0
M  V30 4179 C 396.064 0.702776 1.72968 0
M  V30 4180 C 396.415 -0.780399 1.80012 0
M  V30 4181 O 395.54 -1.61007 1.44589 0
M  V30 4182 C 396.135 1.26903 3.14135 0
M  V30 4183 C 394.694 1.02909 3.62059 0
M  V30 4184 C 393.841 1.38969 2.39964 0
M  V30 4185 H 396.792 1.16457 1.07812 0
M  V30 4186 H 396.813 0.647223 3.74955 0
M  V30 4187 H 396.325 2.34851 3.08977 0
M  V30 4188 H 394.426 -0.0337979 3.72585 0
M  V30 4189 H 394.539 1.69191 4.48231 0
M  V30 4190 H 392.903 0.808279 2.41535 0
M  V30 4191 H 393.686 2.4792 2.37467 0
M  V30 4192 N 396.131 -1.37776 0.765217 0
M  V30 4193 C 397.356 -2.04651 0.336537 0
M  V30 4194 C 397.781 -1.57337 -1.03086 0
M  V30 4195 O 397.139 -0.730621 -1.65927 0
M  V30 4196 C 397.187 -3.58577 0.381468 0
M  V30 4197 O 396.291 -4.07706 -0.62042 0
M  V30 4198 H 395.632 -0.64756 0.146838 0
M  V30 4199 H 398.162 -1.76221 1.03959 0
M  V30 4200 H 398.172 -4.07314 0.236448 0
M  V30 4201 H 396.847 -3.9237 1.37907 0
M  V30 4202 H 395.424 -3.70306 -0.439056 0
M  V30 4203 N 397.609 -0.515225 -1.4894 0
M  V30 4204 C 399.025 -0.172099 -1.58669 0
M  V30 4205 C 399.225 1.32405 -1.51892 0
M  V30 4206 O 398.281 2.10116 -1.40027 0
M  V30 4207 C 399.594 -0.761533 -2.90897 0
M  V30 4208 C 401.142 -0.728926 -3.04394 0
M  V30 4209 C 401.617 -1.29667 -4.39261 0
M  V30 4210 N 403.108 -1.25799 -4.4579 0
M  V30 4211 C 403.843 -1.66733 -5.48623 0
M  V30 4212 N 403.339 -2.15327 -6.58488 0
M  V30 4213 N 405.132 -1.58061 -5.39419 0
M  V30 4214 H 397.283 -1.48778 -1.51588 0
M  V30 4215 H 399.546 -0.617968 -0.718901 0
M  V30 4216 H 399.252 -1.81136 -3.01468 0
M  V30 4217 H 399.126 -0.230106 -3.76497 0
M  V30 4218 H 401.513 0.312098 -2.93445 0
M  V30 4219 H 401.594 -1.29766 -2.20442 0
M  V30 4220 H 401.238 -2.33655 -4.50963 0
M  V30 4221 H 401.168 -0.703752 -5.21876 0
M  V30 4222 H 403.659 -0.902102 -3.66975 0
M  V30 4223 H 403.972 -2.44594 -7.33071 0
M  V30 4224 H 402.317 -2.19311 -6.59491 0
M  V30 4225 H 405.508 -1.19906 -4.52482 0
M  V30 4226 H 405.681 -1.90284 -6.19432 0
M  V30 4227 N 399.087 1.5561 -0.249682 0
M  V30 4228 C 400.317 2.03116 0.377803 0
M  V30 4229 C 400.725 1.12822 1.51881 0
M  V30 4230 O 400.068 0.13562 1.83199 0
M  V30 4231 C 400.13 3.46866 0.944693 0
M  V30 4232 C 399.794 4.56955 -0.0644259 0
M  V30 4233 C 400.791 5.12485 -0.874957 0
M  V30 4234 C 398.476 5.01936 -0.19132 0
M  V30 4235 C 400.47 6.11491 -1.79881 0
M  V30 4236 C 398.157 6.00773 -1.11868 0
M  V30 4237 C 399.155 6.5543 -1.92095 0
M  V30 4238 O 398.843 7.5234 -2.83267 0
M  V30 4239 H 398.575 0.669489 0.0935961 0
M  V30 4240 H 401.129 2.02004 -0.371966 0
M  V30 4241 H 399.359 3.45136 1.74407 0
M  V30 4242 H 401.048 3.77856 1.48255 0
M  V30 4243 H 401.814 4.78564 -0.787523 0
M  V30 4244 H 397.693 4.59055 0.423072 0
M  V30 4245 H 401.237 6.54078 -2.42543 0
M  V30 4246 H 397.134 6.34114 -1.20703 0
M  V30 4247 H 397.902 7.69966 -2.7766 0
M  V30 4248 N 400.565 -0.0233959 1.57583 0
M  V30 4249 C 401.495 -1.02162 2.09965 0
M  V30 4250 C 402.476 -1.3735 1.00344 0
M  V30 4251 O 403.661 -1.46135 1.27899 0
M  V30 4252 C 400.791 -2.32081 2.58371 0
M  V30 4253 C 399.745 -2.1112 3.72307 0
M  V30 4254 C 399.071 -3.46848 4.06941 0
M  V30 4255 C 400.371 -1.49276 5.00514 0
M  V30 4256 H 402.065 -0.585557 2.93618 0
M  V30 4257 H 399.611 -0.280218 1.41247 0
M  V30 4258 H 401.564 -3.02249 2.93639 0
M  V30 4259 H 400.288 -2.77758 1.71808 0
M  V30 4260 H 398.947 -1.43384 3.37397 0
M  V30 4261 H 398.595 -3.90184 3.17436 0
M  V30 4262 H 398.295 -3.33646 4.83688 0
M  V30 4263 H 399.819 -4.18369 4.44747 0
M  V30 4264 H 401.233 -2.09368 5.33702 0
M  V30 4265 H 399.63 -1.46632 5.8191 0
M  V30 4266 H 400.7 -0.459217 4.82721 0
M  V30 4267 N 402.043 -1.548 -0.295768 0
M  V30 4268 C 402.973 -1.89115 -1.36959 0
M  V30 4269 C 403.954 -0.75059 -1.52644 0
M  V30 4270 O 405.139 -1.00678 -1.66065 0
M  V30 4271 C 402.269 -2.14307 -2.73295 0
M  V30 4272 C 401.223 -3.30151 -2.72368 0
M  V30 4273 C 400.549 -3.40772 -4.12042 0
M  V30 4274 C 401.849 -4.67126 -2.33646 0
M  V30 4275 H 403.543 -2.79053 -1.08488 0
M  V30 4276 H 401.089 -1.34266 -0.520443 0
M  V30 4277 H 403.042 -2.36898 -3.48507 0
M  V30 4278 H 401.766 -1.21145 -3.03301 0
M  V30 4279 H 400.425 -3.0749 -1.99613 0
M  V30 4280 H 400.073 -2.45117 -4.39234 0
M  V30 4281 H 399.773 -4.18645 -4.12322 0
M  V30 4282 H 401.297 -3.6563 -4.89027 0
M  V30 4283 H 402.711 -4.89414 -2.98575 0
M  V30 4284 H 401.108 -5.47751 -2.45129 0
M  V30 4285 H 402.178 -4.67489 -1.28772 0
M  V30 4286 N 403.521 0.559213 -1.47345 0
M  V30 4287 C 404.768 1.31648 -1.53867 0
M  V30 4288 C 405.096 1.93468 -0.200104 0
M  V30 4289 O 404.351 1.78295 0.806799 0
M  V30 4290 C 404.65 2.44853 -2.6035 0
M  V30 4291 C 404.316 2.00876 -4.03683 0
M  V30 4292 C 402.978 1.88599 -4.42701 0
M  V30 4293 C 405.33 1.67279 -4.93626 0
M  V30 4294 C 402.658 1.41017 -5.69501 0
M  V30 4295 C 405.01 1.21169 -6.20887 0
M  V30 4296 C 403.674 1.07487 -6.58789 0
M  V30 4297 H 402.944 0.481734 -0.56304 0
M  V30 4298 H 405.591 0.627301 -1.80934 0
M  V30 4299 H 403.896 3.19318 -2.27032 0
M  V30 4300 H 405.593 3.03039 -2.62619 0
M  V30 4301 H 402.183 2.11374 -3.72853 0
M  V30 4302 H 406.367 1.75638 -4.64182 0
M  V30 4303 H 401.623 1.29086 -5.97618 0
M  V30 4304 H 405.797 0.942345 -6.89995 0
M  V30 4305 H 403.424 0.703946 -7.56934 0
M  V30 4306 N 404.999 1.35443 0.805782 0
M  V30 4307 C 405.949 1.24972 1.90699 0
M  V30 4308 C 406.933 0.144806 1.60247 0
M  V30 4309 O 408.125 0.376102 1.72958 0
M  V30 4310 C 405.254 1.02475 3.27649 0
M  V30 4311 C 404.34 2.17361 3.64164 0
M  V30 4312 N 404.731 3.42591 3.72109 0
M  V30 4313 C 403.029 2.08765 3.94123 0
M  V30 4314 C 403.73 4.18144 4.04389 0
M  V30 4315 N 402.706 3.4691 4.18515 0
M  V30 4316 H 406.508 2.19852 1.95044 0
M  V30 4317 H 404.022 1.27928 1.00041 0
M  V30 4318 H 406.019 0.930617 4.06381 0
M  V30 4319 H 404.679 0.0848009 3.24589 0
M  V30 4320 H 405.69 3.76932 3.55166 0
M  V30 4321 H 402.367 1.22629 3.99084 0
M  V30 4322 H 403.757 5.26367 4.17597 0
M  V30 4323 N 406.477 -1.02803 1.19454 0
M  V30 4324 C 407.407 -2.12999 0.956758 0
M  V30 4325 C 408.388 -1.69743 -0.110188 0
M  V30 4326 O 409.573 -1.94148 0.0450038 0
M  V30 4327 C 406.703 -3.43746 0.495553 0
M  V30 4328 C 405.657 -4.00688 1.50443 0
M  V30 4329 C 404.983 -5.27067 0.900275 0
M  V30 4330 C 406.283 -4.35397 2.8849 0
M  V30 4331 H 407.977 -2.33148 1.87836 0
M  V30 4332 H 405.523 -1.12045 0.904539 0
M  V30 4333 H 407.476 -4.2021 0.316493 0
M  V30 4334 H 406.2 -3.23321 -0.461646 0
M  V30 4335 H 404.859 -3.2632 1.67065 0
M  V30 4336 H 404.507 -5.02959 -0.064503 0
M  V30 4337 H 404.207 -5.66127 1.57397 0
M  V30 4338 H 405.731 -6.06196 0.73203 0
M  V30 4339 H 407.145 -5.02795 2.75446 0
M  V30 4340 H 405.542 -4.85541 3.52661 0
M  V30 4341 H 406.612 -3.44662 3.41081 0
M  V30 4342 N 407.956 -0.998596 -1.21925 0
M  V30 4343 C 409.202 -0.678667 -1.91107 0
M  V30 4344 C 409.535 0.78791 -1.77498 0
M  V30 4345 O 408.81 1.57043 -1.1475 0
M  V30 4346 C 409.093 -1.09245 -3.43129 0
M  V30 4347 C 408.946 -2.61801 -3.6576 0
M  V30 4348 C 410.265 -0.649984 -4.35274 0
M  V30 4349 H 407.384 -0.248025 -0.694012 0
M  V30 4350 H 410.026 -1.24314 -1.43688 0
M  V30 4351 H 408.176 -0.612171 -3.83647 0
M  V30 4352 H 409.848 -3.17543 -3.34611 0
M  V30 4353 H 408.091 -3.03609 -3.09845 0
M  V30 4354 H 408.762 -2.85804 -4.7225 0
M  V30 4355 H 411.238 -1.0626 -4.02303 0
M  V30 4356 H 410.114 -0.967743 -5.40302 0
M  V30 4357 H 410.375 0.449139 -4.39813 0
M  V30 4358 N 409.434 1.37368 -0.772513 0
M  V30 4359 C 410.381 2.30262 -0.157488 0
M  V30 4360 C 411.351 1.51137 0.688965 0
M  V30 4361 O 412.536 1.79704 0.641168 0
M  V30 4362 C 409.676 3.37611 0.715045 0
M  V30 4363 C 408.789 4.31746 -0.148098 0
M  V30 4364 C 407.924 5.26171 0.729213 0
M  V30 4365 C 406.963 6.11948 -0.136418 0
M  V30 4366 N 406.1 6.98613 0.698914 0
M  V30 4367 H 410.94 2.82277 -0.955179 0
M  V30 4368 H 408.477 1.38957 -0.482631 0
M  V30 4369 H 410.435 3.98479 1.23575 0
M  V30 4370 H 409.065 2.86959 1.47833 0
M  V30 4371 H 408.117 3.72178 -0.786613 0
M  V30 4372 H 409.429 4.92084 -0.81579 0
M  V30 4373 H 408.583 5.92247 1.31637 0
M  V30 4374 H 407.322 4.66246 1.43059 0
M  V30 4375 H 406.327 5.4485 -0.736102 0
M  V30 4376 H 407.552 6.73945 -0.835134 0
M  V30 4377 H 405.498 6.41215 1.38489 0
M  V30 4378 H 405.415 7.55948 0.0885358 0
M  V30 4379 H 406.683 7.69077 1.27044 0
M  V30 4380 N 410.912 0.523116 1.48665 0
M  V30 4381 C 412.142 -0.00961724 2.06598 0
M  V30 4382 C 412.55 -1.29333 1.38093 0
M  V30 4383 O 411.893 -1.77846 0.46007 0
M  V30 4384 C 411.955 -0.311135 3.58151 0
M  V30 4385 C 411.619 0.878092 4.48485 0
M  V30 4386 C 412.616 1.77464 4.88674 0
M  V30 4387 C 410.301 1.08315 4.90483 0
M  V30 4388 C 412.295 2.86021 5.69623 0
M  V30 4389 C 409.982 2.17187 5.71203 0
M  V30 4390 C 410.98 3.05873 6.10681 0
M  V30 4391 O 410.668 4.12862 6.89783 0
M  V30 4392 H 410.4 0.0272658 0.67545 0
M  V30 4393 H 412.954 0.726156 1.92136 0
M  V30 4394 H 411.184 -1.10079 3.70701 0
M  V30 4395 H 412.873 -0.785125 3.98234 0
M  V30 4396 H 413.639 1.62813 4.56855 0
M  V30 4397 H 409.518 0.402149 4.59243 0
M  V30 4398 H 413.062 3.55272 6.00356 0
M  V30 4399 H 408.959 2.31824 6.02435 0
M  V30 4400 H 409.727 4.10487 7.08126 0
M  V30 4401 N 412.39 -1.55475 0.257931 0
M  V30 4402 C 413.639 -1.98383 -0.364275 0
M  V30 4403 C 413.952 -1.14952 -1.58258 0
M  V30 4404 O 415.158 -1.47924 -2.27664 0
M  V30 4405 C 413.614 -3.53037 -0.699479 0
M  V30 4406 C 413.222 -4.45223 0.498046 0
M  V30 4407 C 414.966 -4.04575 -1.28526 0
M  V30 4408 C 412.873 -5.91238 0.138383 0
M  V30 4409 H 411.803 -0.740911 -0.13988 0
M  V30 4410 H 414.454 -1.79936 0.359883 0
M  V30 4411 H 412.836 -3.6722 -1.48207 0
M  V30 4412 H 414.01 -4.42803 1.27522 0
M  V30 4413 H 412.325 -4.04226 0.999503 0
M  V30 4414 H 414.922 -5.11196 -1.56788 0
M  V30 4415 H 415.265 -3.5258 -2.21344 0
M  V30 4416 H 415.798 -3.93762 -0.565337 0
M  V30 4417 H 412.537 -6.47294 1.03398 0
M  V30 4418 H 412.057 -5.96768 -0.602374 0
M  V30 4419 H 413.736 -6.46413 -0.27553 0
M  V30 4420 N 413.868 0.0150385 -1.57593 0
M  V30 4421 C 415.115 0.703001 -1.89906 0
M  V30 4422 C 415.443 1.74604 -0.856944 0
M  V30 4423 O 414.698 1.95197 0.140287 0
M  V30 4424 C 414.997 1.39686 -3.28972 0
M  V30 4425 C 414.663 0.488457 -4.48246 0
M  V30 4426 C 413.325 0.2383 -4.8061 0
M  V30 4427 C 415.677 -0.137881 -5.21018 0
M  V30 4428 C 413.005 -0.646738 -5.83125 0
M  V30 4429 C 415.357 -1.0107 -6.24474 0
M  V30 4430 C 414.021 -1.27019 -6.55303 0
M  V30 4431 H 413.291 0.257246 -0.694914 0
M  V30 4432 H 415.938 -0.037259 -1.91464 0
M  V30 4433 H 414.243 2.21079 -3.23468 0
M  V30 4434 H 415.94 1.93495 -3.51227 0
M  V30 4435 H 412.53 0.693593 -4.22951 0
M  V30 4436 H 416.714 0.0423953 -4.96282 0
M  V30 4437 H 411.97 -0.855937 -6.05379 0
M  V30 4438 H 416.144 -1.50247 -6.79999 0
M  V30 4439 H 413.771 -1.95769 -7.3456 0
M  V30 4440 N 415.346 1.54954 0.287554 0
M  V30 4441 C 416.309 1.86076 1.33823 0
M  V30 4442 C 417.309 0.734414 1.43049 0
M  V30 4443 O 418.499 1.00266 1.42452 0
M  V30 4444 C 415.631 2.05305 2.72144 0
M  V30 4445 H 416.824 2.79984 1.07465 0
M  V30 4446 H 414.377 1.47223 0.524902 0
M  V30 4447 H 415.112 1.1373 3.03704 0
M  V30 4448 H 414.897 2.873 2.66836 0
M  V30 4449 H 416.387 2.30706 3.48087 0
M  V30 4450 N 416.824 -0.551391 1.4764 0
M  V30 4451 C 418.07 -1.31024 1.54792 0
M  V30 4452 C 418.403 -1.9304 0.211967 0
M  V30 4453 O 417.678 -1.78175 -0.77999 0
M  V30 4454 C 417.961 -2.41593 2.67029 0
M  V30 4455 C 417.814 -1.84408 4.10261 0
M  V30 4456 C 419.133 -3.43488 2.75143 0
M  V30 4457 H 416.252 -0.475031 0.563485 0
M  V30 4458 H 418.894 -0.616454 1.79722 0
M  V30 4459 H 417.044 -3.00772 2.45904 0
M  V30 4460 H 418.716 -1.29445 4.42766 0
M  V30 4461 H 416.959 -1.15051 4.18265 0
M  V30 4462 H 417.63 -2.64367 4.84576 0
M  V30 4463 H 420.106 -2.94236 2.94218 0
M  V30 4464 H 418.982 -4.18274 3.55441 0
M  V30 4465 H 419.243 -4.02703 1.82435 0
M  V30 4466 N 418.302 -1.35869 -0.798587 0
M  V30 4467 C 419.265 -1.29307 -1.89242 0
M  V30 4468 C 420.265 -0.202747 -1.59517 0
M  V30 4469 O 421.455 -0.456957 -1.681 0
M  V30 4470 C 418.587 -1.00229 -3.25833 0
M  V30 4471 H 419.78 -2.26576 -1.96478 0
M  V30 4472 H 417.333 -1.20509 -0.995358 0
M  V30 4473 H 418.068 -0.033801 -3.24282 0
M  V30 4474 H 417.853 -1.79121 -3.48795 0
M  V30 4475 H 419.343 -0.98219 -4.05885 0
M  V30 4476 N 419.78 1.02168 -1.19998 0
M  V30 4477 C 420.73 2.08969 -0.911921 0
M  V30 4478 C 421.714 1.60404 0.12621 0
M  V30 4479 O 422.906 1.76817 -0.0804706 0
M  V30 4480 C 420.035 3.402 -0.460277 0
M  V30 4481 C 419.121 3.9548 -1.53155 0
M  V30 4482 N 419.512 4.24332 -2.75275 0
M  V30 4483 C 417.81 4.23572 -1.39653 0
M  V30 4484 C 418.511 4.68834 -3.44339 0
M  V30 4485 N 417.487 4.70804 -2.71744 0
M  V30 4486 H 421.289 2.29178 -1.83997 0
M  V30 4487 H 418.803 1.20094 -1.09322 0
M  V30 4488 H 420.8 4.16235 -0.235337 0
M  V30 4489 H 419.46 3.21408 0.4612 0
M  V30 4490 H 420.471 4.13393 -3.11973 0
M  V30 4491 H 417.148 4.14005 -0.539067 0
M  V30 4492 H 418.538 5.00019 -4.4881 0
M  V30 4493 N 421.258 1.00505 1.21394 0
M  V30 4494 C 422.674 0.717873 1.42544 0
M  V30 4495 C 422.874 -0.706936 1.88692 0
M  V30 4496 O 421.93 -1.47627 2.04847 0
M  V30 4497 C 423.243 1.73377 2.45684 0
M  V30 4498 C 424.791 1.75059 2.59467 0
M  V30 4499 C 425.266 2.75545 3.6584 0
M  V30 4500 N 426.757 2.74213 3.73311 0
M  V30 4501 C 427.492 3.48626 4.55245 0
M  V30 4502 N 426.988 4.32678 5.41075 0
M  V30 4503 N 428.781 3.37276 4.49668 0
M  V30 4504 H 420.932 1.92506 0.897503 0
M  V30 4505 H 423.195 0.830919 0.456375 0
M  V30 4506 H 422.901 2.75395 2.18748 0
M  V30 4507 H 422.775 1.53647 3.44489 0
M  V30 4508 H 425.162 0.737337 2.8574 0
M  V30 4509 H 425.243 1.98861 1.60897 0
M  V30 4510 H 424.887 3.77028 3.40313 0
M  V30 4511 H 424.817 2.49009 4.64007 0
M  V30 4512 H 427.308 2.13234 3.11993 0
M  V30 4513 H 427.621 4.86253 6.00648 0
M  V30 4514 H 425.966 4.3676 5.40616 0
M  V30 4515 H 429.157 2.71043 3.81646 0
M  V30 4516 H 429.33 3.95524 5.13288 0
M  V30 4517 N 422.737 -1.36956 0.779787 0
M  V30 4518 C 423.667 -2.32761 0.185651 0
M  V30 4519 C 424.648 -1.56177 -0.673989 0
M  V30 4520 O 425.833 -1.84378 -0.609797 0
M  V30 4521 C 422.963 -3.40418 -0.687964 0
M  V30 4522 C 421.917 -4.27941 0.0710102 0
M  V30 4523 C 421.243 -5.26681 -0.922573 0
M  V30 4524 C 422.543 -5.07006 1.25467 0
M  V30 4525 H 424.237 -2.82698 0.986008 0
M  V30 4526 H 421.783 -1.3592 0.475592 0
M  V30 4527 H 423.736 -4.06423 -1.11348 0
M  V30 4528 H 422.46 -2.89025 -1.52093 0
M  V30 4529 H 421.119 -3.63478 0.47739 0
M  V30 4530 H 420.767 -4.71565 -1.7503 0
M  V30 4531 H 420.467 -5.86103 -0.419237 0
M  V30 4532 H 421.991 -5.9556 -1.34686 0
M  V30 4533 H 423.405 -5.66105 0.905401 0
M  V30 4534 H 421.802 -5.75793 1.69063 0
M  V30 4535 H 422.872 -4.3921 2.05481 0
M  V30 4536 N 424.215 -0.530993 -1.48385 0
M  V30 4537 C 425.462 0.0027373 -2.025 0
M  V30 4538 C 425.79 1.34186 -1.40799 0
M  V30 4539 O 425.045 1.88 -0.543544 0
M  V30 4540 C 425.344 0.172742 -3.56982 0
M  V30 4541 C 425.01 -1.09215 -4.37473 0
M  V30 4542 C 423.672 -1.43881 -4.59186 0
M  V30 4543 C 426.024 -1.93153 -4.84088 0
M  V30 4544 C 423.352 -2.62381 -5.2476 0
M  V30 4545 C 425.704 -3.10833 -5.50968 0
M  V30 4546 C 424.368 -3.45843 -5.70919 0
M  V30 4547 H 423.638 0.00100165 -0.740999 0
M  V30 4548 H 426.285 -0.697219 -1.78357 0
M  V30 4549 H 424.59 0.955473 -3.79971 0
M  V30 4550 H 426.287 0.600642 -3.96476 0
M  V30 4551 H 422.877 -0.812177 -4.20834 0
M  V30 4552 H 427.061 -1.67683 -4.67115 0
M  V30 4553 H 422.317 -2.89707 -5.38405 0
M  V30 4554 H 426.491 -3.7618 -5.86056 0
M  V30 4555 H 424.118 -4.37764 -6.21503 0
M  V30 4556 N 425.693 1.55336 -0.266172 0
M  V30 4557 C 426.623 2.25146 0.618981 0
M  V30 4558 C 427.604 1.23845 1.16604 0
M  V30 4559 O 428.789 1.52544 1.20183 0
M  V30 4560 C 425.919 2.96572 1.80728 0
M  V30 4561 C 424.873 4.04726 1.39215 0
M  V30 4562 C 424.199 4.63678 2.66283 0
M  V30 4563 C 425.499 5.19407 0.548942 0
M  V30 4564 H 427.193 2.99377 0.0368116 0
M  V30 4565 H 424.739 1.43991 0.0162651 0
M  V30 4566 H 426.692 3.44116 2.43232 0
M  V30 4567 H 425.416 2.19861 2.41514 0
M  V30 4568 H 424.075 3.57979 0.790351 0
M  V30 4569 H 423.723 3.83646 3.25308 0
M  V30 4570 H 423.423 5.367 2.39222 0
M  V30 4571 H 424.947 5.13967 3.29651 0
M  V30 4572 H 426.361 5.63059 1.07876 0
M  V30 4573 H 424.758 5.98936 0.373593 0
M  V30 4574 H 425.828 4.8295 -0.434394 0
M  V30 4575 N 427.171 -0.0066808 1.57599 0
M  V30 4576 C 428.582 -0.550379 1.78403 0
M  V30 4577 C 428.933 -1.74339 0.900014 0
M  V30 4578 O 428.058 -2.16166 0.100713 0
M  V30 4579 C 428.653 -1.00523 3.23544 0
M  V30 4580 C 427.212 -1.49428 3.45468 0
M  V30 4581 C 426.359 -0.442444 2.73748 0
M  V30 4582 H 429.31 0.219508 1.57175 0
M  V30 4583 H 429.331 -1.87157 3.31289 0
M  V30 4584 H 428.843 -0.136735 3.87859 0
M  V30 4585 H 426.944 -2.3839 2.86358 0
M  V30 4586 H 427.057 -1.52635 4.54136 0
M  V30 4587 H 425.421 -0.902578 2.38171 0
M  V30 4588 H 426.204 0.416973 3.40758 0
M  V30 4589 N 428.649 -1.55105 -0.279332 0
M  V30 4590 C 429.896 -1.75412 -1.01177 0
M  V30 4591 C 430.224 -0.551728 -1.86511 0
M  V30 4592 O 429.479 0.465919 -1.90073 0
M  V30 4593 C 429.778 -3.0086 -1.92919 0
M  V30 4594 C 429.444 -4.33689 -1.23387 0
M  V30 4595 C 428.106 -4.69792 -1.04159 0
M  V30 4596 C 430.458 -5.15941 -0.738562 0
M  V30 4597 C 427.786 -5.85707 -0.341166 0
M  V30 4598 C 430.138 -6.32579 -0.0517636 0
M  V30 4599 C 428.802 -6.67326 0.152292 0
M  V30 4600 H 428.072 -0.641879 -0.370233 0
M  V30 4601 H 430.719 -1.89373 -0.284627 0
M  V30 4602 H 429.024 -2.81773 -2.72234 0
M  V30 4603 H 430.721 -3.13768 -2.49701 0
M  V30 4604 H 427.311 -4.05309 -1.39364 0
M  V30 4605 H 431.495 -4.8853 -0.874764 0
M  V30 4606 H 426.751 -6.11157 -0.172287 0
M  V30 4607 H 430.925 -6.9557 0.339828 0
M  V30 4608 H 428.552 -7.56998 0.697014 0
M  V30 4609 N 430.127 0.543554 -1.4793 0
M  V30 4610 C 431.538 1.12561 -1.48953 0
M  V30 4611 C 431.889 1.94578 -0.251754 0
M  V30 4612 O 431.014 2.0665 0.642255 0
M  V30 4613 C 431.609 2.04801 -2.69892 0
M  V30 4614 C 430.168 2.58251 -2.73831 0
M  V30 4615 C 429.315 1.34918 -2.42265 0
M  V30 4616 H 432.266 0.32947 -1.55242 0
M  V30 4617 H 432.287 2.88886 -2.47639 0
M  V30 4618 H 431.799 1.4508 -3.59963 0
M  V30 4619 H 429.9 3.21732 -1.87934 0
M  V30 4620 H 430.013 2.98312 -3.74895 0
M  V30 4621 H 428.377 1.66046 -1.93134 0
M  V30 4622 H 429.16 0.769693 -3.3456 0
M  V30 4623 N 431.605 1.3629 0.791371 0
M  V30 4624 C 432.535 1.33137 1.91825 0
M  V30 4625 C 433.516 0.203168 1.68882 0
M  V30 4626 O 434.701 0.400509 1.90025 0
M  V30 4627 C 431.831 1.11793 3.28816 0
M  V30 4628 C 430.785 2.21417 3.66277 0
M  V30 4629 C 430.111 1.85218 5.01596 0
M  V30 4630 C 431.411 3.63489 3.75064 0
M  V30 4631 H 433.105 2.2743 1.9472 0
M  V30 4632 H 430.651 1.09479 0.935437 0
M  V30 4633 H 432.604 1.08222 4.07266 0
M  V30 4634 H 431.328 0.139501 3.26302 0
M  V30 4635 H 429.987 2.2411 2.90121 0
M  V30 4636 H 429.635 0.859544 4.95602 0
M  V30 4637 H 429.335 2.58611 5.27631 0
M  V30 4638 H 430.859 1.832 5.82469 0
M  V30 4639 H 432.273 3.63034 4.43711 0
M  V30 4640 H 430.67 4.35771 4.12582 0
M  V30 4641 H 431.74 3.98536 2.76219 0
M  V30 4642 N 433.083 -1.0153 1.20538 0
M  V30 4643 C 434.494 -1.56598 1.01657 0
M  V30 4644 C 434.845 -1.91505 -0.426668 0
M  V30 4645 O 433.97 -1.72375 -1.30827 0
M  V30 4646 C 434.565 -2.84542 1.83905 0
M  V30 4647 C 433.124 -3.36133 1.69386 0
M  V30 4648 C 432.271 -2.09427 1.81757 0
M  V30 4649 H 435.222 -0.838974 1.34711 0
M  V30 4650 H 435.243 -3.56004 1.34319 0
M  V30 4651 H 434.755 -2.59105 2.8894 0
M  V30 4652 H 432.856 -3.66528 0.669933 0
M  V30 4653 H 432.969 -4.08248 2.50739 0
M  V30 4654 H 431.333 -2.21941 1.24957 0
M  V30 4655 H 432.116 -1.86414 2.88279 0
M  V30 4656 N 434.561 -1.01147 -1.20859 0
M  V30 4657 C 435.491 -0.597663 -2.25722 0
M  V30 4658 C 436.472 0.384744 -1.65692 0
M  V30 4659 O 437.657 0.271303 -1.92296 0
M  V30 4660 C 434.787 0.0700149 -3.47229 0
M  V30 4661 C 433.741 -0.832843 -4.19819 0
M  V30 4662 C 433.067 -0.0312202 -5.34691 0
M  V30 4663 C 434.367 -2.1385 -4.76514 0
M  V30 4664 H 436.061 -1.47423 -2.60589 0
M  V30 4665 H 433.607 -0.710301 -1.25263 0
M  V30 4666 H 435.56 0.37103 -4.19763 0
M  V30 4667 H 434.284 0.981259 -3.11511 0
M  V30 4668 H 432.943 -1.11778 -3.49144 0
M  V30 4669 H 432.591 0.881515 -4.95215 0
M  V30 4670 H 432.291 -0.632434 -5.84187 0
M  V30 4671 H 433.815 0.26346 -6.10031 0
M  V30 4672 H 435.229 -1.9002 -5.40893 0
M  V30 4673 H 433.626 -2.69012 -5.36426 0
M  V30 4674 H 434.696 -2.80495 -3.95538 0
M  V30 4675 N 436.039 1.36541 -0.78704 0
M  V30 4676 C 437.286 1.99304 -0.358341 0
M  V30 4677 C 437.614 1.62467 1.06933 0
M  V30 4678 O 436.869 0.870019 1.75297 0
M  V30 4679 C 437.168 3.54343 -0.466485 0
M  V30 4680 C 436.834 4.10993 -1.85461 0
M  V30 4681 C 435.496 4.26177 -2.23443 0
M  V30 4682 C 437.848 4.41895 -2.76366 0
M  V30 4683 C 435.176 4.69573 -3.51736 0
M  V30 4684 C 437.528 4.86722 -4.04084 0
M  V30 4685 C 436.192 5.00112 -4.42091 0
M  V30 4686 H 435.462 0.729306 -0.131126 0
M  V30 4687 H 438.109 1.63068 -1.00404 0
M  V30 4688 H 436.414 3.90918 0.262719 0
M  V30 4689 H 438.111 4.00833 -0.115854 0
M  V30 4690 H 434.701 3.99612 -1.54946 0
M  V30 4691 H 438.885 4.29735 -2.48277 0
M  V30 4692 H 434.141 4.78127 -3.81057 0
M  V30 4693 H 438.315 5.09598 -4.7464 0
M  V30 4694 H 435.942 5.33498 -5.41557 0
M  V30 4695 N 437.518 0.538854 1.48102 0
M  V30 4696 C 438.481 -0.208395 2.28251 0
M  V30 4697 C 439.481 -0.859656 1.35892 0
M  V30 4698 O 440.671 -0.71834 1.58699 0
M  V30 4699 C 437.803 -1.30252 3.15035 0
M  V30 4700 H 438.996 0.495407 2.9578 0
M  V30 4701 H 436.549 0.295112 1.53489 0
M  V30 4702 H 437.284 -2.0393 2.52157 0
M  V30 4703 H 437.069 -0.840551 3.82985 0
M  V30 4704 H 438.559 -1.82787 3.75471 0
M  V30 4705 N 438.996 -1.55193 0.274407 0
M  V30 4706 C 440.226 -2.03692 -0.345442 0
M  V30 4707 C 440.634 -1.15224 -1.50067 0
M  V30 4708 O 439.977 -0.164749 -1.8296 0
M  V30 4709 C 440.039 -3.48325 -0.88939 0
M  V30 4710 C 439.703 -4.56794 0.137115 0
M  V30 4711 C 440.7 -5.11028 0.956378 0
M  V30 4712 C 438.385 -5.01568 0.27115 0
M  V30 4713 C 440.379 -6.08552 1.89587 0
M  V30 4714 C 438.066 -5.98918 1.21412 0
M  V30 4715 C 439.064 -6.52291 2.02498 0
M  V30 4716 O 438.752 -7.47738 2.952 0
M  V30 4717 H 438.484 -0.670893 -0.0829332 0
M  V30 4718 H 441.038 -2.01387 0.404056 0
M  V30 4719 H 439.268 -3.47867 -1.68895 0
M  V30 4720 H 440.957 -3.80167 -1.42225 0
M  V30 4721 H 441.723 -4.7725 0.863559 0
M  V30 4722 H 437.602 -4.5967 -0.349987 0
M  V30 4723 H 441.146 -6.50137 2.52918 0
M  V30 4724 H 437.043 -6.32114 1.30776 0
M  V30 4725 H 437.811 -7.65451 2.89874 0
M  V30 4726 N 440.474 -0.00167713 -1.576 0
M  V30 4727 C 441.89 0.354422 -1.55615 0
M  V30 4728 C 442.09 1.74679 -1.00447 0
M  V30 4729 O 441.146 2.4428 -0.639022 0
M  V30 4730 C 442.459 0.22812 -2.99833 0
M  V30 4731 C 444.007 0.302934 -3.11531 0
M  V30 4732 C 444.482 0.205737 -4.57538 0
M  V30 4733 N 445.973 0.263584 -4.62449 0
M  V30 4734 C 446.708 0.211742 -5.73009 0
M  V30 4735 N 446.204 0.110399 -6.92712 0
M  V30 4736 N 447.997 0.263729 -5.61481 0
M  V30 4737 H 440.148 -0.912498 -1.918 0
M  V30 4738 H 442.411 -0.349928 -0.881053 0
M  V30 4739 H 442.117 -0.729934 -3.44042 0
M  V30 4740 H 441.991 1.00951 -3.6344 0
M  V30 4741 H 444.378 1.25143 -2.67251 0
M  V30 4742 H 444.459 -0.508357 -2.50698 0
M  V30 4743 H 444.103 -0.739225 -5.02492 0
M  V30 4744 H 444.033 1.03554 -5.16318 0
M  V30 4745 H 446.524 0.343173 -3.76339 0
M  V30 4746 H 446.837 0.0767828 -7.72762 0
M  V30 4747 H 445.182 0.0760025 -6.94958 0
M  V30 4748 H 448.373 0.34111 -4.66855 0
M  V30 4749 H 448.546 0.219862 -6.47627 0
M  V30 4750 N 441.952 1.55251 0.271103 0
M  V30 4751 C 443.198 1.7713 0.999832 0
M  V30 4752 C 443.553 0.56659 1.83868 0
M  V30 4753 O 442.846 -0.44069 1.86463 0
M  V30 4754 C 443.04 3.01879 1.91321 0
M  V30 4755 C 442.869 4.34368 1.16426 0
M  V30 4756 C 441.639 4.97593 0.879169 0
M  V30 4757 C 443.837 5.1131 0.553749 0
M  V30 4758 N 441.819 6.13813 0.103618 0
M  V30 4759 C 443.19 6.19938 -0.0875442 0
M  V30 4760 C 445.245 4.95754 0.461782 0
M  V30 4761 C 443.948 7.14703 -0.811942 0
M  V30 4762 C 445.974 5.90875 -0.249027 0
M  V30 4763 C 445.336 6.98893 -0.879051 0
M  V30 4764 H 441.435 0.700407 0.347784 0
M  V30 4765 H 444.019 1.92744 0.275314 0
M  V30 4766 H 442.19 2.87637 2.60997 0
M  V30 4767 H 443.922 3.12154 2.57569 0
M  V30 4768 H 440.677 4.58538 1.18491 0
M  V30 4769 H 441.101 6.76455 -0.271543 0
M  V30 4770 H 445.743 4.12342 0.934552 0
M  V30 4771 H 443.461 7.97634 -1.29639 0
M  V30 4772 H 447.047 5.80916 -0.320529 0
M  V30 4773 H 445.927 7.71231 -1.42031 0
M  V30 4774 N 443.43 -0.535701 1.48216 0
M  V30 4775 C 444.676 -1.29375 1.56173 0
M  V30 4776 C 445.009 -1.92804 0.232429 0
M  V30 4777 O 444.284 -1.78992 -0.761048 0
M  V30 4778 C 444.567 -2.38747 2.69577 0
M  V30 4779 C 444.42 -1.80046 4.12193 0
M  V30 4780 C 445.739 -3.40551 2.78771 0
M  V30 4781 H 442.858 -0.469027 0.568491 0
M  V30 4782 H 445.5 -0.597358 1.80365 0
M  V30 4783 H 443.65 -2.98147 2.4908 0
M  V30 4784 H 445.322 -1.24742 4.44114 0
M  V30 4785 H 443.565 -1.10609 4.19462 0
M  V30 4786 H 444.236 -2.59212 4.87353 0
M  V30 4787 H 446.712 -2.91099 2.97322 0
M  V30 4788 H 445.588 -4.1448 3.59857 0
M  V30 4789 H 445.849 -4.00746 1.86696 0
M  V30 4790 N 444.908 -1.36708 -0.784132 0
M  V30 4791 C 445.871 -1.31307 -1.87859 0
M  V30 4792 C 446.871 -0.219654 -1.59293 0
M  V30 4793 O 448.061 -0.47476 -1.67606 0
M  V30 4794 C 445.193 -1.03679 -3.24751 0
M  V30 4795 H 446.386 -2.28647 -1.94064 0
M  V30 4796 H 443.939 -1.21558 -0.98252 0
M  V30 4797 H 444.674 -0.0681936 -3.24228 0
M  V30 4798 H 444.459 -1.82811 -3.46876 0
M  V30 4799 H 445.949 -1.02518 -4.04821 0
M  V30 4800 N 446.386 1.0089 -1.21074 0
M  V30 4801 C 447.802 1.2695 -0.967257 0
M  V30 4802 C 448.002 1.9846 0.348673 0
M  V30 4803 O 447.058 2.28459 1.0753 0
M  V30 4804 C 448.371 2.09697 -2.15517 0
M  V30 4805 C 449.919 2.22937 -2.197 0
M  V30 4806 C 450.394 3.09064 -3.37999 0
M  V30 4807 N 451.885 3.16653 -3.38061 0
M  V30 4808 C 452.62 3.8354 -4.26245 0
M  V30 4809 N 452.116 4.52488 -5.2462 0
M  V30 4810 N 453.909 3.80141 -4.14064 0
M  V30 4811 H 446.06 0.529005 -2.05707 0
M  V30 4812 H 448.323 0.296148 -0.900556 0
M  V30 4813 H 448.029 1.64497 -3.10859 0
M  V30 4814 H 447.903 3.10444 -2.14253 0
M  V30 4815 H 450.29 2.67357 -1.24916 0
M  V30 4816 H 450.371 1.21673 -2.2501 0
M  V30 4817 H 450.015 2.65347 -4.33074 0
M  V30 4818 H 449.945 4.10433 -3.29928 0
M  V30 4819 H 452.436 2.67566 -2.66865 0
M  V30 4820 H 452.749 5.01219 -5.88217 0
M  V30 4821 H 451.094 4.51288 -5.28549 0
M  V30 4822 H 454.285 3.25427 -3.36474 0
M  V30 4823 H 454.458 4.31992 -4.82998 0
M  V30 4824 N 447.864 1.01787 1.20321 0
M  V30 4825 C 449.11 0.708985 1.90003 0
M  V30 4826 C 449.443 -0.759572 1.78729 0
M  V30 4827 O 448.718 -1.55198 1.17234 0
M  V30 4828 C 449.001 1.1469 3.41348 0
M  V30 4829 C 448.854 2.67586 3.61549 0
M  V30 4830 C 450.173 0.71915 4.34185 0
M  V30 4831 H 447.292 0.259034 0.689978 0
M  V30 4832 H 449.934 1.26584 1.41692 0
M  V30 4833 H 448.084 0.673128 3.82624 0
M  V30 4834 H 449.756 3.22826 3.29517 0
M  V30 4835 H 447.999 3.085 3.04976 0
M  V30 4836 H 448.67 2.93281 4.67643 0
M  V30 4837 H 451.146 1.12647 4.00562 0
M  V30 4838 H 450.022 1.05358 5.38694 0
M  V30 4839 H 450.283 -0.379111 4.40472 0
M  V30 4840 N 449.342 -1.36122 0.79427 0
M  V30 4841 C 450.589 -1.99111 0.368905 0
M  V30 4842 C 450.917 -1.63032 -1.0607 0
M  V30 4843 O 450.172 -0.879303 -1.74833 0
M  V30 4844 C 450.471 -3.5409 0.48527 0
M  V30 4845 C 450.137 -4.10003 1.87638 0
M  V30 4846 C 448.799 -4.24986 2.257 0
M  V30 4847 C 451.151 -4.40423 2.78706 0
M  V30 4848 C 448.479 -4.67701 3.54221 0
M  V30 4849 C 450.831 -4.84573 4.0666 0
M  V30 4850 C 449.495 -4.97761 4.44737 0
M  V30 4851 H 448.765 -0.7286 0.134992 0
M  V30 4852 H 451.412 -1.62534 1.01267 0
M  V30 4853 H 449.717 -3.91052 -0.241984 0
M  V30 4854 H 451.414 -4.00766 0.137109 0
M  V30 4855 H 448.004 -3.98784 1.57064 0
M  V30 4856 H 452.188 -4.28412 2.50553 0
M  V30 4857 H 447.444 -4.761 3.83587 0
M  V30 4858 H 451.618 -5.07074 4.77336 0
M  V30 4859 H 449.245 -5.30618 5.44379 0
M  V30 4860 N 450.82 -0.546701 -1.47814 0
M  V30 4861 C 451.73 0.21026 -2.33656 0
M  V30 4862 C 452.746 0.922413 -1.47538 0
M  V30 4863 O 453.922 0.893652 -1.80488 0
M  V30 4864 C 450.987 1.23348 -3.24016 0
M  V30 4865 C 450.048 0.529883 -4.26017 0
M  V30 4866 C 449.281 1.50435 -5.12059 0
M  V30 4867 O 449.504 2.73837 -5.00369 0
M  V30 4868 O 448.438 1.03459 -5.92942 0
M  V30 4869 H 452.264 -0.493605 -2.99662 0
M  V30 4870 H 449.849 -0.307427 -1.46203 0
M  V30 4871 H 451.731 1.82438 -3.79861 0
M  V30 4872 H 450.406 1.91945 -2.60651 0
M  V30 4873 H 449.313 -0.101948 -3.73961 0
M  V30 4874 H 450.646 -0.11445 -4.92067 0
M  V30 4875 N 452.299 1.55045 -0.282633 0
M  V30 4876 C 453.548 1.98938 0.332667 0
M  V30 4877 C 453.861 1.17455 1.56409 0
M  V30 4878 O 455.067 1.51527 2.25282 0
M  V30 4879 C 453.523 3.54105 0.643226 0
M  V30 4880 C 453.131 4.44374 -0.568814 0
M  V30 4881 C 454.875 4.06569 1.22074 0
M  V30 4882 C 452.782 5.90943 -0.232426 0
M  V30 4883 H 451.712 0.743043 0.128075 0
M  V30 4884 H 454.363 1.79341 -0.388464 0
M  V30 4885 H 452.745 3.69532 1.42346 0
M  V30 4886 H 453.919 4.40718 -1.34551 0
M  V30 4887 H 452.234 4.02585 -1.06369 0
M  V30 4888 H 454.831 5.13626 1.48635 0
M  V30 4889 H 455.174 3.56057 2.15707 0
M  V30 4890 H 455.707 3.94612 0.502621 0
M  V30 4891 H 452.446 6.45567 -1.13683 0
M  V30 4892 H 451.966 5.9765 0.507357 0
M  V30 4893 H 453.645 6.4677 0.172657 0
M  V30 4894 N 453.777 0.010035 1.57597 0
M  V30 4895 C 455.002 -0.687021 1.95691 0
M  V30 4896 C 455.427 -1.65952 0.885519 0
M  V30 4897 O 454.785 -1.80633 -0.15543 0
M  V30 4898 C 454.833 -1.3864 3.32884 0
M  V30 4899 O 453.937 -2.50115 3.27897 0
M  V30 4900 H 453.278 -0.181989 0.638573 0
M  V30 4901 H 455.808 0.0662122 2.04493 0
M  V30 4902 H 455.818 -1.74754 3.6868 0
M  V30 4903 H 454.493 -0.673411 4.10412 0
M  V30 4904 H 453.07 -2.16253 3.03791 0
M  V30 4905 N 455.255 -1.55392 -0.262866 0
M  V30 4906 C 456.666 -1.67079 -0.833158 0
M  V30 4907 C 457.017 -0.604539 -1.86654 0
M  V30 4908 O 456.142 0.252138 -2.14926 0
M  V30 4909 C 456.737 -3.02891 -1.51797 0
M  V30 4910 C 455.296 -3.16571 -2.03617 0
M  V30 4911 C 454.443 -2.62909 -0.881701 0
M  V30 4912 H 457.394 -1.58652 -0.0389986 0
M  V30 4913 H 457.415 -2.96445 -2.38538 0
M  V30 4914 H 456.927 -3.80473 -0.765619 0
M  V30 4915 H 455.028 -2.43782 -2.81782 0
M  V30 4916 H 455.141 -4.23271 -2.24452 0
M  V30 4917 H 453.505 -2.20324 -1.27786 0
M  V30 4918 H 454.288 -3.43003 -0.14269 0
M  V30 4919 N 456.733 0.527833 -1.48498 0
M  V30 4920 C 457.98 1.28354 -1.56625 0
M  V30 4921 C 458.308 1.93 -0.241096 0
M  V30 4922 O 457.563 1.79967 0.768798 0
M  V30 4923 C 457.862 2.39275 -2.65485 0
M  V30 4924 C 457.528 1.92268 -4.07853 0
M  V30 4925 C 456.19 1.79166 -4.46602 0
M  V30 4926 C 458.542 1.56771 -4.97064 0
M  V30 4927 C 455.87 1.28905 -5.72364 0
M  V30 4928 C 458.222 1.07972 -6.23318 0
M  V30 4929 C 456.886 0.934887 -6.60921 0
M  V30 4930 H 456.156 0.469682 -0.573131 0
M  V30 4931 H 458.803 0.588781 -1.82224 0
M  V30 4932 H 457.108 3.1443 -2.33754 0
M  V30 4933 H 458.805 2.974 -2.68988 0
M  V30 4934 H 455.395 2.03417 -3.77252 0
M  V30 4935 H 459.579 1.65753 -4.67803 0
M  V30 4936 H 454.835 1.16381 -6.00221 0
M  V30 4937 H 459.009 0.795775 -6.91838 0
M  V30 4938 H 456.636 0.543231 -7.58257 0
M  V30 4939 N 458.211 1.37122 0.776871 0
M  V30 4940 C 459.121 1.34651 1.9211 0
M  V30 4941 C 460.137 0.246824 1.7224 0
M  V30 4942 O 461.313 0.48134 1.95563 0
M  V30 4943 C 458.378 1.14748 3.2716 0
M  V30 4944 C 457.439 2.34308 3.5972 0
M  V30 4945 C 456.672 2.15345 4.88326 0
M  V30 4946 O 456.895 1.13507 5.58992 0
M  V30 4947 O 455.829 3.03414 5.1983 0
M  V30 4948 H 459.655 2.31013 1.97146 0
M  V30 4949 H 457.24 1.17799 0.918901 0
M  V30 4950 H 459.122 1.05616 4.0795 0
M  V30 4951 H 457.797 0.214562 3.22988 0
M  V30 4952 H 456.704 2.49011 2.79185 0
M  V30 4953 H 458.037 3.26149 3.68629 0
M  V30 4954 N 459.689 -1.00246 1.21608 0
M  V30 4955 C 461.1 -1.55511 1.03312 0
M  V30 4956 C 461.451 -1.91946 -0.406332 0
M  V30 4957 O 460.576 -1.73753 -1.28992 0
M  V30 4958 C 461.171 -2.82576 1.86913 0
M  V30 4959 C 459.73 -3.34318 1.72941 0
M  V30 4960 C 458.877 -2.07487 1.83968 0
M  V30 4961 H 461.828 -0.824638 1.35593 0
M  V30 4962 H 461.849 -3.54559 1.38087 0
M  V30 4963 H 461.361 -2.56026 2.91672 0
M  V30 4964 H 459.462 -3.65797 0.70877 0
M  V30 4965 H 459.575 -4.05566 2.55055 0
M  V30 4966 H 457.939 -2.20603 1.27304 0
M  V30 4967 H 458.722 -1.83346 2.9024 0
M  V30 4968 N 461.167 -1.02423 -1.1978 0
M  V30 4969 C 462.413 -0.72878 -1.89896 0
M  V30 4970 C 462.768 0.734248 -1.77839 0
M  V30 4971 O 462.061 1.52733 -1.15685 0
M  V30 4972 C 462.255 -1.1088 -3.39765 0
M  V30 4973 C 462.084 -2.60722 -3.66407 0
M  V30 4974 C 460.854 -3.27623 -3.84696 0
M  V30 4975 C 463.052 -3.58924 -3.68345 0
M  V30 4976 N 461.034 -4.66617 -3.98926 0
M  V30 4977 C 462.405 -4.83514 -3.8809 0
M  V30 4978 C 464.46 -3.52788 -3.51347 0
M  V30 4979 C 463.163 -6.0271 -3.92598 0
M  V30 4980 C 465.189 -4.71394 -3.5713 0
M  V30 4981 C 464.551 -5.94796 -3.77356 0
M  V30 4982 H 460.65 -0.318473 -0.714212 0
M  V30 4983 H 463.234 -1.3106 -1.43984 0
M  V30 4984 H 461.405 -0.555233 -3.84411 0
M  V30 4985 H 463.137 -0.766082 -3.97383 0
M  V30 4986 H 459.892 -2.7804 -3.83393 0
M  V30 4987 H 460.316 -5.38805 -4.099 0
M  V30 4988 H 464.958 -2.58372 -3.3467 0
M  V30 4989 H 462.676 -6.97499 -4.08069 0
M  V30 4990 H 466.262 -4.6827 -3.45275 0
M  V30 4991 H 465.142 -6.85037 -3.81699 0
M  V30 4992 N 462.645 1.35699 -0.801477 0
M  V30 4993 C 463.894 1.98165 -0.375979 0
M  V30 4994 C 464.207 1.64306 1.06127 0
M  V30 4995 O 465.413 2.20097 1.58964 0
M  V30 4996 C 463.869 3.54497 -0.621305 0
M  V30 4997 C 463.477 3.9727 -2.07076 0
M  V30 4998 C 465.221 4.23697 -0.26091 0
M  V30 4999 C 463.128 5.46427 -2.26211 0
M  V30 5000 H 462.058 0.741478 -0.136844 0
M  V30 5001 H 464.709 1.54834 -0.984814 0
M  V30 5002 H 463.091 3.95958 0.0574112 0
M  V30 5003 H 464.265 3.66974 -2.78687 0
M  V30 5004 H 462.58 3.40943 -2.39054 0
M  V30 5005 H 465.177 5.33334 -0.381994 0
M  V30 5006 H 465.52 4.0869 0.792344 0
M  V30 5007 H 466.053 3.87639 -0.893339 0
M  V30 5008 H 462.792 5.66396 -3.29963 0
M  V30 5009 H 462.312 5.78309 -1.59119 0
M  V30 5010 H 463.991 6.12819 -2.07513 0
M  V30 5011 N 464.123 0.554532 1.47522 0
M  V30 5012 C 465.351 0.034257 2.06872 0
M  V30 5013 C 465.766 -1.25826 1.40759 0
M  V30 5014 O 465.123 -1.75425 0.503217 0
M  V30 5015 C 465.174 -0.167827 3.6111 0
M  V30 5016 O 464.895 1.07351 4.24744 0
M  V30 5017 C 466.396 -0.72569 4.3732 0
M  V30 5018 H 463.616 0.0446275 0.669514 0
M  V30 5019 H 466.16 0.767181 1.89564 0
M  V30 5020 H 464.315 -0.850872 3.7794 0
M  V30 5021 H 464.729 0.869563 5.17242 0
M  V30 5022 H 466.203 -0.816394 5.45929 0
M  V30 5023 H 466.68 -1.73635 4.0342 0
M  V30 5024 H 467.286 -0.0784292 4.25228 0
M  V30 5025 N 465.601 -1.54893 0.290851 0
M  V30 5026 C 467.017 -1.59476 -0.0628432 0
M  V30 5027 C 467.217 -1.30795 -1.5328 0
M  V30 5028 O 466.273 -1.07644 -2.28406 0
M  V30 5029 C 467.586 -2.98928 0.325962 0
M  V30 5030 C 469.134 -3.11799 0.273882 0
M  V30 5031 C 469.609 -4.53544 0.637359 0
M  V30 5032 N 471.1 -4.59433 0.589507 0
M  V30 5033 C 471.835 -5.67164 0.84335 0
M  V30 5034 N 471.331 -6.82975 1.16263 0
M  V30 5035 N 473.124 -5.56786 0.771091 0
M  V30 5036 H 465.275 -1.71798 1.24896 0
M  V30 5037 H 467.538 -0.801879 0.505663 0
M  V30 5038 H 467.244 -3.24805 1.34887 0
M  V30 5039 H 467.118 -3.75793 -0.325441 0
M  V30 5040 H 469.505 -2.85677 -0.739765 0
M  V30 5041 H 469.586 -2.37112 0.959766 0
M  V30 5042 H 469.23 -4.80394 1.64877 0
M  V30 5043 H 469.16 -5.26553 -0.0704866 0
M  V30 5044 H 471.651 -3.76245 0.353252 0
M  V30 5045 H 471.964 -7.61048 1.34257 0
M  V30 5046 H 470.309 -6.84552 1.20057 0
M  V30 5047 H 473.5 -4.65187 0.521383 0
M  V30 5048 H 473.673 -6.40664 0.972295 0
M  V30 5049 N 467.08 -0.0183926 -1.57589 0
M  V30 5050 C 468.357 0.700621 -1.82622 0
M  V30 5051 C 468.737 1.90951 -0.90005 0
M  V30 5052 O 468.085 2.28452 0.0469145 0
M  V30 5053 C 468.295 1.08899 -3.31575 0
M  V30 5054 C 469.643 1.48514 -3.9778 0
M  V30 5055 O 470.667 1.18227 -3.36007 0
M  V30 5056 O 469.526 2.04903 -5.06633 0
M  V30 5057 H 466.62 0.342743 -0.752633 0
M  V30 5058 H 469.166 -0.0452548 -1.6964 0
M  V30 5059 H 467.938 0.228113 -3.90635 0
M  V30 5060 H 467.561 1.89338 -3.49624 0
M  V30 5061 N 468.558 1.5553 0.254621 0
M  V30 5062 C 469.505 1.89666 1.31512 0
M  V30 5063 C 470.475 0.750057 1.482 0
M  V30 5064 O 471.66 1.00301 1.62309 0
M  V30 5065 C 468.8 2.19009 2.667 0
M  V30 5066 C 467.913 3.46435 2.58083 0
M  V30 5067 C 467.048 3.65386 3.85573 0
M  V30 5068 C 466.087 4.8644 3.71541 0
M  V30 5069 N 465.224 5.01952 4.90906 0
M  V30 5070 H 470.064 2.80109 1.017 0
M  V30 5071 H 467.601 1.38666 0.490938 0
M  V30 5072 H 469.559 2.34025 3.45381 0
M  V30 5073 H 468.189 1.31779 2.94676 0
M  V30 5074 H 467.241 3.39792 1.71013 0
M  V30 5075 H 468.553 4.35258 2.43622 0
M  V30 5076 H 467.707 3.80319 4.72697 0
M  V30 5077 H 466.446 2.74781 4.02922 0
M  V30 5078 H 465.451 4.71491 2.82801 0
M  V30 5079 H 466.676 5.78497 3.55694 0
M  V30 5080 H 464.622 4.14283 5.08631 0
M  V30 5081 H 464.539 5.84851 4.79046 0
M  V30 5082 H 465.807 5.21289 5.7955 0
M  V30 5083 N 470.036 -0.519951 1.48776 0
M  V30 5084 C 471.282 -1.27711 1.57536 0
M  V30 5085 C 471.615 -1.92547 0.252866 0
M  V30 5086 O 470.89 -1.7979 -0.742021 0
M  V30 5087 C 471.173 -2.35875 2.72094 0
M  V30 5088 C 471.026 -1.75664 4.1408 0
M  V30 5089 C 472.345 -3.37575 2.82367 0
M  V30 5090 H 469.464 -0.462971 0.573434 0
M  V30 5091 H 472.106 -0.578194 1.80989 0
M  V30 5092 H 470.256 -2.95488 2.52228 0
M  V30 5093 H 471.928 -1.20025 4.45412 0
M  V30 5094 H 470.171 -1.06154 4.20611 0
M  V30 5095 H 470.842 -2.54029 4.90075 0
M  V30 5096 H 473.318 -2.87929 3.00393 0
M  V30 5097 H 472.194 -4.1064 3.64233 0
M  V30 5098 H 472.455 -3.98743 1.90936 0
M  V30 5099 N 471.514 -1.37532 -0.769588 0
M  V30 5100 C 472.424 -1.35668 -1.91393 0
M  V30 5101 C 473.44 -0.255954 -1.72107 0
M  V30 5102 O 474.616 -0.491704 -1.95305 0
M  V30 5103 C 471.681 -1.16481 -3.26547 0
M  V30 5104 C 470.742 -2.36212 -3.58472 0
M  V30 5105 C 469.975 -2.17932 -4.87177 0
M  V30 5106 O 470.198 -1.1647 -5.58382 0
M  V30 5107 O 469.132 -3.06167 -5.18214 0
M  V30 5108 H 472.958 -2.32055 -1.95918 0
M  V30 5109 H 470.543 -1.18284 -0.912641 0
M  V30 5110 H 472.425 -1.07778 -4.07384 0
M  V30 5111 H 471.1 -0.231687 -3.2287 0
M  V30 5112 H 470.007 -2.50488 -2.77861 0
M  V30 5113 H 471.34 -3.281 -3.66894 0
M  V30 5114 N 472.992 0.995999 -1.22138 0
M  V30 5115 C 474.408 1.25917 -0.980667 0
M  V30 5116 C 474.608 1.98819 0.327604 0
M  V30 5117 O 473.664 2.29587 1.05101 0
M  V30 5118 C 474.977 2.07399 -2.17729 0
M  V30 5119 C 476.525 2.20594 -2.22052 0
M  V30 5120 C 477 3.05462 -3.41258 0
M  V30 5121 N 478.491 3.13049 -3.41401 0
M  V30 5122 C 479.226 3.78997 -4.30289 0
M  V30 5123 N 478.722 4.46899 -5.2939 0
M  V30 5124 N 480.515 3.75728 -4.18073 0
M  V30 5125 H 472.666 0.507158 -2.06256 0
M  V30 5126 H 474.929 0.28658 -0.903646 0
M  V30 5127 H 474.635 1.61191 -3.12586 0
M  V30 5128 H 474.509 3.08154 -2.17534 0
M  V30 5129 H 476.896 2.66017 -1.27745 0
M  V30 5130 H 476.977 1.1928 -2.26287 0
M  V30 5131 H 476.621 2.60739 -4.35864 0
M  V30 5132 H 476.551 4.06911 -3.34262 0
M  V30 5133 H 479.042 2.64721 -2.69688 0
M  V30 5134 H 479.355 4.94952 -5.935 0
M  V30 5135 H 477.7 4.45657 -5.33306 0
M  V30 5136 H 480.891 3.2184 -3.39907 0
M  V30 5137 H 481.064 4.26845 -4.87553 0
M  V30 5138 N 474.47 1.03057 1.19235 0
M  V30 5139 C 475.403 0.557384 2.21288 0
M  V30 5140 C 476.381 -0.402675 1.57535 0
M  V30 5141 O 477.565 -0.319376 1.85775 0
M  V30 5142 C 474.692 -0.187041 3.38183 0
M  V30 5143 C 473.738 0.72471 4.20298 0
M  V30 5144 S 474.571 2.20187 4.88137 0
M  V30 5145 C 475.727 1.46801 6.08441 0
M  V30 5146 H 475.96 1.42207 2.61083 0
M  V30 5147 H 473.493 0.840651 1.29508 0
M  V30 5148 H 475.451 -0.610405 4.05936 0
M  V30 5149 H 474.112 -1.02748 2.96819 0
M  V30 5150 H 473.305 0.149911 5.03777 0
M  V30 5151 H 472.907 1.08647 3.57871 0
M  V30 5152 H 475.199 0.755522 6.73274 0
M  V30 5153 H 476.142 2.27946 6.70407 0
M  V30 5154 H 476.55 0.964762 5.56195 0
M  V30 5155 N 475.948 -1.35272 0.808662 0
M  V30 5156 C 476.898 -2.27181 0.193124 0
M  V30 5157 C 477.882 -1.47871 -0.634265 0
M  V30 5158 O 479.074 -1.70048 -0.491182 0
M  V30 5159 C 476.203 -3.36979 -0.655751 0
M  V30 5160 C 475.289 -4.23712 0.181481 0
M  V30 5161 N 475.68 -4.90225 1.24551 0
M  V30 5162 C 473.978 -4.45985 -0.0365493 0
M  V30 5163 C 474.679 -5.54537 1.75682 0
M  V30 5164 N 473.655 -5.33107 1.06294 0
M  V30 5165 H 477.457 -2.76101 1.00724 0
M  V30 5166 H 474.971 -1.48823 0.650029 0
M  V30 5167 H 476.968 -4.01774 -1.11279 0
M  V30 5168 H 475.628 -2.89611 -1.46819 0
M  V30 5169 H 476.639 -4.91641 1.62818 0
M  V30 5170 H 473.316 -4.09409 -0.817964 0
M  V30 5171 H 474.706 -6.17597 2.64621 0
M  V30 5172 N 477.426 -0.562348 -1.47226 0
M  V30 5173 C 478.675 -0.038041 -2.01664 0
M  V30 5174 C 478.988 1.32199 -1.44162 0
M  V30 5175 O 480.194 1.9365 -1.90294 0
M  V30 5176 C 478.65 -0.0174958 -3.59896 0
M  V30 5177 C 478.258 -1.3746 -4.2639 0
M  V30 5178 C 480.002 0.453934 -4.22066 0
M  V30 5179 C 477.909 -1.31289 -5.76643 0
M  V30 5180 H 476.839 -0.0104511 -0.753928 0
M  V30 5181 H 479.49 -0.710966 -1.69167 0
M  V30 5182 H 477.872 0.721182 -3.89378 0
M  V30 5183 H 479.046 -2.1314 -4.08544 0
M  V30 5184 H 477.361 -1.78438 -3.7623 0
M  V30 5185 H 479.958 0.518584 -5.32179 0
M  V30 5186 H 480.301 1.46706 -3.89594 0
M  V30 5187 H 480.834 -0.230044 -3.97134 0
M  V30 5188 H 477.573 -2.30217 -6.13743 0
M  V30 5189 H 477.093 -0.597973 -5.96812 0
M  V30 5190 H 478.772 -1.01713 -6.38955 0
M  V30 5191 N 478.904 1.54736 -0.299062 0
M  V30 5192 C 480.132 2.04512 0.313447 0
M  V30 5193 C 480.547 1.17643 1.47667 0
M  V30 5194 O 479.904 0.20164 1.81383 0
M  V30 5195 C 479.955 3.53171 0.771542 0
M  V30 5196 O 479.676 4.36736 -0.345379 0
M  V30 5197 C 481.177 4.18936 1.4494 0
M  V30 5198 H 478.397 0.667507 0.0683784 0
M  V30 5199 H 480.941 1.99752 -0.438129 0
M  V30 5200 H 479.096 3.58298 1.47314 0
M  V30 5201 H 479.51 5.24499 0.0109219 0
M  V30 5202 H 480.984 5.24482 1.72111 0
M  V30 5203 H 481.461 3.68554 2.38883 0
M  V30 5204 H 482.067 4.17879 0.791028 0
M  V30 5205 N 480.382 0.0267497 1.57577 0
M  V30 5206 C 481.659 -0.690926 1.82991 0
M  V30 5207 C 482.039 -1.90471 0.910164 0
M  V30 5208 O 481.387 -2.28474 -0.0347985 0
M  V30 5209 C 481.597 -1.07139 3.32148 0
M  V30 5210 C 482.945 -1.46402 3.98562 0
M  V30 5211 O 483.969 -1.16443 3.36629 0
M  V30 5212 O 482.828 -2.02214 5.07712 0
M  V30 5213 H 479.922 -0.338747 0.75444 0
M  V30 5214 H 482.468 0.0542506 1.69613 0
M  V30 5215 H 481.24 -0.207394 3.9075 0
M  V30 5216 H 480.863 -1.87481 3.50623 0
M  V30 5217 N 481.861 -1.55662 -0.24637 0
M  V30 5218 C 482.794 -1.85332 -1.33143 0
M  V30 5219 C 483.772 -0.708464 -1.46354 0
M  V30 5220 O 484.956 -0.954274 -1.6256 0
M  V30 5221 C 482.083 -2.0385 -2.70487 0
M  V30 5222 C 481.129 -3.26488 -2.74423 0
M  V30 5223 S 481.962 -4.83124 -2.30979 0
M  V30 5224 C 483.118 -5.04647 -3.70246 0
M  V30 5225 H 483.351 -2.77077 -1.07777 0
M  V30 5226 H 480.884 -1.47776 -0.44738 0
M  V30 5227 H 482.842 -2.15202 -3.49569 0
M  V30 5228 H 481.503 -1.12947 -2.9309 0
M  V30 5229 H 480.696 -3.36413 -3.7529 0
M  V30 5230 H 480.298 -3.13864 -2.03385 0
M  V30 5231 H 482.59 -4.92023 -4.65746 0
M  V30 5232 H 483.533 -6.06625 -3.65255 0
M  V30 5233 H 483.941 -4.32491 -3.62784 0
M  V30 5234 N 483.339 0.512053 -1.4905 0
M  V30 5235 C 484.286 1.6148 -1.64902 0
M  V30 5236 C 485.256 1.58687 -0.490673 0
M  V30 5237 O 486.441 1.76842 -0.71636 0
M  V30 5238 C 483.581 2.99676 -1.71139 0
M  V30 5239 C 482.694 3.12568 -2.98203 0
M  V30 5240 C 481.829 4.4143 -2.95487 0
M  V30 5241 C 480.868 4.47916 -4.17179 0
M  V30 5242 N 480.005 5.68191 -4.12437 0
M  V30 5243 H 484.845 1.47271 -2.59066 0
M  V30 5244 H 482.382 0.716713 -1.28459 0
M  V30 5245 H 484.34 3.79761 -1.72736 0
M  V30 5246 H 482.97 3.12614 -0.804508 0
M  V30 5247 H 482.022 2.25618 -3.06269 0
M  V30 5248 H 483.334 3.1322 -3.88194 0
M  V30 5249 H 482.488 5.29825 -2.95585 0
M  V30 5250 H 481.227 4.43326 -2.03256 0
M  V30 5251 H 480.232 3.57925 -4.17337 0
M  V30 5252 H 481.457 4.47744 -5.1059 0
M  V30 5253 H 479.403 5.7095 -3.23036 0
M  V30 5254 H 479.32 5.70413 -4.96151 0
M  V30 5255 H 480.588 6.58823 -4.16621 0
M  V30 5256 N 484.817 1.37938 0.762283 0
M  V30 5257 C 485.747 1.37176 1.88958 0
M  V30 5258 C 486.728 0.238945 1.68413 0
M  V30 5259 O 487.913 0.440726 1.89133 0
M  V30 5260 C 485.043 1.18742 3.2637 0
M  V30 5261 C 483.997 2.29136 3.61498 0
M  V30 5262 C 483.323 1.95816 4.97554 0
M  V30 5263 C 484.623 3.71363 3.6727 0
M  V30 5264 H 486.317 2.31509 1.89853 0
M  V30 5265 H 483.863 1.11438 0.912005 0
M  V30 5266 H 485.816 1.16837 4.04879 0
M  V30 5267 H 484.54 0.208683 3.25933 0
M  V30 5268 H 483.199 2.30213 2.85303 0
M  V30 5269 H 482.847 0.964475 4.93667 0
M  V30 5270 H 482.547 2.69745 5.22026 0
M  V30 5271 H 484.071 1.95513 5.78452 0
M  V30 5272 H 485.485 3.72364 4.35911 0
M  V30 5273 H 483.882 4.44425 4.03245 0
M  V30 5274 H 484.952 4.04305 2.67704 0
M  V30 5275 N 486.295 -0.989507 1.22664 0
M  V30 5276 C 487.706 -1.54406 1.04955 0
M  V30 5277 C 488.057 -1.92366 -0.385951 0
M  V30 5278 O 487.182 -1.75111 -1.27142 0
M  V30 5279 C 487.777 -2.80578 1.89899 0
M  V30 5280 C 486.336 -3.32464 1.76478 0
M  V30 5281 C 485.483 -2.05524 1.86159 0
M  V30 5282 H 488.434 -0.810211 1.3646 0
M  V30 5283 H 488.455 -3.53075 1.4184 0
M  V30 5284 H 487.967 -2.52918 2.94371 0
M  V30 5285 H 486.068 -3.65024 0.747528 0
M  V30 5286 H 486.181 -4.02838 2.59342 0
M  V30 5287 H 484.545 -2.19241 1.29636 0
M  V30 5288 H 485.328 -1.80258 2.92168 0
M  V30 5289 N 487.773 -1.03688 -1.18687 0
M  V30 5290 C 488.723 -0.595067 -2.20098 0
M  V30 5291 C 489.707 0.360465 -1.5681 0
M  V30 5292 O 490.899 0.180136 -1.76081 0
M  V30 5293 C 488.028 0.0444495 -3.43271 0
M  V30 5294 C 487.114 -0.934002 -4.13687 0
M  V30 5295 N 487.505 -2.09957 -4.60165 0
M  V30 5296 C 485.803 -0.759177 -4.39491 0
M  V30 5297 C 486.504 -2.71735 -5.1433 0
M  V30 5298 N 485.48 -1.99638 -5.05614 0
M  V30 5299 H 489.282 -1.48336 -2.5372 0
M  V30 5300 H 486.796 -0.904949 -1.3485 0
M  V30 5301 H 488.793 0.37864 -4.15177 0
M  V30 5302 H 487.453 0.928325 -3.11147 0
M  V30 5303 H 488.464 -2.47863 -4.54735 0
M  V30 5304 H 485.141 0.0749292 -4.17433 0
M  V30 5305 H 486.531 -3.70492 -5.60523 0
M  V30 5306 N 489.251 1.34841 -0.815825 0
M  V30 5307 C 490.181 2.32187 -0.247298 0
M  V30 5308 C 491.162 1.5791 0.632344 0
M  V30 5309 O 492.347 1.8593 0.560698 0
M  V30 5310 C 489.477 3.42122 0.597466 0
M  V30 5311 C 488.431 4.27602 -0.184446 0
M  V30 5312 C 487.757 5.28942 0.782609 0
M  V30 5313 C 489.057 5.03502 -1.38865 0
M  V30 5314 H 490.751 2.79985 -1.06061 0
M  V30 5315 H 488.297 1.34611 -0.511461 0
M  V30 5316 H 490.25 4.09232 1.00533 0
M  V30 5317 H 488.974 2.92956 1.44376 0
M  V30 5318 H 487.633 3.62085 -0.573592 0
M  V30 5319 H 487.281 4.7604 1.62466 0
M  V30 5320 H 486.981 5.87008 0.263695 0
M  V30 5321 H 488.505 5.98922 1.18848 0
M  V30 5322 H 489.919 5.63506 -1.05518 0
M  V30 5323 H 488.316 5.71108 -1.8427 0
M  V30 5324 H 489.386 4.33608 -2.17054 0
M  V30 5325 N 490.729 0.570148 1.46925 0
M  V30 5326 C 492.14 0.1402 1.86173 0
M  V30 5327 C 492.491 -1.29347 1.47526 0
M  V30 5328 O 491.616 -1.97508 0.884292 0
M  V30 5329 C 492.211 0.247661 3.37894 0
M  V30 5330 C 490.77 -0.127332 3.76185 0
M  V30 5331 C 489.917 0.589349 2.70965 0
M  V30 5332 H 492.868 0.779117 1.38259 0
M  V30 5333 H 492.889 -0.530341 3.76786 0
M  V30 5334 H 492.401 1.29121 3.65991 0
M  V30 5335 H 490.502 -1.17149 3.53704 0
M  V30 5336 H 490.615 0.240238 4.78497 0
M  V30 5337 H 488.979 0.0309824 2.54681 0
M  V30 5338 H 489.762 1.6343 3.01903 0
M  V30 5339 N 492.207 -1.54576 0.307264 0
M  V30 5340 C 493.455 -1.99867 -0.299574 0
M  V30 5341 C 493.776 -1.19714 -1.53927 0
M  V30 5342 O 493.046 -0.29472 -1.9367 0
M  V30 5343 H 491.626 -0.738299 -0.113683 0
M  V30 5344 H 494.288 -1.9032 0.420042 0
M  V30 5345 H 493.384 -3.06901 -0.567283 0
M  V30 5346 N 493.685 -0.035106 -1.57561 0
M  V30 5347 C 494.615 0.942993 -2.13612 0
M  V30 5348 C 495.596 1.33531 -1.05373 0
M  V30 5349 O 496.781 1.41287 -1.33235 0
M  V30 5350 C 493.911 2.22332 -2.66807 0
M  V30 5351 C 492.865 1.97156 -3.79886 0
M  V30 5352 C 492.191 3.31506 -4.19533 0
M  V30 5353 C 493.491 1.30596 -5.05709 0
M  V30 5354 H 495.185 0.476179 -2.95589 0
M  V30 5355 H 492.731 0.227602 -1.4219 0
M  V30 5356 H 494.684 2.91142 -3.04654 0
M  V30 5357 H 493.408 2.7119 -1.81999 0
M  V30 5358 H 492.067 1.30763 -3.42486 0
M  V30 5359 H 491.715 3.78134 -3.31698 0
M  V30 5360 H 491.415 3.15465 -4.95738 0
M  V30 5361 H 492.939 4.01574 -4.59968 0
M  V30 5362 H 494.353 1.89416 -5.41105 0
M  V30 5363 H 492.75 1.24934 -5.86951 0
M  V30 5364 H 493.82 0.279742 -4.84092 0
M  V30 5365 N 495.163 1.55791 0.238111 0
M  V30 5366 C 496.073 1.94196 1.31625 0
M  V30 5367 C 497.089 0.843545 1.52185 0
M  V30 5368 O 498.265 1.1457 1.65637 0
M  V30 5369 C 495.33 2.2365 2.64918 0
M  V30 5370 C 494.391 3.46971 2.52804 0
M  V30 5371 C 493.624 3.7501 3.79741 0
M  V30 5372 O 493.847 3.04982 4.82019 0
M  V30 5373 O 492.781 4.68525 3.77846 0
M  V30 5374 H 496.607 2.86044 1.02043 0
M  V30 5375 H 494.192 1.42786 0.439603 0
M  V30 5376 H 496.074 2.43863 3.4367 0
M  V30 5377 H 494.749 1.34979 2.94215 0
M  V30 5378 H 493.656 3.32055 1.72309 0
M  V30 5379 H 494.989 4.35971 2.28451 0
M  V30 5380 N 496.642 -0.504142 1.49319 0
M  V30 5381 C 497.919 -1.26548 1.49147 0
M  V30 5382 C 498.299 -2.09977 0.21744 0
M  V30 5383 O 497.647 -2.14028 -0.800269 0
M  V30 5384 C 497.857 -2.12489 2.76857 0
M  V30 5385 C 499.205 -2.7178 3.26222 0
M  V30 5386 O 500.229 -2.22758 2.77952 0
M  V30 5387 O 499.088 -3.61015 4.10281 0
M  V30 5388 H 496.182 -0.572495 0.596806 0
M  V30 5389 H 498.728 -0.51867 1.61579 0
M  V30 5390 H 497.5 -1.50796 3.61077 0
M  V30 5391 H 497.123 -2.94368 2.6727 0
M  V30 5392 N 498.12 -1.38341 -0.754957 0
M  V30 5393 C 499.05 -1.38176 -1.88227 0
M  V30 5394 C 500.031 -0.247873 -1.68284 0
M  V30 5395 O 501.216 -0.45075 -1.88896 0
M  V30 5396 C 498.346 -1.20471 -3.25736 0
M  V30 5397 C 497.3 -2.3105 -3.60278 0
M  V30 5398 C 496.626 -1.98452 -4.96509 0
M  V30 5399 C 497.926 -3.73305 -3.65295 0
M  V30 5400 H 499.62 -2.32512 -1.88622 0
M  V30 5401 H 497.166 -1.1192 -0.906082 0
M  V30 5402 H 499.119 -1.18982 -4.04254 0
M  V30 5403 H 497.843 -0.225965 -3.25817 0
M  V30 5404 H 496.502 -2.31723 -2.84078 0
M  V30 5405 H 496.15 -0.990641 -4.93148 0
M  V30 5406 H 495.85 -2.7251 -5.20588 0
M  V30 5407 H 497.374 -1.98578 -5.77407 0
M  V30 5408 H 498.788 -3.7467 -4.3393 0
M  V30 5409 H 497.185 -4.46557 -4.00883 0
M  V30 5410 H 498.255 -4.05719 -2.65556 0
M  V30 5411 N 499.598 0.982988 -1.23187 0
M  V30 5412 C 500.846 1.72052 -1.06031 0
M  V30 5413 C 501.167 1.90769 0.404019 0
M  V30 5414 O 500.437 1.47446 1.28982 0
M  V30 5415 H 499.017 0.637499 -0.389363 0
M  V30 5416 H 501.679 1.18338 -1.54862 0
M  V30 5417 H 500.775 2.7111 -1.54615 0
M  V30 5418 N 501.076 1.04316 1.18135 0
M  V30 5419 C 502.325 0.74319 1.87509 0
M  V30 5420 C 502.638 -0.732136 1.81381 0
M  V30 5421 O 503.844 -1.14572 2.46141 0
M  V30 5422 C 502.3 1.27913 3.36402 0
M  V30 5423 C 501.908 2.78326 3.51053 0
M  V30 5424 C 503.652 1.0558 4.11161 0
M  V30 5425 C 501.559 3.25266 4.93919 0
M  V30 5426 H 500.489 0.274313 0.702331 0
M  V30 5427 H 503.14 1.25931 1.33467 0
M  V30 5428 H 501.522 0.690853 3.89927 0
M  V30 5429 H 502.696 3.42933 3.07788 0
M  V30 5430 H 501.011 2.991 2.89704 0
M  V30 5431 H 503.608 1.38161 5.16542 0
M  V30 5432 H 503.951 -0.00684729 4.16299 0
M  V30 5433 H 504.484 1.60882 3.63816 0
M  V30 5434 H 501.223 4.30922 4.9395 0
M  V30 5435 H 500.743 2.65396 5.3789 0
M  V30 5436 H 502.422 3.19433 5.62647 0
M  V30 5437 N 502.554 -1.34406 0.822964 0
M  V30 5438 C 503.486 -2.28305 0.202375 0
M  V30 5439 C 504.499 -1.5103 -0.60777 0
M  V30 5440 O 505.688 -1.73057 -0.437444 0
M  V30 5441 C 502.788 -3.30836 -0.734911 0
M  V30 5442 C 501.961 -4.37388 0.0324177 0
M  V30 5443 C 501.02 -5.1968 -0.825803 0
M  V30 5444 O 500.046 -5.68556 -0.270771 0
M  V30 5445 N 501.248 -5.39393 -2.14558 0
M  V30 5446 H 504.013 -2.82201 1.00909 0
M  V30 5447 H 501.574 -1.4693 0.67993 0
M  V30 5448 H 503.566 -3.82786 -1.31365 0
M  V30 5449 H 502.136 -2.77334 -1.44238 0
M  V30 5450 H 501.356 -3.86152 0.792469 0
M  V30 5451 H 502.644 -5.05702 0.560633 0
M  V30 5452 H 502.042 -5.01357 -2.62025 0
M  V30 5453 H 500.599 -5.94461 -2.67318 0
M  V30 5454 N 504.032 -0.577932 -1.46621 0
M  V30 5455 C 504.995 0.147805 -2.28723 0
M  V30 5456 C 505.995 0.823325 -1.38123 0
M  V30 5457 O 507.185 0.676011 -1.60548 0
M  V30 5458 C 504.317 1.21853 -3.18378 0
M  V30 5459 H 505.51 -0.573654 -2.94362 0
M  V30 5460 H 503.063 -0.335703 -1.52652 0
M  V30 5461 H 503.798 1.97173 -2.57475 0
M  V30 5462 H 503.583 0.738714 -3.85078 0
M  V30 5463 H 505.073 1.72768 -3.80186 0
M  V30 5464 N 505.51 1.54411 -0.315457 0
M  V30 5465 C 506.738 2.04833 0.291738 0
M  V30 5466 C 507.153 1.19203 1.46411 0
M  V30 5467 O 506.51 0.220867 1.81159 0
M  V30 5468 C 506.561 3.53969 0.73404 0
M  V30 5469 O 506.282 4.36346 -0.391682 0
M  V30 5470 C 507.783 4.2045 1.40489 0
M  V30 5471 H 505.003 0.668195 0.0612947 0
M  V30 5472 H 507.547 1.99276 -0.45929 0
M  V30 5473 H 505.702 3.5984 1.43506 0
M  V30 5474 H 506.116 5.24481 -0.0447088 0
M  V30 5475 H 507.59 5.26278 1.66539 0
M  V30 5476 H 508.067 3.71067 2.3496 0
M  V30 5477 H 508.673 4.18694 0.746662 0
M  V30 5478 N 506.988 0.0434614 1.5754 0
M  V30 5479 C 508.399 -0.493343 1.80064 0
M  V30 5480 C 508.75 -1.71388 0.955023 0
M  V30 5481 O 507.875 -2.15736 0.169434 0
M  V30 5482 C 508.47 -0.90179 3.26578 0
M  V30 5483 C 507.029 -1.38362 3.50047 0
M  V30 5484 C 506.176 -0.355129 2.75017 0
M  V30 5485 H 509.127 0.2694 1.56397 0
M  V30 5486 H 509.148 -1.76523 3.37075 0
M  V30 5487 H 508.66 -0.013271 3.88098 0
M  V30 5488 H 506.761 -2.29159 2.93798 0
M  V30 5489 H 506.874 -1.3811 4.58762 0
M  V30 5490 H 505.238 -0.826348 2.40922 0
M  V30 5491 H 506.021 0.525172 3.39259 0
M  V30 5492 N 508.466 -1.55915 -0.229846 0
M  V30 5493 C 509.396 -1.94754 -1.28815 0
M  V30 5494 C 510.377 -0.814657 -1.49323 0
M  V30 5495 O 511.562 -1.07631 -1.61645 0
M  V30 5496 C 508.692 -2.25705 -2.63959 0
M  V30 5497 C 507.646 -3.41406 -2.5812 0
M  V30 5498 C 506.972 -3.57941 -3.97218 0
M  V30 5499 C 508.272 -4.76616 -2.13623 0
M  V30 5500 H 509.966 -2.83404 -0.965547 0
M  V30 5501 H 507.512 -1.36353 -0.463028 0
M  V30 5502 H 509.465 -2.51467 -3.38146 0
M  V30 5503 H 508.189 -1.339 -2.9789 0
M  V30 5504 H 506.848 -3.1568 -1.86391 0
M  V30 5505 H 506.496 -2.63526 -4.28443 0
M  V30 5506 H 506.196 -4.35757 -3.94195 0
M  V30 5507 H 507.72 -3.86042 -4.73079 0
M  V30 5508 H 509.134 -5.01637 -2.77549 0
M  V30 5509 H 507.531 -5.57655 -2.21677 0
M  V30 5510 H 508.601 -4.7253 -1.08829 0
M  V30 5511 N 509.944 0.496216 -1.49584 0
M  V30 5512 C 510.854 1.62352 -1.69349 0
M  V30 5513 C 511.87 1.64184 -0.576147 0
M  V30 5514 O 513.046 1.82517 -0.85144 0
M  V30 5515 C 510.111 2.98698 -1.76013 0
M  V30 5516 C 509.172 3.07454 -2.99617 0
M  V30 5517 C 508.405 4.37296 -3.05953 0
M  V30 5518 O 508.628 5.2637 -2.19752 0
M  V30 5519 O 507.562 4.51124 -3.9846 0
M  V30 5520 H 511.388 1.48606 -2.64859 0
M  V30 5521 H 508.973 0.673022 -1.33382 0
M  V30 5522 H 510.855 3.79725 -1.82721 0
M  V30 5523 H 509.53 3.12696 -0.836828 0
M  V30 5524 H 508.437 2.25597 -2.98424 0
M  V30 5525 H 509.77 2.98385 -3.91443 0
M  V30 5526 N 511.423 1.38739 0.74761 0
M  V30 5527 C 512.353 1.39173 1.87492 0
M  V30 5528 C 513.334 0.256794 1.6815 0
M  V30 5529 O 514.519 0.460762 1.88655 0
M  V30 5530 C 511.649 1.22197 3.25093 0
M  V30 5531 C 510.603 2.32957 3.59047 0
M  V30 5532 C 509.929 2.01082 4.95449 0
M  V30 5533 C 511.229 3.75237 3.6331 0
M  V30 5534 H 512.923 2.3351 1.87386 0
M  V30 5535 H 510.469 1.12399 0.900134 0
M  V30 5536 H 512.422 1.21124 4.03617 0
M  V30 5537 H 511.146 0.243241 3.25693 0
M  V30 5538 H 509.805 2.33226 2.82845 0
M  V30 5539 H 509.453 1.01678 4.92616 0
M  V30 5540 H 509.153 2.75267 5.19136 0
M  V30 5541 H 510.677 2.01638 5.76346 0
M  V30 5542 H 512.091 3.76966 4.31937 0
M  V30 5543 H 510.488 4.48677 3.98509 0
M  V30 5544 H 511.558 4.07122 2.634 0
M  V30 5545 N 512.901 -0.976442 1.23707 0
M  V30 5546 C 513.848 -2.06952 1.02174 0
M  V30 5547 C 514.818 -1.65984 -0.0621034 0
M  V30 5548 O 516.003 -1.90584 0.0907906 0
M  V30 5549 C 513.143 -3.39425 0.62327 0
M  V30 5550 C 512.256 -3.9364 1.77966 0
M  V30 5551 C 511.391 -5.14343 1.3276 0
M  V30 5552 C 510.43 -5.60733 2.45449 0
M  V30 5553 N 509.567 -6.72662 2.01172 0
M  V30 5554 H 514.407 -2.24704 1.95734 0
M  V30 5555 H 511.944 -1.10143 0.975034 0
M  V30 5556 H 513.902 -4.15526 0.37332 0
M  V30 5557 H 512.532 -3.21624 -0.275329 0
M  V30 5558 H 511.584 -3.14258 2.14351 0
M  V30 5559 H 512.896 -4.24035 2.62671 0
M  V30 5560 H 512.05 -5.97789 1.03601 0
M  V30 5561 H 510.789 -4.8561 0.450975 0
M  V30 5562 H 509.794 -4.75865 2.75378 0
M  V30 5563 H 511.019 -5.91483 3.33654 0
M  V30 5564 H 508.965 -6.45681 1.15895 0
M  V30 5565 H 508.882 -7.02462 2.79434 0
M  V30 5566 H 510.15 -7.59572 1.75129 0
M  V30 5567 N 514.379 -1.04941 -1.1758 0
M  V30 5568 C 515.342 -0.652456 -2.19717 0
M  V30 5569 C 516.342 0.294745 -1.58076 0
M  V30 5570 O 517.532 0.0789579 -1.74021 0
M  V30 5571 C 514.664 0.0420712 -3.40874 0
M  V30 5572 H 515.857 -1.55642 -2.5635 0
M  V30 5573 H 513.41 -0.842995 -1.31618 0
M  V30 5574 H 514.145 0.95943 -3.09783 0
M  V30 5575 H 513.93 -0.638844 -3.86861 0
M  V30 5576 H 515.42 0.306 -4.16477 0
M  V30 5577 N 515.857 1.33968 -0.830081 0
M  V30 5578 C 517.106 1.97323 -0.417928 0
M  V30 5579 C 517.419 1.6652 1.02618 0
M  V30 5580 O 518.625 2.2342 1.54259 0
M  V30 5581 C 517.081 3.53099 -0.696359 0
M  V30 5582 C 516.689 3.92788 -2.15457 0
M  V30 5583 C 518.433 4.23049 -0.350724 0
M  V30 5584 C 516.34 5.41506 -2.37751 0
M  V30 5585 H 515.27 0.738409 -0.152541 0
M  V30 5586 H 517.921 1.52711 -1.01744 0
M  V30 5587 H 516.303 3.95991 -0.0265904 0
M  V30 5588 H 517.477 3.6098 -2.86408 0
M  V30 5589 H 515.792 3.35795 -2.46232 0
M  V30 5590 H 518.389 5.32403 -0.495036 0
M  V30 5591 H 518.732 4.10279 0.705476 0
M  V30 5592 H 519.265 3.85657 -0.975362 0
M  V30 5593 H 516.004 5.5927 -3.41903 0
M  V30 5594 H 515.524 5.74804 -1.7135 0
M  V30 5595 H 517.203 6.0828 -2.20465 0
M  V30 5596 N 517.335 0.585699 1.46312 0
M  V30 5597 C 518.245 -0.148236 2.34131 0
M  V30 5598 C 519.261 -0.882972 1.49932 0
M  V30 5599 O 520.437 -0.845484 1.82794 0
M  V30 5600 C 517.502 -1.14714 3.27172 0
M  V30 5601 C 516.563 -0.416746 4.27272 0
M  V30 5602 C 515.796 -1.36806 5.15868 0
M  V30 5603 O 516.019 -2.60475 5.07454 0
M  V30 5604 O 514.953 -0.877018 5.95476 0
M  V30 5605 H 518.779 0.572882 2.98248 0
M  V30 5606 H 516.364 0.346082 1.45336 0
M  V30 5607 H 518.246 -1.72303 3.84564 0
M  V30 5608 H 516.921 -1.84967 2.65648 0
M  V30 5609 H 515.828 0.201061 3.73559 0
M  V30 5610 H 517.161 0.244872 4.9159 0
M  V30 5611 N 518.813 -1.54241 0.323641 0
M  V30 5612 C 520.059 -2.00867 -0.279323 0
M  V30 5613 C 520.392 -1.21146 -1.5178 0
M  V30 5614 O 519.667 -0.29378 -1.92269 0
M  V30 5615 C 519.95 -3.54837 -0.613387 0
M  V30 5616 C 519.803 -4.45284 0.635803 0
M  V30 5617 C 521.122 -4.16186 -1.43099 0
M  V30 5618 H 518.241 -0.730177 -0.100049 0
M  V30 5619 H 520.883 -1.84829 0.440235 0
M  V30 5620 H 519.033 -3.68634 -1.22641 0
M  V30 5621 H 520.705 -4.43357 1.27406 0
M  V30 5622 H 518.948 -4.14956 1.26466 0
M  V30 5623 H 519.619 -5.5084 0.357597 0
M  V30 5624 H 522.095 -4.05964 -0.912814 0
M  V30 5625 H 520.971 -5.24031 -1.6335 0
M  V30 5626 H 521.232 -3.69516 -2.42715 0
M  V30 5627 N 520.291 -0.0518155 -1.57515 0
M  V30 5628 C 521.221 0.920283 -2.146 0
M  V30 5629 C 522.202 1.32406 -1.06783 0
M  V30 5630 O 523.387 1.39866 -1.34726 0
M  V30 5631 C 520.517 2.1949 -2.6915 0
M  V30 5632 C 519.471 1.93116 -3.81956 0
M  V30 5633 C 518.797 3.27037 -4.23026 0
M  V30 5634 C 520.097 1.25225 -5.07066 0
M  V30 5635 H 521.791 0.444801 -2.96077 0
M  V30 5636 H 519.337 0.212508 -1.42423 0
M  V30 5637 H 521.29 2.87894 -3.07725 0
M  V30 5638 H 520.014 2.69244 -1.84865 0
M  V30 5639 H 518.673 1.27123 -3.43854 0
M  V30 5640 H 518.321 3.74595 -3.3569 0
M  V30 5641 H 518.021 3.10189 -4.99056 0
M  V30 5642 H 519.545 3.96673 -4.64202 0
M  V30 5643 H 520.959 1.83666 -5.43083 0
M  V30 5644 H 519.356 1.18702 -5.88243 0
M  V30 5645 H 520.426 0.228382 -4.84362 0
M  V30 5646 N 521.769 1.56035 0.221574 0
M  V30 5647 C 523.185 1.49026 0.571271 0
M  V30 5648 C 523.385 0.746912 1.87146 0
M  V30 5649 O 522.441 0.286566 2.50869 0
M  V30 5650 C 523.754 2.93579 0.650522 0
M  V30 5651 C 525.302 3.04099 0.741151 0
M  V30 5652 C 525.777 4.5001 0.851747 0
M  V30 5653 N 527.268 4.54053 0.915968 0
M  V30 5654 C 528.003 5.64232 1.02125 0
M  V30 5655 N 527.499 6.84164 1.09049 0
M  V30 5656 N 529.292 5.52084 1.05639 0
M  V30 5657 H 521.443 2.02791 -0.63162 0
M  V30 5658 H 523.706 0.921736 -0.221602 0
M  V30 5659 H 523.412 3.50912 -0.235253 0
M  V30 5660 H 523.286 3.45476 1.51413 0
M  V30 5661 H 525.673 2.4683 1.61737 0
M  V30 5662 H 525.754 2.55371 -0.148128 0
M  V30 5663 H 525.398 5.07896 -0.0200117 0
M  V30 5664 H 525.328 4.96444 1.75644 0
M  V30 5665 H 527.819 3.67683 0.872782 0
M  V30 5666 H 528.132 7.63883 1.1706 0
M  V30 5667 H 526.477 6.86875 1.05962 0
M  V30 5668 H 529.668 4.57317 0.998953 0
M  V30 5669 H 529.841 6.37983 1.13498 0
M  V30 5670 N 523.247 -0.488276 1.49845 0
M  V30 5671 C 524.663 -0.820566 1.3689 0
M  V30 5672 C 524.863 -1.97248 0.411752 0
M  V30 5673 O 523.919 -2.52042 -0.151931 0
M  V30 5674 C 525.232 -1.1488 2.77891 0
M  V30 5675 C 526.78 -1.25626 2.86683 0
M  V30 5676 C 527.255 -1.61772 4.28479 0
M  V30 5677 N 528.746 -1.68797 4.31349 0
M  V30 5678 C 529.481 -1.98235 5.38043 0
M  V30 5679 N 528.977 -2.2581 6.54967 0
M  V30 5680 N 530.77 -1.99593 5.2547 0
M  V30 5681 H 522.921 0.271123 2.10662 0
M  V30 5682 H 525.184 0.058735 0.946179 0
M  V30 5683 H 524.89 -0.375614 3.49688 0
M  V30 5684 H 524.764 -2.08919 3.14058 0
M  V30 5685 H 527.151 -2.02014 2.15114 0
M  V30 5686 H 527.232 -0.296072 2.54081 0
M  V30 5687 H 526.876 -0.859295 5.00578 0
M  V30 5688 H 526.806 -2.58912 4.58554 0
M  V30 5689 H 529.297 -1.49595 3.4703 0
M  V30 5690 H 529.61 -2.47497 7.32096 0
M  V30 5691 H 527.955 -2.23239 6.58171 0
M  V30 5692 H 531.146 -1.77535 4.33127 0
M  V30 5693 H 531.319 -2.222 6.08713 0
M  V30 5694 N 524.725 -1.39134 -0.740242 0
M  V30 5695 C 525.675 -1.33928 -1.84519 0
M  V30 5696 C 526.659 -0.221097 -1.59374 0
M  V30 5697 O 527.851 -0.458195 -1.70967 0
M  V30 5698 C 524.98 -1.17991 -3.22387 0
M  V30 5699 C 524.066 -2.34488 -3.53378 0
M  V30 5700 N 524.457 -3.59954 -3.5534 0
M  V30 5701 C 522.755 -2.27331 -3.83714 0
M  V30 5702 C 523.456 -4.36962 -3.83978 0
M  V30 5703 N 522.432 -3.66482 -4.01487 0
M  V30 5704 H 526.234 -2.28907 -1.84333 0
M  V30 5705 H 523.748 -1.32555 -0.938237 0
M  V30 5706 H 525.745 -1.12345 -4.01478 0
M  V30 5707 H 524.405 -0.23957 -3.23815 0
M  V30 5708 H 525.416 -3.93448 -3.36778 0
M  V30 5709 H 522.093 -1.41531 -3.92779 0
M  V30 5710 H 523.483 -5.45692 -3.92008 0
M  V30 5711 N 526.204 0.969867 -1.24223 0
M  V30 5712 C 527.62 1.23809 -1.00716 0
M  V30 5713 C 527.82 1.99469 0.285358 0
M  V30 5714 O 526.876 2.31764 1.00207 0
M  V30 5715 C 528.189 2.02734 -2.2208 0
M  V30 5716 C 529.737 2.15834 -2.26681 0
M  V30 5717 C 530.212 2.98154 -3.47661 0
M  V30 5718 N 531.703 3.05737 -3.47964 0
M  V30 5719 C 532.438 3.69785 -4.38231 0
M  V30 5720 N 531.934 4.35569 -5.3875 0
M  V30 5721 N 533.727 3.66775 -4.25949 0
M  V30 5722 H 525.878 0.463294 -2.07286 0
M  V30 5723 H 528.141 0.267348 -0.909521 0
M  V30 5724 H 527.847 1.54524 -3.15935 0
M  V30 5725 H 527.721 3.0347 -2.24021 0
M  V30 5726 H 530.108 2.63248 -1.33359 0
M  V30 5727 H 530.189 1.14453 -2.28767 0
M  V30 5728 H 529.833 2.51435 -4.41297 0
M  V30 5729 H 529.763 3.99729 -3.42818 0
M  V30 5730 H 532.254 2.58941 -2.75242 0
M  V30 5731 H 532.567 4.82251 -6.03866 0
M  V30 5732 H 530.912 4.34244 -5.42639 0
M  V30 5733 H 534.103 3.14558 -3.46657 0
M  V30 5734 H 534.276 4.16407 -4.96497 0
M  V30 5735 N 527.682 1.05563 1.17022 0
M  V30 5736 C 528.91 0.78845 1.91288 0
M  V30 5737 C 529.325 -0.656318 1.77025 0
M  V30 5738 O 528.682 -1.44869 1.10992 0
M  V30 5739 C 528.733 1.16444 3.42232 0
M  V30 5740 O 528.454 2.5525 3.5606 0
M  V30 5741 C 529.955 0.923937 4.33565 0
M  V30 5742 H 527.175 0.286389 0.606813 0
M  V30 5743 H 529.719 1.4073 1.48375 0
M  V30 5744 H 527.874 0.590266 3.82877 0
M  V30 5745 H 528.288 2.70097 4.49609 0
M  V30 5746 H 529.762 1.23672 5.37968 0
M  V30 5747 H 530.239 -0.140688 4.38975 0
M  V30 5748 H 530.845 1.48214 3.98639 0
M  V30 5749 N 529.16 -1.33526 0.837174 0
M  V30 5750 C 530.39 -2.01754 0.444848 0
M  V30 5751 C 530.798 -1.63149 -0.958072 0
M  V30 5752 O 530.141 -0.839827 -1.63379 0
M  V30 5753 C 530.203 -3.56228 0.483917 0
M  V30 5754 C 529.867 -4.18205 1.84265 0
M  V30 5755 C 530.864 -4.37699 2.80563 0
M  V30 5756 C 528.549 -4.54667 2.13503 0
M  V30 5757 C 530.543 -4.928 4.04261 0
M  V30 5758 C 528.23 -5.09475 3.37458 0
M  V30 5759 C 529.228 -5.28488 4.32654 0
M  V30 5760 O 528.916 -5.82132 5.54417 0
M  V30 5761 H 528.648 -0.652928 0.175104 0
M  V30 5762 H 531.202 -1.71469 1.13082 0
M  V30 5763 H 529.432 -3.85833 -0.258826 0
M  V30 5764 H 531.121 -4.05752 0.109653 0
M  V30 5765 H 531.887 -4.0988 2.59274 0
M  V30 5766 H 527.766 -4.39164 1.40201 0
M  V30 5767 H 531.31 -5.07555 4.78574 0
M  V30 5768 H 527.207 -5.36725 3.58604 0
M  V30 5769 H 527.975 -6.00548 5.56133 0
M  V30 5770 N 530.638 -0.59345 -1.46 0
M  V30 5771 C 532.054 -0.255965 -1.57534 0
M  V30 5772 C 532.254 1.24167 -1.58697 0
M  V30 5773 O 531.31 2.02398 -1.50968 0
M  V30 5774 C 532.623 -0.91466 -2.86451 0
M  V30 5775 C 534.171 -0.889253 -3.00102 0
M  V30 5776 C 534.646 -1.52769 -4.3177 0
M  V30 5777 N 536.137 -1.49253 -4.38495 0
M  V30 5778 C 536.872 -1.9558 -5.39014 0
M  V30 5779 N 536.368 -2.49929 -6.46148 0
M  V30 5780 N 538.161 -1.86432 -5.30282 0
M  V30 5781 H 530.312 -1.56604 -1.43489 0
M  V30 5782 H 532.575 -0.655207 -0.685133 0
M  V30 5783 H 532.281 -1.96861 -2.91442 0
M  V30 5784 H 532.155 -0.429356 -3.74748 0
M  V30 5785 H 534.542 0.156111 -2.94687 0
M  V30 5786 H 534.623 -1.41268 -2.13253 0
M  V30 5787 H 534.267 -2.57231 -4.37944 0
M  V30 5788 H 534.197 -0.979398 -5.17412 0
M  V30 5789 H 536.688 -1.09536 -3.61677 0
M  V30 5790 H 537.001 -2.83109 -7.19075 0
M  V30 5791 H 535.346 -2.53961 -6.46938 0
M  V30 5792 H 538.537 -1.43722 -4.4549 0
M  V30 5793 H 538.71 -2.22852 -6.08474 0
M  V30 5794 N 532.116 1.54067 -0.331816 0
M  V30 5795 C 533.362 2.01713 0.261395 0
M  V30 5796 C 533.717 1.21566 1.49129 0
M  V30 5797 O 533.01 0.291867 1.89364 0
M  V30 5798 C 533.204 3.51634 0.639392 0
M  V30 5799 C 533.033 4.46295 -0.552321 0
M  V30 5800 C 531.803 4.94185 -1.05399 0
M  V30 5801 C 534.001 4.94677 -1.40711 0
M  V30 5802 N 531.983 5.7277 -2.20925 0
M  V30 5803 C 533.354 5.71267 -2.40943 0
M  V30 5804 C 535.409 4.76805 -1.43392 0
M  V30 5805 C 534.112 6.31889 -3.4367 0
M  V30 5806 C 536.138 5.38268 -2.44994 0
M  V30 5807 C 535.5 6.14716 -3.43952 0
M  V30 5808 H 531.599 0.77975 0.0592729 0
M  V30 5809 H 534.183 1.88974 -0.468726 0
M  V30 5810 H 532.354 3.64603 1.33863 0
M  V30 5811 H 534.086 3.86038 1.21478 0
M  V30 5812 H 530.841 4.69472 -0.623952 0
M  V30 5813 H 531.265 6.16737 -2.79222 0
M  V30 5814 H 535.907 4.17255 -0.682489 0
M  V30 5815 H 533.625 6.90554 -4.19715 0
M  V30 5816 H 537.211 5.26352 -2.4788 0
M  V30 5817 H 536.091 6.6143 -4.21283 0
M  V30 5818 N 533.594 0.0601682 1.57485 0
M  V30 5819 C 534.524 -0.90889 2.15085 0
M  V30 5820 C 535.505 -1.31838 1.07484 0
M  V30 5821 O 536.69 -1.3915 1.35466 0
M  V30 5822 C 533.82 -2.18059 2.7031 0
M  V30 5823 C 532.774 -1.91088 3.82974 0
M  V30 5824 C 532.1 -3.24789 4.24754 0
M  V30 5825 C 533.4 -1.22535 5.07723 0
M  V30 5826 H 535.094 -0.429093 2.96309 0
M  V30 5827 H 532.64 -0.204952 1.42534 0
M  V30 5828 H 534.593 -2.86258 3.09248 0
M  V30 5829 H 533.317 -2.6826 1.8629 0
M  V30 5830 H 531.976 -1.25297 3.44523 0
M  V30 5831 H 531.624 -3.72809 3.37672 0
M  V30 5832 H 531.324 -3.07538 5.00694 0
M  V30 5833 H 532.848 -3.94205 4.66299 0
M  V30 5834 H 534.262 -1.80783 5.4405 0
M  V30 5835 H 532.659 -1.1558 5.88864 0
M  V30 5836 H 533.729 -0.202692 4.84476 0
M  V30 5837 N 535.072 -1.5615 -0.213296 0
M  V30 5838 C 536.297 -1.83986 -0.957282 0
M  V30 5839 C 536.722 -0.641526 -1.76822 0
M  V30 5840 O 536.08 0.409722 -1.7661 0
M  V30 5841 C 536.128 -3.09889 -1.84393 0
M  V30 5842 O 535.232 -2.89163 -2.94038 0
M  V30 5843 H 534.573 -0.606357 -0.270605 0
M  V30 5844 H 537.103 -2.03369 -0.224111 0
M  V30 5845 H 537.113 -3.40209 -2.25215 0
M  V30 5846 H 535.788 -3.96735 -1.24795 0
M  V30 5847 H 534.365 -2.70097 -2.57103 0
M  V30 5848 N 536.55 0.480323 -1.50102 0
M  V30 5849 C 537.513 1.56181 -1.6775 0
M  V30 5850 C 538.513 1.51156 -0.548503 0
M  V30 5851 O 539.703 1.5394 -0.815363 0
M  V30 5852 C 536.835 2.95823 -1.69415 0
M  V30 5853 H 538.028 1.41855 -2.6423 0
M  V30 5854 H 535.581 0.70605 -1.39444 0
M  V30 5855 H 536.316 3.15604 -0.745948 0
M  V30 5856 H 536.101 3.00878 -2.51425 0
M  V30 5857 H 537.591 3.74359 -1.85054 0
M  V30 5858 N 538.028 1.39524 0.732853 0
M  V30 5859 C 538.938 1.40695 1.87729 0
M  V30 5860 C 539.954 0.301496 1.71368 0
M  V30 5861 O 541.13 0.543313 1.93933 0
M  V30 5862 C 538.195 1.25098 3.23344 0
M  V30 5863 C 537.256 2.45634 3.52083 0
M  V30 5864 C 536.489 2.30772 4.81228 0
M  V30 5865 O 536.712 1.31233 5.55098 0
M  V30 5866 O 535.646 3.19799 5.09914 0
M  V30 5867 H 539.472 2.37168 1.89697 0
M  V30 5868 H 537.057 1.20663 0.880959 0
M  V30 5869 H 538.939 1.18541 4.04383 0
M  V30 5870 H 537.614 0.317209 3.22142 0
M  V30 5871 H 536.521 2.57767 2.71122 0
M  V30 5872 H 537.854 3.37712 3.58066 0
M  V30 5873 N 539.506 -0.963266 1.24736 0
M  V30 5874 C 540.755 -1.70115 1.08369 0
M  V30 5875 C 541.068 -1.91939 -0.376688 0
M  V30 5876 O 542.274 -2.6334 -0.660624 0
M  V30 5877 C 540.73 -3.06218 1.89099 0
M  V30 5878 C 540.338 -2.92221 3.39574 0
M  V30 5879 C 542.082 -3.83848 1.81275 0
M  V30 5880 C 539.989 -4.23662 4.12631 0
M  V30 5881 H 538.919 -0.637944 0.401924 0
M  V30 5882 H 541.57 -1.07304 1.48856 0
M  V30 5883 H 539.952 -3.69884 1.41429 0
M  V30 5884 H 541.126 -2.37541 3.94856 0
M  V30 5885 H 539.441 -2.28054 3.48397 0
M  V30 5886 H 542.038 -4.81188 2.33158 0
M  V30 5887 H 542.381 -4.08949 0.778895 0
M  V30 5888 H 542.914 -3.26918 2.26649 0
M  V30 5889 H 539.653 -4.03753 5.16395 0
M  V30 5890 H 539.173 -4.78141 3.62135 0
M  V30 5891 H 540.852 -4.92256 4.19873 0
M  V30 5892 N 540.985 -1.06182 -1.16461 0
M  V30 5893 C 541.895 -0.682671 -2.24448 0
M  V30 5894 C 542.911 0.30078 -1.71381 0
M  V30 5895 O 544.087 0.150376 -2.00838 0
M  V30 5896 C 541.152 -0.0737202 -3.46622 0
M  V30 5897 C 540.213 -1.10889 -4.14731 0
M  V30 5898 C 539.446 -0.528908 -5.31073 0
M  V30 5899 O 539.669 0.65868 -5.66584 0
M  V30 5900 O 538.603 -1.26805 -5.88391 0
M  V30 5901 H 542.429 -1.58291 -2.59187 0
M  V30 5902 H 540.014 -0.834013 -1.23954 0
M  V30 5903 H 541.896 0.264192 -4.20571 0
M  V30 5904 H 540.571 0.800015 -3.13658 0
M  V30 5905 H 539.478 -1.49896 -3.42756 0
M  V30 5906 H 540.811 -1.95412 -4.51747 0
M  V30 5907 N 542.463 1.3308 -0.844243 0
M  V30 5908 C 543.74 1.92178 -0.364261 0
M  V30 5909 C 544.12 1.76961 1.15101 0
M  V30 5910 O 543.468 1.16128 1.9679 0
M  V30 5911 C 543.678 3.393 -0.817106 0
M  V30 5912 C 545.026 4.16444 -0.828236 0
M  V30 5913 O 546.05 3.47975 -0.761062 0
M  V30 5914 O 544.909 5.38685 -0.920926 0
M  V30 5915 H 542.003 0.820411 -0.10419 0
M  V30 5916 H 544.549 1.41918 -0.930453 0
M  V30 5917 H 543.321 3.44272 -1.85991 0
M  V30 5918 H 542.944 3.96947 -0.227785 0
M  V30 5919 N 543.941 0.601185 1.45683 0
M  V30 5920 C 545.187 0.0940202 2.02582 0
M  V30 5921 C 545.52 -1.26972 1.46941 0
M  V30 5922 O 544.795 -1.83613 0.641612 0
M  V30 5923 C 545.078 0.0481715 3.60068 0
M  V30 5924 C 544.931 1.44212 4.26055 0
M  V30 5925 C 546.25 -0.642975 4.35378 0
M  V30 5926 H 543.369 0.0356404 0.736138 0
M  V30 5927 H 546.011 0.771929 1.73612 0
M  V30 5928 H 544.161 -0.529128 3.8488 0
M  V30 5929 H 545.833 2.06601 4.12449 0
M  V30 5930 H 544.076 2.00465 3.84703 0
M  V30 5931 H 544.747 1.36234 5.34925 0
M  V30 5932 H 547.223 -0.152351 4.15821 0
M  V30 5933 H 546.099 -0.644141 5.45107 0
M  V30 5934 H 546.36 -1.70785 4.0778 0
M  V30 5935 N 545.419 -1.53889 0.339982 0
M  V30 5936 C 546.366 -2.24902 -0.518452 0
M  V30 5937 C 547.336 -1.24593 -1.09844 0
M  V30 5938 O 548.521 -1.53317 -1.13572 0
M  V30 5939 C 545.661 -3.02262 -1.66529 0
M  V30 5940 C 544.774 -4.17418 -1.11295 0
M  V30 5941 C 543.909 -4.82273 -2.2268 0
M  V30 5942 C 542.948 -5.89503 -1.6478 0
M  V30 5943 N 542.085 -6.48153 -2.69893 0
M  V30 5944 H 546.925 -2.97853 0.0936579 0
M  V30 5945 H 544.462 -1.46986 0.0579924 0
M  V30 5946 H 546.42 -3.45371 -2.3404 0
M  V30 5947 H 545.05 -2.31614 -2.24844 0
M  V30 5948 H 544.102 -3.78976 -0.328886 0
M  V30 5949 H 545.414 -4.94554 -0.649414 0
M  V30 5950 H 544.568 -5.28435 -2.98063 0
M  V30 5951 H 543.307 -4.04552 -2.72376 0
M  V30 5952 H 542.312 -5.42728 -0.879004 0
M  V30 5953 H 543.537 -6.6913 -1.1594 0
M  V30 5954 H 541.483 -5.73298 -3.1885 0
M  V30 5955 H 541.4 -7.20752 -2.28151 0
M  V30 5956 H 542.668 -6.98968 -3.45056 0
M  V30 5957 N 546.897 -0.0685191 -1.57451 0
M  V30 5958 C 548.308 0.464634 -1.80826 0
M  V30 5959 C 548.659 1.69847 -0.982169 0
M  V30 5960 O 547.784 2.15439 -0.203734 0
M  V30 5961 C 548.379 0.849721 -3.27971 0
M  V30 5962 C 546.938 1.32776 -3.52204 0
M  V30 5963 C 546.085 0.311332 -2.75547 0
M  V30 5964 H 549.036 -0.294248 -1.55948 0
M  V30 5965 H 549.057 1.71138 -3.39841 0
M  V30 5966 H 548.569 -0.0484736 -3.8807 0
M  V30 5967 H 546.67 2.24456 -2.97406 0
M  V30 5968 H 546.783 1.30794 -4.60901 0
M  V30 5969 H 545.147 0.787915 -2.42206 0
M  V30 5970 H 545.93 -0.579078 -3.38381 0
M  V30 5971 N 548.375 1.56261 0.205012 0
M  V30 5972 C 549.338 1.92908 1.23771 0
M  V30 5973 C 550.338 0.809208 1.38955 0
M  V30 5974 O 551.528 1.07676 1.36936 0
M  V30 5975 C 548.66 2.19442 2.60879 0
M  V30 5976 H 549.853 2.85287 0.924728 0
M  V30 5977 H 547.406 1.49798 0.446125 0
M  V30 5978 H 548.141 1.29668 2.97248 0
M  V30 5979 H 547.926 3.0104 2.51232 0
M  V30 5980 H 549.416 2.48833 3.35368 0
M  V30 5981 N 549.853 -0.472356 1.50355 0
M  V30 5982 C 550.8 -1.57051 1.69126 0
M  V30 5983 C 551.77 -1.5733 0.532574 0
M  V30 5984 O 552.955 -1.7488 0.762994 0
M  V30 5985 C 550.095 -2.95033 1.79024 0
M  V30 5986 C 549.208 -3.04552 3.06386 0
M  V30 5987 C 548.343 -4.33441 3.07087 0
M  V30 5988 C 547.382 -4.36697 4.28908 0
M  V30 5989 N 546.519 -5.57056 4.27356 0
M  V30 5990 H 551.359 -1.40351 2.62879 0
M  V30 5991 H 548.896 -0.682403 1.30314 0
M  V30 5992 H 550.854 -3.75048 1.82744 0
M  V30 5993 H 549.484 -3.10371 0.887109 0
M  V30 5994 H 548.536 -2.17419 3.12143 0
M  V30 5995 H 549.848 -3.02818 3.96362 0
M  V30 5996 H 549.002 -5.21801 3.09529 0
M  V30 5997 H 547.741 -4.37782 2.14939 0
M  V30 5998 H 546.746 -3.46734 4.2668 0
M  V30 5999 H 547.971 -4.34049 5.22282 0
M  V30 6000 H 545.917 -5.62184 3.3806 0
M  V30 6001 H 545.834 -5.57058 5.111 0
M  V30 6002 H 547.102 -6.47545 4.33942 0
M  V30 6003 N 551.331 -1.39911 -0.725443 0
M  V30 6004 C 552.559 -1.40949 -1.51463 0
M  V30 6005 C 552.974 -0.0065242 -1.88799 0
M  V30 6006 O 552.331 0.967163 -1.54765 0
M  V30 6007 C 552.382 -2.29119 -2.79619 0
M  V30 6008 O 552.103 -3.63952 -2.43866 0
M  V30 6009 C 553.604 -2.38642 -3.73584 0
M  V30 6010 H 550.824 -0.481091 -0.467752 0
M  V30 6011 H 553.368 -1.83843 -0.895651 0
M  V30 6012 H 551.523 -1.89612 -3.37826 0
M  V30 6013 H 551.937 -4.10677 -3.26258 0
M  V30 6014 H 553.411 -3.04563 -4.60375 0
M  V30 6015 H 553.888 -1.40846 -4.16004 0
M  V30 6016 H 554.494 -2.78659 -3.21293 0
M  V30 6017 N 552.809 0.956637 -1.25245 0
M  V30 6018 C 554.055 1.70352 -1.10036 0
M  V30 6019 C 554.388 1.90869 0.358156 0
M  V30 6020 O 553.663 1.47819 1.26411 0
M  V30 6021 C 553.946 3.08766 -1.85298 0
M  V30 6022 C 553.799 2.95672 -3.38966 0
M  V30 6023 C 555.118 4.08622 -1.63451 0
M  V30 6024 H 552.237 0.618279 -0.401123 0
M  V30 6025 H 554.879 1.11212 -1.54051 0
M  V30 6026 H 553.029 3.59252 -1.47887 0
M  V30 6027 H 554.701 2.52527 -3.86041 0
M  V30 6028 H 552.944 2.31634 -3.6678 0
M  V30 6029 H 553.615 3.93776 -3.86839 0
M  V30 6030 H 556.091 3.67038 -1.96015 0
M  V30 6031 H 554.967 5.03514 -2.18551 0
M  V30 6032 H 555.228 4.3834 -0.575357 0
M  V30 6033 N 554.287 1.06798 1.15896 0
M  V30 6034 C 555.235 0.677525 2.22514 0
M  V30 6035 C 556.229 -0.308994 1.66558 0
M  V30 6036 O 557.435 -0.173308 1.79164 0
M  V30 6037 H 553.81 0.200994 0.724642 0
M  V30 6038 H 555.781 1.5865 2.52731 0
M  V30 6039 C 554.53 0.0854153 3.47595 0
M  V30 6040 H 553.853 0.835645 3.90969 0
M  V30 6041 H 555.293 -0.150199 4.23734 0
M  V30 6042 C 553.752 -1.1724 3.15843 0
M  V30 6043 O 554.282 -2.25965 3.32119 0
M  V30 6044 N 552.488 -1.07636 2.69931 0
M  V30 6045 H 552.035 -0.191559 2.56887 0
M  V30 6046 H 551.993 -1.91876 2.4906 0
M  V30 6047 N 555.766 -1.3263 0.851289 0
M  V30 6048 C 557.015 -1.96633 0.449267 0
M  V30 6049 C 557.328 -1.68131 -0.999562 0
M  V30 6050 O 558.534 -2.25845 -1.50685 0
M  V30 6051 C 556.99 -3.51946 0.752446 0
M  V30 6052 C 556.598 -3.89311 2.21678 0
M  V30 6053 C 558.342 -4.22437 0.417983 0
M  V30 6054 C 556.249 -5.37655 2.46336 0
M  V30 6055 H 555.179 -0.735888 0.164269 0
M  V30 6056 H 557.83 -1.51073 1.0416 0
M  V30 6057 H 556.212 -3.95899 0.0895858 0
M  V30 6058 H 557.386 -3.56378 2.92115 0
M  V30 6059 H 555.701 -3.31836 2.51543 0
M  V30 6060 H 558.298 -5.31549 0.579674 0
M  V30 6061 H 558.641 -4.11349 -0.640115 0
M  V30 6062 H 559.174 -3.84057 1.03659 0
M  V30 6063 H 555.913 -5.5376 3.50757 0
M  V30 6064 H 555.433 -5.72005 1.80473 0
M  V30 6065 H 557.112 -6.04695 2.30115 0
M  V30 6066 O 557.283 -0.749239 -1.43069 0
M  V30 6067 H 557.974 -0.305579 -1.91274 0
M  V30 END ATOM
M  V30 BEGIN BOND
M  V30 END BOND
M  V30 END CTAB
M  END
$$$$
