drugbank_target|P23634 Plasma membrane calcium-transporting ATPase 4 (DB01159)
 OpenBabel12092121233D

  0  0  0     0  0            999 V3000
M  V30 BEGIN CTAB
M  V30 COUNTS 19564 19737 0 0 0
M  V30 BEGIN ATOM
M  V30 1 H -0.908 1.98254 -0.117106 0
M  V30 2 N 0 1.576 0 0
M  V30 3 C 0.933 2.03868 1.02534 0
M  V30 4 C 1.911 0.928543 1.3348 0
M  V30 5 O 3.095 1.19667 1.45644 0
M  V30 6 C 0.222 2.43627 2.35294 0
M  V30 7 C -0.732 3.65373 2.2001 0
M  V30 8 S 0.101 5.13292 1.52614 0
M  V30 9 C 1.257 5.56322 2.86805 0
M  V30 10 H 1.49 2.90518 0.631377 0
M  V30 11 H -0.977 1.52953 0.210867 0
M  V30 12 H 0.981 2.67203 3.11629 0
M  V30 13 H -0.358 1.57376 2.7183 0
M  V30 14 H -1.165 3.90944 3.18086 0
M  V30 15 H -1.563 3.418 1.51819 0
M  V30 16 H 0.729 5.58782 3.83104 0
M  V30 17 H 1.672 6.56266 2.65933 0
M  V30 18 H 2.08 4.83886 2.90714 0
M  V30 19 N 1.4781 -0.272755 1.55222 0
M  V30 20 C 2.7061 -1.02255 1.79865 0
M  V30 21 C 3.1211 -1.79924 0.572088 0
M  V30 22 O 2.4781 -1.76638 -0.458842 0
M  V30 23 C 2.5291 -1.98094 3.02392 0
M  V30 24 O 2.2501 -1.23572 4.20311 0
M  V30 25 C 3.7511 -2.84884 3.39641 0
M  V30 26 H 0.9711 -0.302057 0.599168 0
M  V30 27 H 3.5151 -0.303465 2.02236 0
M  V30 28 H 1.6701 -2.65465 2.82147 0
M  V30 29 H 2.0841 -1.88172 4.89583 0
M  V30 30 H 3.5581 -3.47927 4.28545 0
M  V30 31 H 4.0351 -3.54665 2.59055 0
M  V30 32 H 4.6411 -2.23003 3.62146 0
M  V30 33 N 2.9562 -1.48159 -0.537278 0
M  V30 34 C 3.9042 -1.62573 -1.66352 0
M  V30 35 C 4.8982 -0.492366 -1.62087 0
M  V30 36 O 6.1042 -0.670847 -1.67032 0
M  V30 37 H 2.4792 -0.511992 -0.550789 0
M  V30 38 H 4.4502 -2.57176 -1.51337 0
M  V30 39 C 3.1992 -1.67583 -3.04649 0
M  V30 40 H 2.5222 -2.54151 -3.08622 0
M  V30 41 H 3.9622 -1.81713 -3.83088 0
M  V30 42 C 2.4212 -0.413039 -3.34358 0
M  V30 43 O 2.9512 0.477259 -3.98855 0
M  V30 44 N 1.1572 -0.286961 -2.8918 0
M  V30 45 H 0.7042 -1.01241 -2.36871 0
M  V30 46 H 0.6622 0.556963 -3.09427 0
M  V30 47 N 4.4343 0.785586 -1.36625 0
M  V30 48 C 5.8453 1.36101 -1.27803 0
M  V30 49 C 6.1963 1.96035 0.0804875 0
M  V30 50 O 5.3213 1.92834 0.982042 0
M  V30 51 C 5.9163 2.47442 -2.31426 0
M  V30 52 C 4.4753 3.00789 -2.26281 0
M  V30 53 C 3.6223 1.73896 -2.15999 0
M  V30 54 H 6.5733 0.586928 -1.47448 0
M  V30 55 H 6.5943 3.2656 -1.95291 0
M  V30 56 H 6.1063 2.03791 -3.30289 0
M  V30 57 H 4.2073 3.48851 -1.30896 0
M  V30 58 H 4.3203 3.57343 -3.19128 0
M  V30 59 H 2.6843 1.9628 -1.62316 0
M  V30 60 H 3.4673 1.32368 -3.16755 0
M  V30 61 N 5.9124 1.20967 1.01018 0
M  V30 62 C 7.1374 1.0503 1.78839 0
M  V30 63 C 7.5624 -0.395752 1.8389 0
M  V30 64 O 6.9204 -1.28529 1.27867 0
M  V30 65 C 6.9684 1.64602 3.2084 0
M  V30 66 O 6.0724 0.887988 4.02726 0
M  V30 67 H 5.4134 0.369987 0.551367 0
M  V30 68 H 7.9434 1.60399 1.27018 0
M  V30 69 H 7.9534 1.68607 3.71532 0
M  V30 70 H 6.6284 2.69841 3.16479 0
M  V30 71 H 5.2054 0.922648 3.61305 0
M  V30 72 N 7.3905 -1.2043 1.01659 0
M  V30 73 C 8.6675 -1.8548 0.621004 0
M  V30 74 C 9.0475 -1.9091 -0.900919 0
M  V30 75 O 8.3955 -1.41694 -1.79263 0
M  V30 76 C 8.6055 -3.25119 1.2688 0
M  V30 77 C 9.9535 -4.01403 1.38423 0
M  V30 78 O 10.9775 -3.34473 1.22501 0
M  V30 79 O 9.8365 -5.21265 1.64151 0
M  V30 80 H 6.9305 -0.798761 0.214266 0
M  V30 81 H 9.4765 -1.28019 1.11396 0
M  V30 82 H 8.2485 -3.15932 2.30873 0
M  V30 83 H 7.8715 -3.90212 0.762917 0
M  V30 84 N 8.8686 -0.792821 -1.36206 0
M  V30 85 C 10.2846 -0.474903 -1.52371 0
M  V30 86 C 10.4846 1.00622 -1.74578 0
M  V30 87 O 9.5406 1.79162 -1.77924 0
M  V30 88 C 10.8536 -1.3083 -2.70747 0
M  V30 89 C 12.4016 -1.30234 -2.84619 0
M  V30 90 C 12.8766 -2.11956 -4.06004 0
M  V30 91 N 14.3676 -2.09419 -4.13156 0
M  V30 92 C 15.1026 -2.69419 -5.06163 0
M  V30 93 N 14.5986 -3.3829 -6.04592 0
M  V30 94 N 16.3916 -2.59134 -4.98804 0
M  V30 95 H 8.5426 -1.75222 -1.20046 0
M  V30 96 H 10.8056 -0.745024 -0.586211 0
M  V30 97 H 10.5116 -2.35881 -2.6087 0
M  V30 98 H 10.3856 -0.95196 -3.6499 0
M  V30 99 H 12.7726 -0.259748 -2.93955 0
M  V30 100 H 12.8536 -1.69847 -1.91274 0
M  V30 101 H 12.4976 -3.16248 -3.97429 0
M  V30 102 H 12.4276 -1.69711 -4.98503 0
M  V30 103 H 14.9186 -1.59297 -3.42685 0
M  V30 104 H 15.2316 -3.81394 -6.7213 0
M  V30 105 H 13.5766 -3.42393 -6.04807 0
M  V30 106 H 16.7676 -2.04927 -4.20859 0
M  V30 107 H 16.9406 -3.06185 -5.711 0
M  V30 108 N 10.3467 1.47872 -0.545128 0
M  V30 109 C 11.5927 2.02793 -0.0166104 0
M  V30 110 C 11.9257 1.41987 1.32489 0
M  V30 111 O 11.2007 0.571045 1.85928 0
M  V30 112 C 11.4837 3.59989 0.0893294 0
M  V30 113 C 11.3367 4.3125 -1.27841 0
M  V30 114 C 12.6557 4.32606 0.808724 0
M  V30 115 H 9.7747 0.736962 -0.00751035 0
M  V30 116 H 12.4167 1.76433 -0.705085 0
M  V30 117 H 10.5667 3.82579 0.675681 0
M  V30 118 H 12.2387 4.20035 -1.90704 0
M  V30 119 H 10.4817 3.92076 -1.85632 0
M  V30 120 H 11.1527 5.39736 -1.15713 0
M  V30 121 H 13.6287 4.14936 0.310992 0
M  V30 122 H 12.5047 5.42251 0.851782 0
M  V30 123 H 12.7657 4.00963 1.86229 0
M  V30 124 N 11.8248 0.280983 1.55075 0
M  V30 125 C 12.7548 -0.597469 2.25727 0
M  V30 126 C 13.7358 -1.15417 1.24952 0
M  V30 127 O 14.9208 -1.18722 1.53684 0
M  V30 128 C 12.0508 -1.7789 2.98283 0
M  V30 129 C 11.0048 -1.35347 4.06036 0
M  V30 130 C 10.3308 -2.61846 4.66198 0
M  V30 131 C 11.6308 -0.499354 5.19907 0
M  V30 132 H 13.3248 -0.00824265 2.99399 0
M  V30 133 H 10.8708 -0.0025244 1.44 0
M  V30 134 H 12.8238 -2.39937 3.46422 0
M  V30 135 H 11.5478 -2.39405 2.22155 0
M  V30 136 H 10.2068 -0.756156 3.58717 0
M  V30 137 H 9.8548 -3.21632 3.86732 0
M  V30 138 H 9.5548 -2.3409 5.38958 0
M  V30 139 H 11.0788 -3.24732 5.1709 0
M  V30 140 H 12.4928 -1.02498 5.64063 0
M  V30 141 H 10.8898 -0.316424 5.99265 0
M  V30 142 H 11.9598 0.480459 4.82514 0
M  V30 143 N 13.3029 -1.57598 0.00835791 0
M  V30 144 C 14.7139 -1.7892 -0.53333 0
M  V30 145 C 15.0649 -0.916609 -1.73473 0
M  V30 146 O 14.1899 -0.121336 -2.1606 0
M  V30 147 C 14.7849 -3.24488 -0.974313 0
M  V30 148 C 13.3439 -3.46878 -1.46125 0
M  V30 149 C 12.4909 -2.74157 -0.416302 0
M  V30 150 H 15.4419 -1.56958 0.234495 0
M  V30 151 H 15.4629 -3.3306 -1.83988 0
M  V30 152 H 14.9749 -3.87972 -0.099718 0
M  V30 153 H 13.0759 -2.8862 -2.35646 0
M  V30 154 H 13.1889 -4.55572 -1.48295 0
M  V30 155 H 11.5529 -2.39022 -0.87981 0
M  V30 156 H 12.3359 -3.40345 0.44947 0
M  V30 157 N 14.781 0.264519 -1.55364 0
M  V30 158 C 15.744 1.31046 -1.88042 0
M  V30 159 C 16.744 1.41943 -0.755569 0
M  V30 160 O 17.934 1.40947 -1.02369 0
M  V30 161 C 15.066 2.69067 -2.09323 0
M  V30 162 H 16.259 1.03297 -2.81549 0
M  V30 163 H 13.812 0.502989 -1.47986 0
M  V30 164 H 14.547 3.01982 -1.18226 0
M  V30 165 H 14.332 2.62542 -2.91229 0
M  V30 166 H 15.822 3.44623 -2.35848 0
M  V30 167 N 16.2591 1.48442 0.529413 0
M  V30 168 C 17.2071 1.63452 1.65487 0
M  V30 169 C 18.2011 0.500955 1.61823 0
M  V30 170 O 19.4071 0.679695 1.66674 0
M  V30 171 H 15.7821 0.514905 0.548066 0
M  V30 172 H 17.7531 2.57975 1.49971 0
M  V30 173 C 16.5021 1.69196 3.03756 0
M  V30 174 H 15.8251 2.55784 3.07269 0
M  V30 175 H 17.2651 1.83743 3.82119 0
M  V30 176 C 15.7241 0.430765 3.34135 0
M  V30 177 O 16.2541 -0.4561 3.99102 0
M  V30 178 N 14.4601 0.302293 2.89023 0
M  V30 179 H 14.0071 1.02496 2.36331 0
M  V30 180 H 13.9651 -0.540546 3.09718 0
M  V30 181 N 17.7372 -0.778329 1.37039 0
M  V30 182 C 18.9622 -1.57248 1.35233 0
M  V30 183 C 19.3872 -1.87999 -0.0615568 0
M  V30 184 O 18.7452 -1.48734 -1.03672 0
M  V30 185 C 18.7932 -2.86353 2.19167 0
M  V30 186 O 17.8972 -3.80442 1.59178 0
M  V30 187 H 17.2382 -0.476569 0.462362 0
M  V30 188 H 19.7682 -0.963853 1.80474 0
M  V30 189 H 19.7782 -3.35519 2.32145 0
M  V30 190 H 18.4532 -2.63299 3.21942 0
M  V30 191 H 17.0302 -3.39067 1.55203 0
M  V30 192 N 19.2153 -1.21501 -1.00376 0
M  V30 193 C 20.1483 -0.918669 -2.08892 0
M  V30 194 C 21.1263 0.134277 -1.62045 0
M  V30 195 O 22.3103 0.00504255 -1.88499 0
M  V30 196 C 19.4373 -0.379645 -3.36566 0
M  V30 197 C 18.4833 -1.41559 -4.02323 0
M  V30 198 S 19.3163 -2.98521 -4.44574 0
M  V30 199 C 20.4723 -2.46228 -5.75433 0
M  V30 200 H 20.7053 -1.83761 -2.33707 0
M  V30 201 H 18.2383 -1.04489 -1.13673 0
M  V30 202 H 20.1963 -0.0752195 -4.10431 0
M  V30 203 H 18.8573 0.518008 -3.09799 0
M  V30 204 H 18.0503 -0.988076 -4.9422 0
M  V30 205 H 17.6523 -1.66815 -3.34737 0
M  V30 206 H 19.9443 -1.86791 -6.51241 0
M  V30 207 H 20.8873 -3.36572 -6.22997 0
M  V30 208 H 21.2953 -1.87894 -5.32312 0
M  V30 209 N 20.6934 1.19889 -1.02296 0
M  V30 210 C 21.6564 2.21116 -0.603351 0
M  V30 211 C 22.6564 1.5738 0.329884 0
M  V30 212 O 23.8464 1.73802 0.117702 0
M  V30 213 C 20.9784 3.40696 0.117992 0
M  V30 214 H 22.1714 2.59754 -1.49893 0
M  V30 215 H 19.7244 1.33463 -0.813468 0
M  V30 216 H 20.4594 3.07569 1.0282 0
M  V30 217 H 20.2444 3.88188 -0.552511 0
M  V30 218 H 21.7344 4.15692 0.398696 0
M  V30 219 N 22.1715 0.800033 1.35784 0
M  V30 220 C 23.0815 0.207204 2.33683 0
M  V30 221 C 24.0975 -0.64631 1.61551 0
M  V30 222 O 25.2735 -0.559604 1.93469 0
M  V30 223 C 22.3385 -0.639659 3.40748 0
M  V30 224 C 21.3995 0.233585 4.28664 0
M  V30 225 C 20.6325 -0.572954 5.30616 0
M  V30 226 O 20.8555 -1.80816 5.40982 0
M  V30 227 O 19.7895 0.0327285 6.01891 0
M  V30 228 H 23.6155 1.01692 2.86169 0
M  V30 229 H 21.2005 0.561691 1.38439 0
M  V30 230 H 23.0825 -1.12223 4.06182 0
M  V30 231 H 21.7575 -1.42708 2.90544 0
M  V30 232 H 20.6645 0.763147 3.66233 0
M  V30 233 H 21.9975 0.984784 4.82248 0
M  V30 234 N 23.6496 -1.47581 0.552962 0
M  V30 235 C 24.8746 -2.07378 0.0300593 0
M  V30 236 C 25.2996 -1.40355 -1.25229 0
M  V30 237 O 24.6576 -0.477099 -1.7491 0
M  V30 238 C 24.7056 -3.60274 -0.153231 0
M  V30 239 O 23.8096 -3.94041 -1.21678 0
M  V30 240 H 23.1506 -0.662158 0.0494182 0
M  V30 241 H 25.6806 -1.89662 0.767434 0
M  V30 242 H 25.6906 -4.0633 -0.368761 0
M  V30 243 H 24.3656 -4.08455 0.783397 0
M  V30 244 H 22.9426 -3.59735 -0.982079 0
M  V30 245 N 25.1277 -0.289203 -1.54924 0
M  V30 246 C 26.5437 0.0645403 -1.59469 0
M  V30 247 C 26.7437 1.53419 -1.30632 0
M  V30 248 O 25.7997 2.2852 -1.074 0
M  V30 249 C 27.1127 -0.32278 -2.98963 0
M  V30 250 C 28.6607 -0.270564 -3.11828 0
M  V30 251 C 29.1357 -0.632532 -4.53611 0
M  V30 252 N 30.6267 -0.584617 -4.59496 0
M  V30 253 C 31.3617 -0.837314 -5.67254 0
M  V30 254 N 30.8577 -1.15536 -6.83098 0
M  V30 255 N 32.6507 -0.765166 -5.56868 0
M  V30 256 H 24.8017 -1.24714 -1.71931 0
M  V30 257 H 27.0647 -0.504809 -0.802416 0
M  V30 258 H 26.7707 -1.34541 -3.24948 0
M  V30 259 H 26.6447 0.32944 -3.75759 0
M  V30 260 H 29.0317 0.742805 -2.85598 0
M  V30 261 H 29.1127 -0.957242 -2.37214 0
M  V30 262 H 28.7567 -1.64365 -4.80569 0
M  V30 263 H 28.6867 0.07609 -5.26545 0
M  V30 264 H 31.1777 -0.349248 -3.76283 0
M  V30 265 H 31.4907 -1.33447 -7.61191 0
M  V30 266 H 29.8357 -1.19328 -6.84679 0
M  V30 267 H 33.0267 -0.516432 -4.65243 0
M  V30 268 H 33.1997 -0.965477 -6.40767 0
M  V30 269 N 26.6058 1.57591 -0.0167156 0
M  V30 270 C 27.5158 2.1291 0.98521 0
M  V30 271 C 28.5318 1.07834 1.36557 0
M  V30 272 O 29.7078 1.39826 1.44951 0
M  V30 273 C 26.7728 2.63512 2.25305 0
M  V30 274 C 25.8338 3.83256 1.93426 0
M  V30 275 C 25.0668 4.31435 3.14165 0
M  V30 276 O 25.2898 3.78851 4.26413 0
M  V30 277 O 24.2238 5.23416 2.97186 0
M  V30 278 H 28.0498 2.98772 0.544888 0
M  V30 279 H 25.6348 1.48012 0.203141 0
M  V30 280 H 27.5168 2.96183 2.99756 0
M  V30 281 H 26.1918 1.8074 2.68542 0
M  V30 282 H 25.0988 3.55531 1.16398 0
M  V30 283 H 26.4318 4.67153 1.55013 0
M  V30 284 N 28.0839 -0.256276 1.55502 0
M  V30 285 C 29.3319 -0.983672 1.76545 0
M  V30 286 C 29.6529 -1.86206 0.578982 0
M  V30 287 O 28.9229 -1.91656 -0.405577 0
M  V30 288 H 27.5029 -0.366191 0.651086 0
M  V30 289 H 30.1649 -0.276479 1.92929 0
M  V30 290 H 29.2609 -1.61087 2.67315 0
M  V30 291 N 29.562 -1.4872 -0.521534 0
M  V30 292 C 30.839 -1.4766 -1.2828 0
M  V30 293 C 31.219 -0.19292 -2.10217 0
M  V30 294 O 30.567 0.825193 -2.13079 0
M  V30 295 C 30.777 -2.74358 -2.15705 0
M  V30 296 C 32.125 -3.23028 -2.75569 0
M  V30 297 O 33.149 -2.75333 -2.25987 0
M  V30 298 O 32.008 -4.0604 -3.65778 0
M  V30 299 H 29.102 -0.590085 -0.579421 0
M  V30 300 H 31.648 -1.60963 -0.537492 0
M  V30 301 H 30.42 -3.59292 -1.54999 0
M  V30 302 H 30.043 -2.63816 -2.97467 0
M  V30 303 N 31.0401 0.771051 -1.3745 0
M  V30 304 C 32.2871 1.52963 -1.32697 0
M  V30 305 C 32.6151 1.94299 0.0883274 0
M  V30 306 O 31.8701 1.64397 1.0617 0
M  V30 307 C 32.1691 2.80676 -2.2126 0
M  V30 308 C 31.8351 2.58389 -3.69521 0
M  V30 309 C 30.4971 2.52019 -4.09927 0
M  V30 310 C 32.8491 2.38469 -4.63446 0
M  V30 311 C 30.1771 2.23721 -5.42371 0
M  V30 312 C 32.5291 2.11694 -5.96128 0
M  V30 313 C 31.1931 2.03769 -6.35637 0
M  V30 314 H 30.4631 0.559732 -0.485573 0
M  V30 315 H 33.1101 0.888083 -1.69662 0
M  V30 316 H 31.4151 3.49392 -1.77291 0
M  V30 317 H 33.1121 3.38557 -2.14895 0
M  V30 318 H 29.7021 2.6421 -3.37478 0
M  V30 319 H 33.8861 2.4238 -4.33089 0
M  V30 320 H 29.1421 2.16081 -5.71943 0
M  V30 321 H 33.3161 1.9528 -6.6846 0
M  V30 322 H 30.9431 1.81606 -7.38189 0
M  V30 323 N 32.5182 1.22032 0.997298 0
M  V30 324 C 33.7662 1.04016 1.73278 0
M  V30 325 C 34.0872 -0.426255 1.90284 0
M  V30 326 O 33.3572 -1.30694 1.45931 0
M  V30 327 H 31.9372 0.381897 0.642 0
M  V30 328 H 34.5992 1.5347 1.20137 0
M  V30 329 H 33.6952 1.51441 2.72896 0
M  V30 330 N 33.9963 -1.19345 1.0293 0
M  V30 331 C 35.2363 -1.90738 0.734727 0
M  V30 332 C 35.6003 -1.7785 -0.723414 0
M  V30 333 O 36.8013 -2.43844 -1.13108 0
M  V30 334 C 35.0723 -3.37569 1.17396 0
M  V30 335 S 36.6313 -4.27176 1.00329 0
M  V30 336 H 33.4493 -0.658771 0.267474 0
M  V30 337 H 36.0513 -1.4428 1.31922 0
M  V30 338 H 34.7553 -3.44475 2.23081 0
M  V30 339 H 34.2863 -3.8906 0.582772 0
M  V30 340 H 36.3013 -4.96126 -0.0859152 0
M  V30 341 N 35.4744 -0.807222 -1.35358 0
M  V30 342 C 36.7024 -0.400377 -2.02989 0
M  V30 343 C 37.1174 0.988859 -1.60832 0
M  V30 344 O 36.4744 1.63729 -0.806175 0
M  V30 345 C 36.5254 -0.474867 -3.58368 0
M  V30 346 O 36.2464 -1.80933 -3.98992 0
M  V30 347 C 37.7474 -0.0609112 -4.43258 0
M  V30 348 H 34.9674 -0.162587 -0.651004 0
M  V30 349 H 37.5114 -1.09102 -1.72965 0
M  V30 350 H 35.6664 0.167534 -3.87038 0
M  V30 351 H 36.0804 -1.77256 -4.9364 0
M  V30 352 H 37.5544 -0.164145 -5.51756 0
M  V30 353 H 38.0314 0.993831 -4.27808 0
M  V30 354 H 38.6374 -0.676492 -4.19885 0
M  V30 355 N 36.9525 1.47285 -0.560781 0
M  V30 356 C 38.1985 2.02764 -0.0381184 0
M  V30 357 C 38.5315 1.43384 1.30976 0
M  V30 358 O 37.8065 0.590733 1.85312 0
M  V30 359 C 38.0895 3.60064 0.0511427 0
M  V30 360 C 37.9425 4.2987 -1.32408 0
M  V30 361 C 39.2615 4.33439 0.762795 0
M  V30 362 H 36.3805 0.736841 -0.0153264 0
M  V30 363 H 39.0225 1.75675 -0.723759 0
M  V30 364 H 37.1725 3.83274 0.635065 0
M  V30 365 H 38.8445 4.17989 -1.95148 0
M  V30 366 H 37.0875 3.90085 -1.8978 0
M  V30 367 H 37.7585 5.38478 -1.21431 0
M  V30 368 H 40.2345 4.15243 0.266965 0
M  V30 369 H 39.1105 5.43124 0.794221 0
M  V30 370 H 39.3715 4.02915 1.81966 0
M  V30 371 N 38.4306 0.297415 1.54768 0
M  V30 372 C 39.3636 -0.622188 2.19554 0
M  V30 373 C 40.3416 -1.13558 1.16376 0
M  V30 374 O 41.5256 -1.20444 1.45002 0
M  V30 375 C 38.6526 -1.8509 2.83653 0
M  V30 376 C 37.6986 -1.47106 4.00328 0
M  V30 377 S 38.5316 -0.53006 5.3287 0
M  V30 378 C 39.6876 -1.76665 6.0045 0
M  V30 379 H 39.9206 -0.0717806 2.97213 0
M  V30 380 H 37.4536 0.0815678 1.54184 0
M  V30 381 H 39.4116 -2.55605 3.21211 0
M  V30 382 H 38.0726 -2.37247 2.05846 0
M  V30 383 H 37.2656 -2.38594 4.43947 0
M  V30 384 H 36.8676 -0.845885 3.64309 0
M  V30 385 H 39.1596 -2.7077 6.21039 0
M  V30 386 H 40.1026 -1.37308 6.9466 0
M  V30 387 H 40.5106 -1.94174 5.30054 0
M  V30 388 N 39.9087 -1.5758 0.0250728 0
M  V30 389 C 40.8187 -2.1343 -0.973905 0
M  V30 390 C 41.8347 -1.08556 -1.35984 0
M  V30 391 O 43.0107 -1.40592 -1.44207 0
M  V30 392 C 40.0757 -2.64703 -2.23904 0
M  V30 393 C 39.1367 -3.84276 -1.91391 0
M  V30 394 C 38.3697 -4.33095 -3.11873 0
M  V30 395 O 38.5927 -3.81107 -4.24398 0
M  V30 396 O 37.5267 -5.24984 -2.94406 0
M  V30 397 H 41.3527 -2.99057 -0.529036 0
M  V30 398 H 38.9377 -1.48118 -0.195288 0
M  V30 399 H 40.8197 -2.97769 -2.98181 0
M  V30 400 H 39.4947 -1.82161 -2.6758 0
M  V30 401 H 38.4017 -3.56143 -1.14511 0
M  V30 402 H 39.7347 -4.67968 -1.52534 0
M  V30 403 N 41.3868 0.248026 -1.55636 0
M  V30 404 C 42.3168 1.31079 -1.93237 0
M  V30 405 C 43.2978 1.50264 -0.797174 0
M  V30 406 O 44.4828 1.62891 -1.05737 0
M  V30 407 C 41.6128 2.66575 -2.22609 0
M  V30 408 C 40.5668 2.62087 -3.3837 0
M  V30 409 C 39.8928 4.01369 -3.53281 0
M  V30 410 C 41.1928 2.19171 -4.7409 0
M  V30 411 H 42.8868 0.998556 -2.82257 0
M  V30 412 H 40.4328 0.47891 -1.35803 0
M  V30 413 H 42.3858 3.41057 -2.47503 0
M  V30 414 H 41.1098 2.99432 -1.30414 0
M  V30 415 H 39.7688 1.90063 -3.13483 0
M  V30 416 H 39.4168 4.31489 -2.58508 0
M  V30 417 H 39.1168 3.99254 -4.31127 0
M  V30 418 H 40.6408 4.77552 -3.80495 0
M  V30 419 H 42.0548 2.83384 -4.98363 0
M  V30 420 H 40.4518 2.2817 -5.5503 0
M  V30 421 H 41.5218 1.14336 -4.71227 0
M  V30 422 N 42.8649 1.48995 0.513639 0
M  V30 423 C 44.2809 1.35478 0.843682 0
M  V30 424 C 44.4809 0.378213 1.97919 0
M  V30 425 O 43.5369 -0.194689 2.51748 0
M  V30 426 C 44.8499 2.75901 1.1958 0
M  V30 427 C 46.3979 2.84509 1.30474 0
M  V30 428 C 46.8729 4.25671 1.69021 0
M  V30 429 N 48.3639 4.28422 1.76094 0
M  V30 430 C 49.0989 5.34601 2.07338 0
M  V30 431 N 48.5949 6.5104 2.36894 0
M  V30 432 N 50.3879 5.22007 2.08483 0
M  V30 433 H 42.5389 2.11092 -0.235328 0
M  V30 434 H 44.8019 0.947039 -0.0426669 0
M  V30 435 H 44.5079 3.49001 0.434913 0
M  V30 436 H 44.3819 3.10467 2.1422 0
M  V30 437 H 46.7689 2.11655 2.05637 0
M  V30 438 H 46.8499 2.53542 0.339155 0
M  V30 439 H 46.4939 4.99048 0.944135 0
M  V30 440 H 46.4239 4.54094 2.66658 0
M  V30 441 H 48.9149 3.44441 1.55464 0
M  V30 442 H 49.2279 7.2779 2.59887 0
M  V30 443 H 47.5729 6.54287 2.34378 0
M  V30 444 H 50.7639 4.30051 1.84861 0
M  V30 445 H 50.9369 6.04854 2.325 0
M  V30 446 N 44.343 -0.763751 1.37857 0
M  V30 447 C 45.29 -1.87726 1.34267 0
M  V30 448 C 46.26 -1.64807 0.206879 0
M  V30 449 O 47.445 -1.86613 0.397508 0
M  V30 450 C 44.585 -3.24896 1.16346 0
M  V30 451 C 43.698 -3.59716 2.39225 0
M  V30 452 C 42.833 -4.86137 2.14114 0
M  V30 453 C 41.872 -5.13711 3.32817 0
M  V30 454 N 41.009 -6.31323 3.07206 0
M  V30 455 H 45.849 -1.90129 2.29466 0
M  V30 456 H 43.386 -0.929433 1.14017 0
M  V30 457 H 45.344 -4.04036 1.03975 0
M  V30 458 H 43.974 -3.21847 0.247909 0
M  V30 459 H 43.026 -2.75498 2.62307 0
M  V30 460 H 44.338 -3.76027 3.27728 0
M  V30 461 H 43.492 -5.73198 1.9882 0
M  V30 462 H 42.231 -4.71945 1.22961 0
M  V30 463 H 41.236 -4.25123 3.48641 0
M  V30 464 H 42.461 -5.29807 4.24832 0
M  V30 465 H 40.407 -6.18474 2.1869 0
M  V30 466 H 40.324 -6.48087 3.89254 0
M  V30 467 H 41.592 -7.213 2.95546 0
M  V30 468 N 45.8211 -1.22559 -0.990812 0
M  V30 469 C 46.7511 -1.0218 -2.09956 0
M  V30 470 C 47.7321 0.0579394 -1.70001 0
M  V30 471 O 48.9171 -0.104684 -1.93918 0
M  V30 472 C 46.0471 -0.601023 -3.4206 0
M  V30 473 C 45.0011 -1.62694 -3.95872 0
M  V30 474 C 44.3271 -1.06193 -5.24049 0
M  V30 475 C 45.6271 -3.01743 -4.2632 0
M  V30 476 H 47.3211 -1.94916 -2.27262 0
M  V30 477 H 44.8671 -0.938566 -1.09211 0
M  V30 478 H 46.8201 -0.445561 -4.19038 0
M  V30 479 H 45.5441 0.362005 -3.24588 0
M  V30 480 H 44.2031 -1.77021 -3.21028 0
M  V30 481 H 43.8511 -0.0901903 -5.02919 0
M  V30 482 H 43.5511 -1.74732 -5.61019 0
M  V30 483 H 45.0751 -0.918092 -6.03658 0
M  V30 484 H 46.4891 -2.90777 -4.94087 0
M  V30 485 H 44.8861 -3.67425 -4.74467 0
M  V30 486 H 45.9561 -3.51518 -3.34011 0
M  V30 487 N 47.2992 1.18797 -1.03562 0
M  V30 488 C 48.2322 2.2105 -0.56676 0
M  V30 489 C 49.2102 1.57704 0.395993 0
M  V30 490 O 50.3942 1.85908 0.311498 0
M  V30 491 C 47.5212 3.38259 0.172704 0
M  V30 492 C 46.5672 4.19987 -0.74252 0
M  V30 493 S 47.4002 4.87199 -2.22254 0
M  V30 494 C 48.5562 6.07813 -1.49379 0
M  V30 495 H 48.7892 2.60478 -1.43312 0
M  V30 496 H 46.3222 1.29151 -0.846133 0
M  V30 497 H 48.2802 4.06191 0.593191 0
M  V30 498 H 46.9412 2.97252 1.01488 0
M  V30 499 H 46.1342 5.03709 -0.171265 0
M  V30 500 H 45.7362 3.57408 -1.10163 0
M  V30 501 H 48.0282 6.72948 -0.784056 0
M  V30 502 H 48.9712 6.69435 -2.30786 0
M  V30 503 H 49.3792 5.55781 -0.988331 0
M  V30 504 N 48.7773 0.814389 1.34928 0
M  V30 505 C 49.6873 0.231978 2.3345 0
M  V30 506 C 50.7033 -0.629139 1.62228 0
M  V30 507 O 51.8793 -0.539052 1.94052 0
M  V30 508 C 48.9443 -0.603482 3.41407 0
M  V30 509 C 48.0053 0.279037 4.28392 0
M  V30 510 C 47.2383 -0.516643 5.31193 0
M  V30 511 O 47.4613 -1.75068 5.4287 0
M  V30 512 O 46.3953 0.0965652 6.01823 0
M  V30 513 H 50.2213 1.04721 2.85074 0
M  V30 514 H 47.8063 0.576343 1.37836 0
M  V30 515 H 49.6883 -1.07908 4.0735 0
M  V30 516 H 48.3633 -1.39618 2.92042 0
M  V30 517 H 47.2703 0.801948 3.65403 0
M  V30 518 H 48.6033 1.03588 4.81176 0
M  V30 519 N 50.2554 -1.46986 0.568584 0
M  V30 520 C 51.1854 -2.32946 -0.160753 0
M  V30 521 C 52.1664 -1.44487 -0.897631 0
M  V30 522 O 53.3514 -1.73327 -0.875867 0
M  V30 523 C 50.4814 -3.26494 -1.18403 0
M  V30 524 C 49.4354 -4.24282 -0.562895 0
M  V30 525 C 48.7614 -5.07236 -1.69163 0
M  V30 526 C 50.0614 -5.19989 0.490761 0
M  V30 527 H 51.7554 -2.94175 0.556916 0
M  V30 528 H 49.3014 -1.4146 0.26927 0
M  V30 529 H 51.2544 -3.85477 -1.70251 0
M  V30 530 H 49.9784 -2.63343 -1.93179 0
M  V30 531 H 48.6374 -3.66541 -0.0656164 0
M  V30 532 H 48.2854 -4.4048 -2.42871 0
M  V30 533 H 47.9854 -5.7345 -1.28174 0
M  V30 534 H 49.5094 -5.6908 -2.21314 0
M  V30 535 H 50.9234 -5.73271 0.0579047 0
M  V30 536 H 49.3204 -5.94469 0.820165 0
M  V30 537 H 50.3904 -4.64777 1.3824 0
M  V30 538 N 51.7335 -0.305618 -1.54608 0
M  V30 539 C 53.1495 0.0476228 -1.59529 0
M  V30 540 C 53.3495 1.52025 -1.32252 0
M  V30 541 O 52.4055 2.27368 -1.09818 0
M  V30 542 C 53.7185 -0.354471 -2.98603 0
M  V30 543 C 55.2665 -0.303622 -3.11524 0
M  V30 544 C 55.7415 -0.680608 -4.52915 0
M  V30 545 N 57.2325 -0.63332 -4.5885 0
M  V30 546 C 57.9675 -0.897432 -5.66334 0
M  V30 547 N 57.4635 -1.22775 -6.81834 0
M  V30 548 N 59.2565 -0.824186 -5.56025 0
M  V30 549 H 51.4075 -1.2653 -1.70599 0
M  V30 550 H 53.6705 -0.513291 -0.797017 0
M  V30 551 H 53.3765 -1.3798 -3.23503 0
M  V30 552 H 53.2505 0.289568 -3.76087 0
M  V30 553 H 55.6375 0.712472 -2.8637 0
M  V30 554 H 55.7185 -0.982348 -2.36185 0
M  V30 555 H 55.3625 -1.69453 -4.78799 0
M  V30 556 H 55.2925 0.0202385 -5.26596 0
M  V30 557 H 57.7835 -0.389138 -3.75891 0
M  V30 558 H 58.0965 -1.41513 -7.59733 0
M  V30 559 H 56.4415 -1.26583 -6.83375 0
M  V30 560 H 59.6325 -0.565748 -4.64669 0
M  V30 561 H 59.8055 -1.03338 -6.39707 0
M  V30 562 N 53.2116 1.57565 -0.0334293 0
M  V30 563 C 54.4366 1.96689 0.657895 0
M  V30 564 C 54.8616 0.910057 1.64619 0
M  V30 565 O 54.2196 -0.128598 1.80843 0
M  V30 566 C 54.2676 3.34905 1.33683 0
M  V30 567 O 53.3716 3.31574 2.45219 0
M  V30 568 H 52.7126 0.641205 0.172489 0
M  V30 569 H 55.2426 2.04372 -0.0965621 0
M  V30 570 H 55.2526 3.71234 1.69262 0
M  V30 571 H 53.9276 4.11366 0.612411 0
M  V30 572 H 52.5046 3.06968 2.11719 0
M  V30 573 N 54.6897 -0.239769 1.55765 0
M  V30 574 C 56.1057 -0.588624 1.48349 0
M  V30 575 C 56.3057 -1.88005 0.72502 0
M  V30 576 O 55.3617 -2.51186 0.257269 0
M  V30 577 C 56.6747 -0.68474 2.928 0
M  V30 578 C 58.2227 -0.77659 3.03213 0
M  V30 579 C 58.6977 -0.904207 4.48986 0
M  V30 580 N 60.1887 -0.968896 4.52953 0
M  V30 581 C 60.9237 -1.08703 5.63002 0
M  V30 582 N 60.4197 -1.17026 6.82845 0
M  V30 583 N 62.2127 -1.12074 5.50814 0
M  V30 584 H 54.3637 0.607911 2.03515 0
M  V30 585 H 56.6267 0.21083 0.924259 0
M  V30 586 H 56.3327 0.194284 3.51163 0
M  V30 587 H 56.2067 -1.55435 3.43686 0
M  V30 588 H 58.5937 -1.64606 2.44926 0
M  V30 589 H 58.6747 0.118315 2.55526 0
M  V30 590 H 58.3187 -0.0392633 5.07885 0
M  V30 591 H 58.2487 -1.81426 4.9436 0
M  V30 592 H 60.7397 -0.915633 3.6664 0
M  V30 593 H 61.0527 -1.25966 7.62465 0
M  V30 594 H 59.3977 -1.13971 6.85591 0
M  V30 595 H 62.5887 -1.05226 4.5612 0
M  V30 596 H 62.7617 -1.20936 6.36615 0
M  V30 597 N 56.1678 -1.49265 -0.50573 0
M  V30 598 C 57.4448 -1.49012 -1.26707 0
M  V30 599 C 57.8248 -0.215205 -2.1 0
M  V30 600 O 57.1728 0.802547 -2.13943 0
M  V30 601 C 57.3828 -2.7663 -2.12783 0
M  V30 602 C 58.7308 -3.25932 -2.72127 0
M  V30 603 O 59.7548 -2.77715 -2.23054 0
M  V30 604 O 58.6138 -4.09897 -3.61451 0
M  V30 605 H 55.7078 -0.596197 -0.57313 0
M  V30 606 H 58.2538 -1.61524 -0.52039 0
M  V30 607 H 57.0258 -3.60916 -1.5118 0
M  V30 608 H 56.6488 -2.66956 -2.94653 0
M  V30 609 N 57.6459 0.756429 -1.3826 0
M  V30 610 C 58.6089 1.85176 -1.35065 0
M  V30 611 C 59.6089 1.58818 -0.251703 0
M  V30 612 O 60.7989 1.66615 -0.508433 0
M  V30 613 C 57.9309 3.22596 -1.10201 0
M  V30 614 H 59.1239 1.89417 -2.3251 0
M  V30 615 H 56.6769 0.95783 -1.23512 0
M  V30 616 H 57.4119 3.24025 -0.133504 0
M  V30 617 H 57.1969 3.43122 -1.89762 0
M  V30 618 H 58.6869 4.02673 -1.10654 0
M  V30 619 N 59.124 1.23083 0.984299 0
M  V30 620 C 60.054 1.03292 2.09411 0
M  V30 621 C 61.035 -0.048923 1.7003 0
M  V30 622 O 62.22 0.114967 1.93859 0
M  V30 623 C 59.35 0.619155 3.41736 0
M  V30 624 C 58.304 1.64791 3.95004 0
M  V30 625 C 57.63 1.0897 5.23478 0
M  V30 626 C 58.93 3.03999 4.24714 0
M  V30 627 H 60.624 1.96119 2.26225 0
M  V30 628 H 58.17 0.944344 1.08711 0
M  V30 629 H 60.123 0.467777 4.18796 0
M  V30 630 H 58.847 -0.344786 3.24775 0
M  V30 631 H 57.506 1.78721 3.20085 0
M  V30 632 H 57.154 0.11686 5.02864 0
M  V30 633 H 56.854 1.77704 5.60085 0
M  V30 634 H 58.378 0.950093 6.03163 0
M  V30 635 H 59.792 2.93393 4.92538 0
M  V30 636 H 58.189 3.69936 4.72512 0
M  V30 637 H 59.259 3.53285 3.32142 0
M  V30 638 N 60.6021 -1.18246 1.0419 0
M  V30 639 C 61.8301 -1.92195 0.766072 0
M  V30 640 C 62.2451 -1.76247 -0.676933 0
M  V30 641 O 61.6021 -1.09293 -1.46155 0
M  V30 642 C 61.6531 -3.43568 1.12442 0
M  V30 643 O 61.3741 -3.59015 2.51078 0
M  V30 644 C 62.8751 -4.34613 0.873275 0
M  V30 645 H 60.0951 -0.610114 0.279288 0
M  V30 646 H 62.6391 -1.50007 1.38989 0
M  V30 647 H 60.7941 -3.8354 0.545542 0
M  V30 648 H 61.2081 -4.5273 2.64831 0
M  V30 649 H 62.6821 -5.39374 1.17385 0
M  V30 650 H 63.1591 -4.38781 -0.191909 0
M  V30 651 H 63.7651 -4.00341 1.43551 0
M  V30 652 N 62.0802 -0.821533 -1.34494 0
M  V30 653 C 63.0122 -0.199946 -2.28326 0
M  V30 654 C 64.0252 0.609377 -1.50965 0
M  V30 655 O 65.2142 0.439285 -1.7301 0
M  V30 656 C 62.3142 0.738431 -3.30757 0
M  V30 657 C 61.4872 -0.0277632 -4.37391 0
M  V30 658 C 60.5462 0.831332 -5.19591 0
M  V30 659 O 59.5722 0.276822 -5.68526 0
M  V30 660 N 60.7742 2.15132 -5.39165 0
M  V30 661 H 63.5392 -1.00609 -2.82308 0
M  V30 662 H 61.1002 -0.678366 -1.47003 0
M  V30 663 H 63.0922 1.31773 -3.82646 0
M  V30 664 H 61.6622 1.44533 -2.7718 0
M  V30 665 H 60.8822 -0.788359 -3.86236 0
M  V30 666 H 62.1702 -0.555251 -5.05761 0
M  V30 667 H 61.5682 2.62559 -5.01078 0
M  V30 668 H 60.1252 2.6795 -5.94177 0
M  V30 669 N 63.5583 1.46682 -0.576371 0
M  V30 670 C 64.8073 2.01619 -0.0572825 0
M  V30 671 C 65.1203 1.45417 1.30818 0
M  V30 672 O 66.3263 1.92133 1.91825 0
M  V30 673 C 64.7823 3.59863 -0.0518371 0
M  V30 674 C 64.3903 4.25059 -1.41523 0
M  V30 675 C 66.1343 4.2248 0.413639 0
M  V30 676 C 64.0413 5.75364 -1.36785 0
M  V30 677 H 62.9713 0.753794 -0.0176448 0
M  V30 678 H 65.6223 1.68481 -0.727076 0
M  V30 679 H 64.0043 3.90048 0.683994 0
M  V30 680 H 65.1783 4.06491 -2.17029 0
M  V30 681 H 63.4933 3.7451 -1.8202 0
M  V30 682 H 66.0903 5.3265 0.467779 0
M  V30 683 H 66.4333 3.90976 1.42982 0
M  V30 684 H 66.9663 3.96897 -0.267929 0
M  V30 685 H 63.7053 6.11518 -2.36063 0
M  V30 686 H 63.2253 5.96214 -0.654895 0
M  V30 687 H 64.9043 6.37955 -1.07805 0
M  V30 688 N 65.0364 0.313813 1.54444 0
M  V30 689 C 65.9844 -0.572171 2.25453 0
M  V30 690 C 66.9784 -1.12657 1.2651 0
M  V30 691 O 68.1844 -1.07573 1.44319 0
M  V30 692 H 64.5594 -0.203146 0.724041 0
M  V30 693 H 66.5304 0.0491145 2.9836 0
M  V30 694 C 65.2794 -1.72626 3.0182 0
M  V30 695 H 64.6024 -1.30891 3.77767 0
M  V30 696 H 66.0424 -2.32199 3.54767 0
M  V30 697 C 64.5014 -2.63806 2.09542 0
M  V30 698 O 65.0314 -3.65256 1.67185 0
M  V30 699 N 63.2374 -2.31824 1.75232 0
M  V30 700 H 62.7844 -1.49368 2.09873 0
M  V30 701 H 62.7424 -2.93095 1.13767 0
M  V30 702 N 66.5145 -1.57545 0.0417849 0
M  V30 703 C 67.7605 -1.92601 -0.635021 0
M  V30 704 C 68.0935 -0.919627 -1.71045 0
M  V30 705 O 67.3685 0.0557892 -1.9442 0
M  V30 706 C 67.6515 -3.38085 -1.23979 0
M  V30 707 C 67.5045 -4.49467 -0.173057 0
M  V30 708 C 68.8235 -3.83776 -2.15416 0
M  V30 709 H 65.9425 -0.700397 -0.229374 0
M  V30 710 H 68.5845 -1.89728 0.101633 0
M  V30 711 H 66.7345 -3.40664 -1.86762 0
M  V30 712 H 68.4065 -4.59018 0.458312 0
M  V30 713 H 66.6495 -4.30909 0.499996 0
M  V30 714 H 67.3205 -5.48323 -0.636054 0
M  V30 715 H 69.7965 -3.83013 -1.62605 0
M  V30 716 H 68.6725 -4.8624 -2.54679 0
M  V30 717 H 68.9335 -3.19998 -3.05047 0
M  V30 718 N 67.9926 0.231505 -1.5589 0
M  V30 719 C 68.9426 1.29007 -1.87993 0
M  V30 720 C 69.9266 1.42764 -0.742102 0
M  V30 721 O 71.1186 1.45747 -1.00433 0
M  V30 722 C 68.2476 2.6425 -2.1915 0
M  V30 723 C 67.3336 2.54435 -3.39299 0
M  V30 724 N 67.7246 2.14262 -4.58176 0
M  V30 725 C 66.0226 2.85416 -3.42715 0
M  V30 726 C 66.7236 2.15455 -5.40328 0
M  V30 727 N 65.6996 2.55558 -4.79783 0
M  V30 728 H 69.5016 0.970213 -2.77424 0
M  V30 729 H 67.0156 0.440097 -1.56323 0
M  V30 730 H 69.0126 3.40665 -2.40319 0
M  V30 731 H 67.6726 2.9709 -1.31025 0
M  V30 732 H 68.6836 1.85554 -4.83518 0
M  V30 733 H 65.3606 3.22693 -2.64906 0
M  V30 734 H 66.7506 1.86605 -6.45467 0
M  V30 735 N 69.4707 1.49531 0.497807 0
M  V30 736 C 70.7007 1.62657 1.27382 0
M  V30 737 C 71.1087 0.298488 1.86831 0
M  V30 738 O 70.4517 -0.72647 1.68725 0
M  V30 739 C 70.5137 2.6393 2.44093 0
M  V30 740 C 70.1777 4.08195 2.05489 0
M  V30 741 C 71.1747 4.949 1.59279 0
M  V30 742 C 68.8597 4.53948 2.15026 0
M  V30 743 C 70.8537 6.25397 1.23113 0
M  V30 744 C 68.5407 5.84458 1.78473 0
M  V30 745 C 69.5387 6.70006 1.32591 0
M  V30 746 O 69.2267 7.98083 0.965327 0
M  V30 747 H 68.9587 0.550429 0.392434 0
M  V30 748 H 71.5127 1.96325 0.603801 0
M  V30 749 H 69.7427 2.25449 3.14181 0
M  V30 750 H 71.4317 2.66552 3.06113 0
M  V30 751 H 72.1977 4.60779 1.51354 0
M  V30 752 H 68.0767 3.87525 2.4969 0
M  V30 753 H 71.6207 6.92125 0.872299 0
M  V30 754 H 67.5177 6.18107 1.86048 0
M  V30 755 H 68.2857 8.11122 1.09652 0
M  V30 756 N 70.9488 -0.749086 1.3866 0
M  V30 757 C 72.1968 -1.50535 1.34847 0
M  V30 758 C 72.5178 -1.94909 -0.0595016 0
M  V30 759 O 71.7878 -1.67973 -1.00806 0
M  V30 760 H 70.3678 -0.558395 0.49619 0
M  V30 761 H 73.0298 -0.890165 1.73384 0
M  V30 762 H 72.1258 -2.39413 2.00219 0
M  V30 763 N 72.4269 -1.23603 -0.977757 0
M  V30 764 C 73.6749 -1.06759 -1.71601 0
M  V30 765 C 73.9959 0.395929 -1.90938 0
M  V30 766 O 73.2659 1.28356 -1.47992 0
M  V30 767 H 71.8459 -0.392062 -0.635843 0
M  V30 768 H 74.5079 -1.55362 -1.1768 0
M  V30 769 H 73.6039 -1.55763 -2.70452 0
M  V30 770 N 73.905 1.17692 -1.04816 0
M  V30 771 C 75.151 1.88137 -0.75711 0
M  V30 772 C 75.484 1.80604 0.713841 0
M  V30 773 O 74.759 1.21146 1.52164 0
M  V30 774 C 75.042 3.38318 -1.2334 0
M  V30 775 C 74.895 3.54622 -2.76701 0
M  V30 776 C 76.214 4.32214 -0.829415 0
M  V30 777 H 73.333 0.683163 -0.27651 0
M  V30 778 H 75.975 1.38424 -1.30149 0
M  V30 779 H 74.125 3.80787 -0.770286 0
M  V30 780 H 75.797 3.21194 -3.31107 0
M  V30 781 H 74.04 2.97026 -3.16161 0
M  V30 782 H 74.711 4.60028 -3.05088 0
M  V30 783 H 77.187 3.97565 -1.22805 0
M  V30 784 H 76.063 5.35838 -1.19033 0
M  V30 785 H 76.324 4.41294 0.266891 0
M  V30 786 N 75.3831 0.828654 1.34056 0
M  V30 787 C 76.3151 0.212052 2.28217 0
M  V30 788 C 77.3281 -0.601362 1.51286 0
M  V30 789 O 78.5171 -0.430104 1.73241 0
M  V30 790 C 75.6171 -0.72088 3.31144 0
M  V30 791 C 74.7901 0.0509587 4.3737 0
M  V30 792 C 73.8491 -0.803766 5.20025 0
M  V30 793 O 72.8751 -0.246667 5.68665 0
M  V30 794 N 74.0771 -2.1227 5.40298 0
M  V30 795 H 76.8421 1.02105 2.81771 0
M  V30 796 H 74.4031 0.686153 1.46641 0
M  V30 797 H 76.3951 -1.29742 3.8334 0
M  V30 798 H 74.9651 -1.43061 2.77943 0
M  V30 799 H 74.1851 0.808831 3.85813 0
M  V30 800 H 75.4731 0.582065 5.0546 0
M  V30 801 H 74.8711 -2.59898 5.02464 0
M  V30 802 H 73.4281 -2.64796 5.95589 0
M  V30 803 N 76.8612 -1.46375 0.584142 0
M  V30 804 C 77.8092 -2.32042 -0.161047 0
M  V30 805 C 78.8032 -1.44569 -0.882966 0
M  V30 806 O 80.0092 -1.61186 -0.801191 0
M  V30 807 H 76.3842 -0.748659 -0.0708033 0
M  V30 808 H 78.3552 -2.92704 0.580269 0
M  V30 809 C 77.1042 -3.27762 -1.1605 0
M  V30 810 H 76.4272 -3.95051 -0.614419 0
M  V30 811 H 77.8672 -3.90481 -1.65228 0
M  V30 812 C 76.3262 -2.53218 -2.22221 0
M  V30 813 O 76.8562 -2.29628 -3.29597 0
M  V30 814 N 75.0622 -2.13756 -1.96868 0
M  V30 815 H 74.6092 -2.33142 -1.09557 0
M  V30 816 H 74.5672 -1.642 -2.68115 0
M  V30 817 N 78.3393 -0.321999 -1.54275 0
M  V30 818 C 79.2693 0.537411 -2.27231 0
M  V30 819 C 80.2503 1.12064 -1.27968 0
M  V30 820 O 81.4353 1.14606 -1.56777 0
M  V30 821 C 78.5653 1.69919 -3.02894 0
M  V30 822 C 77.5193 1.24534 -4.09482 0
M  V30 823 C 76.8453 2.49394 -4.72977 0
M  V30 824 C 78.1453 0.361335 -5.21049 0
M  V30 825 H 79.8393 -0.0711406 -2.99315 0
M  V30 826 H 77.3853 -0.0356555 -1.43956 0
M  V30 827 H 79.3383 2.30668 -3.52662 0
M  V30 828 H 78.0623 2.33431 -2.28424 0
M  V30 829 H 76.7213 0.660782 -3.60596 0
M  V30 830 H 76.3693 3.11265 -3.95124 0
M  V30 831 H 76.0693 2.19718 -5.44975 0
M  V30 832 H 77.5933 3.10908 -5.25517 0
M  V30 833 H 79.0073 0.875072 -5.66582 0
M  V30 834 H 77.4043 0.157428 -5.99893 0
M  V30 835 H 78.4743 -0.60822 -4.8107 0
M  V30 836 N 79.8174 1.5752 -0.0501392 0
M  V30 837 C 81.0574 1.94521 0.627783 0
M  V30 838 C 81.4214 0.928265 1.68069 0
M  V30 839 O 82.6224 1.18517 2.41261 0
M  V30 840 C 80.8934 3.36319 1.20932 0
M  V30 841 S 82.4524 3.95272 1.90539 0
M  V30 842 H 79.2704 0.680456 0.206158 0
M  V30 843 H 81.8724 1.95139 -0.118829 0
M  V30 844 H 80.5764 4.08132 0.430865 0
M  V30 845 H 80.1074 3.39193 1.99277 0
M  V30 846 H 82.1224 3.80415 3.18589 0
M  V30 847 N 81.2955 -0.223234 1.56011 0
M  V30 848 C 82.5205 -0.968978 1.83373 0
M  V30 849 C 82.9455 -1.77227 0.630254 0
M  V30 850 O 82.3035 -1.76345 -0.420959 0
M  V30 851 C 82.3515 -1.86363 3.08709 0
M  V30 852 O 81.4555 -2.95873 2.87285 0
M  V30 853 H 80.7965 -0.274461 0.604622 0
M  V30 854 H 83.3265 -0.237056 2.03222 0
M  V30 855 H 83.3365 -2.27376 3.38768 0
M  V30 856 H 82.0115 -1.27319 3.95933 0
M  V30 857 H 80.5885 -2.58818 2.68454 0
M  V30 858 N 82.7736 -1.49793 -0.48987 0
M  V30 859 C 84.1896 -1.36803 -0.822022 0
M  V30 860 C 84.3896 -0.409652 -1.97292 0
M  V30 861 O 83.4456 0.154614 -2.52026 0
M  V30 862 C 84.7586 -2.77768 -1.15175 0
M  V30 863 C 86.3066 -2.86549 -1.25931 0
M  V30 864 C 86.7816 -4.28306 -1.62228 0
M  V30 865 N 88.2726 -4.31169 -1.69256 0
M  V30 866 C 89.0076 -5.37832 -1.98807 0
M  V30 867 N 88.5036 -6.54726 -2.26507 0
M  V30 868 N 90.2966 -5.25258 -2.00152 0
M  V30 869 H 82.4476 -2.10691 0.268881 0
M  V30 870 H 84.7106 -0.946241 0.057728 0
M  V30 871 H 84.4166 -3.49648 -0.379335 0
M  V30 872 H 84.2906 -3.13836 -2.09253 0
M  V30 873 H 86.6776 -2.14899 -2.02243 0
M  V30 874 H 86.7586 -2.54049 -0.298776 0
M  V30 875 H 86.4026 -5.00486 -0.864622 0
M  V30 876 H 86.3326 -4.58279 -2.594 0
M  V30 877 H 88.8236 -3.4687 -1.49965 0
M  V30 878 H 89.1366 -7.31833 -2.48276 0
M  V30 879 H 87.4816 -6.57933 -2.23939 0
M  V30 880 H 90.6726 -4.32938 -1.77996 0
M  V30 881 H 90.8456 -6.08476 -2.22848 0
M  V30 882 N 84.2517 0.741722 -1.39055 0
M  V30 883 C 85.1817 1.869 -1.39966 0
M  V30 884 C 86.1627 1.6804 -0.26392 0
M  V30 885 O 87.3477 1.88458 -0.468755 0
M  V30 886 C 84.4777 3.24572 -1.23574 0
M  V30 887 C 83.4317 3.58056 -2.34477 0
M  V30 888 C 82.7577 4.94593 -2.0318 0
M  V30 889 C 84.0577 3.61716 -3.76774 0
M  V30 890 H 85.7517 1.86395 -2.34302 0
M  V30 891 H 83.2977 0.895361 -1.1278 0
M  V30 892 H 85.2507 4.031 -1.22834 0
M  V30 893 H 83.9747 3.25587 -0.257045 0
M  V30 894 H 82.6337 2.81854 -2.34423 0
M  V30 895 H 82.2817 4.92181 -1.03765 0
M  V30 896 H 81.9817 5.17964 -2.77465 0
M  V30 897 H 83.5057 5.75486 -2.04079 0
M  V30 898 H 84.9197 4.30335 -3.78794 0
M  V30 899 H 83.3167 3.96603 -4.50362 0
M  V30 900 H 84.3867 2.61672 -4.08235 0
M  V30 901 N 85.7298 1.2412 0.971189 0
M  V30 902 C 86.6768 1.0305 2.06517 0
M  V30 903 C 87.6468 -0.0550666 1.66009 0
M  V30 904 O 88.8318 0.0988688 1.90544 0
M  V30 905 C 85.9718 0.637653 3.39158 0
M  V30 906 C 85.0848 1.79633 3.92882 0
M  V30 907 C 84.2198 1.34939 5.13775 0
M  V30 908 C 83.2588 2.47823 5.59687 0
M  V30 909 N 82.3958 2.04022 6.71803 0
M  V30 910 H 87.2358 1.96685 2.23873 0
M  V30 911 H 84.7728 0.979694 1.09729 0
M  V30 912 H 86.7308 0.390931 4.15364 0
M  V30 913 H 85.3608 -0.261693 3.21737 0
M  V30 914 H 84.4128 2.15681 3.13346 0
M  V30 915 H 85.7248 2.64466 4.22918 0
M  V30 916 H 84.8788 1.06134 5.97345 0
M  V30 917 H 83.6178 0.471557 4.85415 0
M  V30 918 H 82.6228 2.77392 4.74693 0
M  V30 919 H 83.8478 3.36158 5.90063 0
M  V30 920 H 81.7938 1.18632 6.45184 0
M  V30 921 H 81.7108 2.82409 7.01271 0
M  V30 922 H 82.9788 1.78347 7.58823 0
M  V30 923 N 87.2079 -1.17134 1.05439 0
M  V30 924 C 88.4359 -1.91372 0.786414 0
M  V30 925 C 88.8509 -1.76955 -0.658202 0
M  V30 926 O 88.2079 -1.10838 -1.44987 0
M  V30 927 C 88.2589 -3.42356 1.1608 0
M  V30 928 O 87.9799 -3.56332 2.54871 0
M  V30 929 C 89.4809 -4.33663 0.919322 0
M  V30 930 H 86.7009 -0.607118 0.285743 0
M  V30 931 H 89.2449 -1.48525 1.40572 0
M  V30 932 H 87.3999 -3.82939 0.586191 0
M  V30 933 H 87.8139 -4.49896 2.69618 0
M  V30 934 H 89.2879 -5.38099 1.231 0
M  V30 935 H 89.7649 -4.38959 -0.145359 0
M  V30 936 H 90.3709 -3.98796 1.47789 0
M  V30 937 N 88.686 -0.835752 -1.33615 0
M  V30 938 C 89.911 -0.442389 -2.02627 0
M  V30 939 C 90.336 0.947735 -1.62479 0
M  V30 940 O 89.694 1.61907 -0.815826 0
M  V30 941 C 89.742 -0.567216 -3.56111 0
M  V30 942 O 88.846 0.407799 -4.10379 0
M  V30 943 H 88.187 -0.180278 -0.639059 0
M  V30 944 H 90.717 -1.12972 -1.70583 0
M  V30 945 H 90.727 -0.447708 -4.05536 0
M  V30 946 H 89.402 -1.58103 -3.84677 0
M  V30 947 H 87.979 0.246107 -3.72087 0
M  V30 948 N 90.1641 1.46063 -0.591896 0
M  V30 949 C 91.5751 1.85944 -0.167822 0
M  V30 950 C 91.9261 1.49429 1.27143 0
M  V30 951 O 91.0511 0.913515 1.96173 0
M  V30 952 C 91.6461 3.37489 -0.297794 0
M  V30 953 C 90.2051 3.76332 0.0714732 0
M  V30 954 C 89.3521 2.7006 -0.629509 0
M  V30 955 H 92.3031 1.37087 -0.799555 0
M  V30 956 H 92.3241 3.77532 0.474349 0
M  V30 957 H 91.8361 3.64034 -1.3454 0
M  V30 958 H 89.9371 3.55405 1.11886 0
M  V30 959 H 90.0501 4.78088 -0.311245 0
M  V30 960 H 88.4141 2.54607 -0.0687867 0
M  V30 961 H 89.1971 2.99444 -1.67894 0
M  V30 962 N 91.6422 0.330177 1.54103 0
M  V30 963 C 92.8882 -0.270806 2.00984 0
M  V30 964 C 93.2212 -1.51265 1.21789 0
M  V30 965 O 92.4962 -1.92142 0.301927 0
M  V30 966 C 92.7792 -0.598339 3.55094 0
M  V30 967 C 92.6322 0.654674 4.4501 0
M  V30 968 C 93.9512 -1.41334 4.16789 0
M  V30 969 H 91.0702 -0.0969531 0.730595 0
M  V30 970 H 93.7122 0.448066 1.84641 0
M  V30 971 H 91.8622 -1.21078 3.69151 0
M  V30 972 H 93.5342 1.29285 4.42813 0
M  V30 973 H 91.7772 1.28224 4.14416 0
M  V30 974 H 92.4482 0.380944 5.50684 0
M  V30 975 H 94.9242 -0.895597 4.06347 0
M  V30 976 H 93.8002 -1.61127 5.24718 0
M  V30 977 H 94.0612 -2.41146 3.70541 0
M  V30 978 N 93.1203 -1.57491 0.0584922 0
M  V30 979 C 94.0303 -2.15448 -0.928414 0
M  V30 980 C 95.0463 -1.11416 -1.3365 0
M  V30 981 O 96.2223 -1.4362 -1.41193 0
M  V30 982 C 93.2873 -2.69393 -2.18239 0
M  V30 983 C 92.3483 -3.88249 -1.83196 0
M  V30 984 C 91.5813 -4.39613 -3.02616 0
M  V30 985 O 91.8043 -3.90023 -4.16219 0
M  V30 986 O 90.7383 -5.31111 -2.83204 0
M  V30 987 H 94.5643 -3.00112 -0.465483 0
M  V30 988 H 92.1493 -1.48499 -0.163826 0
M  V30 989 H 94.0313 -3.04026 -2.91798 0
M  V30 990 H 92.7063 -1.87796 -2.63656 0
M  V30 991 H 91.6133 -3.58492 -1.06931 0
M  V30 992 H 92.9463 -4.71098 -1.42573 0
M  V30 993 N 94.5984 0.214957 -1.56127 0
M  V30 994 C 95.8464 0.936518 -1.79091 0
M  V30 995 C 96.1674 1.84606 -0.628148 0
M  V30 996 O 95.4374 1.92664 0.35462 0
M  V30 997 H 94.0174 0.3488 -0.660566 0
M  V30 998 H 96.6794 0.22523 -1.93594 0
M  V30 999 H 95.7754 1.53943 -2.71492 0
M  V30 1000 N 96.0765 1.50051 0.48192 0
M  V30 1001 C 97.0065 1.71046 1.58951 0
M  V30 1002 C 97.9875 0.559288 1.60642 0
M  V30 1003 O 99.1725 0.797243 1.77081 0
M  V30 1004 C 96.3025 1.79462 2.97339 0
M  V30 1005 C 95.2565 2.94558 3.10515 0
M  V30 1006 C 94.5825 2.88105 4.50444 0
M  V30 1007 C 95.8825 4.35227 2.88747 0
M  V30 1008 H 97.5765 2.6378 1.41635 0
M  V30 1009 H 95.1225 1.26936 0.679942 0
M  V30 1010 H 97.0755 1.92734 3.74742 0
M  V30 1011 H 95.7995 0.833412 3.15788 0
M  V30 1012 H 94.4585 2.80918 2.35543 0
M  V30 1013 H 94.1065 1.89853 4.65795 0
M  V30 1014 H 93.8065 3.65366 4.60197 0
M  V30 1015 H 95.3305 3.03412 5.29881 0
M  V30 1016 H 96.7445 4.49449 3.55905 0
M  V30 1017 H 95.1415 5.13856 3.09955 0
M  V30 1018 H 96.2115 4.48347 1.84696 0
M  V30 1019 N 97.5546 -0.734337 1.39446 0
M  V30 1020 C 98.7796 -1.52866 1.40167 0
M  V30 1021 C 99.2046 -1.881 -0.00171513 0
M  V30 1022 O 98.5626 -1.51957 -0.988879 0
M  V30 1023 C 98.6106 -2.79235 2.28167 0
M  V30 1024 O 97.7146 -3.75185 1.71201 0
M  V30 1025 H 97.0556 -0.461618 0.477289 0
M  V30 1026 H 99.5856 -0.905949 1.8345 0
M  V30 1027 H 99.5956 -3.27963 2.42702 0
M  V30 1028 H 98.2706 -2.52923 3.30156 0
M  V30 1029 H 96.8476 -3.33958 1.65912 0
M  V30 1030 N 99.0327 -1.24633 -0.964593 0
M  V30 1031 C 100.281 -1.08573 -1.70459 0
M  V30 1032 C 100.602 0.375655 -1.91347 0
M  V30 1033 O 99.8717 1.26779 -1.49345 0
M  V30 1034 H 98.4517 -0.398784 -0.631649 0
M  V30 1035 H 101.114 -1.56601 -1.16026 0
M  V30 1036 H 100.21 -1.58623 -2.68785 0
M  V30 1037 N 100.511 1.16574 -1.06058 0
M  V30 1038 C 101.459 2.22941 -0.663343 0
M  V30 1039 C 102.453 1.66358 0.319593 0
M  V30 1040 O 103.659 1.7905 0.184713 0
M  V30 1041 H 100.034 0.725907 -0.196376 0
M  V30 1042 H 102.005 2.53736 -1.57037 0
M  V30 1043 C 100.754 3.47642 -0.0632808 0
M  V30 1044 H 100.077 3.91493 -0.810733 0
M  V30 1045 H 101.517 4.2363 0.177177 0
M  V30 1046 C 99.9758 3.1509 1.19248 0
M  V30 1047 O 100.506 3.30673 2.28075 0
M  V30 1048 N 98.7118 2.6924 1.09353 0
M  V30 1049 H 98.2588 2.5676 0.207912 0
M  V30 1050 H 98.2168 2.47833 1.93458 0
M  V30 1051 N 101.989 0.842826 1.3317 0
M  V30 1052 C 103.4 0.496651 1.79973 0
M  V30 1053 C 103.751 -0.984641 1.69703 0
M  V30 1054 O 102.876 -1.76743 1.24863 0
M  V30 1055 C 103.471 0.894727 3.26772 0
M  V30 1056 C 102.03 0.600629 3.71577 0
M  V30 1057 C 101.177 1.10091 2.5451 0
M  V30 1058 H 104.128 1.03116 1.20635 0
M  V30 1059 H 104.149 0.206347 3.7994 0
M  V30 1060 H 103.661 1.97287 3.34215 0
M  V30 1061 H 101.762 -0.467284 3.69658 0
M  V30 1062 H 101.875 1.15863 4.64879 0
M  V30 1063 H 100.239 0.52162 2.49301 0
M  V30 1064 H 101.022 2.18591 2.64713 0
M  V30 1065 N 103.467 -1.45747 0.599634 0
M  V30 1066 C 104.43 -2.28917 -0.113835 0
M  V30 1067 C 105.43 -1.3933 -0.802729 0
M  V30 1068 O 106.62 -1.61534 -0.652103 0
M  V30 1069 C 103.752 -3.20152 -1.17114 0
M  V30 1070 H 104.945 -2.93478 0.617289 0
M  V30 1071 H 102.498 -1.52137 0.358327 0
M  V30 1072 H 103.233 -2.60374 -1.93329 0
M  V30 1073 H 103.018 -3.86133 -0.681468 0
M  V30 1074 H 104.508 -3.82708 -1.67105 0
M  V30 1075 N 104.945 -0.338344 -1.53925 0
M  V30 1076 C 106.222 0.314774 -1.93051 0
M  V30 1077 C 106.602 1.68669 -1.26941 0
M  V30 1078 O 105.95 2.24636 -0.418445 0
M  V30 1079 C 106.16 0.392249 -3.46789 0
M  V30 1080 C 107.508 0.645554 -4.19664 0
M  V30 1081 O 108.532 0.474575 -3.53024 0
M  V30 1082 O 107.391 0.976408 -5.37707 0
M  V30 1083 H 104.485 0.182598 -0.80659 0
M  V30 1084 H 107.031 -0.389141 -1.65178 0
M  V30 1085 H 105.803 -0.570702 -3.87116 0
M  V30 1086 H 105.426 1.14316 -3.80812 0
M  V30 1087 N 106.423 1.57458 -0.0668435 0
M  V30 1088 C 107.353 2.15468 0.899764 0
M  V30 1089 C 108.334 1.08042 1.31381 0
M  V30 1090 O 109.519 1.36054 1.38574 0
M  V30 1091 C 106.649 2.71232 2.16911 0
M  V30 1092 C 105.603 3.83781 1.89463 0
M  V30 1093 C 104.929 4.26127 3.22986 0
M  V30 1094 C 106.229 5.08238 1.20381 0
M  V30 1095 H 107.923 2.96488 0.416529 0
M  V30 1096 H 105.469 1.4262 0.198908 0
M  V30 1097 H 107.422 3.10458 2.84945 0
M  V30 1098 H 106.146 1.87426 2.67468 0
M  V30 1099 H 104.805 3.45051 1.23836 0
M  V30 1100 H 104.453 3.39249 3.71374 0
M  V30 1101 H 104.153 5.01993 3.05413 0
M  V30 1102 H 105.677 4.67966 3.92225 0
M  V30 1103 H 107.091 5.44811 1.78475 0
M  V30 1104 H 105.488 5.89349 1.13083 0
M  V30 1105 H 106.558 4.84558 0.182153 0
M  V30 1106 N 107.901 -0.206675 1.56239 0
M  V30 1107 C 108.811 -1.27686 1.96808 0
M  V30 1108 C 109.827 -1.50455 0.874035 0
M  V30 1109 O 111.003 -1.63295 1.17884 0
M  V30 1110 C 108.068 -2.60358 2.28942 0
M  V30 1111 C 107.129 -2.45762 3.51994 0
M  V30 1112 C 106.362 -3.72108 3.82585 0
M  V30 1113 O 106.585 -4.75776 3.14631 0
M  V30 1114 O 105.519 -3.6833 4.76043 0
M  V30 1115 H 109.345 -0.962593 2.88041 0
M  V30 1116 H 106.93 -0.410746 1.43643 0
M  V30 1117 H 108.812 -3.38687 2.50737 0
M  V30 1118 H 107.487 -2.91435 1.4088 0
M  V30 1119 H 106.394 -1.65584 3.35459 0
M  V30 1120 H 107.727 -2.19621 4.40486 0
M  V30 1121 N 109.379 -1.50304 -0.473955 0
M  V30 1122 C 110.326 -1.68959 -1.57231 0
M  V30 1123 C 111.296 -0.530899 -1.57387 0
M  V30 1124 O 112.481 -0.761133 -1.74961 0
M  V30 1125 C 109.621 -1.7871 -2.95223 0
M  V30 1126 C 108.734 -3.06061 -3.04878 0
M  V30 1127 C 107.869 -3.06626 -4.33767 0
M  V30 1128 C 106.908 -4.28443 -4.37154 0
M  V30 1129 N 106.045 -4.26763 -5.5751 0
M  V30 1130 H 110.885 -2.6273 -1.40631 0
M  V30 1131 H 108.422 -1.30241 -0.683789 0
M  V30 1132 H 110.38 -1.82344 -3.75242 0
M  V30 1133 H 109.01 -0.883806 -3.10465 0
M  V30 1134 H 108.062 -3.11911 -2.17751 0
M  V30 1135 H 109.374 -3.96039 -3.0324 0
M  V30 1136 H 108.528 -3.08973 -5.22131 0
M  V30 1137 H 107.267 -2.14473 -4.3801 0
M  V30 1138 H 106.272 -4.2631 -3.47188 0
M  V30 1139 H 107.497 -5.2182 -4.34605 0
M  V30 1140 H 105.443 -3.37462 -5.62544 0
M  V30 1141 H 105.36 -5.10507 -5.57601 0
M  V30 1142 H 106.628 -4.33253 -6.48006 0
M  V30 1143 N 110.857 0.726932 -1.39834 0
M  V30 1144 C 112.273 1.03354 -1.21615 0
M  V30 1145 C 112.473 2.01327 -0.08338 0
M  V30 1146 O 111.529 2.46158 0.56238 0
M  V30 1147 C 112.842 1.58811 -2.55342 0
M  V30 1148 C 114.39 1.70851 -2.62257 0
M  V30 1149 C 114.865 2.29716 -3.96225 0
M  V30 1150 N 116.356 2.37116 -3.97907 0
M  V30 1151 C 117.091 2.83619 -4.98345 0
M  V30 1152 N 116.587 3.29958 -6.09179 0
M  V30 1153 N 118.38 2.82901 -4.8572 0
M  V30 1154 H 110.531 0.0773069 -2.12259 0
M  V30 1155 H 112.794 0.0969102 -0.943034 0
M  V30 1156 H 112.5 0.942855 -3.38826 0
M  V30 1157 H 112.374 2.57502 -2.75632 0
M  V30 1158 H 114.761 2.34497 -1.79152 0
M  V30 1159 H 114.842 0.707913 -2.45809 0
M  V30 1160 H 114.486 1.66696 -4.79765 0
M  V30 1161 H 114.416 3.30469 -4.09997 0
M  V30 1162 H 116.907 2.04374 -3.17868 0
M  V30 1163 H 117.22 3.63976 -6.8172 0
M  V30 1164 H 115.565 3.27946 -6.12761 0
M  V30 1165 H 118.756 2.46027 -3.98231 0
M  V30 1166 H 118.929 3.18827 -5.6414 0
M  V30 1167 N 112.336 1.25143 0.95797 0
M  V30 1168 C 113.752 1.01892 1.22842 0
M  V30 1169 C 113.952 -0.266311 1.99732 0
M  V30 1170 O 113.008 -0.979913 2.3271 0
M  V30 1171 C 114.321 2.24004 2.00606 0
M  V30 1172 C 115.869 2.28731 2.13662 0
M  V30 1173 C 116.344 3.5049 2.94823 0
M  V30 1174 N 117.835 3.50866 3.02403 0
M  V30 1175 C 118.57 4.4174 3.65586 0
M  V30 1176 N 118.066 5.42882 4.30408 0
M  V30 1177 N 119.859 4.29429 3.62694 0
M  V30 1178 H 112.01 2.07718 0.443493 0
M  V30 1179 H 114.273 0.912031 0.258657 0
M  V30 1180 H 113.979 3.17395 1.51503 0
M  V30 1181 H 113.853 2.26907 3.01319 0
M  V30 1182 H 116.24 1.35865 2.61963 0
M  V30 1183 H 116.321 2.29848 1.12265 0
M  V30 1184 H 115.965 4.43676 2.47213 0
M  V30 1185 H 115.895 3.46617 3.96439 0
M  V30 1186 H 118.386 2.777 2.56302 0
M  V30 1187 H 118.699 6.0844 4.76467 0
M  V30 1188 H 117.044 5.46758 4.29047 0
M  V30 1189 H 120.235 3.49643 3.11236 0
M  V30 1190 H 120.408 5.00448 4.1165 0
M  V30 1191 N 113.814 -1.1601 1.06675 0
M  V30 1192 C 114.746 -2.20115 0.638921 0
M  V30 1193 C 115.759 -1.59916 -0.305057 0
M  V30 1194 O 116.948 -1.78245 -0.0954446 0
M  V30 1195 C 114.048 -3.38798 -0.0830083 0
M  V30 1196 C 113.221 -4.2855 0.875426 0
M  V30 1197 C 112.28 -5.25849 0.192042 0
M  V30 1198 O 111.306 -5.63102 0.830921 0
M  V30 1199 N 112.508 -5.70648 -1.06493 0
M  V30 1200 H 115.273 -2.57439 1.53444 0
M  V30 1201 H 112.834 -1.31057 0.950557 0
M  V30 1202 H 114.826 -4.00936 -0.550685 0
M  V30 1203 H 113.396 -2.99947 -0.880386 0
M  V30 1204 H 112.616 -3.63617 1.52238 0
M  V30 1205 H 113.904 -4.85393 1.52548 0
M  V30 1206 H 113.302 -5.42482 -1.60405 0
M  V30 1207 H 111.859 -6.34859 -1.47641 0
M  V30 1208 N 115.292 -0.849877 -1.32721 0
M  V30 1209 C 116.538 -0.451591 -1.97708 0
M  V30 1210 C 116.871 0.989175 -1.6712 0
M  V30 1211 O 116.146 1.69334 -0.956891 0
M  V30 1212 C 116.429 -0.685598 -3.53513 0
M  V30 1213 C 116.282 -2.17444 -3.93749 0
M  V30 1214 C 117.601 -0.138874 -4.39881 0
M  V30 1215 H 114.72 -0.16555 -0.718166 0
M  V30 1216 H 117.362 -1.06742 -1.57182 0
M  V30 1217 H 115.512 -0.161416 -3.88165 0
M  V30 1218 H 117.184 -2.76433 -3.693 0
M  V30 1219 H 115.427 -2.65476 -3.43081 0
M  V30 1220 H 116.098 -2.28888 -5.02309 0
M  V30 1221 H 118.574 -0.587068 -4.11938 0
M  V30 1222 H 117.45 -0.332213 -5.47894 0
M  V30 1223 H 117.711 0.95806 -4.31594 0
M  V30 1224 N 116.77 1.45427 -0.607355 0
M  V30 1225 C 118.017 2.02241 -0.102455 0
M  V30 1226 C 118.345 1.4758 1.26691 0
M  V30 1227 O 117.6 0.640468 1.84923 0
M  V30 1228 C 117.899 3.57398 -0.0129263 0
M  V30 1229 C 117.565 4.3121 -1.31792 0
M  V30 1230 C 116.227 4.51092 -1.67539 0
M  V30 1231 C 118.579 4.73401 -2.18039 0
M  V30 1232 C 115.907 5.10422 -2.89285 0
M  V30 1233 C 118.259 5.34078 -3.39034 0
M  V30 1234 C 116.923 5.52184 -3.75033 0
M  V30 1235 H 116.193 0.740051 -0.037491 0
M  V30 1236 H 118.84 1.74494 -0.788926 0
M  V30 1237 H 117.145 3.84421 0.756806 0
M  V30 1238 H 118.842 3.99061 0.393881 0
M  V30 1239 H 115.432 4.16047 -1.02968 0
M  V30 1240 H 119.616 4.57774 -1.91721 0
M  V30 1241 H 114.872 5.22629 -3.17283 0
M  V30 1242 H 119.046 5.65724 -4.06115 0
M  V30 1243 H 116.673 5.97925 -4.69457 0
M  V30 1244 N 118.248 0.346503 1.53744 0
M  V30 1245 C 119.496 -0.248612 2.00565 0
M  V30 1246 C 119.817 -1.5083 1.23593 0
M  V30 1247 O 119.087 -1.92858 0.343912 0
M  V30 1248 H 117.667 -0.0948564 0.740953 0
M  V30 1249 H 120.329 0.468341 1.89189 0
M  V30 1250 H 119.425 -0.488994 3.08245 0
M  V30 1251 N 119.726 -1.57421 0.075193 0
M  V30 1252 C 120.676 -2.09441 -0.901025 0
M  V30 1253 C 121.66 -1.00486 -1.25663 0
M  V30 1254 O 122.852 -1.2679 -1.23504 0
M  V30 1255 C 119.981 -2.66233 -2.16737 0
M  V30 1256 C 119.067 -3.82198 -1.83808 0
M  V30 1257 N 119.458 -4.91028 -1.21345 0
M  V30 1258 C 117.756 -3.91558 -2.13538 0
M  V30 1259 C 118.457 -5.71852 -1.06585 0
M  V30 1260 N 117.433 -5.20233 -1.57667 0
M  V30 1261 H 121.235 -2.90972 -0.413815 0
M  V30 1262 H 118.749 -1.6189 -0.128601 0
M  V30 1263 H 120.746 -3.01819 -2.87595 0
M  V30 1264 H 119.406 -1.8615 -2.66042 0
M  V30 1265 H 120.417 -5.10323 -0.88268 0
M  V30 1266 H 117.094 -3.22454 -2.65197 0
M  V30 1267 H 118.484 -6.69401 -0.578933 0
M  V30 1268 N 121.204 0.198386 -1.56346 0
M  V30 1269 C 122.152 1.26538 -1.95169 0
M  V30 1270 C 123.146 1.47295 -0.836685 0
M  V30 1271 O 124.352 1.48195 -1.02167 0
M  V30 1272 H 120.727 0.424744 -0.620561 0
M  V30 1273 H 122.698 0.910904 -2.84157 0
M  V30 1274 C 121.447 2.6035 -2.30463 0
M  V30 1275 H 120.77 2.45192 -3.15786 0
M  V30 1276 H 122.21 3.33762 -2.61494 0
M  V30 1277 C 120.669 3.17096 -1.13806 0
M  V30 1278 O 121.199 3.99588 -0.41135 0
M  V30 1279 N 119.405 2.75795 -0.915736 0
M  V30 1280 H 118.952 2.08816 -1.50843 0
M  V30 1281 H 118.91 3.14101 -0.136979 0
M  V30 1282 N 122.682 1.50554 0.465978 0
M  V30 1283 C 123.928 1.62038 1.21949 0
M  V30 1284 C 124.261 0.322116 1.9151 0
M  V30 1285 O 123.536 -0.676723 1.82348 0
M  V30 1286 C 123.819 2.80421 2.25912 0
M  V30 1287 C 123.672 4.20144 1.60622 0
M  V30 1288 C 124.991 2.94354 3.27176 0
M  V30 1289 H 122.11 0.589752 0.441998 0
M  V30 1290 H 124.752 1.82956 0.51257 0
M  V30 1291 H 122.902 2.62717 2.86203 0
M  V30 1292 H 124.574 4.49449 1.03889 0
M  V30 1293 H 122.817 4.24165 0.909211 0
M  V30 1294 H 123.488 4.98914 2.36196 0
M  V30 1295 H 125.964 3.10578 2.76913 0
M  V30 1296 H 124.84 3.788 3.97242 0
M  V30 1297 H 125.101 2.05186 3.916 0
M  V30 1298 N 124.16 -0.719506 1.40217 0
M  V30 1299 C 125.409 -1.47486 1.37589 0
M  V30 1300 C 125.722 -1.9559 -0.0201568 0
M  V30 1301 O 126.928 -2.70973 -0.169049 0
M  V30 1302 C 125.384 -2.66575 2.41796 0
M  V30 1303 C 124.992 -2.25358 3.87192 0
M  V30 1304 C 126.736 -3.4433 2.48269 0
M  V30 1305 C 124.643 -3.41262 4.83005 0
M  V30 1306 H 123.573 -0.553901 0.511576 0
M  V30 1307 H 126.224 -0.783427 1.65936 0
M  V30 1308 H 124.606 -3.3787 2.06543 0
M  V30 1309 H 125.78 -1.61509 4.31569 0
M  V30 1310 H 124.095 -1.60657 3.84159 0
M  V30 1311 H 126.692 -4.30569 3.17041 0
M  V30 1312 H 127.035 -3.87872 1.51198 0
M  V30 1313 H 127.568 -2.80076 2.82493 0
M  V30 1314 H 124.307 -3.02755 5.81394 0
M  V30 1315 H 123.827 -4.0404 4.43297 0
M  V30 1316 H 125.506 -4.07383 5.02641 0
M  V30 1317 N 125.638 -1.25649 -0.95132 0
M  V30 1318 C 127.049 -1.09654 -1.51106 0
M  V30 1319 C 127.4 0.326615 -1.93462 0
M  V30 1320 O 126.525 1.21697 -1.78938 0
M  V30 1321 C 127.12 -1.98437 -2.74605 0
M  V30 1322 C 125.679 -1.86618 -3.2688 0
M  V30 1323 C 124.826 -1.9239 -1.99703 0
M  V30 1324 H 127.777 -1.38887 -0.767865 0
M  V30 1325 H 127.798 -1.5263 -3.48546 0
M  V30 1326 H 127.31 -3.02009 -2.43746 0
M  V30 1327 H 125.411 -0.859421 -3.62553 0
M  V30 1328 H 125.524 -2.71607 -3.94673 0
M  V30 1329 H 123.888 -1.36317 -2.15151 0
M  V30 1330 H 124.671 -2.97573 -1.71188 0
M  V30 1331 N 127.117 1.15442 -1.07289 0
M  V30 1332 C 128.528 1.67803 -0.818475 0
M  V30 1333 C 128.879 1.8489 0.656507 0
M  V30 1334 O 128.004 1.55176 1.50829 0
M  V30 1335 C 128.599 3.04805 -1.47917 0
M  V30 1336 C 127.158 3.54245 -1.27229 0
M  V30 1337 C 126.305 2.29986 -1.54925 0
M  V30 1338 H 129.256 0.996646 -1.23502 0
M  V30 1339 H 129.277 3.69702 -0.90005 0
M  V30 1340 H 128.789 2.92336 -2.55267 0
M  V30 1341 H 126.89 3.71956 -0.21899 0
M  V30 1342 H 127.003 4.35723 -1.99203 0
M  V30 1343 H 125.367 2.35496 -0.970242 0
M  V30 1344 H 126.15 2.20105 -2.63455 0
M  V30 1345 N 128.595 0.856903 1.32268 0
M  V30 1346 C 129.542 0.301172 2.28827 0
M  V30 1347 C 130.512 -0.593104 1.5515 0
M  V30 1348 O 131.697 -0.527537 1.83362 0
M  V30 1349 C 128.837 -0.502523 3.41422 0
M  V30 1350 C 127.95 0.417797 4.29975 0
M  V30 1351 C 127.085 -0.398749 5.29701 0
M  V30 1352 C 126.124 0.518827 6.09897 0
M  V30 1353 N 125.261 -0.260674 7.01616 0
M  V30 1354 H 130.101 1.12983 2.75751 0
M  V30 1355 H 127.638 0.568582 1.35667 0
M  V30 1356 H 129.596 -0.984141 4.05426 0
M  V30 1357 H 128.226 -1.29599 2.95642 0
M  V30 1358 H 127.278 1.01781 3.66531 0
M  V30 1359 H 128.59 1.12191 4.86019 0
M  V30 1360 H 127.744 -0.943435 5.9932 0
M  V30 1361 H 126.483 -1.13622 4.7428 0
M  V30 1362 H 125.488 1.07538 5.39181 0
M  V30 1363 H 126.713 1.25495 6.67404 0
M  V30 1364 H 124.659 -0.981198 6.4862 0
M  V30 1365 H 124.576 0.384364 7.55022 0
M  V30 1366 H 125.844 -0.787014 7.75517 0
M  V30 1367 N 130.073 -1.45103 0.615059 0
M  V30 1368 C 131.02 -2.30586 -0.0993978 0
M  V30 1369 C 131.99 -1.42544 -0.852669 0
M  V30 1370 O 133.175 -1.71465 -0.836917 0
M  V30 1371 C 130.315 -3.27572 -1.08583 0
M  V30 1372 C 129.428 -4.30717 -0.332656 0
M  V30 1373 C 128.563 -5.14807 -1.30947 0
M  V30 1374 C 127.602 -6.09673 -0.544538 0
M  V30 1375 N 126.739 -6.86517 -1.47101 0
M  V30 1376 H 131.579 -2.91144 0.635542 0
M  V30 1377 H 129.116 -1.4346 0.325206 0
M  V30 1378 H 131.074 -3.82276 -1.67095 0
M  V30 1379 H 129.704 -2.68751 -1.78809 0
M  V30 1380 H 128.756 -3.78615 0.368107 0
M  V30 1381 H 130.068 -4.98102 0.263842 0
M  V30 1382 H 129.222 -5.73948 -1.96643 0
M  V30 1383 H 127.961 -4.47458 -1.9399 0
M  V30 1384 H 126.966 -5.49656 0.126003 0
M  V30 1385 H 128.191 -6.79052 0.080947 0
M  V30 1386 H 126.137 -6.21851 -2.08895 0
M  V30 1387 H 126.054 -7.50281 -0.928137 0
M  V30 1388 H 127.322 -7.50194 -2.11731 0
M  V30 1389 N 131.551 -0.354651 -1.53558 0
M  V30 1390 C 132.962 0.126902 -1.86268 0
M  V30 1391 C 133.313 1.49075 -1.27558 0
M  V30 1392 O 132.438 2.08105 -0.5934 0
M  V30 1393 C 133.033 0.237046 -3.3797 0
M  V30 1394 C 131.592 0.662842 -3.70518 0
M  V30 1395 C 130.739 -0.196652 -2.76602 0
M  V30 1396 H 133.69 -0.573849 -1.47962 0
M  V30 1397 H 133.711 1.06259 -3.65362 0
M  V30 1398 H 133.223 -0.755725 -3.80671 0
M  V30 1399 H 131.324 1.66424 -3.33367 0
M  V30 1400 H 131.437 0.445034 -4.77029 0
M  V30 1401 H 129.801 0.332763 -2.52517 0
M  V30 1402 H 130.584 -1.18676 -3.22135 0
M  V30 1403 N 133.029 1.57378 -0.0835403 0
M  V30 1404 C 133.976 2.13384 0.879539 0
M  V30 1405 C 134.946 1.04936 1.28754 0
M  V30 1406 O 136.131 1.32662 1.37133 0
M  V30 1407 C 133.271 2.70932 2.13752 0
M  V30 1408 C 132.384 3.93575 1.7811 0
M  V30 1409 C 131.519 4.39326 2.98607 0
M  V30 1410 C 130.558 5.54587 2.59037 0
M  V30 1411 N 129.695 5.95243 3.72331 0
M  V30 1412 H 134.535 2.9537 0.395076 0
M  V30 1413 H 132.072 1.45953 0.183349 0
M  V30 1414 H 134.03 3.02411 2.87408 0
M  V30 1415 H 132.66 1.91693 2.59718 0
M  V30 1416 H 131.712 3.68483 0.94469 0
M  V30 1417 H 133.024 4.77258 1.45005 0
M  V30 1418 H 132.178 4.72528 3.80529 0
M  V30 1419 H 130.917 3.5452 3.34913 0
M  V30 1420 H 129.922 5.21024 1.75539 0
M  V30 1421 H 131.147 6.41133 2.23887 0
M  V30 1422 H 129.093 5.13385 4.08378 0
M  V30 1423 H 129.01 6.73694 3.43034 0
M  V30 1424 H 130.278 6.33072 4.54797 0
M  V30 1425 N 134.507 -0.190092 1.56449 0
M  V30 1426 C 135.735 -0.925772 1.85033 0
M  V30 1427 C 136.15 -1.76638 0.666658 0
M  V30 1428 O 135.507 -1.78822 -0.364565 0
M  V30 1429 C 135.558 -1.81786 3.12468 0
M  V30 1430 O 135.279 -1.01118 4.26271 0
M  V30 1431 C 136.78 -2.6648 3.54265 0
M  V30 1432 H 134 -0.269872 0.614337 0
M  V30 1433 H 136.544 -0.195837 2.0356 0
M  V30 1434 H 134.699 -2.50136 2.95822 0
M  V30 1435 H 135.113 -1.61956 4.98869 0
M  V30 1436 H 136.587 -3.24722 4.46385 0
M  V30 1437 H 137.064 -3.40434 2.77491 0
M  V30 1438 H 137.67 -2.03493 3.73458 0
M  V30 1439 N 135.985 -1.50799 -0.457987 0
M  V30 1440 C 137.232 -1.62442 -1.20908 0
M  V30 1441 C 137.56 -0.330865 -1.91665 0
M  V30 1442 O 136.815 0.68401 -1.83357 0
M  V30 1443 C 137.114 -2.76358 -2.2663 0
M  V30 1444 C 136.78 -4.16378 -1.73033 0
M  V30 1445 C 135.442 -4.54473 -1.58138 0
M  V30 1446 C 137.794 -5.03836 -1.33413 0
M  V30 1447 C 135.122 -5.77754 -1.02065 0
M  V30 1448 C 137.474 -6.27676 -0.78778 0
M  V30 1449 C 136.138 -6.64562 -0.625561 0
M  V30 1450 H 135.408 -0.594417 -0.442435 0
M  V30 1451 H 138.055 -1.84772 -0.503136 0
M  V30 1452 H 136.36 -2.48167 -3.03184 0
M  V30 1453 H 138.057 -2.82568 -2.84528 0
M  V30 1454 H 134.647 -3.86331 -1.85598 0
M  V30 1455 H 138.831 -4.75026 -1.4375 0
M  V30 1456 H 134.087 -6.04997 -0.882547 0
M  V30 1457 H 138.261 -6.94797 -0.472177 0
M  V30 1458 H 135.888 -7.59965 -0.188926 0
M  V30 1459 N 137.463 0.71206 -1.40597 0
M  V30 1460 C 138.393 1.83889 -1.43899 0
M  V30 1461 C 139.374 1.67442 -0.299504 0
M  V30 1462 O 140.559 1.87421 -0.508624 0
M  V30 1463 C 137.689 3.21877 -1.30431 0
M  V30 1464 C 136.643 3.53002 -2.42019 0
M  V30 1465 C 135.969 4.90172 -2.13626 0
M  V30 1466 C 137.269 3.53643 -3.84362 0
M  V30 1467 H 138.963 1.81383 -2.38203 0
M  V30 1468 H 136.509 0.871237 -1.14654 0
M  V30 1469 H 138.462 4.00404 -1.31357 0
M  V30 1470 H 137.186 3.24968 -0.326049 0
M  V30 1471 H 135.845 2.76818 -2.40349 0
M  V30 1472 H 135.493 4.89869 -1.14182 0
M  V30 1473 H 135.193 5.11962 -2.88389 0
M  V30 1474 H 136.717 5.71028 -2.1624 0
M  V30 1475 H 138.131 4.22203 -3.87837 0
M  V30 1476 H 136.528 3.86961 -4.58673 0
M  V30 1477 H 137.598 2.52954 -4.13693 0
M  V30 1478 N 138.941 1.26152 0.944643 0
M  V30 1479 C 139.851 1.09176 2.07648 0
M  V30 1480 C 140.867 0.0261935 1.7398 0
M  V30 1481 O 142.043 0.229208 2.00091 0
M  V30 1482 C 139.108 0.722915 3.39079 0
M  V30 1483 C 138.169 1.86752 3.86552 0
M  V30 1484 C 137.402 1.51617 5.11711 0
M  V30 1485 O 137.625 0.416331 5.68879 0
M  V30 1486 O 136.559 2.34975 5.54139 0
M  V30 1487 H 140.385 2.0412 2.24875 0
M  V30 1488 H 137.97 1.05182 1.061 0
M  V30 1489 H 139.852 0.529787 4.18056 0
M  V30 1490 H 138.527 -0.197159 3.23099 0
M  V30 1491 H 137.434 2.11558 3.08535 0
M  V30 1492 H 138.767 2.76719 4.07047 0
M  V30 1493 N 140.419 -1.14872 1.07899 0
M  V30 1494 C 141.349 -2.2193 0.725887 0
M  V30 1495 C 142.33 -1.67622 -0.28927 0
M  V30 1496 O 143.515 -1.93533 -0.160787 0
M  V30 1497 C 140.645 -3.47061 0.128856 0
M  V30 1498 C 139.599 -4.14363 1.07178 0
M  V30 1499 C 138.925 -5.33636 0.337229 0
M  V30 1500 C 140.225 -4.63492 2.40775 0
M  V30 1501 H 141.919 -2.51724 1.62097 0
M  V30 1502 H 139.465 -1.20991 0.780838 0
M  V30 1503 H 141.418 -4.21199 -0.130147 0
M  V30 1504 H 140.142 -3.16617 -0.80134 0
M  V30 1505 H 138.801 -3.42173 1.3158 0
M  V30 1506 H 138.449 -4.99449 -0.596606 0
M  V30 1507 H 138.149 -5.79609 0.965788 0
M  V30 1508 H 139.673 -6.10539 0.0861567 0
M  V30 1509 H 141.087 -5.2913 2.20669 0
M  V30 1510 H 139.484 -5.20148 2.99276 0
M  V30 1511 H 140.554 -3.78834 3.02676 0
M  V30 1512 N 141.898 -0.863906 -1.31812 0
M  V30 1513 C 143.144 -0.472535 -1.97218 0
M  V30 1514 C 143.477 0.971394 -1.68159 0
M  V30 1515 O 142.752 1.68309 -0.974798 0
M  V30 1516 C 143.035 -0.723054 -3.52766 0
M  V30 1517 C 142.888 -2.21608 -3.91421 0
M  V30 1518 C 144.207 -0.185522 -4.39709 0
M  V30 1519 H 141.326 -0.173158 -0.71637 0
M  V30 1520 H 143.968 -1.08403 -1.56041 0
M  V30 1521 H 142.118 -0.202577 -3.87971 0
M  V30 1522 H 143.79 -2.80334 -3.66347 0
M  V30 1523 H 142.033 -2.691 -3.40246 0
M  V30 1524 H 142.704 -2.34203 -4.99853 0
M  V30 1525 H 145.18 -0.630726 -4.11292 0
M  V30 1526 H 144.056 -0.390306 -5.47511 0
M  V30 1527 H 144.317 0.912229 -4.32586 0
M  V30 1528 N 143.376 1.44774 -0.622745 0
M  V30 1529 C 144.622 2.02968 -0.13257 0
M  V30 1530 C 144.977 1.48047 1.22881 0
M  V30 1531 O 144.27 0.651625 1.80179 0
M  V30 1532 C 144.464 3.57364 -0.0508323 0
M  V30 1533 C 144.293 4.27262 -1.40275 0
M  V30 1534 C 143.063 4.64577 -1.98737 0
M  V30 1535 C 145.261 4.58248 -2.3348 0
M  V30 1536 N 143.243 5.19404 -3.27251 0
M  V30 1537 C 144.614 5.14069 -3.46603 0
M  V30 1538 C 146.669 4.40195 -2.32664 0
M  V30 1539 C 145.372 5.53738 -4.59093 0
M  V30 1540 C 147.398 4.80907 -3.44213 0
M  V30 1541 C 146.76 5.36834 -4.56058 0
M  V30 1542 H 142.859 0.776541 -0.0922354 0
M  V30 1543 H 145.443 1.76385 -0.82441 0
M  V30 1544 H 143.614 3.83576 0.610265 0
M  V30 1545 H 145.346 4.02219 0.447397 0
M  V30 1546 H 142.101 4.48622 -1.51774 0
M  V30 1547 H 142.525 5.51301 -3.92933 0
M  V30 1548 H 147.167 3.96257 -1.47446 0
M  V30 1549 H 144.885 5.96635 -5.45025 0
M  V30 1550 H 148.471 4.68659 -3.44747 0
M  V30 1551 H 147.351 5.67755 -5.40947 0
M  V30 1552 N 144.854 0.36279 1.53368 0
M  V30 1553 C 145.764 -0.492994 2.29362 0
M  V30 1554 C 146.78 -1.09507 1.35219 0
M  V30 1555 O 147.956 -1.10662 1.68273 0
M  V30 1556 C 145.021 -1.61855 3.066 0
M  V30 1557 C 144.082 -1.04429 4.16405 0
M  V30 1558 C 143.315 -2.11621 4.89951 0
M  V30 1559 O 143.538 -3.32684 4.63333 0
M  V30 1560 O 142.472 -1.74835 5.75948 0
M  V30 1561 H 146.298 0.125331 3.03441 0
M  V30 1562 H 143.883 0.127253 1.48857 0
M  V30 1563 H 145.765 -2.27302 3.54841 0
M  V30 1564 H 144.44 -2.22233 2.3536 0
M  V30 1565 H 143.347 -0.353819 3.72423 0
M  V30 1566 H 144.68 -0.485113 4.89804 0
M  V30 1567 N 146.332 -1.57332 0.0918853 0
M  V30 1568 C 147.295 -2.12708 -0.85369 0
M  V30 1569 C 148.295 -1.05561 -1.213 0
M  V30 1570 O 149.485 -1.31461 -1.14296 0
M  V30 1571 C 146.617 -2.64503 -2.15061 0
M  V30 1572 H 147.81 -2.97573 -0.3729 0
M  V30 1573 H 145.363 -1.55509 -0.157072 0
M  V30 1574 H 146.098 -1.83149 -2.67632 0
M  V30 1575 H 145.883 -3.4284 -1.90272 0
M  V30 1576 H 147.373 -3.07351 -2.82711 0
M  V30 1577 N 147.81 0.181792 -1.56548 0
M  V30 1578 C 148.74 1.22765 -1.98623 0
M  V30 1579 C 149.721 1.46747 -0.860189 0
M  V30 1580 O 150.906 1.58259 -1.12551 0
M  V30 1581 C 148.036 2.56894 -2.33715 0
M  V30 1582 C 146.99 2.475 -3.49182 0
M  V30 1583 C 146.316 3.86023 -3.69986 0
M  V30 1584 C 147.616 1.98866 -4.82959 0
M  V30 1585 H 149.31 0.877942 -2.86239 0
M  V30 1586 H 146.856 0.42088 -1.37712 0
M  V30 1587 H 148.809 3.30253 -2.61746 0
M  V30 1588 H 147.533 2.93632 -1.42997 0
M  V30 1589 H 146.192 1.76596 -3.21262 0
M  V30 1590 H 145.84 4.20136 -2.76576 0
M  V30 1591 H 145.54 3.80609 -4.47672 0
M  V30 1592 H 147.064 4.60984 -4.00407 0
M  V30 1593 H 148.478 2.61992 -5.09934 0
M  V30 1594 H 146.875 2.04424 -5.64208 0
M  V30 1595 H 147.945 0.942465 -4.75653 0
M  V30 1596 N 149.288 1.51039 0.449983 0
M  V30 1597 C 150.22 1.67617 1.56324 0
M  V30 1598 C 151.233 0.557083 1.52972 0
M  V30 1599 O 152.422 0.830989 1.57977 0
M  V30 1600 C 149.522 1.66402 2.95235 0
M  V30 1601 C 148.695 2.9469 3.23229 0
M  V30 1602 C 147.754 2.85832 4.41799 0
M  V30 1603 O 146.78 3.59785 4.41071 0
M  V30 1604 N 147.982 2.00821 5.44657 0
M  V30 1605 H 150.747 2.63648 1.42512 0
M  V30 1606 H 148.308 1.48767 0.638737 0
M  V30 1607 H 150.3 1.58062 3.72557 0
M  V30 1608 H 148.87 0.780182 3.02708 0
M  V30 1609 H 148.09 3.16996 2.34323 0
M  V30 1610 H 149.378 3.79636 3.38754 0
M  V30 1611 H 148.776 1.40091 5.48079 0
M  V30 1612 H 147.333 1.98368 6.20881 0
M  V30 1613 N 150.766 -0.704594 1.40972 0
M  V30 1614 C 152.043 -1.45847 1.30338 0
M  V30 1615 C 152.423 -2.10973 -0.0732344 0
M  V30 1616 O 151.771 -2.00997 -1.08685 0
M  V30 1617 C 151.981 -2.48525 2.45023 0
M  V30 1618 C 153.329 -3.1404 2.8577 0
M  V30 1619 O 154.353 -2.58848 2.44696 0
M  V30 1620 O 153.212 -4.13981 3.56766 0
M  V30 1621 H 150.306 -0.649092 0.512454 0
M  V30 1622 H 152.852 -0.735836 1.52917 0
M  V30 1623 H 151.624 -1.98994 3.36923 0
M  V30 1624 H 151.247 -3.2831 2.24272 0
M  V30 1625 N 152.244 -1.26651 -0.937939 0
M  V30 1626 C 153.49 -1.12553 -1.687 0
M  V30 1627 C 153.823 0.329782 -1.91379 0
M  V30 1628 O 153.098 1.24202 -1.4968 0
M  V30 1629 C 153.381 -1.89862 -3.05981 0
M  V30 1630 C 153.234 -3.43318 -2.90607 0
M  V30 1631 C 154.553 -1.69499 -4.0615 0
M  V30 1632 H 151.672 -0.410257 -0.612257 0
M  V30 1633 H 154.314 -1.55685 -1.08913 0
M  V30 1634 H 152.464 -1.53204 -3.57017 0
M  V30 1635 H 154.136 -3.89747 -2.46769 0
M  V30 1636 H 152.379 -3.70179 -2.26164 0
M  V30 1637 H 153.05 -3.92642 -3.8799 0
M  V30 1638 H 155.526 -2.01442 -3.64088 0
M  V30 1639 H 154.402 -2.26002 -5.00214 0
M  V30 1640 H 154.663 -0.640365 -4.37438 0
M  V30 1641 N 153.722 1.14298 -1.08507 0
M  V30 1642 C 154.95 1.89219 -0.836876 0
M  V30 1643 C 155.365 1.78638 0.611054 0
M  V30 1644 O 154.722 1.14643 1.41998 0
M  V30 1645 C 154.773 3.39158 -1.25116 0
M  V30 1646 O 154.494 3.49449 -2.64229 0
M  V30 1647 C 155.995 4.31073 -1.03398 0
M  V30 1648 H 153.215 0.599328 -0.301739 0
M  V30 1649 H 155.759 1.44746 -1.44461 0
M  V30 1650 H 153.914 3.81251 -0.687514 0
M  V30 1651 H 154.328 4.42589 -2.81452 0
M  V30 1652 H 155.802 5.34646 -1.37323 0
M  V30 1653 H 156.279 4.3919 0.0289259 0
M  V30 1654 H 156.885 3.94738 -1.58311 0
M  V30 1655 N 155.201 0.870884 1.31352 0
M  V30 1656 C 156.131 0.343096 2.30966 0
M  V30 1657 C 157.112 -0.566507 1.60389 0
M  V30 1658 O 158.297 -0.483336 1.88089 0
M  V30 1659 C 155.427 -0.455487 3.443 0
M  V30 1660 C 154.381 0.361103 4.26474 0
M  V30 1661 C 153.707 -0.563221 5.31725 0
M  V30 1662 C 155.007 1.59566 4.97329 0
M  V30 1663 H 156.701 1.17548 2.75359 0
M  V30 1664 H 154.247 0.566686 1.32381 0
M  V30 1665 H 156.2 -0.83525 4.13039 0
M  V30 1666 H 154.924 -1.32139 2.98675 0
M  V30 1667 H 153.583 0.722825 3.59403 0
M  V30 1668 H 153.231 -1.42643 4.82351 0
M  V30 1669 H 152.931 -0.0207409 5.87596 0
M  V30 1670 H 154.455 -0.939808 6.03324 0
M  V30 1671 H 155.869 1.28728 5.58661 0
M  V30 1672 H 154.266 2.07728 5.63 0
M  V30 1673 H 155.336 2.34798 4.24262 0
M  V30 1674 N 156.679 -1.44442 0.630414 0
M  V30 1675 C 157.928 -2.01267 0.132073 0
M  V30 1676 C 158.241 -1.50172 -1.25331 0
M  V30 1677 O 159.447 -1.9912 -1.84562 0
M  V30 1678 C 157.903 -3.59422 0.185362 0
M  V30 1679 C 157.511 -4.19514 1.57201 0
M  V30 1680 C 159.255 -4.23724 -0.256553 0
M  V30 1681 C 157.162 -5.69891 1.58045 0
M  V30 1682 H 156.092 -0.752619 0.0456092 0
M  V30 1683 H 158.743 -1.65666 0.789106 0
M  V30 1684 H 157.125 -3.92318 -0.538759 0
M  V30 1685 H 158.299 -3.98156 2.31966 0
M  V30 1686 H 156.614 -3.67496 1.95795 0
M  V30 1687 H 159.211 -5.34019 -0.269767 0
M  V30 1688 H 159.554 -3.96013 -1.28372 0
M  V30 1689 H 160.087 -3.95629 0.41505 0
M  V30 1690 H 156.826 -6.02336 2.58597 0
M  V30 1691 H 156.346 -5.93373 0.875725 0
M  V30 1692 H 158.025 -6.33515 1.31408 0
M  V30 1693 N 158.157 -0.370918 -1.53173 0
M  V30 1694 C 159.406 0.218249 -2.00516 0
M  V30 1695 C 159.719 1.49429 -1.26215 0
M  V30 1696 O 160.925 2.16239 -1.64174 0
M  V30 1697 C 159.381 0.43948 -3.57207 0
M  V30 1698 C 158.989 -0.822244 -4.4039 0
M  V30 1699 C 160.733 0.986012 -4.1289 0
M  V30 1700 C 158.64 -0.570304 -5.88644 0
M  V30 1701 H 157.57 0.0853333 -0.749156 0
M  V30 1702 H 160.221 -0.490483 -1.76823 0
M  V30 1703 H 158.603 1.20961 -3.77074 0
M  V30 1704 H 159.777 -1.59557 -4.32294 0
M  V30 1705 H 158.092 -1.29238 -3.95836 0
M  V30 1706 H 160.689 1.18991 -5.21292 0
M  V30 1707 H 161.032 1.94972 -3.6782 0
M  V30 1708 H 161.565 0.27592 -3.96842 0
M  V30 1709 H 158.304 -1.50449 -6.38001 0
M  V30 1710 H 157.824 0.164427 -5.99575 0
M  V30 1711 H 159.503 -0.19784 -6.46697 0
M  V30 1712 N 159.635 1.57281 -0.100228 0
M  V30 1713 C 160.565 2.17328 0.853857 0
M  V30 1714 C 161.546 1.10804 1.2906 0
M  V30 1715 O 162.731 1.38963 1.35657 0
M  V30 1716 C 159.861 2.75772 2.11109 0
M  V30 1717 C 158.815 3.87713 1.81279 0
M  V30 1718 C 158.141 4.32882 3.13874 0
M  V30 1719 C 159.441 5.10677 1.09574 0
M  V30 1720 H 161.135 2.97305 0.353545 0
M  V30 1721 H 158.681 1.43009 0.168612 0
M  V30 1722 H 160.634 3.16433 2.78296 0
M  V30 1723 H 159.358 1.93057 2.63432 0
M  V30 1724 H 158.017 3.476 1.16489 0
M  V30 1725 H 157.665 3.47051 3.64095 0
M  V30 1726 H 157.365 5.08358 2.94696 0
M  V30 1727 H 158.889 4.7618 3.82211 0
M  V30 1728 H 160.303 5.48474 1.66879 0
M  V30 1729 H 158.7 5.91615 1.00557 0
M  V30 1730 H 159.77 4.84835 0.0793299 0
M  V30 1731 N 161.113 -0.173488 1.56642 0
M  V30 1732 C 162.023 -1.23482 1.99473 0
M  V30 1733 C 163.039 -1.48567 0.905752 0
M  V30 1734 O 164.215 -1.60758 1.21321 0
M  V30 1735 C 161.28 -2.55444 2.34413 0
M  V30 1736 C 160.341 -2.38241 3.57127 0
M  V30 1737 C 159.574 -3.63909 3.90392 0
M  V30 1738 O 159.797 -4.68996 3.24653 0
M  V30 1739 O 158.731 -3.58149 4.83749 0
M  V30 1740 H 162.557 -0.901279 2.90018 0
M  V30 1741 H 160.142 -0.380185 1.44482 0
M  V30 1742 H 162.024 -3.33292 2.57865 0
M  V30 1743 H 160.699 -2.88382 1.4703 0
M  V30 1744 H 159.606 -1.58431 3.38896 0
M  V30 1745 H 160.939 -2.10228 4.45045 0
M  V30 1746 N 162.591 -1.51276 -0.441967 0
M  V30 1747 C 163.84 -1.6295 -1.18871 0
M  V30 1748 C 164.153 -0.349312 -1.92456 0
M  V30 1749 O 165.359 -0.345355 -2.69295 0
M  V30 1750 C 163.815 -2.87759 -2.16155 0
M  V30 1751 C 163.423 -4.22764 -1.48239 0
M  V30 1752 C 165.167 -3.08788 -2.91291 0
M  V30 1753 C 163.074 -5.38728 -2.4398 0
M  V30 1754 H 162.004 -0.606913 -0.447406 0
M  V30 1755 H 164.655 -1.77739 -0.456205 0
M  V30 1756 H 163.037 -2.66593 -2.92821 0
M  V30 1757 H 164.211 -4.54293 -0.771635 0
M  V30 1758 H 162.526 -4.07575 -0.852741 0
M  V30 1759 H 165.123 -3.92599 -3.63002 0
M  V30 1760 H 165.466 -2.21679 -3.5237 0
M  V30 1761 H 165.999 -3.30272 -2.21733 0
M  V30 1762 H 162.738 -6.28082 -1.87598 0
M  V30 1763 H 162.258 -5.1158 -3.13123 0
M  V30 1764 H 163.937 -5.70489 -3.05207 0
M  V30 1765 N 164.069 0.697108 -1.41344 0
M  V30 1766 C 165.032 1.79281 -1.42797 0
M  V30 1767 C 166.032 1.57607 -0.318837 0
M  V30 1768 O 167.222 1.64309 -0.578642 0
M  V30 1769 C 164.354 3.17632 -1.23785 0
M  V30 1770 H 165.547 1.79385 -2.40335 0
M  V30 1771 H 163.1 0.904582 -1.27464 0
M  V30 1772 H 163.835 3.23167 -0.270814 0
M  V30 1773 H 163.62 3.34765 -2.04144 0
M  V30 1774 H 165.11 3.97617 -1.27633 0
M  V30 1775 N 165.547 1.27147 0.931209 0
M  V30 1776 C 166.51 1.09615 2.01289 0
M  V30 1777 C 167.51 0.0412581 1.60747 0
M  V30 1778 O 168.7 0.285545 1.71844 0
M  V30 1779 C 165.832 0.669447 3.34262 0
M  V30 1780 H 167.025 2.05662 2.18273 0
M  V30 1781 H 164.578 1.09885 1.11153 0
M  V30 1782 H 165.313 -0.292572 3.22978 0
M  V30 1783 H 165.098 1.43127 3.65044 0
M  V30 1784 H 166.588 0.568921 4.13706 0
M  V30 1785 N 167.025 -1.13721 1.09112 0
M  V30 1786 C 168.274 -1.84275 0.82009 0
M  V30 1787 C 168.587 -1.84253 -0.656509 0
M  V30 1788 O 169.793 -2.50668 -1.04296 0
M  V30 1789 C 168.249 -3.30825 1.41714 0
M  V30 1790 C 167.857 -3.39244 2.92605 0
M  V30 1791 C 169.601 -4.06443 1.22492 0
M  V30 1792 C 167.508 -4.80047 3.45411 0
M  V30 1793 H 166.438 -0.690387 0.30312 0
M  V30 1794 H 169.089 -1.28146 1.31343 0
M  V30 1795 H 167.471 -3.86737 0.851498 0
M  V30 1796 H 168.645 -2.93344 3.55367 0
M  V30 1797 H 166.96 -2.77088 3.10823 0
M  V30 1798 H 169.557 -5.10387 1.59402 0
M  V30 1799 H 169.9 -4.15972 0.165299 0
M  V30 1800 H 170.433 -3.56852 1.75788 0
M  V30 1801 H 167.172 -4.75709 4.50978 0
M  V30 1802 H 166.692 -5.26455 2.87411 0
M  V30 1803 H 168.371 -5.48957 3.42425 0
M  V30 1804 N 168.503 -0.877838 -1.30888 0
M  V30 1805 C 169.752 -0.488793 -1.95688 0
M  V30 1806 C 170.065 0.965485 -1.70111 0
M  V30 1807 O 171.271 1.46104 -2.28836 0
M  V30 1808 C 169.727 -0.823201 -3.50359 0
M  V30 1809 C 169.335 -2.29477 -3.84765 0
M  V30 1810 C 171.079 -0.503009 -4.21509 0
M  V30 1811 C 168.986 -2.57118 -5.32583 0
M  V30 1812 H 167.916 -0.179062 -0.732429 0
M  V30 1813 H 170.567 -1.07183 -1.48943 0
M  V30 1814 H 168.949 -0.169331 -3.95638 0
M  V30 1815 H 170.123 -2.99236 -3.5042 0
M  V30 1816 H 168.438 -2.58178 -3.267 0
M  V30 1817 H 171.035 -0.68665 -5.30273 0
M  V30 1818 H 171.378 0.557109 -4.12555 0
M  V30 1819 H 171.911 -1.11376 -3.8189 0
M  V30 1820 H 168.65 -3.61843 -5.4658 0
M  V30 1821 H 168.17 -1.91961 -5.68253 0
M  V30 1822 H 169.849 -2.42251 -5.99936 0
M  V30 1823 N 169.982 1.44106 -0.638065 0
M  V30 1824 C 171.207 2.0685 -0.150916 0
M  V30 1825 C 171.632 1.47417 1.16833 0
M  V30 1826 O 170.99 0.578264 1.71831 0
M  V30 1827 C 171.038 3.60555 -0.05708 0
M  V30 1828 O 170.142 4.00465 0.984972 0
M  V30 1829 H 169.483 0.658151 -0.0879399 0
M  V30 1830 H 172.013 1.84865 -0.876707 0
M  V30 1831 H 172.023 4.07789 0.131232 0
M  V30 1832 H 170.698 4.03193 -1.02021 0
M  V30 1833 H 169.275 3.64849 0.770672 0
M  V30 1834 N 171.46 0.379036 1.52974 0
M  V30 1835 C 172.39 -0.452706 2.29069 0
M  V30 1836 C 173.371 -1.07237 1.32039 0
M  V30 1837 O 174.556 -1.08708 1.60923 0
M  V30 1838 C 171.686 -1.5856 3.08992 0
M  V30 1839 C 170.64 -1.0925 4.13822 0
M  V30 1840 C 169.966 -2.31668 4.81907 0
M  V30 1841 C 171.266 -0.167702 5.22031 0
M  V30 1842 H 172.96 0.182181 2.98845 0
M  V30 1843 H 170.506 0.0890592 1.43724 0
M  V30 1844 H 172.459 -2.1742 3.6098 0
M  V30 1845 H 171.183 -2.24792 2.36931 0
M  V30 1846 H 169.842 -0.526494 3.628 0
M  V30 1847 H 169.49 -2.96386 4.06404 0
M  V30 1848 H 169.19 -1.9934 5.52754 0
M  V30 1849 H 170.714 -2.91189 5.36695 0
M  V30 1850 H 172.128 -0.664186 5.6944 0
M  V30 1851 H 170.525 0.0653265 6.00064 0
M  V30 1852 H 171.595 0.786347 4.78482 0
M  V30 1853 N 172.938 -1.57226 0.108567 0
M  V30 1854 C 174.184 -1.95121 -0.552761 0
M  V30 1855 C 174.517 -0.991345 -1.66991 0
M  V30 1856 O 173.792 -0.0267211 -1.94482 0
M  V30 1857 C 174.075 -3.43039 -1.09528 0
M  V30 1858 C 173.928 -4.49797 0.0177332 0
M  V30 1859 C 175.247 -3.92567 -1.98945 0
M  V30 1860 H 172.366 -0.709496 -0.199461 0
M  V30 1861 H 175.008 -1.89126 0.182011 0
M  V30 1862 H 173.158 -3.48279 -1.72146 0
M  V30 1863 H 174.83 -4.56661 0.652584 0
M  V30 1864 H 173.073 -4.284 0.682309 0
M  V30 1865 H 173.744 -5.50528 -0.402919 0
M  V30 1866 H 176.22 -3.89565 -1.46214 0
M  V30 1867 H 175.096 -4.96605 -2.33827 0
M  V30 1868 H 175.357 -3.32648 -2.91201 0
M  V30 1869 N 174.416 0.165178 -1.56732 0
M  V30 1870 C 175.346 1.20651 -1.99914 0
M  V30 1871 C 176.327 1.45827 -0.875705 0
M  V30 1872 O 177.512 1.57057 -1.14223 0
M  V30 1873 C 174.642 2.54401 -2.36427 0
M  V30 1874 C 173.596 2.43782 -3.51787 0
M  V30 1875 C 172.922 3.82078 -3.7406 0
M  V30 1876 C 174.222 1.93732 -4.85041 0
M  V30 1877 H 175.916 0.847534 -2.87154 0
M  V30 1878 H 173.462 0.40625 -1.38151 0
M  V30 1879 H 175.415 3.27458 -2.65234 0
M  V30 1880 H 174.139 2.92098 -1.46103 0
M  V30 1881 H 172.798 1.73178 -3.23117 0
M  V30 1882 H 172.446 4.17179 -2.81017 0
M  V30 1883 H 172.146 3.7584 -4.51684 0
M  V30 1884 H 173.67 4.56712 -4.05274 0
M  V30 1885 H 175.084 2.56569 -5.12684 0
M  V30 1886 H 173.481 1.98428 -5.66345 0
M  V30 1887 H 174.551 0.891962 -4.76626 0
M  V30 1888 N 175.894 1.51508 0.433938 0
M  V30 1889 C 177.119 1.68443 1.21003 0
M  V30 1890 C 177.544 0.382636 1.84167 0
M  V30 1891 O 176.902 -0.65755 1.68956 0
M  V30 1892 C 176.95 2.80405 2.26727 0
M  V30 1893 O 176.054 2.44245 3.32292 0
M  V30 1894 H 175.395 0.561536 0.354363 0
M  V30 1895 H 177.925 1.9809 0.512024 0
M  V30 1896 H 177.935 3.0459 2.71457 0
M  V30 1897 H 176.61 3.74867 1.80132 0
M  V30 1898 H 175.187 2.30644 2.93015 0
M  V30 1899 N 177.372 -0.689602 1.41712 0
M  V30 1900 C 178.619 -1.44966 1.4139 0
M  V30 1901 C 178.947 -1.94484 0.025105 0
M  V30 1902 O 178.202 -1.70307 -0.964048 0
M  V30 1903 C 178.501 -2.67298 2.37247 0
M  V30 1904 C 178.167 -2.36405 3.83958 0
M  V30 1905 C 176.829 -2.27691 4.23923 0
M  V30 1906 C 179.181 -2.11043 4.76561 0
M  V30 1907 C 176.509 -1.91719 5.54492 0
M  V30 1908 C 178.861 -1.76578 6.07456 0
M  V30 1909 C 177.525 -1.66363 6.46436 0
M  V30 1910 H 176.795 -0.53047 0.517381 0
M  V30 1911 H 179.442 -0.787655 1.74552 0
M  V30 1912 H 177.747 -3.38461 1.9736 0
M  V30 1913 H 179.444 -3.25452 2.34269 0
M  V30 1914 H 176.034 -2.44085 3.52308 0
M  V30 1915 H 180.218 -2.16717 4.46483 0
M  V30 1916 H 175.474 -1.82367 5.83568 0
M  V30 1917 H 179.648 -1.55974 6.78708 0
M  V30 1918 H 177.275 -1.38258 7.47522 0
M  V30 1919 N 178.85 -1.27639 -0.924453 0
M  V30 1920 C 180.08 -1.16819 -1.70402 0
M  V30 1921 C 180.488 0.277191 -1.87158 0
M  V30 1922 O 179.831 1.20025 -1.39067 0
M  V30 1923 C 179.893 -1.78305 -3.12166 0
M  V30 1924 C 179.557 -3.27502 -3.18734 0
M  V30 1925 C 180.554 -4.2409 -3.00738 0
M  V30 1926 C 178.239 -3.68269 -3.4159 0
M  V30 1927 C 180.233 -5.59422 -3.05492 0
M  V30 1928 C 177.92 -5.0373 -3.45977 0
M  V30 1929 C 178.918 -5.99116 -3.27946 0
M  V30 1930 O 178.606 -7.32108 -3.32074 0
M  V30 1931 H 178.338 -0.406931 -0.539799 0
M  V30 1932 H 180.892 -1.69078 -1.16626 0
M  V30 1933 H 179.122 -1.20528 -3.67437 0
M  V30 1934 H 180.811 -1.62154 -3.72103 0
M  V30 1935 H 181.577 -3.93931 -2.82919 0
M  V30 1936 H 177.456 -2.94496 -3.54673 0
M  V30 1937 H 181 -6.33852 -2.91337 0
M  V30 1938 H 176.897 -5.33543 -3.63321 0
M  V30 1939 H 177.665 -7.40598 -3.48507 0
M  V30 1940 N 180.328 1.1314 -1.09713 0
M  V30 1941 C 181.744 1.36477 -0.827423 0
M  V30 1942 C 181.944 1.93654 0.556817 0
M  V30 1943 O 181 2.15791 1.31112 0
M  V30 1944 C 182.313 2.31334 -1.92106 0
M  V30 1945 C 183.861 2.44943 -1.94864 0
M  V30 1946 C 184.336 3.4311 -3.0338 0
M  V30 1947 N 185.827 3.50662 -3.02639 0
M  V30 1948 C 186.562 4.2651 -3.83246 0
M  V30 1949 N 186.058 5.05485 -4.73768 0
M  V30 1950 N 187.851 4.2184 -3.71493 0
M  V30 1951 H 180.002 0.743807 -1.9895 0
M  V30 1952 H 182.265 0.389823 -0.864143 0
M  V30 1953 H 181.971 1.96483 -2.91698 0
M  V30 1954 H 181.845 3.31381 -1.80184 0
M  V30 1955 H 184.232 2.79079 -0.959099 0
M  V30 1956 H 184.313 1.4481 -2.10864 0
M  V30 1957 H 183.957 3.09704 -4.02549 0
M  V30 1958 H 183.887 4.43055 -2.84622 0
M  V30 1959 H 186.378 2.94315 -2.37039 0
M  V30 1960 H 186.691 5.60675 -5.3185 0
M  V30 1961 H 185.036 5.04708 -4.77802 0
M  V30 1962 H 188.227 3.5922 -3.00131 0
M  V30 1963 H 188.4 4.80697 -4.3455 0
M  V30 1964 N 181.806 0.884767 1.30421 0
M  V30 1965 C 183.217 0.553656 1.78302 0
M  V30 1966 C 183.568 -0.930153 1.7275 0
M  V30 1967 O 182.693 -1.72681 1.30423 0
M  V30 1968 C 183.288 0.998234 3.2376 0
M  V30 1969 C 181.847 0.71854 3.69478 0
M  V30 1970 C 180.994 1.18132 2.50879 0
M  V30 1971 H 183.945 1.06901 1.17294 0
M  V30 1972 H 183.966 0.327118 3.79091 0
M  V30 1973 H 183.478 2.0782 3.27769 0
M  V30 1974 H 181.579 -0.349444 3.70958 0
M  V30 1975 H 181.692 1.30595 4.60958 0
M  V30 1976 H 180.056 0.600669 2.47516 0
M  V30 1977 H 180.839 2.26902 2.57624 0
M  V30 1978 N 183.284 -1.43765 0.645699 0
M  V30 1979 C 184.247 -2.29163 -0.0409488 0
M  V30 1980 C 185.247 -1.41813 -0.757996 0
M  V30 1981 O 186.437 -1.63527 -0.600382 0
M  V30 1982 C 183.569 -3.23716 -1.06869 0
M  V30 1983 H 184.762 -2.91366 0.710345 0
M  V30 1984 H 182.315 -1.5092 0.406547 0
M  V30 1985 H 183.05 -2.66393 -1.84947 0
M  V30 1986 H 182.835 -3.88105 -0.558277 0
M  V30 1987 H 184.325 -3.87831 -1.54845 0
M  V30 1988 N 184.763 -0.387143 -1.52771 0
M  V30 1989 C 186.011 0.195349 -2.01154 0
M  V30 1990 C 186.332 1.475 -1.27549 0
M  V30 1991 O 185.602 1.91878 -0.394924 0
M  V30 1992 H 184.182 0.075178 -0.743207 0
M  V30 1993 H 186.844 -0.518337 -1.87881 0
M  V30 1994 H 185.94 0.407096 -3.09434 0
M  V30 1995 N 186.241 1.57166 -0.116904 0
M  V30 1996 C 187.151 2.18745 0.847812 0
M  V30 1997 C 188.167 1.163 1.29423 0
M  V30 1998 O 189.343 1.48761 1.35765 0
M  V30 1999 C 186.408 2.77307 2.0809 0
M  V30 2000 C 185.469 3.94781 1.68661 0
M  V30 2001 C 184.702 4.50541 2.86091 0
M  V30 2002 O 184.925 4.05202 4.01456 0
M  V30 2003 O 183.859 5.41256 2.63298 0
M  V30 2004 H 187.685 3.01632 0.353778 0
M  V30 2005 H 185.27 1.49005 0.108599 0
M  V30 2006 H 187.152 3.14647 2.80313 0
M  V30 2007 H 185.827 1.97452 2.56504 0
M  V30 2008 H 184.734 3.62214 0.935518 0
M  V30 2009 H 186.067 4.76065 1.24991 0
M  V30 2010 N 187.719 -0.156864 1.56817 0
M  V30 2011 C 188.629 -1.2136 2.00771 0
M  V30 2012 C 189.645 -1.47598 0.921459 0
M  V30 2013 O 190.821 -1.59462 1.2302 0
M  V30 2014 C 187.886 -2.52943 2.37109 0
M  V30 2015 C 186.947 -2.34439 3.59634 0
M  V30 2016 C 186.18 -3.59748 3.94229 0
M  V30 2017 O 186.403 -4.65526 3.29609 0
M  V30 2018 O 185.337 -3.52998 4.8752 0
M  V30 2019 H 189.163 -0.870468 2.90958 0
M  V30 2020 H 186.748 -0.36484 1.44877 0
M  V30 2021 H 188.63 -3.30538 2.61386 0
M  V30 2022 H 187.305 -2.86806 1.5008 0
M  V30 2023 H 186.212 -1.54828 3.40557 0
M  V30 2024 H 187.545 -2.05496 4.4725 0
M  V30 2025 N 189.197 -1.51736 -0.425897 0
M  V30 2026 C 190.145 -1.74464 -1.53834 0
M  V30 2027 C 191.139 -0.611241 -1.57988 0
M  V30 2028 O 192.345 -0.792899 -1.61596 0
M  V30 2029 H 188.72 -0.551437 -0.511293 0
M  V30 2030 H 190.691 -2.67694 -1.31843 0
M  V30 2031 C 189.44 -1.8972 -2.91379 0
M  V30 2032 H 188.763 -2.76344 -2.88919 0
M  V30 2033 H 190.203 -2.09629 -3.68553 0
M  V30 2034 C 188.662 -0.65992 -3.30374 0
M  V30 2035 O 189.192 0.180083 -4.01296 0
M  V30 2036 N 187.398 -0.500677 -2.86254 0
M  V30 2037 H 186.945 -1.18532 -2.28709 0
M  V30 2038 H 186.903 0.325903 -3.12706 0
M  V30 2039 N 190.675 0.682077 -1.42076 0
M  V30 2040 C 191.585 1.82535 -1.47371 0
M  V30 2041 C 192.601 1.7017 -0.363079 0
M  V30 2042 O 193.777 1.91848 -0.612875 0
M  V30 2043 C 190.842 3.18624 -1.36674 0
M  V30 2044 C 189.903 3.42999 -2.58167 0
M  V30 2045 C 189.136 4.72595 -2.4797 0
M  V30 2046 O 189.359 5.50006 -1.5116 0
M  V30 2047 O 188.293 4.98054 -3.37974 0
M  V30 2048 H 192.119 1.81023 -2.43853 0
M  V30 2049 H 189.704 0.836887 -1.2376 0
M  V30 2050 H 191.586 3.99847 -1.33043 0
M  V30 2051 H 190.261 3.20789 -0.433138 0
M  V30 2052 H 189.168 2.61653 -2.67373 0
M  V30 2053 H 190.501 3.45659 -3.50401 0
M  V30 2054 N 192.153 1.28127 0.917671 0
M  V30 2055 C 193.083 1.14248 2.03641 0
M  V30 2056 C 194.064 0.0412748 1.7005 0
M  V30 2057 O 195.249 0.217566 1.92977 0
M  V30 2058 C 192.379 0.799431 3.37974 0
M  V30 2059 C 191.333 1.85497 3.85713 0
M  V30 2060 C 190.659 1.36565 5.16966 0
M  V30 2061 C 191.959 3.26085 4.08002 0
M  V30 2062 H 193.653 2.07835 2.15511 0
M  V30 2063 H 191.199 1.00064 1.03553 0
M  V30 2064 H 193.152 0.689114 4.15727 0
M  V30 2065 H 191.876 -0.172145 3.26146 0
M  V30 2066 H 190.535 1.95437 3.10161 0
M  V30 2067 H 190.183 0.383253 5.01538 0
M  V30 2068 H 189.883 2.07143 5.49878 0
M  V30 2069 H 191.407 1.26848 5.97279 0
M  V30 2070 H 192.821 3.19089 4.76293 0
M  V30 2071 H 191.218 3.94462 4.52238 0
M  V30 2072 H 192.288 3.70394 3.12948 0
M  V30 2073 N 193.631 -1.12557 1.10312 0
M  V30 2074 C 194.871 -1.8568 0.854543 0
M  V30 2075 C 195.235 -1.82091 -0.608843 0
M  V30 2076 O 196.436 -2.50544 -0.973717 0
M  V30 2077 C 194.707 -3.2942 1.38626 0
M  V30 2078 S 196.266 -4.19931 1.27293 0
M  V30 2079 H 193.084 -0.640427 0.308827 0
M  V30 2080 H 195.686 -1.35599 1.40831 0
M  V30 2081 H 194.39 -3.2959 2.44537 0
M  V30 2082 H 193.921 -3.84566 0.82902 0
M  V30 2083 H 195.936 -4.95668 0.229776 0
M  V30 2084 N 195.109 -0.891671 -1.2995 0
M  V30 2085 C 196.357 -0.512486 -1.95494 0
M  V30 2086 C 196.678 0.942776 -1.70695 0
M  V30 2087 O 195.948 1.66374 -1.03424 0
M  V30 2088 H 194.528 -0.186533 -0.723336 0
M  V30 2089 H 197.19 -1.13621 -1.58355 0
M  V30 2090 H 196.286 -0.688342 -3.04415 0
M  V30 2091 N 196.587 1.43421 -0.653314 0
M  V30 2092 C 197.519 2.29071 0.0769134 0
M  V30 2093 C 198.532 1.42513 0.787017 0
M  V30 2094 O 199.721 1.66449 0.644757 0
M  V30 2095 C 196.821 3.19436 1.13199 0
M  V30 2096 C 195.994 4.34533 0.500006 0
M  V30 2097 C 195.053 5.05771 1.45198 0
M  V30 2098 O 194.079 5.61037 0.960538 0
M  V30 2099 N 195.281 5.0928 2.78594 0
M  V30 2100 H 198.046 2.92382 -0.658235 0
M  V30 2101 H 195.607 1.54112 -0.496104 0
M  V30 2102 H 197.599 3.63958 1.76964 0
M  V30 2103 H 196.169 2.57724 1.7691 0
M  V30 2104 H 195.389 3.92925 -0.316738 0
M  V30 2105 H 196.677 5.08766 0.0588345 0
M  V30 2106 H 196.075 4.65751 3.2108 0
M  V30 2107 H 194.632 5.57519 3.37662 0
M  V30 2108 N 198.065 0.39524 1.52563 0
M  V30 2109 C 199.311 -0.185318 2.01952 0
M  V30 2110 C 199.644 -1.45964 1.28095 0
M  V30 2111 O 198.919 -1.90689 0.38315 0
M  V30 2112 C 199.202 -0.447193 3.57312 0
M  V30 2113 C 199.055 0.842828 4.41833 0
M  V30 2114 C 200.374 -1.23529 4.22408 0
M  V30 2115 H 197.493 -0.0658788 0.73405 0
M  V30 2116 H 200.135 0.525975 1.82575 0
M  V30 2117 H 198.285 -1.05312 3.73954 0
M  V30 2118 H 199.957 1.4795 4.36931 0
M  V30 2119 H 198.2 1.45686 4.08605 0
M  V30 2120 H 198.871 0.614165 5.48573 0
M  V30 2121 H 201.347 -0.722445 4.0978 0
M  V30 2122 H 200.223 -1.38727 5.3108 0
M  V30 2123 H 200.484 -2.25213 3.80436 0
M  V30 2124 N 199.544 -1.57102 0.125237 0
M  V30 2125 C 200.507 -2.14471 -0.80838 0
M  V30 2126 C 201.507 -1.0811 -1.19033 0
M  V30 2127 O 202.697 -1.33856 -1.11482 0
M  V30 2128 C 199.829 -2.69005 -2.09402 0
M  V30 2129 H 201.022 -2.98297 -0.309696 0
M  V30 2130 H 198.575 -1.55807 -0.124051 0
M  V30 2131 H 199.31 -1.88785 -2.63687 0
M  V30 2132 H 199.095 -3.46799 -1.82957 0
M  V30 2133 H 200.585 -3.13278 -2.76128 0
M  V30 2134 N 201.022 0.148545 -1.56898 0
M  V30 2135 C 202.25 0.876389 -1.87422 0
M  V30 2136 C 202.665 1.74809 -0.713256 0
M  V30 2137 O 202.022 1.79725 0.317025 0
M  V30 2138 C 202.073 1.73438 -3.17178 0
M  V30 2139 O 201.794 0.897809 -4.28802 0
M  V30 2140 C 203.295 2.56993 -3.61205 0
M  V30 2141 H 200.515 0.253489 -0.621277 0
M  V30 2142 H 203.059 0.141798 -2.04008 0
M  V30 2143 H 201.214 2.42205 -3.0235 0
M  V30 2144 H 201.628 1.48672 -5.02988 0
M  V30 2145 H 203.102 3.12773 -4.54838 0
M  V30 2146 H 203.579 3.32958 -2.86419 0
M  V30 2147 H 204.185 1.9352 -3.78722 0
M  V30 2148 N 202.5 1.5196 0.417844 0
M  V30 2149 C 203.728 1.69426 1.18753 0
M  V30 2150 C 204.143 0.399955 1.84515 0
M  V30 2151 O 203.5 -0.623288 1.71527 0
M  V30 2152 C 203.551 2.82375 2.25714 0
M  V30 2153 O 203.272 4.06793 1.62638 0
M  V30 2154 C 204.773 3.11277 3.15628 0
M  V30 2155 H 201.993 0.568031 0.357186 0
M  V30 2156 H 204.537 1.98475 0.49273 0
M  V30 2157 H 202.692 2.5587 2.90877 0
M  V30 2158 H 203.106 4.69667 2.3348 0
M  V30 2159 H 204.58 3.93843 3.86771 0
M  V30 2160 H 205.057 2.24473 3.77503 0
M  V30 2161 H 205.663 3.39515 2.56144 0
M  V30 2162 N 203.978 -0.674533 1.42435 0
M  V30 2163 C 205.389 -1.25514 1.38214 0
M  V30 2164 C 205.74 -1.96055 0.0755464 0
M  V30 2165 O 204.865 -2.00028 -0.8257 0
M  V30 2166 C 205.46 -2.28269 2.50357 0
M  V30 2167 C 204.019 -2.81856 2.49467 0
M  V30 2168 C 203.166 -1.56182 2.29134 0
M  V30 2169 H 206.117 -0.467902 1.51646 0
M  V30 2170 H 206.138 -3.10009 2.20624 0
M  V30 2171 H 205.65 -1.769 3.45439 0
M  V30 2172 H 203.751 -3.37346 1.58204 0
M  V30 2173 H 203.864 -3.30854 3.46515 0
M  V30 2174 H 202.228 -1.82761 1.774 0
M  V30 2175 H 203.011 -1.06778 3.26272 0
M  V30 2176 N 205.456 -1.28612 -0.910864 0
M  V30 2177 C 206.366 -1.14643 -2.0468 0
M  V30 2178 C 207.382 -0.0723121 -1.7385 0
M  V30 2179 O 208.558 -0.282178 -1.99413 0
M  V30 2180 C 205.623 -0.812561 -3.37044 0
M  V30 2181 C 204.684 -1.96935 -3.81465 0
M  V30 2182 C 203.917 -1.65131 -5.07511 0
M  V30 2183 O 204.14 -0.567013 -5.67575 0
M  V30 2184 O 203.074 -2.49585 -5.47714 0
M  V30 2185 H 206.9 -2.1001 -2.19384 0
M  V30 2186 H 204.485 -1.07958 -1.03274 0
M  V30 2187 H 206.367 -0.640441 -4.16505 0
M  V30 2188 H 205.042 0.111426 -3.23508 0
M  V30 2189 H 203.949 -2.19664 -3.02818 0
M  V30 2190 H 205.282 -2.87414 -3.99567 0
M  V30 2191 N 206.934 1.1197 -1.10907 0
M  V30 2192 C 208.211 1.79959 -0.766432 0
M  V30 2193 C 208.591 1.97466 0.746363 0
M  V30 2194 O 207.939 1.55491 1.67436 0
M  V30 2195 C 208.149 3.14009 -1.52314 0
M  V30 2196 C 209.497 3.89134 -1.69883 0
M  V30 2197 O 210.521 3.2368 -1.48692 0
M  V30 2198 O 209.38 5.06572 -2.05054 0
M  V30 2199 H 206.474 0.779208 -0.277062 0
M  V30 2200 H 209.02 1.18762 -1.21217 0
M  V30 2201 H 207.792 2.96587 -2.55249 0
M  V30 2202 H 207.415 3.82915 -1.07059 0
M  V30 2203 N 208.412 0.89855 1.29475 0
M  V30 2204 C 209.322 0.379974 2.31502 0
M  V30 2205 C 210.338 -0.524695 1.659 0
M  V30 2206 O 211.514 -0.414551 1.97087 0
M  V30 2207 C 208.579 -0.385138 3.44554 0
M  V30 2208 C 207.64 0.550914 4.2575 0
M  V30 2209 C 206.873 -0.177778 5.33404 0
M  V30 2210 O 207.096 -1.40189 5.52904 0
M  V30 2211 O 206.03 0.479106 5.9999 0
M  V30 2212 H 209.856 1.22639 2.77837 0
M  V30 2213 H 207.441 0.662834 1.33891 0
M  V30 2214 H 209.323 -0.817841 4.13388 0
M  V30 2215 H 207.998 -1.20763 3.0033 0
M  V30 2216 H 206.905 1.03271 3.59564 0
M  V30 2217 H 208.238 1.33979 4.73614 0
M  V30 2218 N 209.89 -1.43072 0.660911 0
M  V30 2219 C 210.838 -2.32569 -0.0378199 0
M  V30 2220 C 211.832 -1.49046 -0.805092 0
M  V30 2221 O 213.038 -1.65206 -0.714624 0
M  V30 2222 H 209.413 -0.75136 -0.031019 0
M  V30 2223 H 211.384 -2.89216 0.734609 0
M  V30 2224 C 210.133 -3.33453 -0.985124 0
M  V30 2225 H 209.456 -3.97752 -0.404147 0
M  V30 2226 H 210.896 -3.98691 -1.44297 0
M  V30 2227 C 209.355 -2.64642 -2.08486 0
M  V30 2228 O 209.885 -2.46776 -3.16961 0
M  V30 2229 N 208.091 -2.23891 -1.8526 0
M  V30 2230 H 207.638 -2.38621 -0.970449 0
M  V30 2231 H 207.596 -1.78181 -2.59034 0
M  V30 2232 N 211.368 -0.403325 -1.52352 0
M  V30 2233 C 212.278 0.432009 -2.30588 0
M  V30 2234 C 213.294 1.05884 -1.38075 0
M  V30 2235 O 214.47 1.06161 -1.71148 0
M  V30 2236 C 211.535 1.53669 -3.10784 0
M  V30 2237 C 210.596 0.933525 -4.19027 0
M  V30 2238 C 209.829 1.98557 -4.9539 0
M  V30 2239 O 210.052 3.20283 -4.71991 0
M  V30 2240 O 208.986 1.59504 -5.80381 0
M  V30 2241 H 212.812 -0.205739 -3.03002 0
M  V30 2242 H 210.397 -0.166675 -1.48467 0
M  V30 2243 H 212.279 2.17814 -3.60742 0
M  V30 2244 H 210.954 2.15915 -2.41169 0
M  V30 2245 H 209.861 0.254954 -3.7323 0
M  V30 2246 H 211.194 0.35508 -4.90918 0
M  V30 2247 N 212.846 1.57033 -0.133567 0
M  V30 2248 C 213.809 2.14897 0.796995 0
M  V30 2249 C 214.809 1.0874 1.18458 0
M  V30 2250 O 215.999 1.34446 1.1077 0
M  V30 2251 C 213.131 2.70112 2.07973 0
M  V30 2252 H 214.324 2.98457 0.293873 0
M  V30 2253 H 211.877 1.55871 0.115787 0
M  V30 2254 H 212.612 1.9018 2.62682 0
M  V30 2255 H 212.397 3.47764 1.81115 0
M  V30 2256 H 213.887 3.14738 2.74462 0
M  V30 2257 N 214.325 -0.140222 1.56975 0
M  V30 2258 C 215.257 -1.19818 1.95388 0
M  V30 2259 C 216.27 -1.38816 0.850525 0
M  V30 2260 O 217.459 -1.38267 1.12891 0
M  V30 2261 C 214.559 -2.56189 2.21857 0
M  V30 2262 C 213.732 -2.58077 3.5315 0
M  V30 2263 C 212.791 -3.76037 3.6808 0
M  V30 2264 O 211.817 -3.60598 4.40406 0
M  V30 2265 N 213.019 -4.93763 3.05251 0
M  V30 2266 H 215.784 -0.871609 2.86746 0
M  V30 2267 H 213.345 -0.32972 1.58507 0
M  V30 2268 H 215.337 -3.33623 2.2908 0
M  V30 2269 H 213.907 -2.81111 1.36731 0
M  V30 2270 H 213.127 -1.6651 3.57307 0
M  V30 2271 H 214.415 -2.56377 4.39486 0
M  V30 2272 H 213.813 -5.09209 2.46419 0
M  V30 2273 H 212.37 -5.68949 3.18026 0
M  V30 2274 N 215.803 -1.52179 -0.40978 0
M  V30 2275 C 216.766 -1.74853 -1.48186 0
M  V30 2276 C 217.766 -0.618417 -1.48433 0
M  V30 2277 O 218.956 -0.886286 -1.49969 0
M  V30 2278 C 216.088 -1.8303 -2.87598 0
M  V30 2279 H 217.281 -2.70559 -1.29374 0
M  V30 2280 H 214.834 -1.42586 -0.640233 0
M  V30 2281 H 215.569 -0.89236 -3.11781 0
M  V30 2282 H 215.354 -2.65187 -2.88822 0
M  V30 2283 H 216.844 -2.02316 -3.65319 0
M  V30 2284 N 217.281 0.66697 -1.42791 0
M  V30 2285 C 218.529 1.42417 -1.43394 0
M  V30 2286 C 218.85 1.94925 -0.0542373 0
M  V30 2287 O 218.12 1.73564 0.908415 0
M  V30 2288 H 216.7 0.528515 -0.527902 0
M  V30 2289 H 219.362 0.787562 -1.78279 0
M  V30 2290 H 218.458 2.27333 -2.13837 0
M  V30 2291 N 218.759 1.29093 0.90403 0
M  V30 2292 C 220.005 1.17996 1.65676 0
M  V30 2293 C 220.36 -0.266816 1.90541 0
M  V30 2294 O 219.653 -1.19 1.50165 0
M  V30 2295 C 219.847 1.92224 3.01305 0
M  V30 2296 C 219.676 3.43972 2.89678 0
M  V30 2297 C 218.446 4.1332 2.90679 0
M  V30 2298 C 220.644 4.39546 2.67028 0
M  V30 2299 N 218.626 5.51463 2.69743 0
M  V30 2300 C 219.997 5.65119 2.5503 0
M  V30 2301 C 222.052 4.29359 2.52101 0
M  V30 2302 C 220.755 6.81663 2.29626 0
M  V30 2303 C 222.781 5.4565 2.28079 0
M  V30 2304 C 222.143 6.70193 2.16843 0
M  V30 2305 H 218.242 0.486759 0.612037 0
M  V30 2306 H 220.826 1.62868 1.06688 0
M  V30 2307 H 218.997 1.49773 3.58361 0
M  V30 2308 H 220.729 1.73429 3.65656 0
M  V30 2309 H 217.484 3.64984 3.01801 0
M  V30 2310 H 217.908 6.24105 2.6234 0
M  V30 2311 H 222.55 3.33769 2.59534 0
M  V30 2312 H 220.268 7.77313 2.20932 0
M  V30 2313 H 223.854 5.39664 2.1738 0
M  V30 2314 H 222.734 7.58659 1.98511 0
M  V30 2315 N 220.237 -1.11381 1.11499 0
M  V30 2316 C 221.486 -1.82494 0.858993 0
M  V30 2317 C 221.799 -1.85605 -0.617278 0
M  V30 2318 O 223.005 -2.52824 -0.989552 0
M  V30 2319 C 221.461 -3.27745 1.48699 0
M  V30 2320 C 221.069 -3.32961 2.99735 0
M  V30 2321 C 222.813 -4.03754 1.31085 0
M  V30 2322 C 220.72 -4.72612 3.55516 0
M  V30 2323 H 219.65 -0.683802 0.317696 0
M  V30 2324 H 222.301 -1.25331 1.34031 0
M  V30 2325 H 220.683 -3.84844 0.933339 0
M  V30 2326 H 221.857 -2.85741 3.61509 0
M  V30 2327 H 220.172 -2.70433 3.16631 0
M  V30 2328 H 222.769 -5.06891 1.70192 0
M  V30 2329 H 223.112 -4.15527 0.253496 0
M  V30 2330 H 223.645 -3.53043 1.83318 0
M  V30 2331 H 220.384 -4.66036 4.60967 0
M  V30 2332 H 219.904 -5.2024 2.98513 0
M  V30 2333 H 221.583 -5.4157 3.53992 0
M  V30 2334 N 221.715 -0.905404 -1.28997 0
M  V30 2335 C 222.625 -0.392246 -2.31298 0
M  V30 2336 C 223.641 0.515889 -1.66176 0
M  V30 2337 O 224.817 0.404093 -1.97304 0
M  V30 2338 C 221.882 0.36686 -3.44754 0
M  V30 2339 C 220.943 -0.573485 -4.25452 0
M  V30 2340 C 220.176 0.149488 -5.33491 0
M  V30 2341 O 220.399 1.37255 -5.5364 0
M  V30 2342 O 219.333 -0.510919 -5.99728 0
M  V30 2343 H 223.159 -1.2411 -2.77183 0
M  V30 2344 H 220.744 -0.669926 -1.33538 0
M  V30 2345 H 222.626 0.795907 -4.13816 0
M  V30 2346 H 221.301 1.19169 -3.00966 0
M  V30 2347 H 220.208 -1.05176 -3.59011 0
M  V30 2348 H 221.541 -1.36489 -4.72897 0
M  V30 2349 N 223.193 1.4272 -0.668489 0
M  V30 2350 C 224.441 2.01226 -0.187769 0
M  V30 2351 C 224.762 1.53092 1.2078 0
M  V30 2352 O 224.032 0.74993 1.80977 0
M  V30 2353 H 222.612 0.744041 -0.0664272 0
M  V30 2354 H 225.274 1.74723 -0.863583 0
M  V30 2355 H 224.37 3.11556 -0.184166 0
M  V30 2356 N 224.671 0.411399 1.52136 0
M  V30 2357 C 225.634 -0.401089 2.25663 0
M  V30 2358 C 226.634 -0.971732 1.28117 0
M  V30 2359 O 227.824 -0.850254 1.52041 0
M  V30 2360 C 224.956 -1.56483 3.02863 0
M  V30 2361 H 226.149 0.24295 2.98914 0
M  V30 2362 H 223.702 0.163968 1.55438 0
M  V30 2363 H 224.437 -2.24567 2.33967 0
M  V30 2364 H 224.222 -1.16211 3.74483 0
M  V30 2365 H 225.712 -2.13951 3.58629 0
M  V30 2366 N 226.149 -1.5696 0.141893 0
M  V30 2367 C 227.112 -2.15316 -0.785587 0
M  V30 2368 C 228.112 -1.09366 -1.1788 0
M  V30 2369 O 229.302 -1.35031 -1.10056 0
M  V30 2370 C 226.434 -2.71211 -2.06537 0
M  V30 2371 H 227.627 -2.98608 -0.278041 0
M  V30 2372 H 225.18 -1.5593 -0.107519 0
M  V30 2373 H 225.915 -1.91571 -2.6167 0
M  V30 2374 H 225.7 -3.4872 -1.79268 0
M  V30 2375 H 227.19 -3.16189 -2.72789 0
M  V30 2376 N 227.627 0.131896 -1.57047 0
M  V30 2377 C 228.876 0.84044 -1.83356 0
M  V30 2378 C 229.189 1.81646 -0.725535 0
M  V30 2379 O 230.395 2.57025 -0.874659 0
M  V30 2380 C 228.851 1.54528 -3.25037 0
M  V30 2381 C 228.459 0.610902 -4.43815 0
M  V30 2382 C 230.203 2.23972 -3.60606 0
M  V30 2383 C 228.11 1.31823 -5.76521 0
M  V30 2384 H 227.04 0.317599 -0.683847 0
M  V30 2385 H 229.691 0.0931561 -1.83263 0
M  V30 2386 H 228.073 2.33873 -3.19561 0
M  V30 2387 H 229.247 -0.148407 -4.60561 0
M  V30 2388 H 227.562 0.0241016 -4.16393 0
M  V30 2389 H 230.159 2.77558 -4.57018 0
M  V30 2390 H 230.502 3.01173 -2.87403 0
M  V30 2391 H 231.035 1.51529 -3.6781 0
M  V30 2392 H 227.774 0.587771 -6.52859 0
M  V30 2393 H 227.294 2.04987 -5.63685 0
M  V30 2394 H 228.973 1.855 -6.19838 0
M  V30 2395 N 229.106 1.52395 0.401703 0
M  V30 2396 C 230.036 1.79231 1.49661 0
M  V30 2397 C 231.017 0.643654 1.57452 0
M  V30 2398 O 232.202 0.889989 1.72606 0
M  V30 2399 C 229.332 1.94971 2.87409 0
M  V30 2400 C 228.286 3.10604 2.94465 0
M  V30 2401 C 227.612 3.11577 4.34538 0
M  V30 2402 C 228.912 4.49921 2.6527 0
M  V30 2403 H 230.606 2.70917 1.27454 0
M  V30 2404 H 228.152 1.30362 0.6117 0
M  V30 2405 H 230.105 2.12328 3.63999 0
M  V30 2406 H 228.829 0.999632 3.10926 0
M  V30 2407 H 227.488 2.93009 2.20321 0
M  V30 2408 H 227.136 2.14277 4.55076 0
M  V30 2409 H 226.836 3.89247 4.40183 0
M  V30 2410 H 228.36 3.31073 5.13053 0
M  V30 2411 H 229.774 4.67683 3.31581 0
M  V30 2412 H 228.171 5.29564 2.82281 0
M  V30 2413 H 229.241 4.57507 1.60671 0
M  V30 2414 N 230.584 -0.659388 1.43143 0
M  V30 2415 C 231.831 -1.41935 1.44433 0
M  V30 2416 C 232.159 -1.94387 0.0663522 0
M  V30 2417 O 231.414 -1.72314 -0.927706 0
M  V30 2418 C 231.713 -2.62206 2.42864 0
M  V30 2419 C 231.379 -2.28208 3.88886 0
M  V30 2420 C 230.041 -2.18647 4.28657 0
M  V30 2421 C 232.393 -2.00887 4.8093 0
M  V30 2422 C 229.721 -1.79914 5.58433 0
M  V30 2423 C 232.073 -1.63653 6.11065 0
M  V30 2424 C 230.737 -1.52614 6.49819 0
M  V30 2425 H 230.007 -0.519376 0.528517 0
M  V30 2426 H 232.654 -0.750453 1.76183 0
M  V30 2427 H 230.959 -3.34199 2.04495 0
M  V30 2428 H 232.656 -3.2041 2.41119 0
M  V30 2429 H 229.246 -2.36557 3.57406 0
M  V30 2430 H 233.43 -2.07198 4.5098 0
M  V30 2431 H 228.686 -1.69948 5.87305 0
M  V30 2432 H 232.86 -1.41543 6.81864 0
M  V30 2433 H 230.487 -1.22371 7.50286 0
M  V30 2434 N 232.062 -1.29571 -0.897171 0
M  V30 2435 C 233.287 -1.20705 -1.68656 0
M  V30 2436 C 233.712 0.228582 -1.86706 0
M  V30 2437 O 233.07 1.16494 -1.3892 0
M  V30 2438 C 233.118 -1.9282 -3.04717 0
M  V30 2439 O 232.222 -1.24697 -3.93096 0
M  V30 2440 H 231.563 -0.418126 -0.515816 0
M  V30 2441 H 234.093 -1.71183 -1.12061 0
M  V30 2442 H 234.103 -2.01372 -3.54843 0
M  V30 2443 H 232.778 -2.97239 -2.90899 0
M  V30 2444 H 231.355 -1.2442 -3.51531 0
M  V30 2445 N 233.54 1.10788 -1.12088 0
M  V30 2446 C 234.786 1.82942 -0.875226 0
M  V30 2447 C 235.119 1.84779 0.597538 0
M  V30 2448 O 234.394 1.30578 1.44152 0
M  V30 2449 C 234.677 3.29789 -1.44606 0
M  V30 2450 C 234.53 3.36307 -2.98693 0
M  V30 2451 C 235.849 4.26064 -1.10261 0
M  V30 2452 H 232.968 0.664195 -0.319397 0
M  V30 2453 H 235.61 1.29867 -1.38689 0
M  V30 2454 H 233.76 3.75118 -1.01089 0
M  V30 2455 H 235.432 2.99487 -3.50864 0
M  V30 2456 H 233.675 2.76318 -3.34411 0
M  V30 2457 H 234.346 4.39694 -3.33726 0
M  V30 2458 H 236.822 3.88951 -1.4784 0
M  V30 2459 H 235.698 5.27183 -1.52869 0
M  V30 2460 H 235.959 4.42098 -0.0142953 0
M  V30 2461 N 235.018 0.912232 1.28515 0
M  V30 2462 C 236.267 0.540504 1.94323 0
M  V30 2463 C 236.58 -0.920044 1.72611 0
M  V30 2464 O 237.786 -1.39986 2.32629 0
M  V30 2465 C 236.242 0.915803 3.48053 0
M  V30 2466 C 235.85 2.39598 3.78546 0
M  V30 2467 C 237.594 0.614588 4.20027 0
M  V30 2468 C 235.501 2.71148 5.25578 0
M  V30 2469 H 234.431 0.198418 0.727424 0
M  V30 2470 H 237.082 1.11094 1.46049 0
M  V30 2471 H 235.464 0.274168 3.9505 0
M  V30 2472 H 236.638 3.08422 3.42364 0
M  V30 2473 H 234.953 2.66749 3.1974 0
M  V30 2474 H 237.55 0.827002 5.28266 0
M  V30 2475 H 237.893 -0.447531 4.13887 0
M  V30 2476 H 238.426 1.21462 3.78803 0
M  V30 2477 H 235.165 3.76207 5.36794 0
M  V30 2478 H 234.685 2.0696 5.62963 0
M  V30 2479 H 236.364 2.58072 5.93302 0
M  V30 2480 N 236.496 -1.42363 0.676048 0
M  V30 2481 C 237.745 -2.00745 0.196037 0
M  V30 2482 C 238.058 -1.54083 -1.20489 0
M  V30 2483 O 239.264 -2.04891 -1.78134 0
M  V30 2484 C 237.72 -3.58651 0.299616 0
M  V30 2485 C 237.328 -4.143 1.70468 0
M  V30 2486 C 239.072 -4.24326 -0.121619 0
M  V30 2487 C 236.979 -5.64574 1.76096 0
M  V30 2488 H 235.909 -0.750787 0.0695301 0
M  V30 2489 H 238.56 -1.63072 0.841412 0
M  V30 2490 H 236.942 -3.93833 -0.413673 0
M  V30 2491 H 238.116 -3.90575 2.44515 0
M  V30 2492 H 236.431 -3.61081 2.07387 0
M  V30 2493 H 239.028 -5.34607 -0.0997362 0
M  V30 2494 H 239.371 -3.99897 -1.15708 0
M  V30 2495 H 239.904 -3.94108 0.540706 0
M  V30 2496 H 236.643 -5.93804 2.77628 0
M  V30 2497 H 236.163 -5.90286 1.06406 0
M  V30 2498 H 237.842 -6.29013 1.51496 0
M  V30 2499 N 237.974 -0.419461 -1.51915 0
M  V30 2500 C 239.22 0.153166 -2.02221 0
M  V30 2501 C 239.553 1.43907 -1.30401 0
M  V30 2502 O 238.828 1.90055 -0.413438 0
M  V30 2503 C 239.111 0.390291 -3.57979 0
M  V30 2504 C 238.964 -0.913014 -4.40436 0
M  V30 2505 C 240.283 1.16794 -4.2432 0
M  V30 2506 H 237.402 0.0541924 -0.735005 0
M  V30 2507 H 240.044 -0.554955 -1.81715 0
M  V30 2508 H 238.194 0.993491 -3.75582 0
M  V30 2509 H 239.866 -1.54882 -4.34522 0
M  V30 2510 H 238.109 -1.52168 -4.06236 0
M  V30 2511 H 238.78 -0.701361 -5.47526 0
M  V30 2512 H 241.256 0.657161 -4.10878 0
M  V30 2513 H 240.132 1.3026 -5.3322 0
M  V30 2514 H 240.393 2.19132 -3.83971 0
M  V30 2515 N 239.452 1.56882 -0.150215 0
M  V30 2516 C 240.698 1.96518 0.500834 0
M  V30 2517 C 241.031 1.03527 1.64304 0
M  V30 2518 O 240.306 0.0782751 1.94342 0
M  V30 2519 C 240.589 3.45822 1.00395 0
M  V30 2520 C 240.442 4.49591 -0.136983 0
M  V30 2521 C 241.761 3.97704 1.88467 0
M  V30 2522 H 238.88 0.714535 0.18058 0
M  V30 2523 H 241.522 1.88577 -0.232091 0
M  V30 2524 H 239.672 3.5272 1.62851 0
M  V30 2525 H 241.344 4.5477 -0.77343 0
M  V30 2526 H 239.587 4.26441 -0.795652 0
M  V30 2527 H 240.258 5.51402 0.256815 0
M  V30 2528 H 242.734 3.93304 1.35834 0
M  V30 2529 H 241.61 5.0263 2.20578 0
M  V30 2530 H 241.871 3.40252 2.82279 0
M  V30 2531 N 240.93 -0.123565 1.57115 0
M  V30 2532 C 241.86 -1.15309 2.03042 0
M  V30 2533 C 242.841 -1.43454 0.914061 0
M  V30 2534 O 244.026 -1.53973 1.18347 0
M  V30 2535 C 241.156 -2.48043 2.43089 0
M  V30 2536 C 240.11 -2.3437 3.58127 0
M  V30 2537 C 239.436 -3.72026 3.84059 0
M  V30 2538 C 240.736 -1.80804 4.90007 0
M  V30 2539 H 242.43 -0.771102 2.893 0
M  V30 2540 H 239.976 -0.369479 1.39179 0
M  V30 2541 H 241.929 -3.20311 2.73823 0
M  V30 2542 H 240.653 -2.88122 1.53796 0
M  V30 2543 H 239.312 -1.64551 3.27595 0
M  V30 2544 H 238.96 -4.09582 2.91979 0
M  V30 2545 H 238.66 -3.63732 4.6149 0
M  V30 2546 H 240.184 -4.45806 4.1724 0
M  V30 2547 H 241.598 -2.42886 5.19307 0
M  V30 2548 H 239.995 -1.83343 5.71407 0
M  V30 2549 H 241.065 -0.76528 4.78823 0
M  V30 2550 N 242.408 -1.52605 -0.393616 0
M  V30 2551 C 243.654 -1.67672 -1.14079 0
M  V30 2552 C 243.987 -0.413121 -1.89755 0
M  V30 2553 O 243.262 0.588952 -1.85369 0
M  V30 2554 C 243.545 -2.9088 -2.12276 0
M  V30 2555 C 243.398 -4.27329 -1.40394 0
M  V30 2556 C 244.717 -3.09628 -3.12759 0
M  V30 2557 H 241.836 -0.610168 -0.413356 0
M  V30 2558 H 244.478 -1.85193 -0.424696 0
M  V30 2559 H 242.628 -2.76073 -2.73342 0
M  V30 2560 H 244.3 -4.53894 -0.82327 0
M  V30 2561 H 242.543 -4.2802 -0.705801 0
M  V30 2562 H 243.214 -5.09615 -2.12123 0
M  V30 2563 H 245.69 -3.23436 -2.61779 0
M  V30 2564 H 244.566 -3.97322 -3.78717 0
M  V30 2565 H 244.827 -2.23637 -3.81365 0
M  V30 2566 N 243.887 0.651787 -1.4349 0
M  V30 2567 C 245.115 1.43937 -1.48626 0
M  V30 2568 C 245.53 1.8851 -0.104587 0
M  V30 2569 O 244.887 1.5958 0.885464 0
M  V30 2570 C 244.938 2.6734 -2.43334 0
M  V30 2571 O 244.659 2.24631 -3.76128 0
M  V30 2572 C 246.16 3.60683 -2.57726 0
M  V30 2573 H 243.38 0.44213 -0.504739 0
M  V30 2574 H 245.924 0.798944 -1.88248 0
M  V30 2575 H 244.079 3.2752 -2.06904 0
M  V30 2576 H 244.493 3.04485 -4.2707 0
M  V30 2577 H 245.967 4.43933 -3.28067 0
M  V30 2578 H 246.444 4.08126 -1.62265 0
M  V30 2579 H 247.05 3.06384 -2.94973 0
M  V30 2580 N 245.365 1.30045 0.890287 0
M  V30 2581 C 246.328 1.15963 1.977 0
M  V30 2582 C 247.328 0.0923777 1.60534 0
M  V30 2583 O 248.518 0.340071 1.70848 0
M  V30 2584 C 245.65 0.775451 3.31963 0
M  V30 2585 H 246.843 2.12502 2.11619 0
M  V30 2586 H 244.396 1.13366 1.07601 0
M  V30 2587 H 245.131 -0.189671 3.23745 0
M  V30 2588 H 244.916 1.54668 3.60306 0
M  V30 2589 H 246.406 0.700251 4.11687 0
M  V30 2590 N 246.843 -1.10192 1.12674 0
M  V30 2591 C 248.09 -1.82205 0.883606 0
M  V30 2592 C 248.418 -1.8532 -0.590492 0
M  V30 2593 O 247.673 -1.31137 -1.45264 0
M  V30 2594 C 247.972 -3.28552 1.4067 0
M  V30 2595 C 247.638 -3.45582 2.89627 0
M  V30 2596 C 246.3 -3.49937 3.30299 0
M  V30 2597 C 248.652 -3.50768 3.85501 0
M  V30 2598 C 245.98 -3.57049 4.65546 0
M  V30 2599 C 248.332 -3.59414 5.20581 0
M  V30 2600 C 246.996 -3.62034 5.60792 0
M  V30 2601 H 246.266 -0.666735 0.323334 0
M  V30 2602 H 248.913 -1.29868 1.40736 0
M  V30 2603 H 247.218 -3.83473 0.80347 0
M  V30 2604 H 248.915 -3.82788 1.19475 0
M  V30 2605 H 245.505 -3.42871 2.57172 0
M  V30 2606 H 249.689 -3.46651 3.55171 0
M  V30 2607 H 244.945 -3.57361 4.96088 0
M  V30 2608 H 249.119 -3.62371 5.94693 0
M  V30 2609 H 246.746 -3.67298 6.6558 0
M  V30 2610 N 248.321 -0.919034 -1.28029 0
M  V30 2611 C 249.269 -0.401753 -2.29104 0
M  V30 2612 C 250.263 0.509354 -1.61561 0
M  V30 2613 O 251.469 0.390014 -1.75724 0
M  V30 2614 H 247.844 -0.111331 -0.743713 0
M  V30 2615 H 249.815 -1.2672 -2.70156 0
M  V30 2616 C 248.564 0.338148 -3.46052 0
M  V30 2617 H 247.887 -0.353732 -3.98232 0
M  V30 2618 H 249.327 0.664653 -4.18758 0
M  V30 2619 C 247.786 1.54798 -2.99231 0
M  V30 2620 O 248.316 2.64696 -3.02157 0
M  V30 2621 N 246.522 1.3968 -2.54829 0
M  V30 2622 H 246.069 0.502698 -2.52647 0
M  V30 2623 H 246.027 2.20755 -2.23863 0
M  V30 2624 N 249.799 1.42003 -0.683588 0
M  V30 2625 C 251.076 1.95112 -0.138075 0
M  V30 2626 C 251.456 1.62359 1.34918 0
M  V30 2627 O 250.804 0.924311 2.08971 0
M  V30 2628 C 251.014 3.46505 -0.416581 0
M  V30 2629 C 252.362 4.23254 -0.337834 0
M  V30 2630 O 253.386 3.54468 -0.35082 0
M  V30 2631 O 252.245 5.45743 -0.287596 0
M  V30 2632 H 249.339 0.826961 -0.00797996 0
M  V30 2633 H 251.885 1.51784 -0.758924 0
M  V30 2634 H 250.657 3.63582 -1.4465 0
M  V30 2635 H 250.28 3.969 0.235839 0
M  V30 2636 N 251.277 0.427512 1.51691 0
M  V30 2637 C 252.523 -0.134744 2.02953 0
M  V30 2638 C 252.878 -1.41235 1.30654 0
M  V30 2639 O 252.171 -1.87168 0.409713 0
M  V30 2640 C 252.365 -0.418249 3.54944 0
M  V30 2641 C 252.194 0.830327 4.41968 0
M  V30 2642 C 250.964 1.36097 4.86627 0
M  V30 2643 C 253.162 1.7137 4.84909 0
M  V30 2644 N 251.144 2.56311 5.57833 0
M  V30 2645 C 252.515 2.76195 5.55082 0
M  V30 2646 C 254.57 1.72928 4.66905 0
M  V30 2647 C 253.273 3.82512 6.09161 0
M  V30 2648 C 255.299 2.78175 5.21894 0
M  V30 2649 C 254.661 3.8172 5.92004 0
M  V30 2650 H 250.76 -0.0103958 0.781931 0
M  V30 2651 H 253.344 0.585981 1.85673 0
M  V30 2652 H 251.515 -1.10801 3.7226 0
M  V30 2653 H 253.247 -0.970999 3.92879 0
M  V30 2654 H 250.002 0.916311 4.64651 0
M  V30 2655 H 250.426 3.17242 5.98069 0
M  V30 2656 H 255.068 0.942081 4.12171 0
M  V30 2657 H 252.786 4.62077 6.62956 0
M  V30 2658 H 256.372 2.8031 5.09821 0
M  V30 2659 H 255.252 4.61821 6.33791 0
M  V30 2660 N 252.755 -1.56801 0.158532 0
M  V30 2661 C 253.98 -2.01295 -0.499516 0
M  V30 2662 C 254.405 -1.03799 -1.56867 0
M  V30 2663 O 253.763 -0.0155162 -1.81293 0
M  V30 2664 C 253.811 -3.44469 -1.06647 0
M  V30 2665 O 252.915 -3.50012 -2.18095 0
M  V30 2666 H 252.256 -0.652884 -0.12099 0
M  V30 2667 H 254.786 -2.02958 0.258661 0
M  V30 2668 H 254.796 -3.8351 -1.39227 0
M  V30 2669 H 253.471 -4.14932 -0.283581 0
M  V30 2670 H 252.048 -3.22822 -1.86656 0
M  V30 2671 N 254.233 0.115231 -1.57178 0
M  V30 2672 C 255.18 1.14115 -2.00615 0
M  V30 2673 C 256.15 1.40939 -0.878941 0
M  V30 2674 O 257.335 1.52741 -1.14345 0
M  V30 2675 C 254.475 2.46156 -2.4187 0
M  V30 2676 C 253.588 2.26236 -3.68024 0
M  V30 2677 C 252.723 3.51534 -3.98243 0
M  V30 2678 C 251.762 3.26787 -5.17568 0
M  V30 2679 N 250.899 4.44298 -5.43639 0
M  V30 2680 H 255.739 0.763743 -2.88047 0
M  V30 2681 H 253.276 0.365615 -1.42484 0
M  V30 2682 H 255.234 3.23189 -2.63827 0
M  V30 2683 H 253.864 2.81783 -1.57475 0
M  V30 2684 H 252.916 1.40102 -3.5366 0
M  V30 2685 H 254.228 2.03929 -4.55208 0
M  V30 2686 H 253.382 4.36984 -4.20868 0
M  V30 2687 H 252.121 3.76876 -3.09541 0
M  V30 2688 H 251.126 2.39729 -4.94783 0
M  V30 2689 H 252.351 3.02812 -6.0785 0
M  V30 2690 H 250.297 4.69754 -4.57895 0
M  V30 2691 H 250.214 4.25109 -6.25154 0
M  V30 2692 H 251.482 5.3087 -5.70786 0
M  V30 2693 N 255.711 1.52812 0.385517 0
M  V30 2694 C 256.621 1.80766 1.49535 0
M  V30 2695 C 257.637 0.694651 1.59532 0
M  V30 2696 O 258.813 0.982611 1.75803 0
M  V30 2697 C 255.878 1.97381 2.85029 0
M  V30 2698 C 254.939 3.21295 2.84724 0
M  V30 2699 C 254.172 3.37108 4.13756 0
M  V30 2700 O 254.395 2.5765 5.08893 0
M  V30 2701 O 253.329 4.30378 4.20783 0
M  V30 2702 H 257.155 2.75015 1.28842 0
M  V30 2703 H 254.74 1.37946 0.573697 0
M  V30 2704 H 256.622 2.09996 3.65349 0
M  V30 2705 H 255.297 1.06322 3.05741 0
M  V30 2706 H 254.204 3.1412 2.03174 0
M  V30 2707 H 255.537 4.12212 2.68965 0
M  V30 2708 N 257.189 -0.644168 1.43834 0
M  V30 2709 C 258.136 -1.75671 1.49694 0
M  V30 2710 C 259.106 -1.6246 0.345809 0
M  V30 2711 O 260.291 -1.82573 0.554234 0
M  V30 2712 C 257.431 -3.13867 1.43463 0
M  V30 2713 C 256.544 -3.38147 2.6885 0
M  V30 2714 C 255.679 -4.66241 2.54544 0
M  V30 2715 C 254.718 -4.83657 3.75157 0
M  V30 2716 N 253.855 -6.03016 3.59605 0
M  V30 2717 H 258.695 -1.69998 2.44754 0
M  V30 2718 H 256.232 -0.829458 1.21484 0
M  V30 2719 H 258.19 -3.9377 1.37843 0
M  V30 2720 H 256.82 -3.18588 0.519783 0
M  V30 2721 H 255.872 -2.52276 2.84712 0
M  V30 2722 H 257.184 -3.46899 3.58417 0
M  V30 2723 H 256.338 -5.54285 2.46683 0
M  V30 2724 H 255.077 -4.59826 1.62516 0
M  V30 2725 H 254.082 -3.94046 3.83416 0
M  V30 2726 H 255.307 -4.91896 4.68204 0
M  V30 2727 H 253.253 -5.97715 2.7032 0
M  V30 2728 H 253.17 -6.12766 4.42779 0
M  V30 2729 H 254.438 -6.93657 3.55613 0
M  V30 2730 N 258.668 -1.30515 -0.883378 0
M  V30 2731 C 259.6 -1.12846 -1.99496 0
M  V30 2732 C 260.613 -0.0712571 -1.62644 0
M  V30 2733 O 261.802 -0.317432 -1.75655 0
M  V30 2734 C 258.902 -0.699123 -3.3161 0
M  V30 2735 C 258.075 -1.83842 -3.96889 0
M  V30 2736 C 257.134 -1.39737 -5.07307 0
M  V30 2737 O 256.16 -2.10485 -5.28852 0
M  V30 2738 N 257.362 -0.277279 -5.79837 0
M  V30 2739 H 260.127 -2.08585 -2.15203 0
M  V30 2740 H 257.688 -1.22672 -1.05656 0
M  V30 2741 H 259.68 -0.387044 -4.02845 0
M  V30 2742 H 258.25 0.166276 -3.12157 0
M  V30 2743 H 257.47 -2.31853 -3.18807 0
M  V30 2744 H 258.758 -2.60187 -4.37241 0
M  V30 2745 H 258.156 0.3122 -5.64838 0
M  V30 2746 H 256.713 -0.0246623 -6.51795 0
M  V30 2747 N 260.146 1.09593 -1.13257 0
M  V30 2748 C 261.393 1.81734 -0.893257 0
M  V30 2749 C 261.721 1.8563 0.580656 0
M  V30 2750 O 260.976 1.31906 1.44566 0
M  V30 2751 C 261.275 3.27802 -1.42411 0
M  V30 2752 C 260.941 3.44041 -2.91456 0
M  V30 2753 C 259.603 3.48181 -3.3215 0
M  V30 2754 C 261.955 3.48719 -3.87356 0
M  V30 2755 C 259.283 3.54575 -4.67433 0
M  V30 2756 C 261.635 3.56648 -5.2248 0
M  V30 2757 C 260.299 3.59055 -5.62704 0
M  V30 2758 H 259.569 0.665011 -0.326866 0
M  V30 2759 H 262.216 1.2912 -1.41422 0
M  V30 2760 H 260.521 3.83042 -0.823795 0
M  V30 2761 H 262.218 3.82149 -1.21503 0
M  V30 2762 H 258.808 3.41502 -2.58987 0
M  V30 2763 H 262.992 3.44763 -3.57004 0
M  V30 2764 H 258.248 3.54725 -4.97976 0
M  V30 2765 H 262.422 3.59212 -5.96607 0
M  V30 2766 H 260.049 3.63763 -6.67518 0
M  V30 2767 N 261.624 0.925811 1.2754 0
M  V30 2768 C 263.04 0.625767 1.46821 0
M  V30 2769 C 263.24 -0.825506 1.83814 0
M  V30 2770 O 262.296 -1.60356 1.95044 0
M  V30 2771 C 263.609 1.57402 2.56213 0
M  V30 2772 C 265.157 1.58204 2.70075 0
M  V30 2773 C 265.632 2.51721 3.82623 0
M  V30 2774 N 267.123 2.49917 3.89994 0
M  V30 2775 C 267.858 3.18968 4.76494 0
M  V30 2776 N 267.354 3.97391 5.67496 0
M  V30 2777 N 269.147 3.07996 4.70208 0
M  V30 2778 H 261.298 1.86409 1.01811 0
M  V30 2779 H 263.561 0.800213 0.508295 0
M  V30 2780 H 263.267 2.60925 2.35819 0
M  V30 2781 H 263.141 1.31428 3.53563 0
M  V30 2782 H 265.528 0.554124 2.89851 0
M  V30 2783 H 265.609 1.88226 1.73218 0
M  V30 2784 H 265.253 3.54622 3.63601 0
M  V30 2785 H 265.183 2.18996 4.78903 0
M  V30 2786 H 267.674 1.9296 3.24923 0
M  V30 2787 H 267.987 4.4707 6.30356 0
M  V30 2788 H 266.332 4.01495 5.67298 0
M  V30 2789 H 269.523 2.46223 3.9811 0
M  V30 2790 H 269.696 3.6208 5.37403 0
M  V30 2791 N 263.102 -1.41638 0.69111 0
M  V30 2792 C 264.35 -2.00902 0.219758 0
M  V30 2793 C 264.671 -1.54994 -1.18329 0
M  V30 2794 O 263.941 -0.778628 -1.79762 0
M  V30 2795 H 262.521 -0.74289 0.0782558 0
M  V30 2796 H 265.183 -1.73327 0.891271 0
M  V30 2797 H 264.279 -3.11224 0.233708 0
M  V30 2798 N 264.58 -0.43555 -1.51462 0
M  V30 2799 C 265.51 0.367376 -2.30592 0
M  V30 2800 C 266.491 1.02263 -1.35928 0
M  V30 2801 O 267.676 1.02661 -1.64847 0
M  V30 2802 C 264.806 1.46983 -3.14664 0
M  V30 2803 C 263.76 0.938161 -4.17591 0
M  V30 2804 C 263.086 2.13622 -4.90173 0
M  V30 2805 C 264.386 -0.0261621 -5.22293 0
M  V30 2806 H 266.08 -0.292969 -2.97963 0
M  V30 2807 H 263.626 -0.14234 -1.43295 0
M  V30 2808 H 265.579 2.03873 -3.688 0
M  V30 2809 H 264.303 2.15843 -2.4511 0
M  V30 2810 H 262.962 0.391481 -3.64504 0
M  V30 2811 H 262.61 2.81098 -4.17124 0
M  V30 2812 H 262.31 1.78688 -5.59772 0
M  V30 2813 H 263.834 2.7107 -5.47132 0
M  V30 2814 H 265.248 0.452384 -5.71512 0
M  V30 2815 H 263.645 -0.287992 -5.99409 0
M  V30 2816 H 264.715 -0.963391 -4.75233 0
M  V30 2817 N 266.058 1.56714 -0.166846 0
M  V30 2818 C 266.99 2.14914 0.796537 0
M  V30 2819 C 268.003 1.10357 1.19688 0
M  V30 2820 O 269.192 1.37561 1.13751 0
M  V30 2821 C 266.292 2.67326 2.08303 0
M  V30 2822 C 265.465 3.96493 1.84696 0
M  V30 2823 C 264.524 4.34014 2.97521 0
M  V30 2824 O 263.55 5.01973 2.6835 0
M  V30 2825 N 264.752 3.95208 4.25196 0
M  V30 2826 H 267.517 2.98205 0.299006 0
M  V30 2827 H 265.078 1.61892 0.0160839 0
M  V30 2828 H 267.07 2.89428 2.82867 0
M  V30 2829 H 265.64 1.88649 2.4926 0
M  V30 2830 H 264.86 3.82814 0.940602 0
M  V30 2831 H 266.148 4.8086 1.66285 0
M  V30 2832 H 265.546 3.40487 4.51758 0
M  V30 2833 H 264.103 4.2232 4.96477 0
M  V30 2834 N 267.536 -0.106894 1.57237 0
M  V30 2835 C 268.776 -0.818277 1.87306 0
M  V30 2836 C 269.14 -1.76474 0.756371 0
M  V30 2837 O 270.341 -2.5186 0.939155 0
M  V30 2838 C 268.612 -1.53806 3.22612 0
M  V30 2839 S 270.171 -2.28935 3.74345 0
M  V30 2840 H 266.989 -0.272862 0.656557 0
M  V30 2841 H 269.591 -0.075988 1.95352 0
M  V30 2842 H 268.295 -0.834951 4.01817 0
M  V30 2843 H 267.826 -2.32049 3.17674 0
M  V30 2844 H 269.841 -3.54871 3.46815 0
M  V30 2845 N 269.014 -1.53014 -0.377408 0
M  V30 2846 C 270.43 -1.42523 -0.718281 0
M  V30 2847 C 270.63 -0.55487 -1.9371 0
M  V30 2848 O 269.686 -0.0327593 -2.52479 0
M  V30 2849 C 270.999 -2.85546 -0.942539 0
M  V30 2850 C 272.547 -2.95101 -1.04329 0
M  V30 2851 C 273.022 -4.3916 -1.3001 0
M  V30 2852 N 274.513 -4.42536 -1.36806 0
M  V30 2853 C 275.248 -5.51097 -1.58364 0
M  V30 2854 N 274.744 -6.69724 -1.77317 0
M  V30 2855 N 276.537 -5.38657 -1.60638 0
M  V30 2856 H 268.688 -2.08116 0.424426 0
M  V30 2857 H 270.951 -0.939352 0.127759 0
M  V30 2858 H 270.657 -3.51499 -0.118929 0
M  V30 2859 H 270.531 -3.28493 -1.85397 0
M  V30 2860 H 272.918 -2.29309 -1.85745 0
M  V30 2861 H 272.999 -2.55566 -0.109505 0
M  V30 2862 H 272.643 -5.05521 -0.490991 0
M  V30 2863 H 272.573 -4.76258 -2.24691 0
M  V30 2864 H 275.064 -3.57039 -1.23821 0
M  V30 2865 H 275.377 -7.48233 -1.93306 0
M  V30 2866 H 273.722 -6.72732 -1.74518 0
M  V30 2867 H 276.913 -4.44948 -1.45391 0
M  V30 2868 H 277.086 -6.2333 -1.77098 0
M  V30 2869 N 270.492 0.636531 -1.44174 0
M  V30 2870 C 271.741 1.39213 -1.45954 0
M  V30 2871 C 272.054 1.95374 -0.0939119 0
M  V30 2872 O 273.26 2.71498 0.0107767 0
M  V30 2873 C 271.716 2.52025 -2.56927 0
M  V30 2874 C 271.324 2.024 -3.99673 0
M  V30 2875 C 273.068 3.29269 -2.67922 0
M  V30 2876 C 270.975 3.12521 -5.0208 0
M  V30 2877 H 269.905 0.523132 -0.542999 0
M  V30 2878 H 272.556 0.685349 -1.70221 0
M  V30 2879 H 270.938 3.25253 -2.25891 0
M  V30 2880 H 272.112 1.36073 -4.40251 0
M  V30 2881 H 270.427 1.37987 -3.92872 0
M  V30 2882 H 273.024 4.11352 -3.41605 0
M  V30 2883 H 273.367 3.78397 -1.73555 0
M  V30 2884 H 273.9 2.63129 -2.98342 0
M  V30 2885 H 270.639 2.68343 -5.98057 0
M  V30 2886 H 270.159 3.77507 -4.66099 0
M  V30 2887 H 271.838 3.77385 -5.25538 0
M  V30 2888 N 271.97 1.30982 0.876444 0
M  V30 2889 C 272.88 1.2003 2.01569 0
M  V30 2890 C 273.896 0.11838 1.73597 0
M  V30 2891 O 275.072 0.33495 1.98595 0
M  V30 2892 C 272.137 0.901637 3.34771 0
M  V30 2893 C 271.198 2.06979 3.76109 0
M  V30 2894 C 270.431 1.78529 5.02954 0
M  V30 2895 O 270.654 0.717296 5.65872 0
M  V30 2896 O 269.588 2.64019 5.40905 0
M  V30 2897 H 273.414 2.15753 2.13739 0
M  V30 2898 H 270.999 1.10658 1.00375 0
M  V30 2899 H 272.881 0.750645 4.1466 0
M  V30 2900 H 271.556 -0.0256141 3.2369 0
M  V30 2901 H 270.463 2.27616 2.96887 0
M  V30 2902 H 271.796 2.97907 3.91807 0
M  V30 2903 N 273.449 -1.08991 1.13837 0
M  V30 2904 C 274.381 -2.15606 0.777612 0
M  V30 2905 C 275.394 -1.61533 -0.202739 0
M  V30 2906 O 276.583 -1.78491 0.0181055 0
M  V30 2907 C 273.683 -3.3864 0.132623 0
M  V30 2908 C 272.856 -4.22115 1.1462 0
M  V30 2909 C 271.915 -5.23564 0.526074 0
M  V30 2910 O 270.941 -5.56678 1.18735 0
M  V30 2911 N 272.143 -5.76266 -0.699866 0
M  V30 2912 H 274.908 -2.47159 1.69506 0
M  V30 2913 H 272.469 -1.24747 1.03198 0
M  V30 2914 H 274.461 -4.03626 -0.29459 0
M  V30 2915 H 273.031 -3.04938 -0.687849 0
M  V30 2916 H 272.251 -3.53199 1.75055 0
M  V30 2917 H 273.539 -4.74709 1.83109 0
M  V30 2918 H 272.937 -5.51585 -1.25581 0
M  V30 2919 H 271.494 -6.42963 -1.06968 0
M  V30 2920 N 274.927 -0.932562 -1.27047 0
M  V30 2921 C 275.837 -0.441219 -2.30414 0
M  V30 2922 C 276.853 0.480525 -1.67233 0
M  V30 2923 O 278.029 0.362151 -1.98117 0
M  V30 2924 C 275.094 0.293651 -3.45454 0
M  V30 2925 C 274.155 -0.663601 -4.2414 0
M  V30 2926 C 273.388 0.0362932 -5.33688 0
M  V30 2927 O 273.611 1.2548 -5.56427 0
M  V30 2928 O 272.545 -0.638015 -5.98509 0
M  V30 2929 H 276.371 -1.29962 -2.74488 0
M  V30 2930 H 273.956 -0.6981 -1.32087 0
M  V30 2931 H 275.838 0.707951 -4.15411 0
M  V30 2932 H 274.513 1.12758 -3.03426 0
M  V30 2933 H 273.42 -1.12768 -3.56699 0
M  V30 2934 H 274.753 -1.46489 -4.69896 0
M  V30 2935 N 276.405 1.4127 -0.698611 0
M  V30 2936 C 277.337 2.292 0.00399731 0
M  V30 2937 C 278.35 1.44944 0.741279 0
M  V30 2938 O 279.539 1.68416 0.591477 0
M  V30 2939 C 276.639 3.22875 1.02979 0
M  V30 2940 C 275.812 4.35904 0.36151 0
M  V30 2941 C 274.871 5.10134 1.29033 0
M  V30 2942 O 273.897 5.63809 0.781562 0
M  V30 2943 N 275.099 5.17885 2.6225 0
M  V30 2944 H 277.864 2.9014 -0.750921 0
M  V30 2945 H 275.425 1.52455 -0.544882 0
M  V30 2946 H 277.417 3.69404 1.65296 0
M  V30 2947 H 275.987 2.63221 1.68622 0
M  V30 2948 H 275.207 3.91719 -0.441584 0
M  V30 2949 H 276.495 5.08696 -0.103055 0
M  V30 2950 H 275.893 4.7573 3.061 0
M  V30 2951 H 274.45 5.6798 3.19754 0
M  V30 2952 N 277.883 0.443576 1.51229 0
M  V30 2953 C 278.83 -0.364716 2.279 0
M  V30 2954 C 279.8 -1.0114 1.31757 0
M  V30 2955 O 280.985 -1.02912 1.60667 0
M  V30 2956 C 278.125 -1.45644 3.12861 0
M  V30 2957 C 277.238 -0.827269 4.24005 0
M  V30 2958 C 276.373 -1.89456 4.96266 0
M  V30 2959 C 275.412 -1.24416 5.99322 0
M  V30 2960 N 274.549 -2.25309 6.64966 0
M  V30 2961 H 279.389 0.295464 2.96532 0
M  V30 2962 H 276.926 0.157554 1.46254 0
M  V30 2963 H 278.884 -2.10076 3.6045 0
M  V30 2964 H 277.514 -2.08616 2.46331 0
M  V30 2965 H 276.566 -0.0710839 3.80334 0
M  V30 2966 H 277.878 -0.312481 4.9782 0
M  V30 2967 H 277.032 -2.61535 5.47434 0
M  V30 2968 H 275.771 -2.4431 4.22095 0
M  V30 2969 H 274.776 -0.508868 5.4744 0
M  V30 2970 H 276.001 -0.702882 6.75453 0
M  V30 2971 H 273.947 -2.79231 5.93604 0
M  V30 2972 H 273.864 -1.78739 7.34567 0
M  V30 2973 H 275.132 -2.96853 7.20763 0
M  V30 2974 N 279.361 -1.56624 0.175154 0
M  V30 2975 C 280.608 -1.96999 -0.468811 0
M  V30 2976 C 280.936 -1.06129 -1.62994 0
M  V30 2977 O 280.191 -0.0961771 -1.95464 0
M  V30 2978 C 280.49 -3.43419 -0.989864 0
M  V30 2979 C 280.156 -4.50866 0.0557687 0
M  V30 2980 C 278.818 -4.79975 0.343134 0
M  V30 2981 C 281.17 -5.15551 0.765308 0
M  V30 2982 C 278.498 -5.71066 1.34536 0
M  V30 2983 C 280.85 -6.07724 1.75654 0
M  V30 2984 C 279.514 -6.35199 2.05132 0
M  V30 2985 H 278.784 -0.720869 -0.17155 0
M  V30 2986 H 281.431 -1.89616 0.267924 0
M  V30 2987 H 279.736 -3.47772 -1.80449 0
M  V30 2988 H 281.433 -3.72002 -1.49719 0
M  V30 2989 H 278.023 -4.28229 -0.178381 0
M  V30 2990 H 282.207 -4.9317 0.556513 0
M  V30 2991 H 277.463 -5.90635 1.57988 0
M  V30 2992 H 281.637 -6.56912 2.31169 0
M  V30 2993 H 279.264 -7.05584 2.8294 0
M  V30 2994 N 280.839 0.0985539 -1.57292 0
M  V30 2995 C 282.064 0.820196 -1.90493 0
M  V30 2996 C 282.489 1.71658 -0.769094 0
M  V30 2997 O 281.847 1.79133 0.279495 0
M  V30 2998 C 281.895 1.61242 -3.22542 0
M  V30 2999 O 280.999 2.72108 -3.09888 0
M  V30 3000 H 280.34 0.225547 -0.62452 0
M  V30 3001 H 282.87 0.0748159 -2.04463 0
M  V30 3002 H 282.88 1.99737 -3.55766 0
M  V30 3003 H 281.555 0.954535 -4.04798 0
M  V30 3004 H 280.132 2.36667 -2.88172 0
M  V30 3005 N 282.317 1.53212 0.369288 0
M  V30 3006 C 283.566 1.68436 1.10961 0
M  V30 3007 C 283.879 0.440738 1.9057 0
M  V30 3008 O 285.085 0.473446 2.6734 0
M  V30 3009 C 283.541 2.97744 2.0218 0
M  V30 3010 C 283.149 4.29355 1.279 0
M  V30 3011 C 284.893 3.22334 2.76226 0
M  V30 3012 C 282.8 5.49755 2.17999 0
M  V30 3013 H 281.73 0.627568 0.41794 0
M  V30 3014 H 284.381 1.79713 0.370884 0
M  V30 3015 H 282.763 2.8026 2.79768 0
M  V30 3016 H 283.937 4.57458 0.554007 0
M  V30 3017 H 282.252 4.11179 0.657311 0
M  V30 3018 H 284.849 4.09471 3.43857 0
M  V30 3019 H 285.192 2.38238 3.41392 0
M  V30 3020 H 285.725 3.40475 2.05723 0
M  V30 3021 H 282.464 6.36318 1.57417 0
M  V30 3022 H 281.984 5.25937 2.88359 0
M  V30 3023 H 283.663 5.84401 2.77641 0
M  V30 3024 N 283.795 -0.628877 1.44509 0
M  V30 3025 C 285.044 -1.38437 1.4669 0
M  V30 3026 C 285.357 -1.95322 0.104272 0
M  V30 3027 O 286.563 -2.715 0.00362163 0
M  V30 3028 C 285.019 -2.50659 2.5826 0
M  V30 3029 C 284.627 -2.00277 4.0074 0
M  V30 3030 C 286.371 -3.27844 2.69664 0
M  V30 3031 C 284.278 -3.09854 5.0373 0
M  V30 3032 H 283.208 -0.520245 0.545766 0
M  V30 3033 H 285.859 -0.676313 1.70582 0
M  V30 3034 H 284.241 -3.2405 2.27612 0
M  V30 3035 H 285.415 -1.33736 4.40966 0
M  V30 3036 H 283.73 -1.35901 3.93599 0
M  V30 3037 H 286.327 -4.09534 3.43781 0
M  V30 3038 H 286.67 -3.77471 1.75559 0
M  V30 3039 H 287.203 -2.61543 2.99733 0
M  V30 3040 H 283.942 -2.65168 5.99472 0
M  V30 3041 H 283.462 -3.7503 4.68095 0
M  V30 3042 H 285.141 -3.74592 5.27532 0
M  V30 3043 N 285.273 -1.31445 -0.869486 0
M  V30 3044 C 286.689 -1.10113 -1.15531 0
M  V30 3045 C 286.889 0.128087 -2.01092 0
M  V30 3046 O 285.945 0.817276 -2.38908 0
M  V30 3047 C 287.258 -2.37291 -1.84698 0
M  V30 3048 C 288.806 -2.42906 -1.97397 0
M  V30 3049 C 289.281 -3.69967 -2.69979 0
M  V30 3050 N 290.772 -3.70864 -2.77514 0
M  V30 3051 C 291.507 -4.65875 -3.34287 0
M  V30 3052 N 291.003 -5.71242 -3.91988 0
M  V30 3053 N 292.796 -4.53394 -3.3225 0
M  V30 3054 H 284.947 -2.1028 -0.299347 0
M  V30 3055 H 287.21 -0.927683 -0.195214 0
M  V30 3056 H 286.916 -3.27078 -1.29278 0
M  V30 3057 H 286.79 -2.47125 -2.84972 0
M  V30 3058 H 289.177 -1.53588 -2.51982 0
M  V30 3059 H 289.258 -2.37036 -0.961643 0
M  V30 3060 H 288.902 -4.59652 -2.16062 0
M  V30 3061 H 288.832 -3.73103 -3.7162 0
M  V30 3062 H 291.323 -2.94697 -2.36563 0
M  V30 3063 H 291.636 -6.39817 -4.33421 0
M  V30 3064 H 289.981 -5.75015 -3.90362 0
M  V30 3065 H 293.172 -3.70252 -2.8641 0
M  V30 3066 H 293.345 -5.27617 -3.76197 0
M  V30 3067 N 286.751 1.08385 -1.14413 0
M  V30 3068 C 287.699 2.17406 -0.826888 0
M  V30 3069 C 288.693 1.6827 0.195312 0
M  V30 3070 O 289.899 1.79927 0.0513892 0
M  V30 3071 H 286.274 0.70934 -0.249681 0
M  V30 3072 H 288.245 2.41388 -1.75426 0
M  V30 3073 C 286.994 3.46215 -0.320979 0
M  V30 3074 H 286.317 3.84401 -1.0989 0
M  V30 3075 H 287.757 4.23777 -0.137549 0
M  V30 3076 C 286.216 3.23067 0.955472 0
M  V30 3077 O 286.746 3.4668 2.02918 0
M  V30 3078 N 284.952 2.7661 0.890798 0
M  V30 3079 H 284.499 2.57594 0.0168815 0
M  V30 3080 H 284.457 2.61501 1.74542 0
M  V30 3081 N 288.23 0.939286 1.26551 0
M  V30 3082 C 289.478 0.58469 1.93457 0
M  V30 3083 C 289.799 -0.878774 1.74076 0
M  V30 3084 O 289.069 -1.62421 1.09528 0
M  V30 3085 H 287.649 0.21325 0.715914 0
M  V30 3086 H 290.311 1.1942 1.54029 0
M  V30 3087 H 289.407 0.800849 3.0165 0
M  V30 3088 N 289.708 -1.40897 0.706093 0
M  V30 3089 C 290.64 -2.29199 0.00815776 0
M  V30 3090 C 291.653 -1.45336 -0.733582 0
M  V30 3091 O 292.842 -1.68727 -0.582537 0
M  V30 3092 C 289.942 -3.23417 -1.01265 0
M  V30 3093 C 289.115 -4.36089 -0.338387 0
M  V30 3094 C 288.174 -5.10811 -1.26326 0
M  V30 3095 O 287.2 -5.64215 -0.751651 0
M  V30 3096 N 288.402 -5.19269 -2.595 0
M  V30 3097 H 291.167 -2.89738 0.766297 0
M  V30 3098 H 288.728 -1.52164 0.55296 0
M  V30 3099 H 290.72 -3.70276 -1.63334 0
M  V30 3100 H 289.29 -2.64112 -1.67223 0
M  V30 3101 H 288.51 -3.91479 0.462352 0
M  V30 3102 H 289.798 -5.08634 0.130031 0
M  V30 3103 H 289.196 -4.77347 -3.03573 0
M  V30 3104 H 287.753 -5.69667 -3.16737 0
M  V30 3105 N 291.186 -0.45159 -1.50991 0
M  V30 3106 C 292.116 0.342898 -2.30969 0
M  V30 3107 C 293.097 1.00815 -1.37005 0
M  V30 3108 O 294.282 1.00907 -1.65926 0
M  V30 3109 C 291.412 1.43637 -3.16205 0
M  V30 3110 C 290.366 0.893818 -4.18563 0
M  V30 3111 C 289.692 2.08411 -4.92411 0
M  V30 3112 C 290.992 -0.0815568 -5.22236 0
M  V30 3113 H 292.686 -0.324556 -2.97636 0
M  V30 3114 H 290.232 -0.157531 -1.43136 0
M  V30 3115 H 292.185 1.9995 -3.70942 0
M  V30 3116 H 290.909 2.13232 -2.47386 0
M  V30 3117 H 289.568 0.352798 -3.64898 0
M  V30 3118 H 289.216 2.76658 -4.20082 0
M  V30 3119 H 288.916 1.72741 -5.61636 0
M  V30 3120 H 290.44 2.65251 -5.49976 0
M  V30 3121 H 291.854 0.391742 -5.7196 0
M  V30 3122 H 290.251 -0.351551 -5.99069 0
M  V30 3123 H 291.321 -1.01374 -4.74185 0
M  V30 3124 N 292.664 1.56529 -0.183458 0
M  V30 3125 C 293.913 1.96419 0.458511 0
M  V30 3126 C 294.226 1.0727 1.63562 0
M  V30 3127 O 295.432 1.36893 2.34462 0
M  V30 3128 C 293.888 3.49298 0.867122 0
M  V30 3129 C 293.496 4.47092 -0.285057 0
M  V30 3130 C 295.24 3.97983 1.47683 0
M  V30 3131 C 293.147 5.91225 0.143862 0
M  V30 3132 H 292.077 0.733394 0.175071 0
M  V30 3133 H 294.728 1.81448 -0.273624 0
M  V30 3134 H 293.11 3.59731 1.65559 0
M  V30 3135 H 294.284 4.48383 -1.0625 0
M  V30 3136 H 292.599 4.08535 -0.805503 0
M  V30 3137 H 295.196 5.03134 1.80999 0
M  V30 3138 H 295.539 3.41618 2.37914 0
M  V30 3139 H 296.072 3.90617 0.752562 0
M  V30 3140 H 292.811 6.5149 -0.723974 0
M  V30 3141 H 292.331 5.93214 0.886413 0
M  V30 3142 H 294.01 6.44362 0.583628 0
M  V30 3143 N 294.142 -0.090211 1.57342 0
M  V30 3144 C 295.074 -1.13541 1.99101 0
M  V30 3145 C 296.087 -1.3604 0.894258 0
M  V30 3146 O 297.276 -1.34606 1.17233 0
M  V30 3147 C 294.376 -2.49001 2.29895 0
M  V30 3148 C 293.549 -2.46712 3.61182 0
M  V30 3149 C 292.608 -3.64136 3.79857 0
M  V30 3150 O 291.634 -3.46405 4.51655 0
M  V30 3151 N 292.836 -4.83802 3.20806 0
M  V30 3152 H 295.601 -0.779942 2.89373 0
M  V30 3153 H 293.162 -0.279125 1.59476 0
M  V30 3154 H 295.154 -3.26166 2.39578 0
M  V30 3155 H 293.724 -2.76619 1.45605 0
M  V30 3156 H 292.944 -1.55058 3.62423 0
M  V30 3157 H 294.232 -2.42265 4.4742 0
M  V30 3158 H 293.63 -5.01112 2.62494 0
M  V30 3159 H 292.187 -5.58543 3.35966 0
M  V30 3160 N 295.62 -1.53406 -0.361157 0
M  V30 3161 C 296.55 -1.83136 -1.44857 0
M  V30 3162 C 297.531 -0.685174 -1.5569 0
M  V30 3163 O 298.716 -0.93544 -1.70186 0
M  V30 3164 C 295.846 -2.02522 -2.82138 0
M  V30 3165 C 294.8 -3.18302 -2.86126 0
M  V30 3166 C 294.126 -3.22989 -4.26125 0
M  V30 3167 C 295.426 -4.56796 -2.53248 0
M  V30 3168 H 297.12 -2.74201 -1.20226 0
M  V30 3169 H 294.666 -1.31938 -0.576922 0
M  V30 3170 H 296.619 -2.21904 -3.58241 0
M  V30 3171 H 295.343 -1.08172 -3.08166 0
M  V30 3172 H 294.002 -2.98747 -2.12475 0
M  V30 3173 H 293.65 -2.26267 -4.49235 0
M  V30 3174 H 293.35 -4.00781 -4.29708 0
M  V30 3175 H 294.874 -3.44559 -5.04094 0
M  V30 3176 H 296.288 -4.7631 -3.19064 0
M  V30 3177 H 294.685 -5.36862 -2.68141 0
M  V30 3178 H 295.755 -4.61606 -1.48484 0
M  V30 3179 N 297.098 0.621204 -1.44841 0
M  V30 3180 C 298.509 1.20298 -1.42777 0
M  V30 3181 C 298.86 1.95639 -0.148259 0
M  V30 3182 O 297.985 2.02955 0.750892 0
M  V30 3183 C 298.58 2.1882 -2.58657 0
M  V30 3184 C 297.139 2.72403 -2.59756 0
M  V30 3185 C 296.286 1.4757 -2.34773 0
M  V30 3186 H 299.237 0.411297 -1.53278 0
M  V30 3187 H 299.258 3.01607 -2.31977 0
M  V30 3188 H 298.77 1.63957 -3.51766 0
M  V30 3189 H 296.871 3.31242 -1.70615 0
M  V30 3190 H 296.984 3.17765 -3.58556 0
M  V30 3191 H 295.348 1.76051 -1.8406 0
M  V30 3192 H 296.131 0.945954 -3.3001 0
M  V30 3193 N 298.576 1.31904 0.862503 0
M  V30 3194 C 299.822 1.22197 1.61851 0
M  V30 3195 C 300.155 -0.217641 1.92977 0
M  V30 3196 O 299.43 -1.15264 1.56666 0
M  V30 3197 C 299.713 2.07378 2.94391 0
M  V30 3198 C 299.566 3.59678 2.70096 0
M  V30 3199 C 300.885 1.92891 3.95577 0
M  V30 3200 H 298.004 0.445255 0.587296 0
M  V30 3201 H 300.646 1.6177 0.99651 0
M  V30 3202 H 298.796 1.73758 3.47477 0
M  V30 3203 H 300.468 4.03472 2.23625 0
M  V30 3204 H 298.711 3.82735 2.04197 0
M  V30 3205 H 299.382 4.14595 3.64438 0
M  V30 3206 H 301.858 2.22327 3.51724 0
M  V30 3207 H 300.734 2.54781 4.86187 0
M  V30 3208 H 300.995 0.894315 4.3296 0
M  V30 3209 N 300.054 -1.07777 1.14986 0
M  V30 3210 C 301.017 -2.13041 0.845358 0
M  V30 3211 C 302.017 -1.60071 -0.152931 0
M  V30 3212 O 303.207 -1.74033 0.0761879 0
M  V30 3213 C 300.339 -3.39896 0.261383 0
M  V30 3214 H 301.532 -2.41485 1.77834 0
M  V30 3215 H 299.085 -1.23595 0.956757 0
M  V30 3216 H 299.82 -3.17091 -0.68 0
M  V30 3217 H 299.605 -3.79642 0.980514 0
M  V30 3218 H 301.095 -4.17548 0.0657687 0
M  V30 3219 N 301.532 -0.945985 -1.26051 0
M  V30 3220 C 302.442 -0.465633 -2.29933 0
M  V30 3221 C 303.458 0.462761 -1.67733 0
M  V30 3222 O 304.634 0.341118 -1.9849 0
M  V30 3223 C 301.699 0.256994 -3.45746 0
M  V30 3224 C 300.76 -0.708549 -4.23412 0
M  V30 3225 C 299.993 -0.0203135 -5.33696 0
M  V30 3226 O 300.216 1.19571 -5.57726 0
M  V30 3227 O 299.15 -0.701459 -5.97799 0
M  V30 3228 H 302.976 -1.32866 -2.73094 0
M  V30 3229 H 300.561 -0.712071 -1.31339 0
M  V30 3230 H 302.443 0.663852 -4.16138 0
M  V30 3231 H 301.118 1.09533 -3.04605 0
M  V30 3232 H 300.025 -1.16545 -3.55483 0
M  V30 3233 H 301.358 -1.51465 -4.68315 0
M  V30 3234 N 303.011 1.40521 -0.713556 0
M  V30 3235 C 304.26 2.00155 -0.249192 0
M  V30 3236 C 304.573 1.57224 1.16362 0
M  V30 3237 O 305.779 2.09542 1.72639 0
M  V30 3238 C 304.235 3.5773 -0.3946 0
M  V30 3239 C 303.843 4.09635 -1.81392 0
M  V30 3240 C 305.587 4.24499 0.00907364 0
M  V30 3241 C 303.494 5.59707 -1.91003 0
M  V30 3242 H 302.424 0.74868 -0.0894114 0
M  V30 3243 H 305.075 1.60784 -0.884352 0
M  V30 3244 H 303.457 3.94792 0.30911 0
M  V30 3245 H 304.631 3.83955 -2.54785 0
M  V30 3246 H 302.946 3.55456 -2.16888 0
M  V30 3247 H 305.543 5.34683 -0.0420404 0
M  V30 3248 H 305.886 4.02824 1.05065 0
M  V30 3249 H 306.419 3.92536 -0.645007 0
M  V30 3250 H 303.158 5.86234 -2.93275 0
M  V30 3251 H 302.678 5.87258 -1.22019 0
M  V30 3252 H 304.357 6.24776 -1.6812 0
M  V30 3253 N 304.489 0.459591 1.5075 0
M  V30 3254 C 305.735 -0.0994966 2.02556 0
M  V30 3255 C 306.068 -1.40399 1.3417 0
M  V30 3256 O 305.343 -1.88892 0.463683 0
M  V30 3257 C 305.626 -0.295242 3.58888 0
M  V30 3258 C 305.479 1.02947 4.37861 0
M  V30 3259 C 306.798 -1.05502 4.27267 0
M  V30 3260 H 303.917 -0.034686 0.736183 0
M  V30 3261 H 306.559 0.602938 1.8018 0
M  V30 3262 H 304.709 -0.893563 3.78084 0
M  V30 3263 H 306.381 1.66348 4.30263 0
M  V30 3264 H 304.624 1.62885 4.02058 0
M  V30 3265 H 305.295 0.846281 5.45474 0
M  V30 3266 H 307.771 -0.547993 4.12476 0
M  V30 3267 H 306.647 -1.16077 5.36486 0
M  V30 3268 H 306.908 -2.08875 3.89645 0
M  V30 3269 N 305.967 -1.56429 0.191757 0
M  V30 3270 C 307.213 -1.97777 -0.448554 0
M  V30 3271 C 307.546 -1.07847 -1.61501 0
M  V30 3272 O 306.821 -0.129774 -1.94067 0
M  V30 3273 C 307.104 -3.48362 -0.911906 0
M  V30 3274 C 306.957 -4.4907 0.256136 0
M  V30 3275 C 308.276 -4.02561 -1.77857 0
M  V30 3276 H 305.395 -0.719071 -0.161572 0
M  V30 3277 H 308.037 -1.87896 0.282007 0
M  V30 3278 H 306.187 -3.56914 -1.53442 0
M  V30 3279 H 307.859 -4.5256 0.893733 0
M  V30 3280 H 306.102 -4.24181 0.908436 0
M  V30 3281 H 306.773 -5.51889 -0.11053 0
M  V30 3282 H 309.249 -3.96767 -1.25359 0
M  V30 3283 H 308.125 -5.08301 -2.07174 0
M  V30 3284 H 308.386 -3.47616 -2.73158 0
M  V30 3285 N 307.445 0.0818655 -1.57387 0
M  V30 3286 C 308.693 0.781368 -1.86384 0
M  V30 3287 C 309.014 1.78618 -0.782342 0
M  V30 3288 O 308.284 1.94976 0.190061 0
M  V30 3289 H 306.864 0.291562 -0.687751 0
M  V30 3290 H 309.526 0.060348 -1.94807 0
M  V30 3291 H 308.622 1.3038 -2.83562 0
M  V30 3292 N 308.923 1.53595 0.353017 0
M  V30 3293 C 310.2 1.61002 1.11075 0
M  V30 3294 C 310.58 0.425356 2.0677 0
M  V30 3295 O 309.928 -0.583267 2.2093 0
M  V30 3296 C 310.138 2.96631 1.83877 0
M  V30 3297 C 311.486 3.51653 2.37961 0
M  V30 3298 O 312.51 2.98743 1.93987 0
M  V30 3299 O 311.369 4.44177 3.18386 0
M  V30 3300 H 308.463 0.650825 0.510251 0
M  V30 3301 H 311.009 1.6594 0.35527 0
M  V30 3302 H 309.781 3.74293 1.14108 0
M  V30 3303 H 309.404 2.95242 2.66304 0
M  V30 3304 N 310.401 -0.613514 1.45168 0
M  V30 3305 C 311.65 -1.36874 1.4815 0
M  V30 3306 C 311.963 -1.952 0.124982 0
M  V30 3307 O 313.169 -2.71481 0.0324176 0
M  V30 3308 C 311.625 -2.47905 2.60904 0
M  V30 3309 C 311.233 -1.96016 4.02842 0
M  V30 3310 C 312.977 -3.24965 2.73126 0
M  V30 3311 C 310.884 -3.04494 5.06988 0
M  V30 3312 H 309.814 -0.514428 0.551253 0
M  V30 3313 H 312.465 -0.658182 1.7129 0
M  V30 3314 H 310.847 -3.21618 2.31037 0
M  V30 3315 H 312.021 -1.29051 4.4236 0
M  V30 3316 H 310.336 -1.31719 3.95018 0
M  V30 3317 H 312.933 -4.05865 3.48106 0
M  V30 3318 H 313.276 -3.75588 1.79553 0
M  V30 3319 H 313.809 -2.5835 3.0249 0
M  V30 3320 H 310.548 -2.58795 6.0225 0
M  V30 3321 H 310.068 -3.70044 4.72046 0
M  V30 3322 H 311.747 -3.68976 5.31475 0
M  V30 3323 N 311.879 -1.3236 -0.855495 0
M  V30 3324 C 312.842 -1.21164 -1.94556 0
M  V30 3325 C 313.842 -0.134908 -1.60233 0
M  V30 3326 O 315.032 -0.385249 -1.69887 0
M  V30 3327 C 312.164 -0.863192 -3.29791 0
M  V30 3328 H 313.357 -2.18038 -2.05911 0
M  V30 3329 H 310.91 -1.16179 -1.04557 0
M  V30 3330 H 311.645 0.103769 -3.24134 0
M  V30 3331 H 311.43 -1.64166 -3.56078 0
M  V30 3332 H 312.92 -0.809156 -4.09686 0
M  V30 3333 N 313.357 1.07166 -1.15556 0
M  V30 3334 C 314.289 2.14341 -0.811815 0
M  V30 3335 C 315.302 1.61835 0.177015 0
M  V30 3336 O 316.491 1.78439 -0.0464996 0
M  V30 3337 C 313.591 3.38387 -0.186481 0
M  V30 3338 C 312.764 4.20238 -1.21321 0
M  V30 3339 C 311.823 5.2266 -0.609302 0
M  V30 3340 O 310.849 5.54719 -1.27576 0
M  V30 3341 N 312.051 5.77306 0.608099 0
M  V30 3342 H 314.816 2.44431 -1.73417 0
M  V30 3343 H 312.377 1.23089 -1.0517 0
M  V30 3344 H 314.369 4.04044 0.230339 0
M  V30 3345 H 312.939 3.05994 0.639249 0
M  V30 3346 H 312.159 3.50369 -1.80652 0
M  V30 3347 H 313.447 4.71736 -1.90638 0
M  V30 3348 H 312.845 5.53513 1.1679 0
M  V30 3349 H 311.402 6.44583 0.96725 0
M  V30 3350 N 314.835 0.952656 1.25548 0
M  V30 3351 C 316.081 0.607272 1.93494 0
M  V30 3352 C 316.414 -0.853245 1.74452 0
M  V30 3353 O 315.689 -1.61194 1.08843 0
M  V30 3354 C 315.972 0.96435 3.46947 0
M  V30 3355 C 315.825 2.48045 3.75225 0
M  V30 3356 C 317.144 0.487987 4.37386 0
M  V30 3357 H 314.263 0.222096 0.702739 0
M  V30 3358 H 316.905 1.18895 1.48203 0
M  V30 3359 H 315.055 0.469361 3.85654 0
M  V30 3360 H 316.727 3.04905 3.46166 0
M  V30 3361 H 314.97 2.919 3.209 0
M  V30 3362 H 315.641 2.6808 4.82532 0
M  V30 3363 H 318.117 0.912558 4.0597 0
M  V30 3364 H 316.993 0.766547 5.43521 0
M  V30 3365 H 317.254 -0.612063 4.37843 0
M  V30 3366 N 316.313 -1.40141 0.720998 0
M  V30 3367 C 317.26 -2.30688 0.071919 0
M  V30 3368 C 318.23 -1.48476 -0.744584 0
M  V30 3369 O 319.415 -1.77201 -0.707423 0
M  V30 3370 C 316.555 -3.34724 -0.839855 0
M  V30 3371 C 315.668 -4.31998 -0.0122438 0
M  V30 3372 C 314.803 -5.23102 -0.923995 0
M  V30 3373 C 313.842 -6.12033 -0.0907969 0
M  V30 3374 N 312.979 -6.95537 -0.957718 0
M  V30 3375 H 317.819 -2.85628 0.849755 0
M  V30 3376 H 315.356 -1.40653 0.430726 0
M  V30 3377 H 317.314 -3.93618 -1.38279 0
M  V30 3378 H 315.944 -2.81274 -1.58381 0
M  V30 3379 H 314.996 -3.74841 0.64794 0
M  V30 3380 H 316.308 -4.94772 0.632595 0
M  V30 3381 H 315.462 -5.86953 -1.53527 0
M  V30 3382 H 314.201 -4.60615 -1.60264 0
M  V30 3383 H 313.206 -5.47207 0.533377 0
M  V30 3384 H 314.431 -6.76581 0.584428 0
M  V30 3385 H 312.377 -6.35633 -1.62192 0
M  V30 3386 H 312.294 -7.55099 -0.36904 0
M  V30 3387 H 313.562 -7.63832 -1.555 0
M  V30 3388 N 317.792 -0.46758 -1.50504 0
M  V30 3389 C 319.022 0.086288 -2.0642 0
M  V30 3390 C 319.43 1.34369 -1.33197 0
M  V30 3391 O 318.773 1.79431 -0.393747 0
M  V30 3392 C 318.835 0.443846 -3.5675 0
M  V30 3393 C 318.499 -0.711035 -4.51435 0
M  V30 3394 C 319.496 -1.59205 -4.94924 0
M  V30 3395 C 317.181 -0.900363 -4.94165 0
M  V30 3396 C 319.175 -2.64683 -5.79846 0
M  V30 3397 C 316.862 -1.95837 -5.7887 0
M  V30 3398 C 317.86 -2.82997 -6.21612 0
M  V30 3399 O 317.548 -3.86977 -7.0463 0
M  V30 3400 H 317.28 -0.00217814 -0.675996 0
M  V30 3401 H 319.834 -0.654346 -1.94698 0
M  V30 3402 H 318.064 1.23762 -3.6636 0
M  V30 3403 H 319.753 0.932386 -3.95046 0
M  V30 3404 H 320.519 -1.45745 -4.62583 0
M  V30 3405 H 316.398 -0.231427 -4.60419 0
M  V30 3406 H 319.942 -3.32745 -6.13128 0
M  V30 3407 H 315.839 -2.09305 -6.10624 0
M  V30 3408 H 316.607 -3.83923 -7.22873 0
M  V30 3409 N 319.27 1.56325 -0.20005 0
M  V30 3410 C 320.518 1.97329 0.436547 0
M  V30 3411 C 320.839 1.08826 1.61808 0
M  V30 3412 O 320.109 0.160604 1.95241 0
M  V30 3413 H 318.689 0.728714 0.164272 0
M  V30 3414 H 321.351 1.92761 -0.287937 0
M  V30 3415 H 320.447 3.02264 0.777353 0
M  V30 3416 N 320.748 -0.0735177 1.57428 0
M  V30 3417 C 322.025 -0.805903 1.78226 0
M  V30 3418 C 322.405 -1.95874 0.787189 0
M  V30 3419 O 321.753 -2.2779 -0.180029 0
M  V30 3420 C 321.963 -1.28045 3.24662 0
M  V30 3421 C 323.311 -1.71453 3.88444 0
M  V30 3422 O 324.335 -1.37616 3.28543 0
M  V30 3423 O 323.194 -2.34093 4.93825 0
M  V30 3424 H 320.288 -0.386041 0.73137 0
M  V30 3425 H 322.834 -0.0537269 1.69615 0
M  V30 3426 H 321.606 -0.455476 3.8864 0
M  V30 3427 H 321.229 -2.094 3.37991 0
M  V30 3428 N 322.226 -1.5378 -0.344866 0
M  V30 3429 C 323.156 -1.84662 -1.42906 0
M  V30 3430 C 324.137 -0.701648 -1.54955 0
M  V30 3431 O 325.322 -0.953438 -1.69184 0
M  V30 3432 C 322.452 -2.05503 -2.79974 0
M  V30 3433 C 321.406 -3.21318 -2.82734 0
M  V30 3434 C 320.732 -3.2749 -4.22675 0
M  V30 3435 C 322.032 -4.59456 -2.48389 0
M  V30 3436 H 323.726 -2.75461 -1.17311 0
M  V30 3437 H 321.272 -1.32542 -0.562896 0
M  V30 3438 H 323.225 -2.25691 -3.55867 0
M  V30 3439 H 321.949 -1.11434 -3.07002 0
M  V30 3440 H 320.608 -3.00984 -2.09294 0
M  V30 3441 H 320.256 -2.31019 -4.4681 0
M  V30 3442 H 319.956 -4.05316 -4.25433 0
M  V30 3443 H 321.48 -3.49887 -5.00412 0
M  V30 3444 H 322.894 -4.79667 -3.13995 0
M  V30 3445 H 321.291 -5.39675 -2.62432 0
M  V30 3446 H 322.361 -4.63155 -1.4358 0
M  V30 3447 N 323.704 0.605807 -1.45491 0
M  V30 3448 C 324.634 1.72709 -1.57143 0
M  V30 3449 C 325.615 1.6476 -0.422884 0
M  V30 3450 O 326.8 1.83132 -0.646247 0
M  V30 3451 C 323.93 3.11316 -1.53948 0
M  V30 3452 C 322.884 3.34077 -2.67537 0
M  V30 3453 C 322.21 4.72975 -2.49397 0
M  V30 3454 C 323.51 3.24158 -4.09535 0
M  V30 3455 H 325.204 1.63214 -2.51001 0
M  V30 3456 H 322.75 0.78379 -1.208 0
M  V30 3457 H 324.703 3.89557 -1.60696 0
M  V30 3458 H 323.427 3.21655 -0.566205 0
M  V30 3459 H 322.086 2.58227 -2.6022 0
M  V30 3460 H 321.734 4.8005 -1.50205 0
M  V30 3461 H 321.434 4.8916 -3.25571 0
M  V30 3462 H 322.958 5.53414 -2.58002 0
M  V30 3463 H 324.372 3.92271 -4.18086 0
M  V30 3464 H 322.769 3.51872 -4.86113 0
M  V30 3465 H 323.839 2.2157 -4.31317 0
M  V30 3466 N 325.182 1.32811 0.848464 0
M  V30 3467 C 326.593 1.21315 1.41914 0
M  V30 3468 C 326.944 -0.171847 1.95446 0
M  V30 3469 O 326.069 -1.07093 1.88043 0
M  V30 3470 C 326.664 2.19631 2.57968 0
M  V30 3471 C 325.223 2.12003 3.11017 0
M  V30 3472 C 324.37 2.07651 1.83783 0
M  V30 3473 H 327.321 1.44549 0.655071 0
M  V30 3474 H 327.342 1.79845 3.35315 0
M  V30 3475 H 326.854 3.20423 2.18976 0
M  V30 3476 H 324.955 1.14481 3.54577 0
M  V30 3477 H 325.068 3.02111 3.71841 0
M  V30 3478 H 323.432 1.52983 2.03638 0
M  V30 3479 H 324.215 3.10235 1.47 0
M  V30 3480 N 326.66 -1.06551 1.16123 0
M  V30 3481 C 327.623 -2.12132 0.867906 0
M  V30 3482 C 328.623 -1.60224 -0.135944 0
M  V30 3483 O 329.813 -1.73943 0.0946422 0
M  V30 3484 C 326.945 -3.396 0.297419 0
M  V30 3485 H 328.138 -2.39586 1.80385 0
M  V30 3486 H 325.691 -1.22574 0.969812 0
M  V30 3487 H 326.426 -3.17794 -0.64633 0
M  V30 3488 H 326.211 -3.78581 1.02073 0
M  V30 3489 H 327.701 -4.17455 0.110052 0
M  V30 3490 N 328.138 -0.959301 -1.25041 0
M  V30 3491 C 329.415 -0.533805 -1.88175 0
M  V30 3492 C 329.795 0.988994 -1.865 0
M  V30 3493 O 329.143 1.85677 -1.33177 0
M  V30 3494 C 329.353 -1.11575 -3.30684 0
M  V30 3495 C 330.701 -1.19548 -4.07423 0
M  V30 3496 O 331.725 -1.06765 -3.39823 0
M  V30 3497 O 330.584 -1.39656 -5.28354 0
M  V30 3498 H 327.678 -0.176772 -0.807887 0
M  V30 3499 H 330.224 -1.05303 -1.33076 0
M  V30 3500 H 328.996 -2.15884 -3.26358 0
M  V30 3501 H 328.619 -0.580059 -3.93346 0
M  V30 3502 N 329.616 1.39756 -0.72842 0
M  V30 3503 C 330.864 2.00248 -0.272946 0
M  V30 3504 C 331.185 1.58077 1.14178 0
M  V30 3505 O 330.455 0.826014 1.77634 0
M  V30 3506 H 329.035 0.740554 -0.0979247 0
M  V30 3507 H 331.697 1.70903 -0.936912 0
M  V30 3508 H 330.793 3.10495 -0.316142 0
M  V30 3509 N 331.094 0.475555 1.50254 0
M  V30 3510 C 332.343 -0.0795996 2.01543 0
M  V30 3511 C 332.656 -1.4038 1.36209 0
M  V30 3512 O 333.862 -2.04415 1.7868 0
M  V30 3513 C 332.318 -0.192363 3.59386 0
M  V30 3514 C 331.926 1.12367 4.33679 0
M  V30 3515 C 333.67 -0.699238 4.18701 0
M  V30 3516 C 331.577 0.974453 5.83317 0
M  V30 3517 H 330.507 -0.0335228 0.753254 0
M  V30 3518 H 333.158 0.611128 1.73025 0
M  V30 3519 H 331.54 -0.946974 3.84511 0
M  V30 3520 H 332.714 1.88958 4.20276 0
M  V30 3521 H 331.029 1.562 3.85993 0
M  V30 3522 H 333.626 -0.827978 5.28251 0
M  V30 3523 H 333.969 -1.69171 3.80377 0
M  V30 3524 H 334.502 -0.00188807 3.978 0
M  V30 3525 H 331.241 1.94042 6.26121 0
M  V30 3526 H 330.761 0.248998 5.99283 0
M  V30 3527 H 332.44 0.642867 6.43798 0
M  V30 3528 N 332.573 -1.56217 0.208337 0
M  V30 3529 C 333.503 -2.22694 -0.702116 0
M  V30 3530 C 334.484 -1.19432 -1.2112 0
M  V30 3531 O 335.669 -1.47978 -1.25762 0
M  V30 3532 C 332.799 -2.8966 -1.9161 0
M  V30 3533 C 331.753 -3.9928 -1.5414 0
M  V30 3534 C 331.079 -4.53476 -2.83308 0
M  V30 3535 C 332.379 -5.17012 -0.741339 0
M  V30 3536 H 334.073 -2.99034 -0.147898 0
M  V30 3537 H 331.619 -1.43831 -0.0696951 0
M  V30 3538 H 333.572 -3.34852 -2.55836 0
M  V30 3539 H 332.296 -2.10746 -2.49507 0
M  V30 3540 H 330.955 -3.54799 -0.922668 0
M  V30 3541 H 330.603 -3.71308 -3.39322 0
M  V30 3542 H 330.303 -5.27451 -2.58976 0
M  V30 3543 H 331.827 -5.01378 -3.485 0
M  V30 3544 H 333.241 -5.58667 -1.28699 0
M  V30 3545 H 331.638 -5.97137 -0.595627 0
M  V30 3546 H 332.708 -4.8423 0.254851 0
M  V30 3547 N 334.051 0.0651679 -1.57465 0
M  V30 3548 C 335.3 0.761916 -1.86756 0
M  V30 3549 C 335.613 1.78406 -0.801925 0
M  V30 3550 O 336.819 2.53084 -0.982885 0
M  V30 3551 C 335.275 1.40603 -3.31299 0
M  V30 3552 C 334.883 0.422115 -4.46007 0
M  V30 3553 C 336.627 2.08476 -3.69781 0
M  V30 3554 C 334.534 1.07252 -5.81593 0
M  V30 3555 H 333.464 0.288308 -0.696702 0
M  V30 3556 H 336.115 0.015344 -1.83494 0
M  V30 3557 H 334.497 2.20109 -3.29193 0
M  V30 3558 H 335.671 -0.343613 -4.59517 0
M  V30 3559 H 333.986 -0.152527 -4.16121 0
M  V30 3560 H 336.583 2.57925 -4.68379 0
M  V30 3561 H 336.926 2.88712 -2.99919 0
M  V30 3562 H 337.459 1.35792 -3.73905 0
M  V30 3563 H 334.198 0.310342 -6.54765 0
M  V30 3564 H 333.718 1.80895 -5.71872 0
M  V30 3565 H 335.397 1.59043 -6.27148 0
M  V30 3566 N 335.529 1.53961 0.336706 0
M  V30 3567 C 336.461 1.78751 1.4346 0
M  V30 3568 C 337.474 0.669019 1.48418 0
M  V30 3569 O 338.663 0.945884 1.51378 0
M  V30 3570 C 335.763 1.87844 2.82078 0
M  V30 3571 C 334.936 3.17854 3.00479 0
M  V30 3572 C 333.995 3.17816 4.19379 0
M  V30 3573 O 333.021 3.91511 4.13168 0
M  V30 3574 N 334.223 2.40669 5.2826 0
M  V30 3575 H 336.988 2.73493 1.22563 0
M  V30 3576 H 334.549 1.53096 0.526625 0
M  V30 3577 H 336.541 1.85261 3.59806 0
M  V30 3578 H 335.111 1.00257 2.96086 0
M  V30 3579 H 334.331 3.33504 2.10163 0
M  V30 3580 H 335.619 4.03718 3.0966 0
M  V30 3581 H 335.017 1.8036 5.36178 0
M  V30 3582 H 333.574 2.43877 6.04456 0
M  V30 3583 N 337.007 -0.598083 1.45811 0
M  V30 3584 C 338.255 -1.35413 1.50026 0
M  V30 3585 C 338.576 -1.94444 0.147177 0
M  V30 3586 O 337.846 -1.77701 -0.824571 0
M  V30 3587 H 336.426 -0.502727 0.552517 0
M  V30 3588 H 339.088 -0.701606 1.81834 0
M  V30 3589 H 338.184 -2.16871 2.2444 0
M  V30 3590 N 338.485 -1.33259 -0.841409 0
M  V30 3591 C 339.433 -1.23279 -1.97244 0
M  V30 3592 C 340.427 -0.134706 -1.68864 0
M  V30 3593 O 341.633 -0.298501 -1.77508 0
M  V30 3594 H 338.008 -0.382497 -0.647457 0
M  V30 3595 H 339.979 -2.18906 -2.02787 0
M  V30 3596 C 338.728 -0.986268 -3.33419 0
M  V30 3597 H 338.051 -1.82347 -3.55794 0
M  V30 3598 H 339.491 -0.956728 -4.13065 0
M  V30 3599 C 337.95 0.310842 -3.35463 0
M  V30 3600 O 338.48 1.31838 -3.79449 0
M  V30 3601 N 336.686 0.337485 -2.88634 0
M  V30 3602 H 336.233 -0.482967 -2.53032 0
M  V30 3603 H 336.191 1.20518 -2.90384 0
M  V30 3604 N 339.963 1.05934 -1.16686 0
M  V30 3605 C 341.24 1.75643 -0.860747 0
M  V30 3606 C 341.62 2.01144 0.640641 0
M  V30 3607 O 340.968 1.64147 1.58959 0
M  V30 3608 C 341.178 3.05493 -1.68745 0
M  V30 3609 C 342.526 3.79581 -1.90271 0
M  V30 3610 O 343.55 3.15344 -1.65641 0
M  V30 3611 O 342.409 4.9499 -2.31618 0
M  V30 3612 H 339.503 0.763426 -0.317977 0
M  V30 3613 H 342.049 1.1217 -1.27342 0
M  V30 3614 H 340.821 2.8264 -2.70611 0
M  V30 3615 H 340.444 3.76702 -1.27206 0
M  V30 3616 N 341.441 0.965919 1.2453 0
M  V30 3617 C 342.371 0.513476 2.27784 0
M  V30 3618 C 343.352 -0.445974 1.6415 0
M  V30 3619 O 344.537 -0.342485 1.91156 0
M  V30 3620 C 341.667 -0.198839 3.4673 0
M  V30 3621 C 340.621 0.676456 4.2262 0
M  V30 3622 C 339.947 -0.167248 5.34438 0
M  V30 3623 C 341.247 1.96017 4.84123 0
M  V30 3624 H 342.941 1.3765 2.65881 0
M  V30 3625 H 340.487 0.663321 1.27813 0
M  V30 3626 H 342.44 -0.526567 4.18097 0
M  V30 3627 H 341.164 -1.0962 3.07654 0
M  V30 3628 H 339.823 0.98743 3.53052 0
M  V30 3629 H 339.471 -1.0647 4.91603 0
M  V30 3630 H 339.171 0.415181 5.86131 0
M  V30 3631 H 340.695 -0.489688 6.08633 0
M  V30 3632 H 342.109 1.69814 5.47573 0
M  V30 3633 H 340.506 2.48918 5.4604 0
M  V30 3634 H 341.576 2.65622 4.05676 0
M  V30 3635 N 342.919 -1.39368 0.735821 0
M  V30 3636 C 343.866 -2.30599 0.0963825 0
M  V30 3637 C 344.836 -1.49257 -0.728794 0
M  V30 3638 O 346.021 -1.77941 -0.688588 0
M  V30 3639 C 343.161 -3.35596 -0.804305 0
M  V30 3640 C 342.274 -4.31987 0.0335761 0
M  V30 3641 C 341.409 -5.24053 -0.868461 0
M  V30 3642 C 340.448 -6.12095 -0.0258776 0
M  V30 3643 N 339.585 -6.96514 -0.883893 0
M  V30 3644 H 344.425 -2.8471 0.880002 0
M  V30 3645 H 341.962 -1.40188 0.445619 0
M  V30 3646 H 343.92 -3.95062 -1.34096 0
M  V30 3647 H 342.55 -2.82938 -1.55389 0
M  V30 3648 H 341.602 -3.74133 0.68766 0
M  V30 3649 H 342.914 -4.94074 0.685036 0
M  V30 3650 H 342.068 -5.88549 -1.47293 0
M  V30 3651 H 340.807 -4.62289 -1.5537 0
M  V30 3652 H 339.812 -5.4661 0.591386 0
M  V30 3653 H 341.037 -6.75923 0.656156 0
M  V30 3654 H 338.983 -6.37318 -1.55441 0
M  V30 3655 H 338.9 -7.55448 -0.288931 0
M  V30 3656 H 340.168 -7.65439 -1.4739 0
M  V30 3657 N 344.397 -0.483516 -1.5 0
M  V30 3658 C 345.646 0.0689102 -2.01582 0
M  V30 3659 C 345.959 1.39655 -1.36952 0
M  V30 3660 O 347.165 2.03465 -1.79762 0
M  V30 3661 C 345.621 0.173302 -3.59483 0
M  V30 3662 C 345.229 -1.14665 -4.33077 0
M  V30 3663 C 346.973 0.677024 -4.19066 0
M  V30 3664 C 344.88 -1.00537 -5.82792 0
M  V30 3665 H 343.81 0.0295277 -0.753422 0
M  V30 3666 H 346.461 -0.620295 -1.72698 0
M  V30 3667 H 344.843 0.926569 -3.85007 0
M  V30 3668 H 346.017 -1.91184 -4.19268 0
M  V30 3669 H 344.332 -1.58244 -3.85159 0
M  V30 3670 H 346.929 0.799952 -5.28682 0
M  V30 3671 H 347.272 1.67151 -3.81269 0
M  V30 3672 H 347.805 -0.0192083 -3.97795 0
M  V30 3673 H 344.544 -1.9736 -6.25083 0
M  V30 3674 H 344.064 -0.280776 -5.99142 0
M  V30 3675 H 345.743 -0.677 -6.43448 0
M  V30 3676 N 345.875 1.56104 -0.216619 0
M  V30 3677 C 347.152 1.89988 0.465165 0
M  V30 3678 C 347.532 1.13326 1.78102 0
M  V30 3679 O 346.88 0.241033 2.27225 0
M  V30 3680 C 347.09 3.42646 0.662939 0
M  V30 3681 C 348.438 4.13311 0.972602 0
M  V30 3682 O 349.462 3.48217 0.749901 0
M  V30 3683 O 348.321 5.28396 1.39499 0
M  V30 3684 H 345.415 0.78979 0.245276 0
M  V30 3685 H 347.961 1.67721 -0.258436 0
M  V30 3686 H 346.733 3.90399 -0.26543 0
M  V30 3687 H 346.356 3.70677 1.43821 0
M  V30 3688 N 347.353 -0.0568162 1.57498 0
M  V30 3689 C 348.263 -1.08346 2.08083 0
M  V30 3690 C 349.279 -1.41439 1.01346 0
M  V30 3691 O 350.455 -1.51316 1.32912 0
M  V30 3692 C 347.52 -2.37352 2.52715 0
M  V30 3693 C 346.581 -2.11093 3.73816 0
M  V30 3694 C 345.814 -3.33949 4.1631 0
M  V30 3695 O 346.037 -4.43622 3.58547 0
M  V30 3696 O 344.971 -3.21279 5.08983 0
M  V30 3697 H 348.797 -0.683667 2.95905 0
M  V30 3698 H 346.382 -0.271965 1.46904 0
M  V30 3699 H 348.264 -3.13246 2.81877 0
M  V30 3700 H 346.939 -2.76681 1.68016 0
M  V30 3701 H 345.846 -1.32856 3.49714 0
M  V30 3702 H 347.179 -1.76637 4.59413 0
M  V30 3703 N 348.832 -1.54138 -0.328536 0
M  V30 3704 C 350.057 -1.76378 -1.09112 0
M  V30 3705 C 350.482 -0.508596 -1.81094 0
M  V30 3706 O 349.84 0.539598 -1.73084 0
M  V30 3707 C 349.888 -2.95358 -2.06872 0
M  V30 3708 O 348.992 -2.66556 -3.14677 0
M  V30 3709 H 348.333 -0.584614 -0.314838 0
M  V30 3710 H 350.863 -2.01146 -0.374348 0
M  V30 3711 H 350.873 -3.22566 -2.4983 0
M  V30 3712 H 349.548 -3.86385 -1.5388 0
M  V30 3713 H 348.125 -2.50282 -2.7643 0
M  V30 3714 N 350.31 0.590341 -1.46126 0
M  V30 3715 C 351.535 1.37991 -1.54833 0
M  V30 3716 C 351.96 1.87163 -0.187506 0
M  V30 3717 O 351.318 1.61133 0.831008 0
M  V30 3718 C 351.366 2.54867 -2.55098 0
M  V30 3719 O 350.47 3.56061 -2.08073 0
M  V30 3720 H 349.811 0.411265 -0.521303 0
M  V30 3721 H 352.341 0.716819 -1.91632 0
M  V30 3722 H 352.351 3.01886 -2.74461 0
M  V30 3723 H 351.026 2.18429 -3.53923 0
M  V30 3724 H 349.603 3.15574 -1.98664 0
M  V30 3725 N 351.788 1.33704 0.83433 0
M  V30 3726 C 352.718 1.26967 1.95963 0
M  V30 3727 C 353.699 0.149337 1.69443 0
M  V30 3728 O 354.884 0.339852 1.91203 0
M  V30 3729 C 352.014 1.01275 3.32206 0
M  V30 3730 C 350.968 2.09652 3.73136 0
M  V30 3731 C 350.294 1.69166 5.07235 0
M  V30 3732 C 351.594 3.51372 3.86439 0
M  V30 3733 H 353.288 2.2112 2.01857 0
M  V30 3734 H 350.834 1.06447 0.969793 0
M  V30 3735 H 352.787 0.952106 4.10503 0
M  V30 3736 H 351.511 0.0356203 3.26581 0
M  V30 3737 H 350.17 2.14766 2.97104 0
M  V30 3738 H 349.818 0.701437 4.98085 0
M  V30 3739 H 349.518 2.41694 5.35591 0
M  V30 3740 H 351.042 1.64576 5.88003 0
M  V30 3741 H 352.456 3.48734 4.55036 0
M  V30 3742 H 350.853 4.22425 4.26236 0
M  V30 3743 H 351.923 3.89546 2.88759 0
M  V30 3744 N 353.266 -1.05314 1.17247 0
M  V30 3745 C 354.494 -1.81971 0.984593 0
M  V30 3746 C 354.909 -1.82929 -0.467166 0
M  V30 3747 O 354.266 -1.25564 -1.32438 0
M  V30 3748 C 354.317 -3.28143 1.51672 0
M  V30 3749 O 354.038 -3.27347 2.91163 0
M  V30 3750 C 355.539 -4.21493 1.37326 0
M  V30 3751 H 352.759 -0.573455 0.348411 0
M  V30 3752 H 355.303 -1.32808 1.55506 0
M  V30 3753 H 353.458 -3.74582 0.988302 0
M  V30 3754 H 353.872 -4.18824 3.15732 0
M  V30 3755 H 355.346 -5.22043 1.79375 0
M  V30 3756 H 355.823 -4.38031 0.320169 0
M  V30 3757 H 356.429 -3.80909 1.89178 0
M  V30 3758 N 354.744 -0.972509 -1.24016 0
M  V30 3759 C 355.992 -0.635776 -1.91839 0
M  V30 3760 C 356.313 0.832312 -1.76345 0
M  V30 3761 O 355.583 1.5946 -1.13795 0
M  V30 3762 H 354.163 -0.232157 -0.710009 0
M  V30 3763 H 356.825 -1.23462 -1.50809 0
M  V30 3764 H 355.921 -0.880545 -2.99421 0
M  V30 3765 N 356.222 1.38976 -0.743202 0
M  V30 3766 C 357.132 2.3434 -0.110399 0
M  V30 3767 C 358.148 1.58741 0.712559 0
M  V30 3768 O 359.324 1.9099 0.639125 0
M  V30 3769 C 356.389 3.37812 0.780012 0
M  V30 3770 C 355.45 4.29263 -0.0561319 0
M  V30 3771 C 354.683 5.27793 0.791875 0
M  V30 3772 O 354.906 5.33043 2.03031 0
M  V30 3773 O 353.84 6.01512 0.216183 0
M  V30 3774 H 357.666 2.90129 -0.897714 0
M  V30 3775 H 355.251 1.40643 -0.503966 0
M  V30 3776 H 357.133 4.01194 1.28923 0
M  V30 3777 H 355.808 2.84395 1.546 0
M  V30 3778 H 354.715 3.69076 -0.611056 0
M  V30 3779 H 356.048 4.85907 -0.784531 0
M  V30 3780 N 357.7 0.491464 1.49741 0
M  V30 3781 C 358.925 -0.0557177 2.07325 0
M  V30 3782 C 359.35 -1.30925 1.35056 0
M  V30 3783 O 358.708 -1.76733 0.404365 0
M  V30 3784 C 358.756 -0.302074 3.59333 0
M  V30 3785 O 357.86 -1.37868 3.88672 0
M  V30 3786 H 357.201 0.0219956 0.663636 0
M  V30 3787 H 359.731 0.688352 1.92673 0
M  V30 3788 H 359.741 -0.536464 4.04458 0
M  V30 3789 H 358.416 0.61383 4.11345 0
M  V30 3790 H 356.993 -1.12999 3.55367 0
M  V30 3791 N 359.178 -1.55987 0.224894 0
M  V30 3792 C 360.455 -1.90232 -0.455083 0
M  V30 3793 C 360.835 -1.14269 -1.77499 0
M  V30 3794 O 360.183 -0.253079 -2.27094 0
M  V30 3795 C 360.393 -3.42993 -0.644758 0
M  V30 3796 C 361.741 -4.13821 -0.950669 0
M  V30 3797 O 362.765 -3.4861 -0.731423 0
M  V30 3798 O 361.624 -5.29128 -1.36695 0
M  V30 3799 H 358.718 -0.79108 -0.241084 0
M  V30 3800 H 361.264 -1.67581 0.267327 0
M  V30 3801 H 360.036 -3.90252 0.28613 0
M  V30 3802 H 359.659 -3.71434 -1.41853 0
M  V30 3803 N 360.656 0.0484629 -1.57525 0
M  V30 3804 C 361.606 1.06246 -2.01732 0
M  V30 3805 C 362.59 1.33155 -0.903245 0
M  V30 3806 O 363.782 1.33065 -1.16717 0
M  V30 3807 C 360.911 2.36943 -2.48421 0
M  V30 3808 C 359.997 2.13208 -3.6661 0
M  V30 3809 N 360.388 1.5947 -4.80003 0
M  V30 3810 C 358.686 2.43581 -3.7361 0
M  V30 3811 C 359.387 1.51092 -5.61735 0
M  V30 3812 N 358.363 1.9797 -5.0627 0
M  V30 3813 H 362.165 0.640675 -2.86832 0
M  V30 3814 H 359.679 0.255134 -1.60383 0
M  V30 3815 H 361.676 3.10374 -2.78341 0
M  V30 3816 H 360.336 2.79818 -1.64718 0
M  V30 3817 H 361.347 1.28008 -5.01831 0
M  V30 3818 H 358.024 2.89662 -3.00669 0
M  V30 3819 H 359.414 1.10199 -6.62801 0
M  V30 3820 N 362.134 1.5431 0.320358 0
M  V30 3821 C 363.38 1.72924 1.05949 0
M  V30 3822 C 363.713 0.503185 1.87568 0
M  V30 3823 O 362.988 -0.499839 1.87968 0
M  V30 3824 C 363.271 3.00676 1.98156 0
M  V30 3825 C 363.124 4.3354 1.19845 0
M  V30 3826 C 364.443 3.24198 2.9763 0
M  V30 3827 H 361.562 0.629195 0.383774 0
M  V30 3828 H 364.204 1.87008 0.335854 0
M  V30 3829 H 362.354 2.888 2.59859 0
M  V30 3830 H 364.026 4.57305 0.605773 0
M  V30 3831 H 362.269 4.309 0.500784 0
M  V30 3832 H 362.94 5.19156 1.87567 0
M  V30 3833 H 365.416 3.35557 2.4605 0
M  V30 3834 H 364.292 4.14938 3.59329 0
M  V30 3835 H 364.553 2.41577 3.7026 0
M  V30 3836 N 363.613 -0.582584 1.46437 0
M  V30 3837 C 364.56 -1.69164 1.5701 0
M  V30 3838 C 365.53 -1.60847 0.414403 0
M  V30 3839 O 366.715 -1.80058 0.631171 0
M  V30 3840 C 363.855 -3.075 1.56646 0
M  V30 3841 C 362.968 -3.2644 2.82951 0
M  V30 3842 C 362.103 -4.55026 2.7409 0
M  V30 3843 C 361.142 -4.6731 3.95333 0
M  V30 3844 N 360.279 -5.87221 3.84858 0
M  V30 3845 H 365.119 -1.59464 2.51744 0
M  V30 3846 H 362.656 -0.777186 1.24893 0
M  V30 3847 H 364.614 -3.8757 1.5442 0
M  V30 3848 H 363.244 -3.16096 0.654439 0
M  V30 3849 H 362.296 -2.39974 2.95155 0
M  V30 3850 H 363.608 -3.31385 3.72808 0
M  V30 3851 H 362.762 -5.43324 2.6997 0
M  V30 3852 H 361.501 -4.52519 1.81873 0
M  V30 3853 H 360.506 -3.77429 3.99784 0
M  V30 3854 H 361.731 -4.71595 4.88646 0
M  V30 3855 H 359.677 -5.85712 2.95427 0
M  V30 3856 H 359.594 -5.93435 4.6837 0
M  V30 3857 H 360.862 -6.7795 3.84713 0
M  V30 3858 N 365.091 -1.34144 -0.827227 0
M  V30 3859 C 366.038 -1.25364 -1.93785 0
M  V30 3860 C 367.008 -0.129774 -1.65592 0
M  V30 3861 O 368.193 -0.310024 -1.88264 0
M  V30 3862 C 365.333 -1.01064 -3.2997 0
M  V30 3863 C 364.446 -2.22185 -3.70484 0
M  V30 3864 C 363.581 -1.91203 -4.95595 0
M  V30 3865 C 362.62 -3.08491 -5.28677 0
M  V30 3866 N 361.757 -2.77421 -6.44967 0
M  V30 3867 H 366.597 -2.20347 -2.00627 0
M  V30 3868 H 364.134 -1.09558 -0.981608 0
M  V30 3869 H 366.092 -0.850139 -4.08446 0
M  V30 3870 H 364.722 -0.0975026 -3.22653 0
M  V30 3871 H 363.774 -2.4917 -2.87434 0
M  V30 3872 H 365.086 -3.0983 -3.90905 0
M  V30 3873 H 364.24 -1.71864 -5.81848 0
M  V30 3874 H 362.979 -1.00812 -4.77167 0
M  V30 3875 H 361.984 -3.28431 -4.40923 0
M  V30 3876 H 363.209 -3.99655 -5.49047 0
M  V30 3877 H 361.155 -1.89601 -6.28003 0
M  V30 3878 H 361.072 -3.58598 -6.6554 0
M  V30 3879 H 362.34 -2.61577 -7.34301 0
M  V30 3880 N 366.569 1.04691 -1.17803 0
M  V30 3881 C 367.794 1.81984 -0.994813 0
M  V30 3882 C 368.219 1.82586 0.452112 0
M  V30 3883 O 367.577 1.23854 1.324 0
M  V30 3884 C 367.625 3.2575 -1.54659 0
M  V30 3885 O 366.729 4.05267 -0.763728 0
M  V30 3886 H 366.07 0.562483 -0.352857 0
M  V30 3887 H 368.6 1.3189 -1.56417 0
M  V30 3888 H 368.61 3.76541 -1.57102 0
M  V30 3889 H 367.285 3.24627 -2.59981 0
M  V30 3890 H 365.862 3.63972 -0.811108 0
M  V30 3891 N 368.047 0.979072 1.23499 0
M  V30 3892 C 368.977 0.537606 2.27227 0
M  V30 3893 C 369.958 -0.428539 1.64613 0
M  V30 3894 O 371.143 -0.322191 1.91509 0
M  V30 3895 C 368.273 -0.162052 3.46922 0
M  V30 3896 C 367.227 0.721242 4.21879 0
M  V30 3897 C 366.553 -0.110555 5.34586 0
M  V30 3898 C 367.853 2.01141 4.82016 0
M  V30 3899 H 369.547 1.40462 2.64406 0
M  V30 3900 H 367.093 0.67684 1.27102 0
M  V30 3901 H 369.046 -0.482192 4.18632 0
M  V30 3902 H 367.77 -1.06351 3.08799 0
M  V30 3903 H 366.429 1.02482 3.51984 0
M  V30 3904 H 366.077 -1.0125 4.92704 0
M  V30 3905 H 365.777 0.477325 5.85658 0
M  V30 3906 H 367.301 -0.425107 6.09118 0
M  V30 3907 H 368.715 1.75612 5.45741 0
M  V30 3908 H 367.112 2.54695 5.43369 0
M  V30 3909 H 368.182 2.69909 4.02836 0
M  V30 3910 N 369.525 -1.3858 0.750561 0
M  V30 3911 C 370.802 -1.94231 0.231009 0
M  V30 3912 C 371.182 -1.68611 -1.27018 0
M  V30 3913 O 370.53 -1.02296 -2.04323 0
M  V30 3914 C 370.74 -3.44123 0.581428 0
M  V30 3915 C 372.088 -4.2116 0.539389 0
M  V30 3916 O 373.112 -3.52391 0.519541 0
M  V30 3917 O 371.971 -5.43749 0.54765 0
M  V30 3918 H 369.065 -0.825639 0.0474263 0
M  V30 3919 H 371.611 -1.4799 0.830478 0
M  V30 3920 H 370.383 -3.56267 1.61833 0
M  V30 3921 H 370.006 -3.97573 -0.0462047 0
M  V30 3922 N 371.003 -0.499398 -1.49478 0
M  V30 3923 C 371.95 0.279881 -2.29097 0
M  V30 3924 C 372.92 0.961805 -1.3542 0
M  V30 3925 O 374.105 0.968777 -1.64376 0
M  V30 3926 C 371.245 1.33932 -3.18051 0
M  V30 3927 C 370.358 0.669333 -4.26783 0
M  V30 3928 C 369.493 1.70907 -5.02955 0
M  V30 3929 C 368.532 1.02087 -6.03527 0
M  V30 3930 N 367.669 2.00474 -6.7287 0
M  V30 3931 H 372.509 -0.405317 -2.95231 0
M  V30 3932 H 370.046 -0.211726 -1.45568 0
M  V30 3933 H 372.004 1.96553 -3.67998 0
M  V30 3934 H 370.634 1.9933 -2.53904 0
M  V30 3935 H 369.686 -0.0701234 -3.80335 0
M  V30 3936 H 370.998 0.127503 -4.98637 0
M  V30 3937 H 370.152 2.41037 -5.56764 0
M  V30 3938 H 368.891 2.28476 -4.30871 0
M  V30 3939 H 367.896 0.305338 -5.48951 0
M  V30 3940 H 369.121 0.451708 -6.77596 0
M  V30 3941 H 367.067 2.57007 -6.03559 0
M  V30 3942 H 366.984 1.51353 -7.40694 0
M  V30 3943 H 368.252 2.69897 -7.31284 0
M  V30 3944 N 372.481 1.55866 -0.233164 0
M  V30 3945 C 373.758 1.90471 0.444988 0
M  V30 3946 C 374.138 1.15209 1.7689 0
M  V30 3947 O 373.486 0.265119 2.26957 0
M  V30 3948 C 373.696 3.4333 0.626559 0
M  V30 3949 C 375.044 4.14319 0.92871 0
M  V30 3950 O 376.068 3.48993 0.712926 0
M  V30 3951 O 374.927 5.29846 1.33887 0
M  V30 3952 H 372.021 0.792347 0.236885 0
M  V30 3953 H 374.567 1.67437 -0.276211 0
M  V30 3954 H 373.339 3.90095 -0.306822 0
M  V30 3955 H 372.962 3.72181 1.39881 0
M  V30 3956 N 373.959 -0.0401083 1.57549 0
M  V30 3957 C 375.37 -0.588097 1.77196 0
M  V30 3958 C 375.721 -1.76209 0.862832 0
M  V30 3959 O 374.846 -2.16331 0.0548389 0
M  V30 3960 C 375.441 -1.07363 3.21339 0
M  V30 3961 C 374 -1.56723 3.42221 0
M  V30 3962 C 373.147 -0.50041 2.72747 0
M  V30 3963 H 376.098 0.186119 1.57605 0
M  V30 3964 H 376.119 -1.94143 3.27244 0
M  V30 3965 H 375.631 -0.218975 3.87482 0
M  V30 3966 H 373.732 -2.4441 2.81237 0
M  V30 3967 H 373.845 -1.62234 4.50796 0
M  V30 3968 H 372.209 -0.952894 2.36203 0
M  V30 3969 H 372.992 0.344599 3.41566 0
M  V30 3970 N 375.437 -1.54477 -0.31217 0
M  V30 3971 C 376.37 -1.79519 -1.40884 0
M  V30 3972 C 377.348 -0.645753 -1.49227 0
M  V30 3973 O 378.532 -0.884468 -1.66461 0
M  V30 3974 C 375.659 -1.92194 -2.78889 0
M  V30 3975 C 374.705 -3.14555 -2.88023 0
M  V30 3976 S 375.538 -4.72893 -2.51262 0
M  V30 3977 C 376.694 -4.8849 -3.91317 0
M  V30 3978 H 376.927 -2.72256 -1.19432 0
M  V30 3979 H 374.46 -1.45746 -0.509654 0
M  V30 3980 H 376.418 -2.00182 -3.58382 0
M  V30 3981 H 375.079 -1.00414 -2.97617 0
M  V30 3982 H 374.272 -3.20193 -3.89221 0
M  V30 3983 H 373.874 -3.04955 -2.16514 0
M  V30 3984 H 376.166 -4.71826 -4.86196 0
M  V30 3985 H 377.109 -5.90588 -3.90656 0
M  V30 3986 H 377.517 -4.16715 -3.80801 0
M  V30 3987 N 376.915 0.57481 -1.46744 0
M  V30 3988 C 377.845 1.69337 -1.60771 0
M  V30 3989 C 378.826 1.63825 -0.457736 0
M  V30 3990 O 380.011 1.8172 -0.684947 0
M  V30 3991 C 377.141 3.0798 -1.60517 0
M  V30 3992 C 376.095 3.28327 -2.74564 0
M  V30 3993 C 375.421 4.67578 -2.59373 0
M  V30 3994 C 376.721 3.15398 -4.16319 0
M  V30 3995 H 378.415 1.57853 -2.54407 0
M  V30 3996 H 375.961 0.75799 -1.22436 0
M  V30 3997 H 377.914 3.86061 -1.68923 0
M  V30 3998 H 376.638 3.20381 -0.634305 0
M  V30 3999 H 375.297 2.52649 -2.65639 0
M  V30 4000 H 374.945 4.76755 -1.60353 0
M  V30 4001 H 374.645 4.82144 -3.35873 0
M  V30 4002 H 376.169 5.47817 -2.69682 0
M  V30 4003 H 377.583 3.83315 -4.26313 0
M  V30 4004 H 375.98 3.41482 -4.93468 0
M  V30 4005 H 377.05 2.12372 -4.3592 0
M  V30 4006 N 378.394 1.34581 0.820102 0
M  V30 4007 C 379.324 1.29038 1.94606 0
M  V30 4008 C 380.305 0.1673 1.69275 0
M  V30 4009 O 381.49 0.360112 1.90832 0
M  V30 4010 C 378.62 1.04793 3.31113 0
M  V30 4011 C 377.574 2.13597 3.70891 0
M  V30 4012 C 376.9 1.74537 5.05412 0
M  V30 4013 C 378.2 3.55451 3.8269 0
M  V30 4014 H 379.894 2.23248 1.99501 0
M  V30 4015 H 377.44 1.0747 0.958449 0
M  V30 4016 H 379.393 0.995592 4.0947 0
M  V30 4017 H 378.117 0.0702565 3.26524 0
M  V30 4018 H 376.776 2.17905 2.9481 0
M  V30 4019 H 376.424 0.754226 4.97313 0
M  V30 4020 H 376.124 2.47361 5.32997 0
M  V30 4021 H 377.648 1.70803 5.86224 0
M  V30 4022 H 379.062 3.5354 4.51312 0
M  V30 4023 H 377.459 4.26922 4.21732 0
M  V30 4024 H 378.529 3.92587 2.84611 0
M  V30 4025 N 379.872 -1.04064 1.18357 0
M  V30 4026 C 381.097 -1.81454 1.00445 0
M  V30 4027 C 381.522 -1.82823 -0.442423 0
M  V30 4028 O 380.88 -1.24555 -1.31741 0
M  V30 4029 C 380.928 -3.24925 1.56384 0
M  V30 4030 O 380.032 -4.04856 0.785209 0
M  V30 4031 H 379.373 -0.560604 0.355835 0
M  V30 4032 H 381.903 -1.31059 1.57114 0
M  V30 4033 H 381.913 -3.75702 1.59097 0
M  V30 4034 H 380.588 -3.23244 2.61699 0
M  V30 4035 H 379.165 -3.63537 0.830399 0
M  V30 4036 N 381.35 -0.985608 -1.22978 0
M  V30 4037 C 382.598 -0.656087 -1.91154 0
M  V30 4038 C 382.919 0.813561 -1.77218 0
M  V30 4039 O 382.189 1.58244 -1.1548 0
M  V30 4040 H 380.769 -0.239674 -0.707506 0
M  V30 4041 H 383.431 -1.25054 -1.49491 0
M  V30 4042 H 382.527 -0.912253 -2.9847 0
M  V30 4043 N 382.828 1.3818 -0.7579 0
M  V30 4044 C 384.056 2.04301 -0.326937 0
M  V30 4045 C 384.471 1.57163 1.0462 0
M  V30 4046 O 383.828 0.746626 1.66529 0
M  V30 4047 C 383.879 3.59846 -0.345363 0
M  V30 4048 O 383.6 4.05256 -1.66432 0
M  V30 4049 C 385.101 4.4319 0.098927 0
M  V30 4050 H 382.321 0.656443 -0.139012 0
M  V30 4051 H 384.865 1.76786 -1.02796 0
M  V30 4052 H 383.02 3.86182 0.306955 0
M  V30 4053 H 383.434 4.99709 -1.59345 0
M  V30 4054 H 384.908 5.51989 0.0348745 0
M  V30 4055 H 385.385 4.23947 1.14741 0
M  V30 4056 H 385.991 4.22051 -0.52468 0
M  V30 4057 N 384.306 0.507319 1.49211 0
M  V30 4058 C 385.256 -0.287112 2.26185 0
M  V30 4059 C 386.24 -0.929983 1.31302 0
M  V30 4060 O 387.432 -0.836538 1.55984 0
M  V30 4061 C 384.561 -1.34718 3.15763 0
M  V30 4062 C 383.647 -0.710235 4.18111 0
M  V30 4063 N 384.038 0.190836 5.0544 0
M  V30 4064 C 382.336 -0.97009 4.35322 0
M  V30 4065 C 383.037 0.55606 5.79036 0
M  V30 4066 N 382.013 -0.0775232 5.43545 0
M  V30 4067 H 385.815 0.406445 2.91076 0
M  V30 4068 H 383.329 0.323814 1.59139 0
M  V30 4069 H 385.326 -1.92982 3.69545 0
M  V30 4070 H 383.986 -2.04235 2.52424 0
M  V30 4071 H 384.997 0.562047 5.14841 0
M  V30 4072 H 381.674 -1.65753 3.83187 0
M  V30 4073 H 383.064 1.2936 6.5933 0
M  V30 4074 N 385.784 -1.5574 0.241426 0
M  V30 4075 C 387.03 -1.99104 -0.385406 0
M  V30 4076 C 387.363 -1.1293 -1.57988 0
M  V30 4077 O 386.638 -0.191449 -1.93555 0
M  V30 4078 C 386.921 -3.51087 -0.800616 0
M  V30 4079 C 386.774 -4.48028 0.398874 0
M  V30 4080 C 388.093 -4.08015 -1.64959 0
M  V30 4081 H 385.212 -0.723848 -0.138614 0
M  V30 4082 H 387.854 -1.86903 0.341642 0
M  V30 4083 H 386.004 -3.61615 -1.4201 0
M  V30 4084 H 387.676 -4.49487 1.03726 0
M  V30 4085 H 385.919 -4.21077 1.04293 0
M  V30 4086 H 386.59 -5.51962 0.0651056 0
M  V30 4087 H 389.066 -4.00555 -1.12672 0
M  V30 4088 H 387.942 -5.14635 -1.90898 0
M  V30 4089 H 388.203 -3.56131 -2.61961 0
M  V30 4090 N 387.262 0.0317525 -1.57568 0
M  V30 4091 C 388.195 1.06621 -2.0176 0
M  V30 4092 C 389.173 1.35323 -0.901462 0
M  V30 4093 O 390.357 1.48025 -1.16708 0
M  V30 4094 C 387.484 2.40155 -2.38837 0
M  V30 4095 C 386.53 2.27327 -3.60867 0
M  V30 4096 S 387.363 1.62925 -5.10113 0
M  V30 4097 C 388.519 2.97955 -5.5043 0
M  V30 4098 H 388.752 0.689781 -2.89187 0
M  V30 4099 H 386.285 0.24164 -1.52497 0
M  V30 4100 H 388.243 3.1695 -2.6087 0
M  V30 4101 H 386.904 2.74946 -1.51867 0
M  V30 4102 H 386.097 3.25898 -3.84456 0
M  V30 4103 H 385.699 1.58675 -3.38671 0
M  V30 4104 H 387.991 3.94285 -5.5095 0
M  V30 4105 H 388.934 2.79102 -6.50775 0
M  V30 4106 H 389.342 3.00404 -4.77931 0
M  V30 4107 N 388.74 1.54641 0.303973 0
M  V30 4108 C 389.65 1.88439 1.39743 0
M  V30 4109 C 390.666 0.778239 1.55626 0
M  V30 4110 O 391.842 1.07442 1.70347 0
M  V30 4111 C 388.907 2.12212 2.74166 0
M  V30 4112 C 387.968 3.35936 2.67293 0
M  V30 4113 C 387.201 3.58566 3.95305 0
M  V30 4114 O 387.424 2.84263 4.9452 0
M  V30 4115 O 386.358 4.52078 3.97378 0
M  V30 4116 H 390.184 2.81458 1.14083 0
M  V30 4117 H 387.769 1.40793 0.499768 0
M  V30 4118 H 389.651 2.29067 3.53704 0
M  V30 4119 H 388.326 1.22379 2.99675 0
M  V30 4120 H 387.233 3.24448 1.86237 0
M  V30 4121 H 388.566 4.2589 2.46736 0
M  V30 4122 N 390.218 -0.567019 1.47046 0
M  V30 4123 C 391.466 -1.322 1.52864 0
M  V30 4124 C 391.787 -1.94088 0.188388 0
M  V30 4125 O 391.057 -1.7941 -0.786693 0
M  V30 4126 H 389.637 -0.490894 0.563056 0
M  V30 4127 H 392.299 -0.662879 1.83281 0
M  V30 4128 H 391.395 -2.12062 2.2899 0
M  V30 4129 N 391.696 -1.35014 -0.812953 0
M  V30 4130 C 392.921 -1.31187 -1.60639 0
M  V30 4131 C 393.346 0.109382 -1.87782 0
M  V30 4132 O 392.704 1.07424 -1.46047 0
M  V30 4133 C 392.752 -2.11809 -2.91838 0
M  V30 4134 O 391.856 -1.49444 -3.8437 0
M  V30 4135 H 391.197 -0.450084 -0.488181 0
M  V30 4136 H 393.727 -1.77963 -1.00947 0
M  V30 4137 H 393.737 -2.23531 -3.41318 0
M  V30 4138 H 392.412 -3.15137 -2.71407 0
M  V30 4139 H 390.989 -1.46524 -3.42907 0
M  V30 4140 N 393.175 1.03435 -1.18907 0
M  V30 4141 C 394.423 1.76394 -0.986382 0
M  V30 4142 C 394.744 1.88883 0.484567 0
M  V30 4143 O 394.014 1.41843 1.3512 0
M  V30 4144 H 392.594 0.65344 -0.361975 0
M  V30 4145 H 395.256 1.248 -1.49703 0
M  V30 4146 H 394.352 2.77424 -1.42978 0
M  V30 4147 N 394.653 0.992116 1.22453 0
M  V30 4148 C 396.069 0.702713 1.43297 0
M  V30 4149 C 396.269 -0.726909 1.87932 0
M  V30 4150 O 395.325 -1.49792 2.0327 0
M  V30 4151 C 396.638 1.70762 2.47509 0
M  V30 4152 C 398.186 1.72298 2.61309 0
M  V30 4153 C 398.661 2.71649 3.68742 0
M  V30 4154 N 400.152 2.70239 3.76199 0
M  V30 4155 C 400.887 3.43778 4.58917 0
M  V30 4156 N 400.383 4.26914 5.45633 0
M  V30 4157 N 402.176 3.32487 4.5322 0
M  V30 4158 H 394.327 1.91543 0.917871 0
M  V30 4159 H 396.59 0.826031 0.465162 0
M  V30 4160 H 396.296 2.73059 2.21657 0
M  V30 4161 H 396.17 1.49985 3.46099 0
M  V30 4162 H 398.557 0.706989 2.86506 0
M  V30 4163 H 398.638 1.97143 1.62997 0
M  V30 4164 H 398.282 3.73397 3.44292 0
M  V30 4165 H 398.212 2.44074 4.66622 0
M  V30 4166 H 400.703 2.09912 3.14237 0
M  V30 4167 H 401.016 4.79855 6.05771 0
M  V30 4168 H 399.361 4.31002 5.45218 0
M  V30 4169 H 402.552 2.6698 3.84499 0
M  V30 4170 H 402.725 3.90058 5.17454 0
M  V30 4171 N 396.131 -1.37776 0.765217 0
M  V30 4172 C 397.064 -2.28008 0.0935025 0
M  V30 4173 C 398.042 -1.45985 -0.716047 0
M  V30 4174 O 399.226 -1.75331 -0.692203 0
M  V30 4175 C 396.353 -3.27228 -0.874052 0
M  V30 4176 C 395.399 -4.26239 -0.149307 0
M  V30 4177 S 396.232 -5.22827 1.15809 0
M  V30 4178 C 397.388 -6.256 0.193906 0
M  V30 4179 H 397.621 -2.84631 0.858637 0
M  V30 4180 H 395.154 -1.43952 0.558313 0
M  V30 4181 H 397.112 -3.84902 -1.42691 0
M  V30 4182 H 395.773 -2.69565 -1.61225 0
M  V30 4183 H 394.966 -4.96213 -0.88254 0
M  V30 4184 H 394.568 -3.7252 0.332366 0
M  V30 4185 H 396.86 -6.74508 -0.636011 0
M  V30 4186 H 397.803 -7.02838 0.861638 0
M  V30 4187 H 398.211 -5.64173 -0.191975 0
M  V30 4188 N 397.609 -0.515225 -1.4894 0
M  V30 4189 C 398.855 0.0242508 -2.02785 0
M  V30 4190 C 399.188 1.35323 -1.39289 0
M  V30 4191 O 398.463 1.87041 -0.533469 0
M  V30 4192 C 398.746 0.16184 -3.59736 0
M  V30 4193 C 398.599 -1.19127 -4.33738 0
M  V30 4194 C 399.918 0.895719 -4.30888 0
M  V30 4195 H 397.037 0.00733914 -0.736963 0
M  V30 4196 H 399.679 -0.669395 -1.77818 0
M  V30 4197 H 397.829 0.752624 -3.8114 0
M  V30 4198 H 399.501 -1.82202 -4.23792 0
M  V30 4199 H 397.744 -1.77695 -3.95736 0
M  V30 4200 H 398.415 -1.04815 -5.41957 0
M  V30 4201 H 400.891 0.394528 -4.14225 0
M  V30 4202 H 399.767 0.960859 -5.40425 0
M  V30 4203 H 400.028 1.9427 -3.97129 0
M  V30 4204 N 399.087 1.5561 -0.249682 0
M  V30 4205 C 400.333 1.99306 0.374841 0
M  V30 4206 C 400.666 1.13767 1.57387 0
M  V30 4207 O 399.941 0.201711 1.93451 0
M  V30 4208 C 400.224 3.51507 0.781986 0
M  V30 4209 C 400.077 4.4781 -0.422629 0
M  V30 4210 C 401.396 4.08884 1.62793 0
M  V30 4211 H 398.515 0.724572 0.134773 0
M  V30 4212 H 401.157 1.86719 -0.351549 0
M  V30 4213 H 399.307 3.62363 1.4009 0
M  V30 4214 H 400.979 4.48931 -1.06108 0
M  V30 4215 H 399.222 4.20518 -1.06524 0
M  V30 4216 H 399.893 5.51919 -0.0943766 0
M  V30 4217 H 402.369 4.01147 1.10547 0
M  V30 4218 H 401.245 5.1564 1.88166 0
M  V30 4219 H 401.506 3.57515 2.60068 0
M  V30 4220 N 400.565 -0.0233959 1.57583 0
M  V30 4221 C 401.793 -0.724682 1.93794 0
M  V30 4222 C 402.208 -1.68588 0.849912 0
M  V30 4223 O 401.565 -1.81676 -0.173204 0
M  V30 4224 C 401.616 -1.47684 3.29957 0
M  V30 4225 O 401.337 -0.554222 4.3458 0
M  V30 4226 C 402.838 -2.27477 3.80485 0
M  V30 4227 H 400.058 -0.203317 0.639455 0
M  V30 4228 H 402.602 0.0207653 2.04489 0
M  V30 4229 H 400.757 -2.17412 3.20641 0
M  V30 4230 H 401.171 -1.08232 5.13212 0
M  V30 4231 H 402.645 -2.7564 4.78254 0
M  V30 4232 H 403.122 -3.09144 3.11972 0
M  V30 4233 H 403.728 -1.62813 3.92902 0
M  V30 4234 N 402.043 -1.548 -0.295768 0
M  V30 4235 C 403.006 -1.85363 -1.34808 0
M  V30 4236 C 404.006 -0.726817 -1.43436 0
M  V30 4237 O 405.196 -0.995088 -1.42981 0
M  V30 4238 C 402.328 -2.03859 -2.73229 0
M  V30 4239 H 403.521 -2.7941 -1.08949 0
M  V30 4240 H 401.074 -1.46942 -0.532702 0
M  V30 4241 H 401.809 -1.12117 -3.04303 0
M  V30 4242 H 401.594 -2.8588 -2.68356 0
M  V30 4243 H 403.084 -2.28857 -3.49305 0
M  V30 4244 N 403.521 0.559213 -1.47345 0
M  V30 4245 C 404.767 1.31843 -1.54095 0
M  V30 4246 C 405.1 1.93149 -0.201726 0
M  V30 4247 O 404.375 1.77759 0.789428 0
M  V30 4248 C 404.658 2.43006 -2.65744 0
M  V30 4249 C 404.511 1.86581 -4.09277 0
M  V30 4250 C 405.83 3.44943 -2.73318 0
M  V30 4251 H 402.949 0.478012 -0.560957 0
M  V30 4252 H 405.591 0.625977 -1.79392 0
M  V30 4253 H 403.741 3.02072 -2.44305 0
M  V30 4254 H 405.413 1.31792 -4.42073 0
M  V30 4255 H 403.656 1.17268 -4.17649 0
M  V30 4256 H 404.327 2.66933 -4.83168 0
M  V30 4257 H 406.803 2.95793 -2.92653 0
M  V30 4258 H 405.679 4.20153 -3.53218 0
M  V30 4259 H 405.94 4.03665 -1.80296 0
M  V30 4260 N 404.999 1.35443 0.805782 0
M  V30 4261 C 406.247 1.28507 1.55982 0
M  V30 4262 C 406.568 -0.140046 1.94496 0
M  V30 4263 O 405.838 -1.07666 1.63661 0
M  V30 4264 H 404.418 0.472676 0.578434 0
M  V30 4265 H 407.08 1.69555 0.961098 0
M  V30 4266 H 406.176 1.90148 2.47488 0
M  V30 4267 N 406.477 -1.02803 1.19454 0
M  V30 4268 C 407.723 -1.76478 0.999171 0
M  V30 4269 C 408.056 -1.88456 -0.468828 0
M  V30 4270 O 407.331 -1.40198 -1.34814 0
M  V30 4271 C 407.614 -3.19044 1.66981 0
M  V30 4272 C 407.467 -3.14932 3.21151 0
M  V30 4273 C 408.786 -4.17456 1.39349 0
M  V30 4274 H 405.905 -0.640614 0.364393 0
M  V30 4275 H 408.547 -1.20005 1.47305 0
M  V30 4276 H 406.697 -3.67263 1.2669 0
M  V30 4277 H 408.369 -2.74605 3.70661 0
M  V30 4278 H 406.612 -2.52625 3.52652 0
M  V30 4279 H 407.283 -4.1566 3.63223 0
M  V30 4280 H 409.759 -3.77842 1.74283 0
M  V30 4281 H 408.635 -5.154 1.88823 0
M  V30 4282 H 408.896 -4.40949 0.318813 0
M  V30 4283 N 407.956 -0.998596 -1.21925 0
M  V30 4284 C 408.904 -0.546641 -2.26085 0
M  V30 4285 C 409.898 0.405576 -1.64473 0
M  V30 4286 O 411.104 0.277471 -1.77849 0
M  V30 4287 H 407.479 -0.158403 -0.735127 0
M  V30 4288 H 409.45 -1.43645 -2.61551 0
M  V30 4289 C 408.199 0.117388 -3.47502 0
M  V30 4290 H 407.522 -0.606277 -3.95176 0
M  V30 4291 H 408.962 0.396993 -4.22137 0
M  V30 4292 C 407.421 1.35455 -3.0847 0
M  V30 4293 O 407.951 2.44944 -3.18379 0
M  V30 4294 N 406.157 1.23191 -2.63196 0
M  V30 4295 H 405.704 0.341006 -2.55333 0
M  V30 4296 H 405.662 2.06071 -2.37449 0
M  V30 4297 N 409.434 1.37368 -0.772513 0
M  V30 4298 C 410.659 2.0447 -0.347386 0
M  V30 4299 C 411.084 1.57882 1.0225 0
M  V30 4300 O 410.442 0.73941 1.65537 0
M  V30 4301 C 410.49 3.58369 -0.400479 0
M  V30 4302 O 409.594 4.0803 0.598789 0
M  V30 4303 H 408.935 0.646773 -0.15027 0
M  V30 4304 H 411.465 1.75667 -1.04892 0
M  V30 4305 H 411.475 4.07183 -0.258045 0
M  V30 4306 H 410.15 3.91633 -1.39986 0
M  V30 4307 H 408.727 3.70534 0.419411 0
M  V30 4308 N 410.912 0.523116 1.48665 0
M  V30 4309 C 411.844 -0.280421 2.27478 0
M  V30 4310 C 412.857 -0.910694 1.34945 0
M  V30 4311 O 414.046 -0.790295 1.60052 0
M  V30 4312 C 411.146 -1.41171 3.08097 0
M  V30 4313 C 410.319 -0.884642 4.28361 0
M  V30 4314 C 409.378 -1.89622 4.90846 0
M  V30 4315 O 408.404 -1.4559 5.50265 0
M  V30 4316 N 409.606 -3.22801 4.82472 0
M  V30 4317 H 412.371 0.395481 2.97079 0
M  V30 4318 H 409.932 0.357018 1.57915 0
M  V30 4319 H 411.924 -2.08645 3.4677 0
M  V30 4320 H 410.494 -1.99139 2.40961 0
M  V30 4321 H 409.714 -0.0341177 3.94185 0
M  V30 4322 H 411.002 -0.511268 5.06225 0
M  V30 4323 H 410.4 -3.61246 4.35336 0
M  V30 4324 H 408.957 -3.85927 5.25265 0
M  V30 4325 N 412.39 -1.55475 0.257931 0
M  V30 4326 C 413.618 -2.03609 -0.367559 0
M  V30 4327 C 414.033 -1.13687 -1.50734 0
M  V30 4328 O 413.39 -0.153479 -1.81853 0
M  V30 4329 C 413.441 -3.51001 -0.864908 0
M  V30 4330 O 413.162 -4.37499 0.229465 0
M  V30 4331 C 414.663 -4.14946 -1.55997 0
M  V30 4332 H 411.883 -0.665459 -0.0860521 0
M  V30 4333 H 414.427 -2.00843 0.385014 0
M  V30 4334 H 412.582 -3.54266 -1.56762 0
M  V30 4335 H 412.996 -5.24286 -0.14998 0
M  V30 4336 H 414.47 -5.19735 -1.85956 0
M  V30 4337 H 414.947 -3.6209 -2.4857 0
M  V30 4338 H 415.553 -4.15635 -0.901543 0
M  V30 4339 N 413.868 0.0150385 -1.57593 0
M  V30 4340 C 415.116 0.701613 -1.8953 0
M  V30 4341 C 415.437 1.75139 -0.857396 0
M  V30 4342 O 414.707 1.95607 0.107194 0
M  V30 4343 H 413.287 0.26213 -0.699498 0
M  V30 4344 H 415.949 -0.0223304 -1.94887 0
M  V30 4345 H 415.045 1.18236 -2.88837 0
M  V30 4346 N 415.346 1.54954 0.287554 0
M  V30 4347 C 416.595 1.74081 1.01877 0
M  V30 4348 C 416.908 0.541135 1.87966 0
M  V30 4349 O 418.114 0.614491 2.64455 0
M  V30 4350 C 416.57 3.08042 1.86113 0
M  V30 4351 C 416.178 4.35531 1.04961 0
M  V30 4352 C 417.922 3.36523 2.58752 0
M  V30 4353 C 415.829 5.60538 1.88551 0
M  V30 4354 H 414.759 0.64884 0.384087 0
M  V30 4355 H 417.41 1.81426 0.275101 0
M  V30 4356 H 415.792 2.94696 2.64519 0
M  V30 4357 H 416.966 4.59751 0.31074 0
M  V30 4358 H 415.281 4.14085 0.43843 0
M  V30 4359 H 417.878 4.27122 3.21668 0
M  V30 4360 H 418.221 2.56 3.28283 0
M  V30 4361 H 418.754 3.50901 1.87386 0
M  V30 4362 H 415.493 6.43767 1.23466 0
M  V30 4363 H 415.013 5.40483 2.60074 0
M  V30 4364 H 416.692 5.98297 2.46273 0
M  V30 4365 N 416.824 -0.551391 1.4764 0
M  V30 4366 C 418.073 -1.30467 1.53822 0
M  V30 4367 C 418.386 -1.94495 0.207661 0
M  V30 4368 O 419.592 -2.71099 0.147533 0
M  V30 4369 C 418.048 -2.36616 2.71184 0
M  V30 4370 C 417.656 -1.78754 4.10793 0
M  V30 4371 C 419.4 -3.13088 2.86663 0
M  V30 4372 C 417.307 -2.82717 5.19447 0
M  V30 4373 H 416.237 -0.490584 0.572576 0
M  V30 4374 H 418.888 -0.58494 1.73927 0
M  V30 4375 H 417.27 -3.11529 2.4447 0
M  V30 4376 H 418.444 -1.10173 4.47435 0
M  V30 4377 H 416.759 -1.14846 4.00249 0
M  V30 4378 H 419.356 -3.90736 3.65007 0
M  V30 4379 H 419.699 -3.67635 1.95321 0
M  V30 4380 H 420.232 -2.45288 3.13175 0
M  V30 4381 H 416.971 -2.33018 6.12685 0
M  V30 4382 H 416.491 -3.4969 4.87316 0
M  V30 4383 H 418.17 -3.46102 5.46646 0
M  V30 4384 N 418.302 -1.35869 -0.798587 0
M  V30 4385 C 419.232 -1.32118 -1.92528 0
M  V30 4386 C 420.213 -0.194209 -1.68988 0
M  V30 4387 O 421.398 -0.390426 -1.90235 0
M  V30 4388 C 418.528 -1.10047 -3.29404 0
M  V30 4389 C 417.482 -2.19471 -3.67446 0
M  V30 4390 C 416.808 -1.82555 -5.02571 0
M  V30 4391 C 418.108 -3.61495 -3.76987 0
M  V30 4392 H 419.802 -2.26394 -1.95924 0
M  V30 4393 H 417.348 -1.08981 -0.94123 0
M  V30 4394 H 419.301 -1.06061 -4.07835 0
M  V30 4395 H 418.025 -0.122195 -3.26371 0
M  V30 4396 H 416.684 -2.22568 -2.91306 0
M  V30 4397 H 416.332 -0.833249 -4.9605 0
M  V30 4398 H 416.032 -2.5581 -5.28995 0
M  V30 4399 H 417.556 -1.80108 -5.83432 0
M  V30 4400 H 418.97 -3.60676 -4.4563 0
M  V30 4401 H 417.367 -4.33577 -4.14887 0
M  V30 4402 H 418.437 -3.97065 -2.78329 0
M  V30 4403 N 419.78 1.02168 -1.19998 0
M  V30 4404 C 421.008 1.79296 -1.03249 0
M  V30 4405 C 421.423 1.84103 0.418502 0
M  V30 4406 O 420.78 1.29031 1.29063 0
M  V30 4407 C 420.831 3.24007 -1.60319 0
M  V30 4408 O 420.552 3.19512 -2.99739 0
M  V30 4409 C 422.053 4.17704 -1.48453 0
M  V30 4410 H 419.273 0.564016 -0.363493 0
M  V30 4411 H 421.817 1.28639 -1.58973 0
M  V30 4412 H 419.972 3.7183 -1.08727 0
M  V30 4413 H 420.386 4.10306 -3.26725 0
M  V30 4414 H 421.86 5.17104 -1.93153 0
M  V30 4415 H 422.337 4.37029 -0.436193 0
M  V30 4416 H 422.943 3.7576 -1.99211 0
M  V30 4417 N 421.258 1.00505 1.21394 0
M  V30 4418 C 422.188 0.585684 2.26035 0
M  V30 4419 C 423.169 -0.393525 1.65485 0
M  V30 4420 O 424.354 -0.281497 1.92149 0
M  V30 4421 C 421.484 -0.0884283 3.47187 0
M  V30 4422 C 420.438 0.810567 4.20254 0
M  V30 4423 C 419.764 0.00286382 5.347 0
M  V30 4424 C 421.064 2.1132 4.77641 0
M  V30 4425 H 422.758 1.46039 2.61368 0
M  V30 4426 H 420.304 0.703648 1.25638 0
M  V30 4427 H 422.257 -0.393286 4.19561 0
M  V30 4428 H 420.981 -0.997766 3.10986 0
M  V30 4429 H 419.64 1.09925 3.49731 0
M  V30 4430 H 419.288 -0.907765 4.94741 0
M  V30 4431 H 418.988 0.601444 5.84514 0
M  V30 4432 H 420.512 -0.295808 6.09883 0
M  V30 4433 H 421.926 1.87148 5.41893 0
M  V30 4434 H 420.323 2.66164 5.37845 0
M  V30 4435 H 421.393 2.78393 3.9702 0
M  V30 4436 N 422.737 -1.36956 0.779787 0
M  V30 4437 C 423.667 -2.32761 0.185651 0
M  V30 4438 C 424.648 -1.56177 -0.673989 0
M  V30 4439 O 425.833 -1.84378 -0.609797 0
M  V30 4440 C 422.963 -3.40418 -0.687964 0
M  V30 4441 C 421.917 -4.27941 0.0710102 0
M  V30 4442 C 421.243 -5.26681 -0.922573 0
M  V30 4443 C 422.543 -5.07006 1.25467 0
M  V30 4444 H 424.237 -2.82698 0.986008 0
M  V30 4445 H 421.783 -1.3592 0.475592 0
M  V30 4446 H 423.736 -4.06423 -1.11348 0
M  V30 4447 H 422.46 -2.89025 -1.52093 0
M  V30 4448 H 421.119 -3.63478 0.47739 0
M  V30 4449 H 420.767 -4.71565 -1.7503 0
M  V30 4450 H 420.467 -5.86103 -0.419237 0
M  V30 4451 H 421.991 -5.9556 -1.34686 0
M  V30 4452 H 423.405 -5.66105 0.905401 0
M  V30 4453 H 421.802 -5.75793 1.69063 0
M  V30 4454 H 422.872 -4.3921 2.05481 0
M  V30 4455 N 424.215 -0.530993 -1.48385 0
M  V30 4456 C 425.463 0.00273189 -2.021 0
M  V30 4457 C 425.784 1.34672 -1.41027 0
M  V30 4458 O 425.054 1.8724 -0.576012 0
M  V30 4459 H 423.634 0.00399774 -0.746989 0
M  V30 4460 H 426.296 -0.695054 -1.82085 0
M  V30 4461 H 425.392 0.11031 -3.11905 0
M  V30 4462 N 425.693 1.55336 -0.266172 0
M  V30 4463 C 426.939 1.99692 0.353681 0
M  V30 4464 C 427.272 1.1543 1.56172 0
M  V30 4465 O 426.547 0.222218 1.93226 0
M  V30 4466 C 426.83 3.52316 0.74466 0
M  V30 4467 C 426.683 4.47337 -0.470101 0
M  V30 4468 C 428.002 4.10588 1.58447 0
M  V30 4469 H 425.121 0.725961 0.12708 0
M  V30 4470 H 427.763 1.86336 -0.371333 0
M  V30 4471 H 425.913 3.63829 1.36239 0
M  V30 4472 H 427.585 4.4778 -1.10864 0
M  V30 4473 H 425.828 4.19364 -1.10978 0
M  V30 4474 H 426.499 5.51788 -0.15291 0
M  V30 4475 H 428.975 4.02297 1.06286 0
M  V30 4476 H 427.851 5.17607 1.82686 0
M  V30 4477 H 428.112 3.60253 2.56262 0
M  V30 4478 N 427.171 -0.0066808 1.57599 0
M  V30 4479 C 428.119 -1.01851 2.09115 0
M  V30 4480 C 429.113 -1.36021 1.00969 0
M  V30 4481 O 430.319 -1.34663 1.19439 0
M  V30 4482 H 426.694 -0.346083 0.667631 0
M  V30 4483 H 428.665 -0.558394 2.93129 0
M  V30 4484 C 427.414 -2.30374 2.60429 0
M  V30 4485 H 426.737 -2.04947 3.43273 0
M  V30 4486 H 428.177 -2.99466 3.00161 0
M  V30 4487 C 426.636 -3.00893 1.51542 0
M  V30 4488 O 427.166 -3.91614 0.894484 0
M  V30 4489 N 425.372 -2.62603 1.2445 0
M  V30 4490 H 424.919 -1.88911 1.75129 0
M  V30 4491 H 424.877 -3.10101 0.518137 0
M  V30 4492 N 428.649 -1.55105 -0.279332 0
M  V30 4493 C 429.559 -1.90638 -1.36727 0
M  V30 4494 C 430.575 -0.802899 -1.54368 0
M  V30 4495 O 431.751 -1.10138 -1.68616 0
M  V30 4496 C 428.816 -2.16547 -2.70755 0
M  V30 4497 C 427.877 -3.40146 -2.61915 0
M  V30 4498 C 427.11 -3.6481 -3.8955 0
M  V30 4499 O 427.333 -2.92095 -4.89935 0
M  V30 4500 O 426.267 -4.58343 -3.90135 0
M  V30 4501 H 430.093 -2.83237 -1.09591 0
M  V30 4502 H 427.678 -1.4157 -0.477306 0
M  V30 4503 H 429.56 -2.34665 -3.50014 0
M  V30 4504 H 428.235 -1.27131 -2.9769 0
M  V30 4505 H 427.142 -3.2737 -1.81052 0
M  V30 4506 H 428.475 -4.29761 -2.3993 0
M  V30 4507 N 430.127 0.543554 -1.4793 0
M  V30 4508 C 431.404 1.30458 -1.4574 0
M  V30 4509 C 431.784 2.1048 -0.161692 0
M  V30 4510 O 431.132 2.11831 0.856734 0
M  V30 4511 C 431.342 2.19754 -2.71126 0
M  V30 4512 C 432.69 2.80334 -3.18901 0
M  V30 4513 O 433.714 2.30049 -2.71948 0
M  V30 4514 O 432.573 3.71766 -4.00565 0
M  V30 4515 H 429.667 0.588117 -0.581418 0
M  V30 4516 H 432.213 0.561328 -1.60147 0
M  V30 4517 H 430.985 1.60316 -3.56952 0
M  V30 4518 H 430.608 3.01351 -2.59371 0
M  V30 4519 N 431.605 1.3629 0.791371 0
M  V30 4520 C 432.882 1.20962 1.53712 0
M  V30 4521 C 433.262 -0.205021 2.10102 0
M  V30 4522 O 432.61 -1.21042 1.93807 0
M  V30 4523 C 432.82 2.29002 2.63361 0
M  V30 4524 C 434.168 2.65572 3.31295 0
M  V30 4525 O 435.192 2.2803 2.73643 0
M  V30 4526 O 434.051 3.3018 4.35481 0
M  V30 4527 H 431.145 0.47086 0.679867 0
M  V30 4528 H 433.691 1.48016 0.830021 0
M  V30 4529 H 432.463 3.2382 2.19674 0
M  V30 4530 H 432.086 2.03303 3.41692 0
M  V30 4531 N 433.083 -1.0153 1.20538 0
M  V30 4532 C 433.993 -2.13557 0.971113 0
M  V30 4533 C 435.009 -1.73845 -0.0734366 0
M  V30 4534 O 436.185 -2.01075 0.114299 0
M  V30 4535 C 433.25 -3.42661 0.527639 0
M  V30 4536 C 432.311 -3.96608 1.64319 0
M  V30 4537 C 431.544 -5.1955 1.22078 0
M  V30 4538 O 431.767 -5.70329 0.0900198 0
M  V30 4539 O 430.701 -5.66681 2.02871 0
M  V30 4540 H 434.527 -2.3619 1.90913 0
M  V30 4541 H 432.112 -1.11946 0.989362 0
M  V30 4542 H 433.994 -4.20404 0.289621 0
M  V30 4543 H 432.669 -3.21441 -0.381779 0
M  V30 4544 H 431.576 -3.20139 1.93551 0
M  V30 4545 H 432.909 -4.22219 2.52966 0
M  V30 4546 N 434.561 -1.01147 -1.20859 0
M  V30 4547 C 435.809 -0.696486 -1.89719 0
M  V30 4548 C 436.13 0.775788 -1.78904 0
M  V30 4549 O 435.4 1.55759 -1.18811 0
M  V30 4550 H 433.98 -0.254628 -0.702263 0
M  V30 4551 H 436.642 -1.28197 -1.46804 0
M  V30 4552 H 435.738 -0.975357 -2.96468 0
M  V30 4553 N 436.039 1.36541 -0.78704 0
M  V30 4554 C 436.949 2.3387 -0.184896 0
M  V30 4555 C 437.965 1.60927 0.661697 0
M  V30 4556 O 439.141 1.92927 0.57804 0
M  V30 4557 C 436.206 3.40122 0.672145 0
M  V30 4558 C 435.267 4.28867 -0.19267 0
M  V30 4559 C 434.5 5.30045 0.623561 0
M  V30 4560 O 434.723 5.39232 1.8597 0
M  V30 4561 O 433.657 6.01895 0.0247068 0
M  V30 4562 H 437.483 2.87126 -0.989562 0
M  V30 4563 H 435.068 1.38969 -0.548455 0
M  V30 4564 H 436.95 4.05093 1.16094 0
M  V30 4565 H 435.625 2.89169 1.45474 0
M  V30 4566 H 434.532 3.66945 -0.728166 0
M  V30 4567 H 435.865 4.83165 -0.938722 0
M  V30 4568 N 437.518 0.538854 1.48102 0
M  V30 4569 C 438.465 -0.219042 2.29758 0
M  V30 4570 C 439.435 -0.925562 1.37922 0
M  V30 4571 O 440.62 -0.924855 1.66886 0
M  V30 4572 C 437.76 -1.25452 3.2149 0
M  V30 4573 C 436.873 -0.555943 4.28408 0
M  V30 4574 C 436.008 -1.57512 5.0731 0
M  V30 4575 C 435.047 -0.860498 6.06021 0
M  V30 4576 N 434.184 -1.82564 6.77949 0
M  V30 4577 H 439.024 0.483449 2.94052 0
M  V30 4578 H 436.561 0.250247 1.44956 0
M  V30 4579 H 438.519 -1.86727 3.7308 0
M  V30 4580 H 437.149 -1.92528 2.591 0
M  V30 4581 H 436.201 0.170938 3.80016 0
M  V30 4582 H 437.513 0.00474616 4.988 0
M  V30 4583 H 436.667 -2.26191 5.62959 0
M  V30 4584 H 435.406 -2.16972 4.36778 0
M  V30 4585 H 434.411 -0.159686 5.49568 0
M  V30 4586 H 435.636 -0.271897 6.78555 0
M  V30 4587 H 433.582 -2.40915 6.10161 0
M  V30 4588 H 433.499 -1.31662 7.44447 0
M  V30 4589 H 434.767 -2.50414 7.38182 0
M  V30 4590 N 438.996 -1.55193 0.274407 0
M  V30 4591 C 439.943 -2.225 -0.613374 0
M  V30 4592 C 440.913 -1.19823 -1.15029 0
M  V30 4593 O 442.098 -1.48362 -1.19973 0
M  V30 4594 C 439.238 -2.94927 -1.79199 0
M  V30 4595 C 438.351 -4.12322 -1.28899 0
M  V30 4596 C 437.486 -4.72394 -2.42934 0
M  V30 4597 C 436.525 -5.81984 -1.89634 0
M  V30 4598 N 435.662 -6.36123 -2.9714 0
M  V30 4599 H 440.502 -2.97982 -0.032756 0
M  V30 4600 H 438.039 -1.47099 -0.00440146 0
M  V30 4601 H 439.997 -3.35134 -2.48478 0
M  V30 4602 H 438.627 -2.2187 -2.34465 0
M  V30 4603 H 437.679 -3.7724 -0.489327 0
M  V30 4604 H 438.991 -4.91355 -0.858587 0
M  V30 4605 H 438.145 -5.15317 -3.20208 0
M  V30 4606 H 436.884 -3.92636 -2.8929 0
M  V30 4607 H 435.889 -5.38511 -1.1084 0
M  V30 4608 H 437.114 -6.6361 -1.44215 0
M  V30 4609 H 435.06 -5.59259 -3.42878 0
M  V30 4610 H 434.977 -7.10427 -2.58515 0
M  V30 4611 H 436.245 -6.83704 -3.74391 0
M  V30 4612 N 440.474 -0.00167713 -1.576 0
M  V30 4613 C 441.421 0.989195 -2.08527 0
M  V30 4614 C 442.391 1.34031 -0.981065 0
M  V30 4615 O 443.576 1.43839 -1.2536 0
M  V30 4616 C 440.716 2.27537 -2.59463 0
M  V30 4617 C 439.829 1.98314 -3.83791 0
M  V30 4618 C 438.964 3.21025 -4.23222 0
M  V30 4619 C 438.003 2.87495 -5.40382 0
M  V30 4620 N 437.14 4.02749 -5.75098 0
M  V30 4621 H 441.98 0.547973 -2.92919 0
M  V30 4622 H 439.517 0.258917 -1.44803 0
M  V30 4623 H 441.475 3.02729 -2.87073 0
M  V30 4624 H 440.105 2.69325 -1.77943 0
M  V30 4625 H 439.157 1.13482 -3.63078 0
M  V30 4626 H 440.469 1.69601 -4.69081 0
M  V30 4627 H 439.623 4.04561 -4.52123 0
M  V30 4628 H 438.362 3.52877 -3.36644 0
M  V30 4629 H 437.367 2.02367 -5.11202 0
M  V30 4630 H 438.592 2.56889 -6.28637 0
M  V30 4631 H 436.538 4.34494 -4.91478 0
M  V30 4632 H 436.455 3.77566 -6.54966 0
M  V30 4633 H 437.723 4.87068 -6.08592 0
M  V30 4634 N 441.952 1.55251 0.271103 0
M  V30 4635 C 442.899 1.88261 1.33516 0
M  V30 4636 C 443.869 0.734296 1.48988 0
M  V30 4637 O 445.054 0.985741 1.63364 0
M  V30 4638 C 442.194 2.16168 2.69008 0
M  V30 4639 C 441.307 3.43678 2.61743 0
M  V30 4640 C 440.442 3.61276 3.89427 0
M  V30 4641 C 439.481 4.82472 3.7668 0
M  V30 4642 N 438.618 4.96717 4.96202 0
M  V30 4643 H 443.458 2.79015 1.04665 0
M  V30 4644 H 440.995 1.38137 0.505618 0
M  V30 4645 H 442.953 2.30349 3.47844 0
M  V30 4646 H 441.583 1.28646 2.96057 0
M  V30 4647 H 440.635 3.37959 1.74607 0
M  V30 4648 H 441.947 4.3265 2.48224 0
M  V30 4649 H 441.101 3.75284 4.76704 0
M  V30 4650 H 439.84 2.70492 4.05814 0
M  V30 4651 H 438.845 4.68465 2.87786 0
M  V30 4652 H 440.07 5.74692 3.61809 0
M  V30 4653 H 438.016 4.08865 5.12997 0
M  V30 4654 H 437.933 5.79738 4.85222 0
M  V30 4655 H 439.201 5.15113 5.85046 0
M  V30 4656 N 443.43 -0.535701 1.48216 0
M  V30 4657 C 444.678 -1.28928 1.55634 0
M  V30 4658 C 444.999 -1.93645 0.229514 0
M  V30 4659 O 444.269 -1.81038 -0.74846 0
M  V30 4660 H 442.849 -0.47884 0.573342 0
M  V30 4661 H 445.511 -0.623853 1.84646 0
M  V30 4662 H 444.607 -2.07157 2.33436 0
M  V30 4663 N 444.908 -1.36708 -0.784132 0
M  V30 4664 C 445.855 -1.31466 -1.89698 0
M  V30 4665 C 446.825 -0.18239 -1.65096 0
M  V30 4666 O 448.01 -0.369762 -1.87183 0
M  V30 4667 C 445.15 -1.1151 -3.26588 0
M  V30 4668 C 444.263 -2.33859 -3.63227 0
M  V30 4669 C 443.398 -2.06873 -4.89262 0
M  V30 4670 C 442.437 -3.25154 -5.18595 0
M  V30 4671 N 441.574 -2.978 -6.35814 0
M  V30 4672 H 446.414 -2.26619 -1.93515 0
M  V30 4673 H 443.951 -1.12625 -0.946256 0
M  V30 4674 H 445.909 -0.979653 -4.05535 0
M  V30 4675 H 444.539 -0.200103 -3.22179 0
M  V30 4676 H 443.591 -2.58188 -2.79362 0
M  V30 4677 H 444.903 -3.22109 -3.8085 0
M  V30 4678 H 444.057 -1.90289 -5.76086 0
M  V30 4679 H 442.796 -1.15942 -4.73718 0
M  V30 4680 H 441.801 -3.42292 -4.30251 0
M  V30 4681 H 443.026 -4.1692 -5.36055 0
M  V30 4682 H 440.972 -2.09485 -6.21653 0
M  V30 4683 H 440.889 -3.7959 -6.53794 0
M  V30 4684 H 442.157 -2.84805 -7.25607 0
M  V30 4685 N 446.386 1.0089 -1.21074 0
M  V30 4686 C 447.333 2.09588 -0.966512 0
M  V30 4687 C 448.303 1.65761 0.106089 0
M  V30 4688 O 449.488 1.90758 -0.0402287 0
M  V30 4689 C 446.628 3.40958 -0.533058 0
M  V30 4690 C 445.741 3.9822 -1.67467 0
M  V30 4691 C 444.876 5.17682 -1.19076 0
M  V30 4692 C 443.915 5.67043 -2.30496 0
M  V30 4693 N 443.052 6.77759 -1.83267 0
M  V30 4694 H 447.892 2.29815 -1.89708 0
M  V30 4695 H 445.429 1.12689 -0.945489 0
M  V30 4696 H 447.387 4.1637 -0.263019 0
M  V30 4697 H 446.017 3.20781 0.360505 0
M  V30 4698 H 445.069 3.1983 -2.05944 0
M  V30 4699 H 446.381 4.3085 -2.51336 0
M  V30 4700 H 445.535 6.00326 -0.877151 0
M  V30 4701 H 444.274 4.86635 -0.322066 0
M  V30 4702 H 443.279 4.82999 -2.62664 0
M  V30 4703 H 444.504 6.00121 -3.17855 0
M  V30 4704 H 442.45 6.48527 -0.987356 0
M  V30 4705 H 442.367 7.09624 -2.60711 0
M  V30 4706 H 443.635 7.63949 -1.54928 0
M  V30 4707 N 447.864 1.01787 1.20321 0
M  V30 4708 C 448.796 0.547357 2.22568 0
M  V30 4709 C 449.809 -0.370922 1.58518 0
M  V30 4710 O 450.998 -0.169067 1.77698 0
M  V30 4711 C 448.098 -0.223031 3.38165 0
M  V30 4712 C 447.271 0.697472 4.31803 0
M  V30 4713 C 446.33 -0.025562 5.26194 0
M  V30 4714 O 445.356 0.597367 5.66057 0
M  V30 4715 N 446.558 -1.29999 5.65757 0
M  V30 4716 H 449.323 1.42668 2.63564 0
M  V30 4717 H 446.884 0.895552 1.34876 0
M  V30 4718 H 448.876 -0.716002 3.98316 0
M  V30 4719 H 447.446 -1.00366 2.9605 0
M  V30 4720 H 446.666 1.37073 3.69601 0
M  V30 4721 H 447.954 1.32347 4.91286 0
M  V30 4722 H 447.352 -1.827 5.35385 0
M  V30 4723 H 445.909 -1.73766 6.28211 0
M  V30 4724 N 449.342 -1.36122 0.79427 0
M  V30 4725 C 450.59 -1.98718 0.368177 0
M  V30 4726 C 450.911 -1.63345 -1.06506 0
M  V30 4727 O 450.181 -0.909825 -1.73491 0
M  V30 4728 H 448.761 -0.735038 0.133146 0
M  V30 4729 H 451.423 -1.66239 1.01739 0
M  V30 4730 H 450.519 -3.08633 0.463923 0
M  V30 4731 N 450.82 -0.546701 -1.47814 0
M  V30 4732 C 452.066 -0.0187684 -2.02791 0
M  V30 4733 C 452.399 1.32338 -1.42128 0
M  V30 4734 O 451.674 1.85867 -0.573023 0
M  V30 4735 C 451.957 0.0854985 -3.59998 0
M  V30 4736 C 451.81 -1.283 -4.31114 0
M  V30 4737 C 453.129 0.80412 -4.32691 0
M  V30 4738 H 450.248 -0.0082946 -0.736953 0
M  V30 4739 H 452.89 -0.706962 -1.76358 0
M  V30 4740 H 451.04 0.671609 -3.82651 0
M  V30 4741 H 452.712 -1.91151 -4.19832 0
M  V30 4742 H 450.955 -1.86049 -3.91878 0
M  V30 4743 H 451.626 -1.16287 -5.39612 0
M  V30 4744 H 454.102 0.306576 -4.14969 0
M  V30 4745 H 452.978 0.846011 -5.42341 0
M  V30 4746 H 453.239 1.85802 -4.01161 0
M  V30 4747 N 452.299 1.55045 -0.282633 0
M  V30 4748 C 453.71 1.85473 0.213655 0
M  V30 4749 C 454.061 1.20465 1.54863 0
M  V30 4750 O 453.186 0.495676 2.10647 0
M  V30 4751 C 453.781 3.36496 0.394445 0
M  V30 4752 C 452.34 3.67022 0.834961 0
M  V30 4753 C 451.487 2.77218 -0.0674081 0
M  V30 4754 H 454.438 1.50478 -0.504202 0
M  V30 4755 H 454.459 3.60007 1.23186 0
M  V30 4756 H 453.971 3.83782 -0.577326 0
M  V30 4757 H 452.072 3.25241 1.81794 0
M  V30 4758 H 452.185 4.74433 0.667075 0
M  V30 4759 H 450.549 2.5069 0.450196 0
M  V30 4760 H 451.332 3.2732 -1.0352 0
M  V30 4761 N 453.777 0.010035 1.57597 0
M  V30 4762 C 454.687 -0.994226 2.12491 0
M  V30 4763 C 455.703 -1.37013 1.07254 0
M  V30 4764 O 456.879 -1.45542 1.3921 0
M  V30 4765 C 453.944 -2.2642 2.62555 0
M  V30 4766 C 453.005 -1.95049 3.82432 0
M  V30 4767 C 452.238 -3.15991 4.30099 0
M  V30 4768 O 452.461 -4.28015 3.7704 0
M  V30 4769 O 451.395 -2.99403 5.22151 0
M  V30 4770 H 455.221 -0.557549 2.98538 0
M  V30 4771 H 452.806 -0.209413 1.47925 0
M  V30 4772 H 454.688 -3.01009 2.9491 0
M  V30 4773 H 453.363 -2.69306 1.796 0
M  V30 4774 H 452.27 -1.17904 3.55034 0
M  V30 4775 H 453.603 -1.56992 4.66491 0
M  V30 4776 N 455.255 -1.55392 -0.262866 0
M  V30 4777 C 456.203 -1.8977 -1.345 0
M  V30 4778 C 457.197 -0.775063 -1.50629 0
M  V30 4779 O 458.403 -0.959519 -1.52293 0
M  V30 4780 H 454.778 -0.602467 -0.450041 0
M  V30 4781 H 456.749 -2.80147 -1.02762 0
M  V30 4782 C 455.498 -2.19501 -2.69657 0
M  V30 4783 H 454.821 -3.05378 -2.5804 0
M  V30 4784 H 456.261 -2.47469 -3.44289 0
M  V30 4785 C 454.72 -1.00597 -3.21531 0
M  V30 4786 O 455.25 -0.245768 -4.00947 0
M  V30 4787 N 453.456 -0.800911 -2.79345 0
M  V30 4788 H 453.003 -1.42079 -2.14875 0
M  V30 4789 H 452.961 -0.00697996 -3.14399 0
M  V30 4790 N 456.733 0.527833 -1.48498 0
M  V30 4791 C 458.149 0.856571 -1.34666 0
M  V30 4792 C 458.349 1.98271 -0.35931 0
M  V30 4793 O 457.405 2.51551 0.218703 0
M  V30 4794 C 458.718 1.22207 -2.74747 0
M  V30 4795 C 460.266 1.33183 -2.83251 0
M  V30 4796 C 460.741 1.73075 -4.24039 0
M  V30 4797 N 462.232 1.80174 -4.26722 0
M  V30 4798 C 462.967 2.1243 -5.32598 0
M  V30 4799 N 462.463 2.43096 -6.4875 0
M  V30 4800 N 464.256 2.13454 -5.19994 0
M  V30 4801 H 456.407 -0.215174 -2.11307 0
M  V30 4802 H 458.67 -0.0336281 -0.947403 0
M  V30 4803 H 458.376 0.468195 -3.4857 0
M  V30 4804 H 458.25 2.17173 -3.08409 0
M  V30 4805 H 460.637 2.07647 -2.09683 0
M  V30 4806 H 460.718 0.363333 -2.53206 0
M  V30 4807 H 460.362 0.991712 -4.98124 0
M  V30 4808 H 460.292 2.70979 -4.51529 0
M  V30 4809 H 462.783 1.58744 -3.42942 0
M  V30 4810 H 463.096 2.6682 -7.25277 0
M  V30 4811 H 461.441 2.40611 -6.52021 0
M  V30 4812 H 464.632 1.88956 -4.28268 0
M  V30 4813 H 464.805 2.38261 -6.02608 0
M  V30 4814 N 458.211 1.37122 0.776871 0
M  V30 4815 C 459.159 1.32549 1.91138 0
M  V30 4816 C 460.153 0.215119 1.68029 0
M  V30 4817 O 461.359 0.382852 1.75881 0
M  V30 4818 H 457.734 0.412952 0.62847 0
M  V30 4819 H 459.705 2.28332 1.92112 0
M  V30 4820 C 458.454 1.14422 3.28333 0
M  V30 4821 H 457.777 1.99115 3.46689 0
M  V30 4822 H 459.217 1.15272 4.0803 0
M  V30 4823 C 457.676 -0.150434 3.36564 0
M  V30 4824 O 458.206 -1.13584 3.85307 0
M  V30 4825 N 456.412 -0.19939 2.89915 0
M  V30 4826 H 455.959 0.603142 2.5044 0
M  V30 4827 H 455.917 -1.06526 2.95803 0
M  V30 4828 N 459.689 -1.00246 1.21608 0
M  V30 4829 C 460.636 -2.09073 0.977613 0
M  V30 4830 C 461.606 -1.65815 -0.097297 0
M  V30 4831 O 462.791 -1.90734 0.0503445 0
M  V30 4832 C 459.931 -3.40671 0.551133 0
M  V30 4833 C 459.044 -3.97326 1.69576 0
M  V30 4834 C 458.179 -5.17043 1.2182 0
M  V30 4835 C 457.218 -5.65813 2.335 0
M  V30 4836 N 456.355 -6.76778 1.86859 0
M  V30 4837 H 461.195 -2.28806 1.90924 0
M  V30 4838 H 458.732 -1.12186 0.951452 0
M  V30 4839 H 460.69 -4.16225 0.285097 0
M  V30 4840 H 459.32 -3.20967 -0.343489 0
M  V30 4841 H 458.372 -3.18734 2.07637 0
M  V30 4842 H 459.684 -4.29511 2.53617 0
M  V30 4843 H 458.838 -5.99852 0.908975 0
M  V30 4844 H 457.577 -4.86458 0.347869 0
M  V30 4845 H 456.582 -4.81599 2.65222 0
M  V30 4846 H 457.807 -5.98427 3.21033 0
M  V30 4847 H 455.753 -6.47994 1.02174 0
M  V30 4848 H 455.67 -7.08231 2.64471 0
M  V30 4849 H 456.938 -7.63116 1.58978 0
M  V30 4850 N 461.167 -1.02423 -1.1978 0
M  V30 4851 C 462.13 -0.605703 -2.21052 0
M  V30 4852 C 463.13 0.328209 -1.57415 0
M  V30 4853 O 464.32 0.115853 -1.73814 0
M  V30 4854 C 461.452 0.114366 -3.40708 0
M  V30 4855 H 462.645 -1.5017 -2.59594 0
M  V30 4856 H 460.198 -0.814888 -1.33376 0
M  V30 4857 H 460.933 1.02492 -3.07678 0
M  V30 4858 H 460.718 -0.556641 -3.88129 0
M  V30 4859 H 462.208 0.394272 -4.15735 0
M  V30 4860 N 462.645 1.35699 -0.801477 0
M  V30 4861 C 463.592 2.29876 -0.206294 0
M  V30 4862 C 464.562 1.52565 0.656752 0
M  V30 4863 O 465.747 1.81024 0.602906 0
M  V30 4864 C 462.887 3.39052 0.643272 0
M  V30 4865 C 462 4.31335 -0.239644 0
M  V30 4866 C 461.135 5.27599 0.61744 0
M  V30 4867 C 460.174 6.11521 -0.26619 0
M  V30 4868 N 459.311 6.99938 0.550571 0
M  V30 4869 H 464.151 2.80187 -1.01484 0
M  V30 4870 H 461.688 1.37902 -0.511997 0
M  V30 4871 H 463.646 4.0101 1.15094 0
M  V30 4872 H 462.276 2.9003 1.41713 0
M  V30 4873 H 461.328 3.70426 -0.865381 0
M  V30 4874 H 462.64 4.90243 -0.919985 0
M  V30 4875 H 461.794 5.94906 1.19045 0
M  V30 4876 H 460.533 4.69176 1.33137 0
M  V30 4877 H 459.538 5.43166 -0.851507 0
M  V30 4878 H 460.763 6.72022 -0.9779 0
M  V30 4879 H 458.709 6.44008 1.24856 0
M  V30 4880 H 458.626 7.55966 -0.071832 0
M  V30 4881 H 459.894 7.71599 1.10702 0
M  V30 4882 N 464.123 0.554532 1.47522 0
M  V30 4883 C 465.351 0.034257 2.06872 0
M  V30 4884 C 465.766 -1.25826 1.40759 0
M  V30 4885 O 465.123 -1.75425 0.503217 0
M  V30 4886 C 465.174 -0.167827 3.6111 0
M  V30 4887 O 464.895 1.07351 4.24744 0
M  V30 4888 C 466.396 -0.72569 4.3732 0
M  V30 4889 H 463.616 0.0446275 0.669514 0
M  V30 4890 H 466.16 0.767181 1.89564 0
M  V30 4891 H 464.315 -0.850872 3.7794 0
M  V30 4892 H 464.729 0.869563 5.17242 0
M  V30 4893 H 466.203 -0.816394 5.45929 0
M  V30 4894 H 466.68 -1.73635 4.0342 0
M  V30 4895 H 467.286 -0.0784292 4.25228 0
M  V30 4896 N 465.601 -1.54893 0.290851 0
M  V30 4897 C 466.533 -2.20564 -0.623236 0
M  V30 4898 C 467.546 -1.19519 -1.1054 0
M  V30 4899 O 468.735 -1.46165 -1.02459 0
M  V30 4900 C 465.835 -2.83033 -1.86401 0
M  V30 4901 C 465.008 -4.09916 -1.52604 0
M  V30 4902 C 464.067 -4.56284 -2.62091 0
M  V30 4903 O 463.093 -5.2171 -2.27612 0
M  V30 4904 N 464.295 -4.27746 -3.92446 0
M  V30 4905 H 467.06 -2.99638 -0.0610915 0
M  V30 4906 H 464.621 -1.61508 0.112615 0
M  V30 4907 H 466.613 -3.1099 -2.58973 0
M  V30 4908 H 465.183 -2.0786 -2.33481 0
M  V30 4909 H 464.403 -3.89078 -0.633424 0
M  V30 4910 H 465.691 -4.92554 -1.27547 0
M  V30 4911 H 465.089 -3.7531 -4.23272 0
M  V30 4912 H 463.646 -4.60437 -4.61347 0
M  V30 4913 N 467.08 -0.0183926 -1.57589 0
M  V30 4914 C 468.357 0.700621 -1.82622 0
M  V30 4915 C 468.737 1.90951 -0.90005 0
M  V30 4916 O 468.085 2.28452 0.0469145 0
M  V30 4917 C 468.295 1.08899 -3.31575 0
M  V30 4918 C 469.643 1.48514 -3.9778 0
M  V30 4919 O 470.667 1.18227 -3.36007 0
M  V30 4920 O 469.526 2.04903 -5.06633 0
M  V30 4921 H 466.62 0.342743 -0.752633 0
M  V30 4922 H 469.166 -0.0452548 -1.6964 0
M  V30 4923 H 467.938 0.228113 -3.90635 0
M  V30 4924 H 467.561 1.89338 -3.49624 0
M  V30 4925 N 468.558 1.5553 0.254621 0
M  V30 4926 C 469.806 1.7665 0.981793 0
M  V30 4927 C 470.127 0.580963 1.86145 0
M  V30 4928 O 469.397 -0.403537 1.91699 0
M  V30 4929 H 467.977 0.651475 0.365498 0
M  V30 4930 H 470.639 1.92958 0.274426 0
M  V30 4931 H 469.735 2.67486 1.60802 0
M  V30 4932 N 470.036 -0.519951 1.48776 0
M  V30 4933 C 471.282 -1.27711 1.57536 0
M  V30 4934 C 471.615 -1.92547 0.252866 0
M  V30 4935 O 470.89 -1.7979 -0.742021 0
M  V30 4936 C 471.173 -2.35875 2.72094 0
M  V30 4937 C 471.026 -1.75664 4.1408 0
M  V30 4938 C 472.345 -3.37575 2.82367 0
M  V30 4939 H 469.464 -0.462971 0.573434 0
M  V30 4940 H 472.106 -0.578194 1.80989 0
M  V30 4941 H 470.256 -2.95488 2.52228 0
M  V30 4942 H 471.928 -1.20025 4.45412 0
M  V30 4943 H 470.171 -1.06154 4.20611 0
M  V30 4944 H 470.842 -2.54029 4.90075 0
M  V30 4945 H 473.318 -2.87929 3.00393 0
M  V30 4946 H 472.194 -4.1064 3.64233 0
M  V30 4947 H 472.455 -3.98743 1.90936 0
M  V30 4948 N 471.514 -1.37532 -0.769588 0
M  V30 4949 C 472.477 -1.33292 -1.86456 0
M  V30 4950 C 473.477 -0.236537 -1.59051 0
M  V30 4951 O 474.667 -0.492511 -1.67093 0
M  V30 4952 C 471.799 -1.07118 -3.23633 0
M  V30 4953 H 472.992 -2.30692 -1.91628 0
M  V30 4954 H 470.545 -1.22593 -0.969572 0
M  V30 4955 H 471.28 -0.102578 -3.24138 0
M  V30 4956 H 471.065 -1.86479 -3.44917 0
M  V30 4957 H 472.555 -1.06806 -4.03711 0
M  V30 4958 N 472.992 0.995999 -1.22138 0
M  V30 4959 C 473.922 2.10387 -1.01289 0
M  V30 4960 C 474.903 1.69975 0.0651454 0
M  V30 4961 O 476.088 1.9396 -0.0964628 0
M  V30 4962 C 473.218 3.42312 -0.586517 0
M  V30 4963 C 472.172 3.96558 -1.61014 0
M  V30 4964 C 471.498 5.24494 -1.0397 0
M  V30 4965 C 472.798 4.27595 -2.99933 0
M  V30 4966 H 474.492 2.28086 -1.93951 0
M  V30 4967 H 472.038 1.09607 -0.933928 0
M  V30 4968 H 473.991 4.19223 -0.427793 0
M  V30 4969 H 472.715 3.24431 0.375761 0
M  V30 4970 H 471.374 3.21776 -1.75658 0
M  V30 4971 H 471.022 5.02953 -0.0688703 0
M  V30 4972 H 470.722 5.61755 -1.72352 0
M  V30 4973 H 472.246 6.04042 -0.892494 0
M  V30 4974 H 473.66 4.95315 -2.8868 0
M  V30 4975 H 472.057 4.76021 -3.6541 0
M  V30 4976 H 473.127 3.35498 -3.50099 0
M  V30 4977 N 474.47 1.03057 1.19235 0
M  V30 4978 C 475.38 0.622922 2.26179 0
M  V30 4979 C 476.396 -0.346113 1.70523 0
M  V30 4980 O 477.572 -0.203572 2.00369 0
M  V30 4981 C 474.637 -0.0182063 3.46695 0
M  V30 4982 C 473.698 0.998546 4.17526 0
M  V30 4983 C 472.931 0.387917 5.32288 0
M  V30 4984 O 473.154 -0.808668 5.64639 0
M  V30 4985 O 472.088 1.1116 5.91546 0
M  V30 4986 H 475.914 1.51363 2.63292 0
M  V30 4987 H 473.499 0.800856 1.26122 0
M  V30 4988 H 475.381 -0.375606 4.19723 0
M  V30 4989 H 474.056 -0.882895 3.11427 0
M  V30 4990 H 472.963 1.40756 3.4661 0
M  V30 4991 H 474.296 1.83366 4.56769 0
M  V30 4992 N 475.948 -1.35272 0.808662 0
M  V30 4993 C 477.197 -1.97963 0.386483 0
M  V30 4994 C 477.51 -1.64866 -1.05255 0
M  V30 4995 O 478.716 -2.20937 -1.57794 0
M  V30 4996 C 477.172 -3.54162 0.640096 0
M  V30 4997 C 476.78 -3.96166 2.0918 0
M  V30 4998 C 478.524 -4.23553 0.283376 0
M  V30 4999 C 476.431 -5.4522 2.29106 0
M  V30 5000 H 475.361 -0.740742 0.140774 0
M  V30 5001 H 478.012 -1.5431 0.993012 0
M  V30 5002 H 476.394 -3.95983 -0.0364117 0
M  V30 5003 H 477.568 -3.65491 2.80629 0
M  V30 5004 H 475.883 -3.3967 2.40859 0
M  V30 5005 H 478.48 -5.33124 0.410273 0
M  V30 5006 H 478.823 -4.09105 -0.770659 0
M  V30 5007 H 479.356 -3.8716 0.913884 0
M  V30 5008 H 476.095 -5.64638 3.32962 0
M  V30 5009 H 475.615 -5.77457 1.62184 0
M  V30 5010 H 477.294 -6.1171 2.1076 0
M  V30 5011 N 477.426 -0.562348 -1.47226 0
M  V30 5012 C 478.358 0.220011 -2.28142 0
M  V30 5013 C 479.371 0.874596 -1.37312 0
M  V30 5014 O 480.56 0.747583 -1.62091 0
M  V30 5015 C 477.66 1.32953 -3.11732 0
M  V30 5016 C 476.833 0.770759 -4.30556 0
M  V30 5017 C 475.892 1.76541 -4.95701 0
M  V30 5018 O 474.918 1.3095 -5.53932 0
M  V30 5019 N 476.12 3.09896 -4.90861 0
M  V30 5020 H 478.885 -0.474107 -2.95926 0
M  V30 5021 H 476.446 -0.398761 -1.56912 0
M  V30 5022 H 478.438 1.99378 -3.5218 0
M  V30 5023 H 477.008 1.92681 -2.46156 0
M  V30 5024 H 476.228 -0.0704056 -3.94137 0
M  V30 5025 H 477.516 0.376872 -5.07402 0
M  V30 5026 H 476.914 3.49577 -4.44761 0
M  V30 5027 H 475.471 3.71865 -5.35313 0
M  V30 5028 N 478.904 1.54736 -0.299062 0
M  V30 5029 C 480.315 1.8569 0.193971 0
M  V30 5030 C 480.666 1.22101 1.53577 0
M  V30 5031 O 479.791 0.51799 2.10109 0
M  V30 5032 C 480.386 3.36895 0.358733 0
M  V30 5033 C 478.945 3.67887 0.795986 0
M  V30 5034 C 478.092 2.77131 -0.096807 0
M  V30 5035 H 481.043 1.49934 -0.520134 0
M  V30 5036 H 481.064 3.61294 1.19361 0
M  V30 5037 H 480.576 3.83148 -0.617998 0
M  V30 5038 H 478.677 3.27151 1.78334 0
M  V30 5039 H 478.79 4.75114 0.616718 0
M  V30 5040 H 477.154 2.51153 0.423581 0
M  V30 5041 H 477.937 3.26204 -1.06986 0
M  V30 5042 N 480.382 0.0267497 1.57577 0
M  V30 5043 C 481.312 -0.954308 2.13108 0
M  V30 5044 C 482.293 -1.34088 1.04663 0
M  V30 5045 O 483.478 -1.41992 1.32484 0
M  V30 5046 C 480.608 -2.23744 2.65624 0
M  V30 5047 C 479.562 -1.99168 3.78835 0
M  V30 5048 C 478.888 -3.33726 4.17769 0
M  V30 5049 C 480.188 -1.33277 5.0501 0
M  V30 5050 H 481.882 -0.491848 2.95332 0
M  V30 5051 H 479.428 -0.23514 1.42067 0
M  V30 5052 H 481.381 -2.92754 3.03106 0
M  V30 5053 H 480.105 -2.72151 1.80558 0
M  V30 5054 H 478.764 -1.32577 3.41788 0
M  V30 5055 H 478.412 -3.79888 3.29688 0
M  V30 5056 H 478.112 -3.18089 4.94058 0
M  V30 5057 H 479.636 -4.04008 4.57832 0
M  V30 5058 H 481.05 -1.92283 5.40093 0
M  V30 5059 H 479.447 -1.28045 5.8628 0
M  V30 5060 H 480.517 -0.305411 4.83937 0
M  V30 5061 N 481.861 -1.55662 -0.24637 0
M  V30 5062 C 482.809 -1.91186 -1.3248 0
M  V30 5063 C 483.803 -0.790996 -1.49799 0
M  V30 5064 O 485.009 -0.975617 -1.51267 0
M  V30 5065 H 481.384 -0.607207 -0.443626 0
M  V30 5066 H 483.355 -2.81221 -0.997853 0
M  V30 5067 C 482.104 -2.22349 -2.67313 0
M  V30 5068 H 481.427 -3.08097 -2.54786 0
M  V30 5069 H 482.867 -2.51107 -3.41645 0
M  V30 5070 C 481.326 -1.04001 -3.20446 0
M  V30 5071 O 481.856 -0.28828 -4.00664 0
M  V30 5072 N 480.062 -0.830494 -2.7848 0
M  V30 5073 H 479.609 -1.4435 -2.13356 0
M  V30 5074 H 479.567 -0.0403258 -3.14374 0
M  V30 5075 N 483.339 0.512053 -1.4905 0
M  V30 5076 C 484.564 1.2959 -1.6193 0
M  V30 5077 C 484.989 1.85906 -0.286454 0
M  V30 5078 O 484.347 1.65312 0.744426 0
M  V30 5079 C 484.395 2.40987 -2.68249 0
M  V30 5080 O 483.499 3.44531 -2.26654 0
M  V30 5081 H 482.84 0.383053 -0.542371 0
M  V30 5082 H 485.37 0.614231 -1.95162 0
M  V30 5083 H 485.38 2.86913 -2.90078 0
M  V30 5084 H 484.055 1.99361 -3.65004 0
M  V30 5085 H 482.632 3.046 -2.15112 0
M  V30 5086 N 484.817 1.37938 0.762283 0
M  V30 5087 C 485.749 1.30349 1.88525 0
M  V30 5088 C 486.762 0.217402 1.61342 0
M  V30 5089 O 487.951 0.474291 1.72084 0
M  V30 5090 C 485.051 0.994844 3.23969 0
M  V30 5091 C 484.224 2.18829 3.78725 0
M  V30 5092 C 483.283 1.84844 4.92665 0
M  V30 5093 O 482.309 2.57244 5.07754 0
M  V30 5094 N 483.511 0.798201 5.74986 0
M  V30 5095 H 486.276 2.27114 1.95549 0
M  V30 5096 H 483.837 1.31686 0.941825 0
M  V30 5097 H 485.829 0.748168 3.97724 0
M  V30 5098 H 484.399 0.115446 3.12387 0
M  V30 5099 H 483.619 2.59615 2.96637 0
M  V30 5100 H 484.907 2.98497 4.1204 0
M  V30 5101 H 484.305 0.197611 5.65355 0
M  V30 5102 H 482.862 0.611396 6.48926 0
M  V30 5103 N 486.295 -0.989507 1.22664 0
M  V30 5104 C 487.205 -2.11449 1.01619 0
M  V30 5105 C 488.221 -1.73962 -0.036545 0
M  V30 5106 O 489.397 -2.00788 0.156924 0
M  V30 5107 C 486.462 -3.41465 0.600204 0
M  V30 5108 C 485.523 -3.93033 1.72695 0
M  V30 5109 C 484.756 -5.16844 1.33071 0
M  V30 5110 O 484.979 -5.7001 0.210975 0
M  V30 5111 O 483.913 -5.6225 2.14845 0
M  V30 5112 H 487.739 -2.32088 1.9588 0
M  V30 5113 H 485.324 -1.09823 1.01289 0
M  V30 5114 H 487.206 -4.19695 0.37873 0
M  V30 5115 H 485.881 -3.22178 -0.313511 0
M  V30 5116 H 484.788 -3.15961 2.00298 0
M  V30 5117 H 486.121 -4.16758 2.61865 0
M  V30 5118 N 487.773 -1.03688 -1.18687 0
M  V30 5119 C 489.021 -0.736572 -1.88199 0
M  V30 5120 C 489.342 0.737665 -1.80509 0
M  V30 5121 O 488.612 1.53204 -1.22088 0
M  V30 5122 H 487.192 -0.269466 -0.696704 0
M  V30 5123 H 489.854 -1.31282 -1.44052 0
M  V30 5124 H 488.95 -1.03802 -2.94332 0
M  V30 5125 N 489.251 1.34841 -0.815825 0
M  V30 5126 C 490.5 1.97755 -0.396976 0
M  V30 5127 C 490.813 1.65422 1.04379 0
M  V30 5128 O 492.019 2.21771 1.5662 0
M  V30 5129 C 490.475 3.53818 -0.658869 0
M  V30 5130 C 490.083 3.95051 -2.11278 0
M  V30 5131 C 491.827 4.23397 -0.305834 0
M  V30 5132 C 489.734 5.43997 -2.31994 0
M  V30 5133 H 488.664 0.739985 -0.1447 0
M  V30 5134 H 491.315 1.53781 -1.00118 0
M  V30 5135 H 489.697 3.95997 0.0154112 0
M  V30 5136 H 490.871 3.63998 -2.82564 0
M  V30 5137 H 489.186 3.38388 -2.42657 0
M  V30 5138 H 491.783 5.32899 -0.43854 0
M  V30 5139 H 492.126 4.09508 0.748952 0
M  V30 5140 H 492.659 3.8667 -0.934403 0
M  V30 5141 H 489.398 5.62865 -3.35952 0
M  V30 5142 H 488.918 5.76589 -1.65244 0
M  V30 5143 H 490.597 6.10584 -2.14001 0
M  V30 5144 N 490.729 0.570148 1.46925 0
M  V30 5145 C 492.006 -0.0153259 1.95594 0
M  V30 5146 C 492.386 -1.47232 1.51281 0
M  V30 5147 O 491.734 -2.15574 0.757624 0
M  V30 5148 C 491.944 0.143624 3.48704 0
M  V30 5149 C 493.292 0.00494484 4.246 0
M  V30 5150 O 494.316 0.0718214 3.56128 0
M  V30 5151 O 493.175 -0.141175 5.46318 0
M  V30 5152 H 490.269 -0.0568819 0.825041 0
M  V30 5153 H 492.815 0.637583 1.57267 0
M  V30 5154 H 491.587 1.15699 3.73804 0
M  V30 5155 H 491.21 -0.5463 3.93829 0
M  V30 5156 N 492.207 -1.54576 0.307264 0
M  V30 5157 C 493.155 -2.25208 -0.581723 0
M  V30 5158 C 494.149 -1.26031 -1.13192 0
M  V30 5159 O 495.355 -1.43862 -1.08184 0
M  V30 5160 H 491.73 -0.723173 -0.206214 0
M  V30 5161 H 493.701 -2.98378 0.0364663 0
M  V30 5162 C 492.45 -3.01086 -1.73904 0
M  V30 5163 H 491.773 -3.77208 -1.32491 0
M  V30 5164 H 493.213 -3.5378 -2.33701 0
M  V30 5165 C 491.672 -2.08422 -2.64692 0
M  V30 5166 O 492.202 -1.65636 -3.65961 0
M  V30 5167 N 490.408 -1.74247 -2.32564 0
M  V30 5168 H 489.955 -2.09238 -1.50257 0
M  V30 5169 H 489.913 -1.12524 -2.93574 0
M  V30 5170 N 493.685 -0.035106 -1.57561 0
M  V30 5171 C 494.595 0.960295 -2.14046 0
M  V30 5172 C 495.611 1.3529 -1.0942 0
M  V30 5173 O 496.787 1.43309 -1.41508 0
M  V30 5174 C 493.852 2.22214 -2.66124 0
M  V30 5175 C 492.913 1.8894 -3.85487 0
M  V30 5176 C 492.146 3.09109 -4.35072 0
M  V30 5177 O 492.369 4.21963 -3.83802 0
M  V30 5178 O 491.303 2.91058 -5.26848 0
M  V30 5179 H 495.129 0.509983 -2.99387 0
M  V30 5180 H 492.714 0.185853 -1.48239 0
M  V30 5181 H 494.596 2.96279 -2.99661 0
M  V30 5182 H 493.271 2.66414 -1.83862 0
M  V30 5183 H 492.178 1.12241 -3.56865 0
M  V30 5184 H 493.511 1.49551 -4.6893 0
M  V30 5185 N 495.163 1.55791 0.238111 0
M  V30 5186 C 496.073 1.94196 1.31625 0
M  V30 5187 C 497.089 0.843545 1.52185 0
M  V30 5188 O 498.265 1.1457 1.65637 0
M  V30 5189 C 495.33 2.2365 2.64918 0
M  V30 5190 C 494.391 3.46971 2.52804 0
M  V30 5191 C 493.624 3.7501 3.79741 0
M  V30 5192 O 493.847 3.04982 4.82019 0
M  V30 5193 O 492.781 4.68525 3.77846 0
M  V30 5194 H 496.607 2.86044 1.02043 0
M  V30 5195 H 494.192 1.42786 0.439603 0
M  V30 5196 H 496.074 2.43863 3.4367 0
M  V30 5197 H 494.749 1.34979 2.94215 0
M  V30 5198 H 493.656 3.32055 1.72309 0
M  V30 5199 H 494.989 4.35971 2.28451 0
M  V30 5200 N 496.642 -0.504142 1.49319 0
M  V30 5201 C 497.589 -1.60603 1.65756 0
M  V30 5202 C 498.559 -1.58425 0.499082 0
M  V30 5203 O 499.744 -1.76459 0.725728 0
M  V30 5204 C 496.884 -2.98764 1.72726 0
M  V30 5205 C 495.997 -3.10982 2.99857 0
M  V30 5206 C 495.132 -4.39857 2.97824 0
M  V30 5207 C 494.171 -4.45697 4.19548 0
M  V30 5208 N 493.308 -5.65995 4.15444 0
M  V30 5209 H 498.148 -1.45895 2.59843 0
M  V30 5210 H 495.685 -0.709891 1.28837 0
M  V30 5211 H 497.643 -3.78839 1.74747 0
M  V30 5212 H 496.273 -3.12183 0.821075 0
M  V30 5213 H 495.325 -2.23991 3.07461 0
M  V30 5214 H 496.637 -3.11157 3.89849 0
M  V30 5215 H 495.791 -5.2825 2.98391 0
M  V30 5216 H 494.53 -4.42242 2.05604 0
M  V30 5217 H 493.535 -3.55707 4.19229 0
M  V30 5218 H 494.76 -4.4503 5.12957 0
M  V30 5219 H 492.706 -5.69229 3.26059 0
M  V30 5220 H 492.623 -5.67773 4.99169 0
M  V30 5221 H 493.891 -6.56604 4.20109 0
M  V30 5222 N 498.12 -1.38341 -0.754957 0
M  V30 5223 C 499.397 -1.24995 -1.50451 0
M  V30 5224 C 499.777 0.149244 -2.10572 0
M  V30 5225 O 499.125 1.15861 -1.96948 0
M  V30 5226 C 499.335 -2.35904 -2.57197 0
M  V30 5227 C 500.683 -2.74262 -3.24138 0
M  V30 5228 O 501.707 -2.35205 -2.67501 0
M  V30 5229 O 500.566 -3.4161 -4.26574 0
M  V30 5230 H 497.66 -0.48872 -0.667144 0
M  V30 5231 H 500.206 -1.50165 -0.790486 0
M  V30 5232 H 498.978 -3.2953 -2.11011 0
M  V30 5233 H 498.601 -2.12291 -3.36182 0
M  V30 5234 N 499.598 0.982988 -1.23187 0
M  V30 5235 C 500.545 2.07491 -1.01075 0
M  V30 5236 C 501.515 1.65949 0.070905 0
M  V30 5237 O 502.7 1.90629 -0.0806822 0
M  V30 5238 C 499.84 3.39751 -0.605261 0
M  V30 5239 C 498.953 3.94578 -1.75876 0
M  V30 5240 C 498.088 5.15039 -1.3003 0
M  V30 5241 C 497.127 5.62027 -2.42472 0
M  V30 5242 N 496.264 6.73719 -1.97602 0
M  V30 5243 H 501.104 2.25739 -1.9454 0
M  V30 5244 H 498.641 1.10659 -0.969179 0
M  V30 5245 H 500.599 4.15719 -0.351279 0
M  V30 5246 H 499.229 3.21473 0.292382 0
M  V30 5247 H 498.281 3.1539 -2.12681 0
M  V30 5248 H 499.593 4.25422 -2.60418 0
M  V30 5249 H 498.747 5.9833 -1.00429 0
M  V30 5250 H 497.486 4.85843 -0.425216 0
M  V30 5251 H 496.491 4.77318 -2.7285 0
M  V30 5252 H 497.716 5.93244 -3.30512 0
M  V30 5253 H 495.662 6.46287 -1.1247 0
M  V30 5254 H 495.579 7.03934 -2.75705 0
M  V30 5255 H 496.847 7.6049 -1.71098 0
M  V30 5256 N 501.076 1.04316 1.18135 0
M  V30 5257 C 502.023 0.636398 2.21853 0
M  V30 5258 C 502.993 -0.357039 1.62217 0
M  V30 5259 O 504.178 -0.250453 1.89149 0
M  V30 5260 C 501.318 0.00812779 3.45099 0
M  V30 5261 C 500.431 1.04933 4.19062 0
M  V30 5262 C 499.566 0.389313 5.29771 0
M  V30 5263 C 498.605 1.41544 5.9551 0
M  V30 5264 N 497.742 0.78021 6.97751 0
M  V30 5265 H 502.582 1.52536 2.56002 0
M  V30 5266 H 500.119 0.76304 1.25762 0
M  V30 5267 H 502.077 -0.373497 4.15525 0
M  V30 5268 H 500.707 -0.844336 3.11562 0
M  V30 5269 H 499.759 1.54888 3.47439 0
M  V30 5270 H 501.071 1.82862 4.64072 0
M  V30 5271 H 500.225 -0.0463805 6.06682 0
M  V30 5272 H 498.964 -0.422038 4.8587 0
M  V30 5273 H 497.969 1.86124 5.17337 0
M  V30 5274 H 499.194 2.22854 6.41493 0
M  V30 5275 H 497.14 -0.0107899 6.55999 0
M  V30 5276 H 497.057 1.49716 7.41027 0
M  V30 5277 H 498.325 0.368996 7.78626 0
M  V30 5278 N 502.554 -1.34406 0.822964 0
M  V30 5279 C 503.517 -2.2783 0.250271 0
M  V30 5280 C 504.517 -1.50288 -0.571854 0
M  V30 5281 O 505.707 -1.69825 -0.387952 0
M  V30 5282 C 502.839 -3.34663 -0.649137 0
M  V30 5283 H 504.032 -2.79992 1.07444 0
M  V30 5284 H 501.585 -1.44539 0.594829 0
M  V30 5285 H 502.32 -2.87714 -1.49637 0
M  V30 5286 H 502.105 -3.92052 -0.0611199 0
M  V30 5287 H 503.595 -4.04349 -1.04363 0
M  V30 5288 N 504.032 -0.577932 -1.46621 0
M  V30 5289 C 505.278 -0.0617793 -2.02706 0
M  V30 5290 C 505.611 1.29294 -1.44903 0
M  V30 5291 O 504.886 1.8461 -0.61232 0
M  V30 5292 C 505.169 0.00911824 -3.60099 0
M  V30 5293 C 505.022 -1.37416 -4.28295 0
M  V30 5294 C 506.341 0.712159 -4.343 0
M  V30 5295 H 503.46 -0.0239246 -0.736612 0
M  V30 5296 H 506.102 -0.744211 -1.74818 0
M  V30 5297 H 504.252 0.590292 -3.83989 0
M  V30 5298 H 505.924 -2.00013 -4.15683 0
M  V30 5299 H 504.167 -1.94319 -3.87843 0
M  V30 5300 H 504.838 -1.27707 -5.37024 0
M  V30 5301 H 507.314 0.218486 -4.15526 0
M  V30 5302 H 506.19 0.730782 -5.44014 0
M  V30 5303 H 506.451 1.77251 -4.05012 0
M  V30 5304 N 505.51 1.54411 -0.315457 0
M  V30 5305 C 506.457 2.24048 0.554166 0
M  V30 5306 C 507.427 1.2283 1.11812 0
M  V30 5307 O 508.612 1.51491 1.15997 0
M  V30 5308 C 505.752 2.99574 1.71316 0
M  V30 5309 C 504.865 4.15594 1.17922 0
M  V30 5310 C 504 4.78669 2.30324 0
M  V30 5311 C 503.039 5.86807 1.74137 0
M  V30 5312 N 502.176 6.43777 2.8017 0
M  V30 5313 H 507.016 2.97964 -0.0462602 0
M  V30 5314 H 504.553 1.47059 -0.0346009 0
M  V30 5315 H 506.511 3.41604 2.39505 0
M  V30 5316 H 505.141 2.28008 2.285 0
M  V30 5317 H 504.193 3.78404 0.389136 0
M  V30 5318 H 505.505 4.93459 0.728012 0
M  V30 5319 H 504.659 5.23626 3.06433 0
M  V30 5320 H 503.398 4.00168 2.78778 0
M  V30 5321 H 502.403 5.41261 0.965236 0
M  V30 5322 H 503.628 6.67201 1.2657 0
M  V30 5323 H 501.574 5.68153 3.2793 0
M  V30 5324 H 501.491 7.17031 2.39588 0
M  V30 5325 H 502.759 6.9339 3.56132 0
M  V30 5326 N 506.988 0.0434614 1.5754 0
M  V30 5327 C 508.234 -0.632971 1.92669 0
M  V30 5328 C 508.567 -1.70947 0.921446 0
M  V30 5329 O 507.842 -1.94426 -0.0537202 0
M  V30 5330 C 508.125 -1.23619 3.38216 0
M  V30 5331 C 507.978 -0.168274 4.49485 0
M  V30 5332 C 509.297 -2.15008 3.84005 0
M  V30 5333 H 506.416 -0.228629 0.700641 0
M  V30 5334 H 509.058 0.103651 1.89717 0
M  V30 5335 H 507.208 -1.864 3.40863 0
M  V30 5336 H 508.88 0.463196 4.58969 0
M  V30 5337 H 507.123 0.504581 4.30855 0
M  V30 5338 H 507.794 -0.630218 5.48391 0
M  V30 5339 H 510.27 -1.62198 3.83185 0
M  V30 5340 H 509.146 -2.54161 4.86511 0
M  V30 5341 H 509.407 -3.04707 3.20322 0
M  V30 5342 N 508.466 -1.55915 -0.229846 0
M  V30 5343 C 509.877 -1.68809 -0.797531 0
M  V30 5344 C 510.228 -0.643995 -1.8533 0
M  V30 5345 O 509.353 0.206492 -2.15413 0
M  V30 5346 C 509.948 -3.06043 -1.45338 0
M  V30 5347 C 508.507 -3.20819 -1.96856 0
M  V30 5348 C 507.654 -2.6472 -0.825736 0
M  V30 5349 H 510.605 -1.58699 -0.00533733 0
M  V30 5350 H 510.626 -3.01438 -2.32196 0
M  V30 5351 H 510.138 -3.82012 -0.684743 0
M  V30 5352 H 508.239 -2.49704 -2.76548 0
M  V30 5353 H 508.352 -4.27937 -2.15423 0
M  V30 5354 H 506.716 -2.22985 -1.23084 0
M  V30 5355 H 507.499 -3.43229 -0.0699019 0
M  V30 5356 N 509.944 0.496216 -1.49584 0
M  V30 5357 C 510.891 1.59722 -1.66606 0
M  V30 5358 C 511.861 1.58158 -0.507477 0
M  V30 5359 O 513.046 1.76072 -0.735076 0
M  V30 5360 C 510.186 2.97844 -1.74308 0
M  V30 5361 C 509.299 3.09388 -3.01502 0
M  V30 5362 C 508.434 4.38271 -3.00153 0
M  V30 5363 C 507.473 4.43466 -4.21906 0
M  V30 5364 N 506.61 5.63784 -4.1844 0
M  V30 5365 H 511.45 1.44515 -2.60613 0
M  V30 5366 H 508.987 0.703048 -1.29212 0
M  V30 5367 H 510.945 3.77907 -1.76754 0
M  V30 5368 H 509.575 3.11743 -0.837619 0
M  V30 5369 H 508.627 2.22357 -3.08645 0
M  V30 5370 H 509.939 3.09085 -3.91494 0
M  V30 5371 H 509.093 5.2666 -3.01188 0
M  V30 5372 H 507.832 4.41146 -2.07947 0
M  V30 5373 H 506.837 3.53478 -4.21109 0
M  V30 5374 H 508.062 4.42303 -5.1531 0
M  V30 5375 H 506.008 5.67491 -3.29074 0
M  V30 5376 H 505.925 5.65118 -5.02173 0
M  V30 5377 H 507.193 6.54367 -4.23585 0
M  V30 5378 N 511.423 1.38739 0.74761 0
M  V30 5379 C 512.37 1.36449 1.86146 0
M  V30 5380 C 513.34 0.226098 1.64554 0
M  V30 5381 O 514.525 0.41926 1.86137 0
M  V30 5382 C 511.665 1.2013 3.23516 0
M  V30 5383 C 510.778 2.43407 3.56899 0
M  V30 5384 C 509.913 2.19773 4.83605 0
M  V30 5385 C 508.952 3.3879 5.09792 0
M  V30 5386 N 508.089 3.14553 6.27695 0
M  V30 5387 H 512.929 2.3167 1.87438 0
M  V30 5388 H 510.466 1.15094 0.916063 0
M  V30 5389 H 512.424 1.08683 4.02795 0
M  V30 5390 H 511.054 0.285453 3.21535 0
M  V30 5391 H 510.106 2.65504 2.72418 0
M  V30 5392 H 511.418 3.32094 3.72176 0
M  V30 5393 H 510.572 2.05496 5.70838 0
M  V30 5394 H 509.311 1.28461 4.70478 0
M  V30 5395 H 508.316 3.53579 4.21025 0
M  V30 5396 H 509.541 4.30986 5.24812 0
M  V30 5397 H 507.487 2.25893 6.1588 0
M  V30 5398 H 507.404 3.96791 6.435 0
M  V30 5399 H 508.672 3.03943 7.17801 0
M  V30 5400 N 512.901 -0.976442 1.23707 0
M  V30 5401 C 513.811 -2.10359 1.03856 0
M  V30 5402 C 514.827 -1.73991 -0.0180919 0
M  V30 5403 O 516.003 -2.0061 0.178211 0
M  V30 5404 C 513.068 -3.40809 0.636387 0
M  V30 5405 C 512.129 -3.91179 1.76854 0
M  V30 5406 C 511.362 -5.15404 1.38546 0
M  V30 5407 O 511.585 -5.69754 0.27142 0
M  V30 5408 O 510.519 -5.5994 2.20797 0
M  V30 5409 H 514.345 -2.29997 1.98331 0
M  V30 5410 H 511.93 -1.08742 1.02448 0
M  V30 5411 H 513.812 -4.19269 0.423223 0
M  V30 5412 H 512.487 -3.22493 -0.279322 0
M  V30 5413 H 511.394 -3.13819 2.03638 0
M  V30 5414 H 512.727 -4.13958 2.6627 0
M  V30 5415 N 514.379 -1.04941 -1.1758 0
M  V30 5416 C 515.326 -0.648155 -2.21512 0
M  V30 5417 C 516.296 0.348431 -1.62404 0
M  V30 5418 O 517.481 0.240419 -1.89279 0
M  V30 5419 C 514.621 -0.0264291 -3.4509 0
M  V30 5420 C 513.734 -1.07154 -4.185 0
M  V30 5421 C 512.869 -0.417403 -5.29558 0
M  V30 5422 C 511.908 -1.447 -5.94751 0
M  V30 5423 N 511.045 -0.817203 -6.97328 0
M  V30 5424 H 515.885 -1.53891 -2.55189 0
M  V30 5425 H 513.422 -0.769699 -1.25356 0
M  V30 5426 H 515.38 0.351456 -4.15717 0
M  V30 5427 H 514.01 0.827802 -3.12005 0
M  V30 5428 H 513.062 -1.56728 -3.46613 0
M  V30 5429 H 514.374 -1.8532 -4.63096 0
M  V30 5430 H 513.528 0.0142061 -6.06698 0
M  V30 5431 H 512.267 0.396265 -4.86087 0
M  V30 5432 H 511.272 -1.88865 -5.16343 0
M  V30 5433 H 512.497 -2.26252 -6.40302 0
M  V30 5434 H 510.443 -0.0239995 -6.55996 0
M  V30 5435 H 510.36 -1.53644 -7.40223 0
M  V30 5436 H 511.628 -0.410283 -7.7842 0
M  V30 5437 N 515.857 1.33968 -0.830081 0
M  V30 5438 C 517.082 2.02813 -0.433796 0
M  V30 5439 C 517.507 1.62076 0.954614 0
M  V30 5440 O 516.865 0.808955 1.62252 0
M  V30 5441 C 516.913 3.56348 -0.552115 0
M  V30 5442 O 516.017 4.10202 0.425191 0
M  V30 5443 H 515.358 0.639817 -0.177567 0
M  V30 5444 H 517.888 1.7106 -1.12248 0
M  V30 5445 H 517.898 4.05722 -0.430513 0
M  V30 5446 H 516.573 3.85344 -1.56471 0
M  V30 5447 H 515.15 3.71979 0.261878 0
M  V30 5448 N 517.335 0.585699 1.46312 0
M  V30 5449 C 518.581 0.0725284 2.0267 0
M  V30 5450 C 518.914 -1.28523 1.45586 0
M  V30 5451 O 518.189 -1.84283 0.622101 0
M  V30 5452 C 518.472 0.0099788 3.60099 0
M  V30 5453 C 518.325 1.39685 4.27561 0
M  V30 5454 C 519.644 -0.689117 4.34671 0
M  V30 5455 H 516.763 0.0278307 0.736474 0
M  V30 5456 H 519.405 0.753472 1.74421 0
M  V30 5457 H 517.555 -0.56992 3.84297 0
M  V30 5458 H 519.227 2.02215 4.14617 0
M  V30 5459 H 517.47 1.96374 3.86807 0
M  V30 5460 H 518.141 1.30553 5.36339 0
M  V30 5461 H 520.617 -0.196446 4.15636 0
M  V30 5462 H 519.493 -0.701921 5.44393 0
M  V30 5463 H 519.754 -1.75101 4.05946 0
M  V30 5464 N 518.813 -1.54241 0.323641 0
M  V30 5465 C 519.743 -2.27289 -0.534993 0
M  V30 5466 C 520.724 -1.28087 -1.11927 0
M  V30 5467 O 521.909 -1.56899 -1.14439 0
M  V30 5468 C 519.039 -3.03075 -1.69596 0
M  V30 5469 C 517.993 -4.09614 -1.24098 0
M  V30 5470 C 517.319 -4.73242 -2.4889 0
M  V30 5471 C 518.619 -5.21087 -0.355789 0
M  V30 5472 H 520.313 -2.99308 0.0743257 0
M  V30 5473 H 517.859 -1.43952 0.0371874 0
M  V30 5474 H 519.812 -3.52907 -2.30293 0
M  V30 5475 H 518.536 -2.28673 -2.33187 0
M  V30 5476 H 517.195 -3.60666 -0.656945 0
M  V30 5477 H 516.843 -3.95455 -3.10845 0
M  V30 5478 H 516.543 -5.45209 -2.19138 0
M  V30 5479 H 518.067 -5.25848 -3.10348 0
M  V30 5480 H 519.481 -5.66675 -0.869042 0
M  V30 5481 H 517.878 -5.9991 -0.151045 0
M  V30 5482 H 518.948 -4.81005 0.613339 0
M  V30 5483 N 520.291 -0.0518155 -1.57515 0
M  V30 5484 C 521.223 0.951542 -2.08515 0
M  V30 5485 C 522.236 1.27436 -1.01311 0
M  V30 5486 O 523.425 1.23504 -1.28876 0
M  V30 5487 C 520.525 2.27291 -2.5138 0
M  V30 5488 C 519.698 2.13191 -3.81927 0
M  V30 5489 C 518.757 3.28458 -4.11098 0
M  V30 5490 O 517.783 3.04334 -4.81009 0
M  V30 5491 N 518.985 4.52954 -3.63061 0
M  V30 5492 H 521.75 0.516242 -2.9522 0
M  V30 5493 H 519.311 0.13441 -1.61341 0
M  V30 5494 H 521.303 3.03272 -2.67971 0
M  V30 5495 H 519.873 2.62386 -1.69919 0
M  V30 5496 H 519.093 1.21798 -3.74912 0
M  V30 5497 H 520.381 2.00999 -4.67415 0
M  V30 5498 H 519.779 4.75444 -3.06545 0
M  V30 5499 H 518.336 5.26026 -3.84889 0
M  V30 5500 N 521.769 1.56035 0.221574 0
M  V30 5501 C 523.017 1.78693 0.944102 0
M  V30 5502 C 523.338 0.620317 1.8487 0
M  V30 5503 O 522.608 -0.362784 1.92512 0
M  V30 5504 H 521.188 0.659082 0.351597 0
M  V30 5505 H 523.85 1.93497 0.233435 0
M  V30 5506 H 522.946 2.70837 1.55093 0
M  V30 5507 N 523.247 -0.488276 1.49845 0
M  V30 5508 C 524.194 -1.58836 1.67451 0
M  V30 5509 C 525.164 -1.57886 0.515857 0
M  V30 5510 O 526.349 -1.75679 0.744403 0
M  V30 5511 C 523.489 -2.96915 1.75885 0
M  V30 5512 C 522.602 -3.07784 3.03138 0
M  V30 5513 C 521.737 -4.36673 3.02473 0
M  V30 5514 C 520.776 -4.41222 4.24252 0
M  V30 5515 N 519.913 -5.61557 4.21424 0
M  V30 5516 H 524.753 -1.43131 2.61376 0
M  V30 5517 H 522.29 -0.696186 1.29583 0
M  V30 5518 H 524.248 -3.76965 1.78755 0
M  V30 5519 H 522.878 -3.11295 0.85414 0
M  V30 5520 H 521.93 -2.20717 3.09819 0
M  V30 5521 H 523.242 -3.07005 3.93128 0
M  V30 5522 H 522.396 -5.25055 3.03977 0
M  V30 5523 H 521.135 -4.40037 2.10283 0
M  V30 5524 H 520.14 -3.5124 4.22978 0
M  V30 5525 H 521.365 -4.39564 5.17649 0
M  V30 5526 H 519.311 -5.65738 3.32078 0
M  V30 5527 H 519.228 -5.62447 5.05163 0
M  V30 5528 H 520.496 -6.52111 4.2705 0
M  V30 5529 N 524.725 -1.39134 -0.740242 0
M  V30 5530 C 525.655 -1.40165 -1.86751 0
M  V30 5531 C 526.636 -0.265708 -1.68012 0
M  V30 5532 O 527.821 -0.47076 -1.88408 0
M  V30 5533 C 524.951 -1.2392 -3.2444 0
M  V30 5534 C 523.905 -2.34858 -3.57807 0
M  V30 5535 C 523.231 -2.03707 -4.94376 0
M  V30 5536 C 524.531 -3.77159 -3.61315 0
M  V30 5537 H 526.225 -2.345 -1.86145 0
M  V30 5538 H 523.771 -1.12875 -0.89416 0
M  V30 5539 H 525.724 -1.23263 -4.02969 0
M  V30 5540 H 524.448 -0.26051 -3.25559 0
M  V30 5541 H 523.107 -2.34723 -2.81604 0
M  V30 5542 H 522.755 -1.04289 -4.9207 0
M  V30 5543 H 522.455 -2.78016 -5.17669 0
M  V30 5544 H 523.979 -2.04691 -5.75268 0
M  V30 5545 H 525.393 -3.79252 -4.29931 0
M  V30 5546 H 523.79 -4.50784 -3.96124 0
M  V30 5547 H 524.86 -4.08513 -2.61238 0
M  V30 5548 N 526.204 0.969867 -1.24223 0
M  V30 5549 C 527.432 1.74756 -1.10761 0
M  V30 5550 C 527.847 1.85713 0.340041 0
M  V30 5551 O 527.204 1.34389 1.23474 0
M  V30 5552 C 527.255 3.16915 -1.73917 0
M  V30 5553 O 526.976 3.06511 -3.13021 0
M  V30 5554 C 528.477 4.11032 -1.66036 0
M  V30 5555 H 525.697 0.548092 -0.387087 0
M  V30 5556 H 528.241 1.2178 -1.64286 0
M  V30 5557 H 526.396 3.66884 -1.244 0
M  V30 5558 H 526.81 3.96079 -3.43834 0
M  V30 5559 H 528.284 5.08446 -2.14911 0
M  V30 5560 H 528.761 4.34785 -0.621159 0
M  V30 5561 H 529.367 3.66972 -2.14969 0
M  V30 5562 N 527.682 1.05563 1.17022 0
M  V30 5563 C 529.098 0.777684 1.39371 0
M  V30 5564 C 529.298 -0.626269 1.91521 0
M  V30 5565 O 528.354 -1.38806 2.10924 0
M  V30 5566 C 529.667 1.83642 2.3811 0
M  V30 5567 C 531.215 1.85907 2.51809 0
M  V30 5568 C 531.69 2.90813 3.53824 0
M  V30 5569 N 533.181 2.898 3.61345 0
M  V30 5570 C 533.916 3.6762 4.40049 0
M  V30 5571 N 533.412 4.55237 5.22237 0
M  V30 5572 N 535.205 3.56044 4.34959 0
M  V30 5573 H 527.356 1.9614 0.815047 0
M  V30 5574 H 529.619 0.849527 0.420722 0
M  V30 5575 H 529.325 2.84425 2.06871 0
M  V30 5576 H 529.199 1.6812 3.37662 0
M  V30 5577 H 531.586 0.857865 2.82356 0
M  V30 5578 H 531.667 2.05506 1.52318 0
M  V30 5579 H 531.311 3.91122 3.24015 0
M  V30 5580 H 531.241 2.68465 4.53028 0
M  V30 5581 H 533.732 2.26274 3.02669 0
M  V30 5582 H 534.045 5.11291 5.79484 0
M  V30 5583 H 532.39 4.59296 5.21605 0
M  V30 5584 H 535.581 2.86986 3.69806 0
M  V30 5585 H 535.754 4.16938 4.96051 0
M  V30 5586 N 529.16 -1.33526 0.837174 0
M  V30 5587 C 530.09 -2.31764 0.284206 0
M  V30 5588 C 531.071 -1.58896 -0.607142 0
M  V30 5589 O 532.256 -1.86798 -0.531047 0
M  V30 5590 C 529.386 -3.43029 -0.542962 0
M  V30 5591 C 528.34 -4.27255 0.252451 0
M  V30 5592 C 527.666 -5.3012 -0.69836 0
M  V30 5593 C 528.966 -5.01229 1.46858 0
M  V30 5594 H 530.66 -2.78262 1.10502 0
M  V30 5595 H 528.206 -1.3378 0.532812 0
M  V30 5596 H 530.159 -4.1078 -0.940096 0
M  V30 5597 H 528.883 -2.95216 -1.39697 0
M  V30 5598 H 527.542 -3.61127 0.631124 0
M  V30 5599 H 527.19 -4.78564 -1.54872 0
M  V30 5600 H 526.89 -5.87353 -0.170274 0
M  V30 5601 H 528.414 -6.00737 -1.09305 0
M  V30 5602 H 529.828 -5.61756 1.14469 0
M  V30 5603 H 528.225 -5.68104 1.93333 0
M  V30 5604 H 529.295 -4.301 2.23924 0
M  V30 5605 N 530.638 -0.59345 -1.46 0
M  V30 5606 C 531.601 0.123538 -2.28867 0
M  V30 5607 C 532.601 0.808628 -1.38989 0
M  V30 5608 O 533.791 0.658945 -1.61256 0
M  V30 5609 C 530.923 1.1847 -3.19653 0
M  V30 5610 H 532.116 -0.604843 -2.93737 0
M  V30 5611 H 529.669 -0.351875 -1.52288 0
M  V30 5612 H 530.404 1.94431 -2.59552 0
M  V30 5613 H 530.189 0.69783 -3.8584 0
M  V30 5614 H 531.679 1.68726 -3.81997 0
M  V30 5615 N 532.116 1.54067 -0.331816 0
M  V30 5616 C 533.362 2.01012 0.268667 0
M  V30 5617 C 533.695 1.2195 1.51136 0
M  V30 5618 O 532.97 0.303972 1.9211 0
M  V30 5619 C 533.253 3.55158 0.59456 0
M  V30 5620 C 533.106 4.4494 -0.659409 0
M  V30 5621 C 534.425 4.16939 1.4089 0
M  V30 5622 H 531.544 0.730698 0.0961756 0
M  V30 5623 H 534.186 1.84593 -0.450031 0
M  V30 5624 H 532.336 3.6928 1.20685 0
M  V30 5625 H 534.008 4.42675 -1.29756 0
M  V30 5626 H 532.251 4.1428 -1.28665 0
M  V30 5627 H 532.922 5.50643 -0.386804 0
M  V30 5628 H 535.398 4.06443 0.891272 0
M  V30 5629 H 534.274 5.24889 1.60569 0
M  V30 5630 H 534.535 3.70798 2.40752 0
M  V30 5631 N 533.594 0.0601682 1.57485 0
M  V30 5632 C 534.526 -0.94047 2.09016 0
M  V30 5633 C 535.539 -1.26897 1.01985 0
M  V30 5634 O 536.728 -1.22819 1.29529 0
M  V30 5635 C 533.828 -2.25955 2.52582 0
M  V30 5636 C 533.001 -2.11163 3.83052 0
M  V30 5637 C 532.06 -3.26273 4.12835 0
M  V30 5638 O 531.086 -3.01779 4.82616 0
M  V30 5639 N 532.288 -4.51022 3.65458 0
M  V30 5640 H 535.053 -0.500578 2.9549 0
M  V30 5641 H 532.614 -0.125852 1.6141 0
M  V30 5642 H 534.606 -3.01846 2.69575 0
M  V30 5643 H 533.176 -2.61481 1.71308 0
M  V30 5644 H 532.396 -1.19808 3.75552 0
M  V30 5645 H 533.684 -1.98517 4.68475 0
M  V30 5646 H 533.082 -4.73811 3.09062 0
M  V30 5647 H 531.639 -5.23978 3.87673 0
M  V30 5648 N 535.072 -1.5615 -0.213296 0
M  V30 5649 C 536.321 -1.78743 -0.93455 0
M  V30 5650 C 536.634 -0.630199 -1.8517 0
M  V30 5651 O 537.84 -0.739966 -2.61222 0
M  V30 5652 C 536.296 -3.16571 -1.71203 0
M  V30 5653 C 535.904 -4.40043 -0.840617 0
M  V30 5654 C 537.648 -3.48485 -2.42401 0
M  V30 5655 C 535.555 -5.68895 -1.61592 0
M  V30 5656 H 534.485 -0.666426 -0.352692 0
M  V30 5657 H 537.136 -1.82532 -0.188227 0
M  V30 5658 H 535.518 -3.06981 -2.50157 0
M  V30 5659 H 536.692 -4.6071 -0.0910326 0
M  V30 5660 H 535.007 -4.15706 -0.240365 0
M  V30 5661 H 537.604 -4.41983 -3.00924 0
M  V30 5662 H 537.947 -2.71371 -3.15695 0
M  V30 5663 H 538.48 -3.59442 -1.7043 0
M  V30 5664 H 535.219 -6.48925 -0.926106 0
M  V30 5665 H 534.739 -5.52275 -2.33991 0
M  V30 5666 H 536.418 -6.09365 -2.17447 0
M  V30 5667 N 536.55 0.480323 -1.50102 0
M  V30 5668 C 537.798 1.23063 -1.60312 0
M  V30 5669 C 538.119 1.92659 -0.301226 0
M  V30 5670 O 537.389 1.83691 0.680753 0
M  V30 5671 H 535.969 0.457231 -0.590719 0
M  V30 5672 H 538.631 0.554893 -1.86834 0
M  V30 5673 H 537.727 1.9835 -2.40964 0
M  V30 5674 N 538.028 1.39524 0.732853 0
M  V30 5675 C 538.975 1.38416 1.84688 0
M  V30 5676 C 539.945 0.243539 1.64305 0
M  V30 5677 O 541.13 0.438979 1.85681 0
M  V30 5678 C 538.27 1.23555 3.22224 0
M  V30 5679 C 537.383 2.47179 3.54298 0
M  V30 5680 C 536.518 2.2489 4.81246 0
M  V30 5681 C 535.557 3.44178 5.0617 0
M  V30 5682 N 534.694 3.21192 6.24323 0
M  V30 5683 H 539.534 2.33645 1.84971 0
M  V30 5684 H 537.071 1.16059 0.903804 0
M  V30 5685 H 539.029 1.12949 4.0162 0
M  V30 5686 H 537.659 0.31954 3.21215 0
M  V30 5687 H 536.711 2.68379 2.69587 0
M  V30 5688 H 538.023 3.36022 3.68633 0
M  V30 5689 H 537.177 2.11538 5.68627 0
M  V30 5690 H 535.916 1.33443 4.69089 0
M  V30 5691 H 534.921 3.58025 4.17251 0
M  V30 5692 H 536.146 4.36528 5.20212 0
M  V30 5693 H 534.092 2.32413 6.1345 0
M  V30 5694 H 534.009 4.03594 6.39256 0
M  V30 5695 H 535.277 3.1154 7.14537 0
M  V30 5696 N 539.506 -0.963266 1.24736 0
M  V30 5697 C 540.469 -2.04013 1.04457 0
M  V30 5698 C 541.469 -1.608 0.000335555 0
M  V30 5699 O 542.659 -1.72515 0.241719 0
M  V30 5700 C 539.791 -3.35858 0.584162 0
M  V30 5701 H 540.984 -2.23436 2.00041 0
M  V30 5702 H 538.537 -1.13914 1.07021 0
M  V30 5703 H 539.272 -3.22128 -0.374673 0
M  V30 5704 H 539.057 -3.68568 1.3379 0
M  V30 5705 H 540.547 -4.1502 0.463451 0
M  V30 5706 N 540.985 -1.06182 -1.16461 0
M  V30 5707 C 542.233 -0.776326 -1.86595 0
M  V30 5708 C 542.554 0.69921 -1.82033 0
M  V30 5709 O 541.824 1.50579 -1.2531 0
M  V30 5710 H 540.404 -0.284184 -0.690832 0
M  V30 5711 H 543.066 -1.34308 -1.41235 0
M  V30 5712 H 542.162 -1.10022 -2.92064 0
M  V30 5713 N 542.463 1.3308 -0.844243 0
M  V30 5714 C 543.393 2.3161 -0.296493 0
M  V30 5715 C 544.374 1.59215 0.598707 0
M  V30 5716 O 545.559 1.87077 0.521134 0
M  V30 5717 C 542.689 3.43313 0.524762 0
M  V30 5718 C 541.643 4.27115 -0.275106 0
M  V30 5719 C 540.969 5.30483 0.670236 0
M  V30 5720 C 542.269 5.00443 -1.49514 0
M  V30 5721 H 543.963 2.77672 -1.11976 0
M  V30 5722 H 541.509 1.33496 -0.539899 0
M  V30 5723 H 543.462 4.11273 0.918298 0
M  V30 5724 H 542.186 2.95952 1.3813 0
M  V30 5725 H 540.845 3.60787 -0.650267 0
M  V30 5726 H 540.493 4.79379 1.52332 0
M  V30 5727 H 540.193 5.87435 0.139123 0
M  V30 5728 H 541.717 6.01308 1.06117 0
M  V30 5729 H 543.131 5.61141 -1.17447 0
M  V30 5730 H 541.528 5.67071 -1.96343 0
M  V30 5731 H 542.598 4.28906 -2.26202 0
M  V30 5732 N 543.941 0.601185 1.45683 0
M  V30 5733 C 544.871 -0.108824 2.33246 0
M  V30 5734 C 545.852 -0.865223 1.46451 0
M  V30 5735 O 547.037 -0.83704 1.75235 0
M  V30 5736 C 544.167 -1.11101 3.2905 0
M  V30 5737 C 543.121 -0.468244 4.25431 0
M  V30 5738 C 542.447 -1.57822 5.10878 0
M  V30 5739 C 543.747 0.606469 5.18767 0
M  V30 5740 H 545.441 0.622306 2.92861 0
M  V30 5741 H 542.987 0.300714 1.40825 0
M  V30 5742 H 544.94 -1.61622 3.89174 0
M  V30 5743 H 543.664 -1.87265 2.67581 0
M  V30 5744 H 542.323 0.0160484 3.66596 0
M  V30 5745 H 541.971 -2.32998 4.45781 0
M  V30 5746 H 541.671 -1.15369 5.76163 0
M  V30 5747 H 543.195 -2.08583 5.73869 0
M  V30 5748 H 544.609 0.185589 5.73 0
M  V30 5749 H 543.006 0.952381 5.92494 0
M  V30 5750 H 544.076 1.48559 4.61582 0
M  V30 5751 N 545.419 -1.53889 0.339982 0
M  V30 5752 C 546.352 -2.21187 -0.561405 0
M  V30 5753 C 547.33 -1.19463 -1.10306 0
M  V30 5754 O 548.514 -1.48268 -1.164 0
M  V30 5755 C 545.641 -2.8865 -1.77198 0
M  V30 5756 C 544.687 -4.04232 -1.3601 0
M  V30 5757 S 545.52 -5.34129 -0.382909 0
M  V30 5758 C 546.676 -6.05094 -1.60039 0
M  V30 5759 H 546.909 -2.97298 0.0102092 0
M  V30 5760 H 544.442 -1.53901 0.124056 0
M  V30 5761 H 546.4 -3.28138 -2.4665 0
M  V30 5762 H 545.061 -2.12311 -2.3148 0
M  V30 5763 H 544.254 -4.50358 -2.2626 0
M  V30 5764 H 543.856 -3.66503 -0.745098 0
M  V30 5765 H 546.148 -6.2827 -2.53541 0
M  V30 5766 H 547.091 -6.98182 -1.18099 0
M  V30 5767 H 547.499 -5.35207 -1.79483 0
M  V30 5768 N 546.897 -0.0685191 -1.57451 0
M  V30 5769 C 548.122 0.613919 -1.98106 0
M  V30 5770 C 548.547 1.62551 -0.946501 0
M  V30 5771 O 547.905 1.81085 0.0882824 0
M  V30 5772 C 547.953 1.26189 -3.378 0
M  V30 5773 O 547.057 2.37773 -3.36954 0
M  V30 5774 H 546.398 0.158163 -0.644888 0
M  V30 5775 H 548.928 -0.142063 -2.04106 0
M  V30 5776 H 548.938 1.60951 -3.74912 0
M  V30 5777 H 547.613 0.520625 -4.12629 0
M  V30 5778 H 546.19 2.04829 -3.11608 0
M  V30 5779 N 548.375 1.56261 0.205012 0
M  V30 5780 C 549.338 1.92908 1.23771 0
M  V30 5781 C 550.338 0.809208 1.38955 0
M  V30 5782 O 551.528 1.07676 1.36936 0
M  V30 5783 C 548.66 2.19442 2.60879 0
M  V30 5784 H 549.853 2.85287 0.924728 0
M  V30 5785 H 547.406 1.49798 0.446125 0
M  V30 5786 H 548.141 1.29668 2.97248 0
M  V30 5787 H 547.926 3.0104 2.51232 0
M  V30 5788 H 549.416 2.48833 3.35368 0
M  V30 5789 N 549.853 -0.472356 1.50355 0
M  V30 5790 C 550.783 -1.57859 1.72055 0
M  V30 5791 C 551.764 -1.60283 0.569505 0
M  V30 5792 O 552.949 -1.7657 0.808503 0
M  V30 5793 C 550.079 -2.96191 1.81351 0
M  V30 5794 C 549.033 -3.08633 2.96529 0
M  V30 5795 C 548.359 -4.486 2.90968 0
M  V30 5796 C 549.659 -2.85969 4.37057 0
M  V30 5797 H 551.353 -1.39953 2.64676 0
M  V30 5798 H 548.899 -0.671846 1.27367 0
M  V30 5799 H 550.852 -3.73507 1.95117 0
M  V30 5800 H 549.576 -3.15251 0.853502 0
M  V30 5801 H 548.235 -2.33749 2.82413 0
M  V30 5802 H 547.883 -4.64577 1.92815 0
M  V30 5803 H 547.583 -4.57861 3.68289 0
M  V30 5804 H 549.107 -5.27938 3.0678 0
M  V30 5805 H 550.521 -3.53036 4.51706 0
M  V30 5806 H 548.918 -3.06677 5.15819 0
M  V30 5807 H 549.988 -1.81838 4.49514 0
M  V30 5808 N 551.331 -1.39911 -0.725443 0
M  V30 5809 C 552.559 -1.40949 -1.51463 0
M  V30 5810 C 552.974 -0.0065242 -1.88799 0
M  V30 5811 O 552.331 0.967163 -1.54765 0
M  V30 5812 C 552.382 -2.29119 -2.79619 0
M  V30 5813 O 552.103 -3.63952 -2.43866 0
M  V30 5814 C 553.604 -2.38642 -3.73584 0
M  V30 5815 H 550.824 -0.481091 -0.467752 0
M  V30 5816 H 553.368 -1.83843 -0.895651 0
M  V30 5817 H 551.523 -1.89612 -3.37826 0
M  V30 5818 H 551.937 -4.10677 -3.26258 0
M  V30 5819 H 553.411 -3.04563 -4.60375 0
M  V30 5820 H 553.888 -1.40846 -4.16004 0
M  V30 5821 H 554.494 -2.78659 -3.21293 0
M  V30 5822 N 552.809 0.956637 -1.25245 0
M  V30 5823 C 554.055 1.70352 -1.10036 0
M  V30 5824 C 554.388 1.90869 0.358156 0
M  V30 5825 O 553.663 1.47819 1.26411 0
M  V30 5826 C 553.946 3.08766 -1.85298 0
M  V30 5827 C 553.799 2.95672 -3.38966 0
M  V30 5828 C 555.118 4.08622 -1.63451 0
M  V30 5829 H 552.237 0.618279 -0.401123 0
M  V30 5830 H 554.879 1.11212 -1.54051 0
M  V30 5831 H 553.029 3.59252 -1.47887 0
M  V30 5832 H 554.701 2.52527 -3.86041 0
M  V30 5833 H 552.944 2.31634 -3.6678 0
M  V30 5834 H 553.615 3.93776 -3.86839 0
M  V30 5835 H 556.091 3.67038 -1.96015 0
M  V30 5836 H 554.967 5.03514 -2.18551 0
M  V30 5837 H 555.228 4.3834 -0.575357 0
M  V30 5838 N 554.287 1.06798 1.15896 0
M  V30 5839 C 555.534 0.787767 1.86549 0
M  V30 5840 C 555.862 -0.685959 1.82002 0
M  V30 5841 O 555.117 -1.5188 1.23414 0
M  V30 5842 C 555.416 1.23414 3.35416 0
M  V30 5843 C 555.082 2.71285 3.6016 0
M  V30 5844 C 553.744 3.11676 3.66622 0
M  V30 5845 C 556.096 3.6676 3.7032 0
M  V30 5846 C 553.424 4.4637 3.8075 0
M  V30 5847 C 555.776 5.01209 3.8597 0
M  V30 5848 C 554.44 5.41229 3.90676 0
M  V30 5849 H 553.71 0.288264 0.682631 0
M  V30 5850 H 556.357 1.338 1.37003 0
M  V30 5851 H 554.662 0.60319 3.87129 0
M  V30 5852 H 556.359 0.994298 3.88477 0
M  V30 5853 H 552.949 2.39015 3.55767 0
M  V30 5854 H 557.133 3.36685 3.64633 0
M  V30 5855 H 552.389 4.76855 3.82648 0
M  V30 5856 H 556.563 5.75067 3.92773 0
M  V30 5857 H 554.19 6.45602 4.01375 0
M  V30 5858 N 555.766 -1.3263 0.851289 0
M  V30 5859 C 557.015 -1.96633 0.449267 0
M  V30 5860 C 557.328 -1.68131 -0.999562 0
M  V30 5861 O 558.534 -2.25845 -1.50685 0
M  V30 5862 C 556.99 -3.51946 0.752446 0
M  V30 5863 C 556.598 -3.89311 2.21678 0
M  V30 5864 C 558.342 -4.22437 0.417983 0
M  V30 5865 C 556.249 -5.37655 2.46336 0
M  V30 5866 H 555.179 -0.735888 0.164269 0
M  V30 5867 H 557.83 -1.51073 1.0416 0
M  V30 5868 H 556.212 -3.95899 0.0895858 0
M  V30 5869 H 557.386 -3.56378 2.92115 0
M  V30 5870 H 555.701 -3.31836 2.51543 0
M  V30 5871 H 558.298 -5.31549 0.579674 0
M  V30 5872 H 558.641 -4.11349 -0.640115 0
M  V30 5873 H 559.174 -3.84057 1.03659 0
M  V30 5874 H 555.913 -5.5376 3.50757 0
M  V30 5875 H 555.433 -5.72005 1.80473 0
M  V30 5876 H 557.112 -6.04695 2.30115 0
M  V30 5877 N 557.244 -0.608902 -1.45362 0
M  V30 5878 C 558.174 0.0964526 -2.33301 0
M  V30 5879 C 559.155 0.857444 -1.46908 0
M  V30 5880 O 560.34 0.827735 -1.75676 0
M  V30 5881 C 557.47 1.09354 -3.29635 0
M  V30 5882 C 556.424 0.445676 -4.25673 0
M  V30 5883 C 555.75 1.5511 -5.11708 0
M  V30 5884 C 557.05 -0.633972 -5.18438 0
M  V30 5885 H 558.744 -0.637829 -2.92527 0
M  V30 5886 H 556.29 -0.308178 -1.40664 0
M  V30 5887 H 558.243 1.59556 -3.90025 0
M  V30 5888 H 556.967 1.85843 -2.6857 0
M  V30 5889 H 555.626 -0.0354897 -3.66583 0
M  V30 5890 H 555.274 2.30631 -4.4701 0
M  V30 5891 H 554.974 1.12311 -5.76767 0
M  V30 5892 H 556.498 2.05537 -5.74967 0
M  V30 5893 H 557.912 -0.215974 -5.72893 0
M  V30 5894 H 556.309 -0.983789 -5.91981 0
M  V30 5895 H 557.379 -1.51005 -4.60788 0
M  V30 5896 N 558.722 1.53707 -0.348139 0
M  V30 5897 C 559.971 2.0017 0.247992 0
M  V30 5898 C 560.284 1.23983 1.51286 0
M  V30 5899 O 561.49 1.60946 2.18652 0
M  V30 5900 C 559.946 3.56515 0.492459 0
M  V30 5901 C 559.554 4.41562 -0.756777 0
M  V30 5902 C 561.298 4.11381 1.0472 0
M  V30 5903 C 559.205 5.89426 -0.482856 0
M  V30 5904 H 558.135 0.747806 0.0964452 0
M  V30 5905 H 560.786 1.77532 -0.464179 0
M  V30 5906 H 559.168 3.75236 1.26545 0
M  V30 5907 H 560.342 4.34615 -1.53122 0
M  V30 5908 H 558.657 3.97711 -1.23348 0
M  V30 5909 H 561.254 5.19468 1.26717 0
M  V30 5910 H 561.597 3.64885 2.00411 0
M  V30 5911 H 562.13 3.96389 0.334801 0
M  V30 5912 H 558.869 6.40164 -1.40962 0
M  V30 5913 H 558.389 5.99264 0.253416 0
M  V30 5914 H 560.068 6.4692 -0.101816 0
M  V30 5915 N 560.2 0.0768682 1.57412 0
M  V30 5916 C 561.13 -0.886026 2.16037 0
M  V30 5917 C 562.111 -1.30691 1.08876 0
M  V30 5918 O 563.296 -1.37705 1.36934 0
M  V30 5919 C 560.426 -2.1518 2.72608 0
M  V30 5920 C 559.38 -1.87015 3.8498 0
M  V30 5921 C 558.706 -3.20266 4.28175 0
M  V30 5922 C 560.006 -1.17143 5.08994 0
M  V30 5923 H 561.7 -0.397642 2.96748 0
M  V30 5924 H 559.246 -0.189823 1.42743 0
M  V30 5925 H 561.199 -2.82962 3.12266 0
M  V30 5926 H 559.923 -2.66269 1.89125 0
M  V30 5927 H 558.582 -1.21636 3.45833 0
M  V30 5928 H 558.23 -3.69207 3.41607 0
M  V30 5929 H 557.93 -3.0221 5.03927 0
M  V30 5930 H 559.454 -3.89237 4.70454 0
M  V30 5931 H 560.868 -1.75003 5.45937 0
M  V30 5932 H 559.265 -1.09328 5.90057 0
M  V30 5933 H 560.335 -0.151295 4.84664 0
M  V30 5934 N 561.678 -1.56367 -0.196722 0
M  V30 5935 C 562.908 -1.84371 -0.932254 0
M  V30 5936 C 563.316 -0.657013 -1.77426 0
M  V30 5937 O 562.659 0.383576 -1.79651 0
M  V30 5938 C 562.721 -3.06454 -1.87952 0
M  V30 5939 C 562.385 -4.40425 -1.21962 0
M  V30 5940 C 563.382 -5.16457 -0.597343 0
M  V30 5941 C 561.067 -4.8716 -1.22396 0
M  V30 5942 C 563.061 -6.37399 0.0117913 0
M  V30 5943 C 560.748 -6.08038 -0.610995 0
M  V30 5944 C 561.746 -6.83 0.00580487 0
M  V30 5945 O 561.434 -8.01589 0.609173 0
M  V30 5946 H 561.166 -0.616377 -0.277589 0
M  V30 5947 H 563.72 -2.04329 -0.209452 0
M  V30 5948 H 561.95 -2.82377 -2.64197 0
M  V30 5949 H 563.639 -3.21118 -2.48271 0
M  V30 5950 H 564.405 -4.81445 -0.586142 0
M  V30 5951 H 560.284 -4.2877 -1.69345 0
M  V30 5952 H 563.828 -6.9585 0.493836 0
M  V30 5953 H 559.725 -6.42519 -0.619693 0
M  V30 5954 H 560.493 -8.16935 0.505919 0
M  V30 5955 N 563.156 0.464375 -1.50603 0
M  V30 5956 C 564.403 1.21596 -1.61928 0
M  V30 5957 C 564.731 1.91804 -0.322737 0
M  V30 5958 O 563.986 1.83065 0.691776 0
M  V30 5959 C 564.285 2.278 -2.75394 0
M  V30 5960 C 563.951 1.74797 -4.1564 0
M  V30 5961 C 562.613 1.60063 -4.53799 0
M  V30 5962 C 564.965 1.35548 -5.03266 0
M  V30 5963 C 562.293 1.04514 -5.77316 0
M  V30 5964 C 564.645 0.814381 -6.27336 0
M  V30 5965 C 563.309 0.653726 -6.64291 0
M  V30 5966 H 562.579 0.444951 -0.592536 0
M  V30 5967 H 565.226 0.510964 -1.84557 0
M  V30 5968 H 563.531 3.04233 -2.46879 0
M  V30 5969 H 565.228 2.85723 -2.81359 0
M  V30 5970 H 561.818 1.87234 -3.8554 0
M  V30 5971 H 566.002 1.45763 -4.74412 0
M  V30 5972 H 561.258 0.908186 -6.04617 0
M  V30 5973 H 565.432 0.501626 -6.94591 0
M  V30 5974 H 563.059 0.22114 -7.59878 0
M  V30 5975 N 564.634 1.40294 0.718013 0
M  V30 5976 C 565.88 1.38645 1.48005 0
M  V30 5977 C 566.213 -0.0121202 1.94196 0
M  V30 5978 O 565.488 -0.980309 1.67989 0
M  V30 5979 C 565.771 2.37379 2.70782 0
M  V30 5980 C 565.624 3.8625 2.30501 0
M  V30 5981 C 566.943 2.33685 3.72933 0
M  V30 5982 H 564.062 0.504928 0.536858 0
M  V30 5983 H 566.704 1.71411 0.819649 0
M  V30 5984 H 564.854 2.09568 3.27129 0
M  V30 5985 H 566.526 4.24879 1.79655 0
M  V30 5986 H 564.769 4.02202 1.6253 0
M  V30 5987 H 565.44 4.50847 3.18498 0
M  V30 5988 H 567.916 2.58314 3.2621 0
M  V30 5989 H 566.792 3.0482 4.56482 0
M  V30 5990 H 567.053 1.34765 4.21059 0
M  V30 5991 N 566.112 -0.949982 1.2575 0
M  V30 5992 C 567.361 -1.68956 1.10168 0
M  V30 5993 C 567.674 -1.92327 -0.356309 0
M  V30 5994 O 568.88 -2.64026 -0.632657 0
M  V30 5995 C 567.336 -3.04196 1.92336 0
M  V30 5996 C 566.944 -2.88603 3.42655 0
M  V30 5997 C 568.688 -3.81904 1.85336 0
M  V30 5998 C 566.595 -4.19262 4.17101 0
M  V30 5999 H 565.525 -0.633645 0.408668 0
M  V30 6000 H 568.176 -1.05719 1.49986 0
M  V30 6001 H 566.558 -3.68363 1.45344 0
M  V30 6002 H 567.732 -2.3334 3.97353 0
M  V30 6003 H 566.047 -2.24345 3.50796 0
M  V30 6004 H 568.644 -4.78688 2.38248 0
M  V30 6005 H 568.987 -4.08099 0.822226 0
M  V30 6006 H 569.52 -3.24495 2.30104 0
M  V30 6007 H 566.259 -3.98254 5.20648 0
M  V30 6008 H 565.779 -4.74273 3.67186 0
M  V30 6009 H 567.458 -4.87775 4.25071 0
M  V30 6010 N 567.59 -1.07411 -1.15328 0
M  V30 6011 C 568.867 -0.710732 -1.82231 0
M  V30 6012 C 569.247 0.806732 -1.95077 0
M  V30 6013 O 568.595 1.72139 -1.50268 0
M  V30 6014 C 568.805 -1.42586 -3.18544 0
M  V30 6015 C 570.153 -1.57836 -3.94174 0
M  V30 6016 O 571.177 -1.38669 -3.281 0
M  V30 6017 O 570.036 -1.8938 -5.12638 0
M  V30 6018 H 567.13 -0.25297 -0.78736 0
M  V30 6019 H 569.676 -1.17508 -1.22434 0
M  V30 6020 H 568.448 -2.46008 -3.04296 0
M  V30 6021 H 568.071 -0.952332 -3.86026 0
M  V30 6022 N 569.068 1.32177 -0.85831 0
M  V30 6023 C 570.016 2.30729 -0.294442 0
M  V30 6024 C 571.01 1.59009 0.584165 0
M  V30 6025 O 572.216 1.73713 0.471562 0
M  V30 6026 H 568.591 0.748097 -0.0765171 0
M  V30 6027 H 570.562 2.75774 -1.1398 0
M  V30 6028 C 569.311 3.44098 0.499208 0
M  V30 6029 H 568.634 3.99449 -0.167579 0
M  V30 6030 H 570.074 4.15202 0.859273 0
M  V30 6031 C 568.533 2.91684 1.68588 0
M  V30 6032 O 569.063 2.89481 2.78503 0
M  V30 6033 N 567.269 2.48036 1.51415 0
M  V30 6034 H 566.816 2.50027 0.620006 0
M  V30 6035 H 566.774 2.13322 2.30957 0
M  V30 6036 N 570.547 0.616602 1.45037 0
M  V30 6037 C 571.794 0.115331 2.02171 0
M  V30 6038 C 572.122 -1.25748 1.48383 0
M  V30 6039 O 571.377 -1.84511 0.652229 0
M  V30 6040 C 571.676 0.0356829 3.57382 0
M  V30 6041 C 571.342 1.34535 4.30362 0
M  V30 6042 C 570.004 1.70408 4.50016 0
M  V30 6043 C 572.356 2.21049 4.72003 0
M  V30 6044 C 569.684 2.92529 5.0857 0
M  V30 6045 C 572.036 3.42427 5.31908 0
M  V30 6046 C 570.7 3.78541 5.49784 0
M  V30 6047 H 569.97 0.0422024 0.739797 0
M  V30 6048 H 572.617 0.80002 1.73988 0
M  V30 6049 H 570.922 -0.732314 3.84895 0
M  V30 6050 H 572.619 -0.368463 3.99304 0
M  V30 6051 H 569.209 1.05615 4.15383 0
M  V30 6052 H 573.393 1.94632 4.56544 0
M  V30 6053 H 568.649 3.20605 5.20598 0
M  V30 6054 H 572.823 4.09709 5.63127 0
M  V30 6055 H 570.45 4.73255 5.94923 0
M  V30 6056 N 572.025 -1.5352 0.356285 0
M  V30 6057 C 573.271 -2.01414 -0.236653 0
M  V30 6058 C 573.604 -1.24339 -1.49176 0
M  V30 6059 O 572.879 -0.334496 -1.91602 0
M  V30 6060 C 573.162 -3.56059 -0.537982 0
M  V30 6061 C 573.015 -4.43835 0.730112 0
M  V30 6062 C 574.334 -4.19127 -1.34239 0
M  V30 6063 H 571.453 -0.732135 -0.0845386 0
M  V30 6064 H 574.095 -1.83854 0.479341 0
M  V30 6065 H 572.245 -3.71153 -1.14795 0
M  V30 6066 H 573.917 -4.40555 1.36782 0
M  V30 6067 H 572.16 -4.1218 1.3524 0
M  V30 6068 H 572.831 -5.49958 0.474358 0
M  V30 6069 H 575.307 -4.07809 -0.826498 0
M  V30 6070 H 574.183 -5.27378 -1.52198 0
M  V30 6071 H 574.444 -3.74581 -2.34822 0
M  V30 6072 N 573.503 -0.0852151 -1.57369 0
M  V30 6073 C 574.752 0.580443 -1.93168 0
M  V30 6074 C 575.065 1.6995 -0.968319 0
M  V30 6075 O 576.271 2.42564 -1.21963 0
M  V30 6076 C 574.727 1.08386 -3.43192 0
M  V30 6077 C 574.335 -0.00491388 -4.48 0
M  V30 6078 C 576.079 1.72281 -3.87968 0
M  V30 6079 C 573.986 0.513299 -5.89168 0
M  V30 6080 H 572.916 0.22059 -0.72101 0
M  V30 6081 H 575.567 -0.159621 -1.82804 0
M  V30 6082 H 573.949 1.8773 -3.48674 0
M  V30 6083 H 575.123 -0.780032 -4.5415 0
M  V30 6084 H 573.438 -0.548453 -4.12772 0
M  V30 6085 H 576.035 2.12108 -4.9083 0
M  V30 6086 H 576.378 2.58811 -3.26071 0
M  V30 6087 H 576.911 0.995359 -3.85146 0
M  V30 6088 H 573.65 -0.315153 -6.54742 0
M  V30 6089 H 573.17 1.25564 -5.8651 0
M  V30 6090 H 574.849 0.985433 -6.39451 0
M  V30 6091 N 574.981 1.5647 0.188427 0
M  V30 6092 C 575.929 1.95971 1.25293 0
M  V30 6093 C 576.923 0.846047 1.4676 0
M  V30 6094 O 578.129 1.03109 1.47542 0
M  V30 6095 H 574.504 0.623253 0.420784 0
M  V30 6096 H 576.475 2.84731 0.892792 0
M  V30 6097 C 575.224 2.32116 2.58877 0
M  V30 6098 H 574.547 3.17341 2.43176 0
M  V30 6099 H 575.987 2.63613 3.3209 0
M  V30 6100 C 574.446 1.15823 3.16365 0
M  V30 6101 O 574.976 0.436785 3.99318 0
M  V30 6102 N 573.182 0.933278 2.75206 0
M  V30 6103 H 572.729 1.52169 2.07852 0
M  V30 6104 H 572.687 0.156976 3.14008 0
M  V30 6105 N 576.459 -0.456382 1.50847 0
M  V30 6106 C 577.875 -0.791345 1.386 0
M  V30 6107 C 578.075 -1.9633 0.453498 0
M  V30 6108 O 577.131 -2.52308 -0.0984353 0
M  V30 6109 C 578.444 -1.08959 2.80265 0
M  V30 6110 C 579.992 -1.19517 2.89283 0
M  V30 6111 C 580.467 -1.52647 4.31814 0
M  V30 6112 N 581.958 -1.59609 4.34832 0
M  V30 6113 C 582.693 -1.86777 5.42127 0
M  V30 6114 N 582.189 -2.11866 6.59609 0
M  V30 6115 N 583.982 -1.88402 5.29586 0
M  V30 6116 H 576.133 0.315746 2.1004 0
M  V30 6117 H 578.396 0.0787916 0.94472 0
M  V30 6118 H 578.102 -0.301355 3.50407 0
M  V30 6119 H 577.976 -2.02211 3.18419 0
M  V30 6120 H 580.363 -1.97406 2.19351 0
M  V30 6121 H 580.444 -0.242111 2.54652 0
M  V30 6122 H 580.088 -0.752922 5.02288 0
M  V30 6123 H 580.018 -2.49127 4.63943 0
M  V30 6124 H 582.509 -1.42201 3.50125 0
M  V30 6125 H 582.822 -2.31912 7.37182 0
M  V30 6126 H 581.167 -2.09228 6.62758 0
M  V30 6127 H 584.358 -1.68307 4.36795 0
M  V30 6128 H 584.531 -2.09238 6.13289 0
M  V30 6129 N 577.937 -1.40673 -0.710563 0
M  V30 6130 C 579.353 -1.22813 -1.01928 0
M  V30 6131 C 579.553 -0.10687 -2.01216 0
M  V30 6132 O 578.609 0.533614 -2.46797 0
M  V30 6133 C 579.922 -2.57178 -1.5582 0
M  V30 6134 C 581.47 -2.64233 -1.67779 0
M  V30 6135 C 581.945 -3.98879 -2.25076 0
M  V30 6136 N 583.436 -4.00647 -2.32456 0
M  V30 6137 C 584.171 -5.01621 -2.77784 0
M  V30 6138 N 583.667 -6.12989 -3.22826 0
M  V30 6139 N 585.46 -4.88988 -2.77213 0
M  V30 6140 H 577.611 -2.12335 -0.05253 0
M  V30 6141 H 579.874 -0.9441 -0.085898 0
M  V30 6142 H 579.58 -3.39903 -0.903249 0
M  V30 6143 H 579.454 -2.78618 -2.54267 0
M  V30 6144 H 581.841 -1.81876 -2.3239 0
M  V30 6145 H 581.922 -2.46619 -0.679178 0
M  V30 6146 H 581.566 -4.81678 -1.61086 0
M  V30 6147 H 581.496 -4.13826 -3.25661 0
M  V30 6148 H 583.987 -3.20231 -2.0065 0
M  V30 6149 H 584.3 -6.85921 -3.55995 0
M  V30 6150 H 582.645 -6.16547 -3.20773 0
M  V30 6151 H 585.836 -4.01075 -2.41363 0
M  V30 6152 H 586.009 -5.67822 -3.12221 0
M  V30 6153 N 579.415 0.9433 -1.26252 0
M  V30 6154 C 580.826 1.50404 -1.10614 0
M  V30 6155 C 581.177 1.93666 0.31429 0
M  V30 6156 O 580.302 1.79709 1.20555 0
M  V30 6157 C 580.897 2.73336 -2.00182 0
M  V30 6158 C 579.456 3.25686 -1.88695 0
M  V30 6159 C 578.603 1.98474 -1.93658 0
M  V30 6160 H 581.554 0.759006 -1.39373 0
M  V30 6161 H 581.575 3.47567 -1.54847 0
M  V30 6162 H 581.087 2.41818 -3.03555 0
M  V30 6163 H 579.188 3.61998 -0.882489 0
M  V30 6164 H 579.301 3.92935 -2.74115 0
M  V30 6165 H 577.665 2.14278 -1.37684 0
M  V30 6166 H 578.448 1.6929 -2.98657 0
M  V30 6167 N 580.893 1.08022 1.14757 0
M  V30 6168 C 582.139 0.818552 1.86202 0
M  V30 6169 C 582.494 -0.648563 1.81139 0
M  V30 6170 O 581.787 -1.4704 1.22841 0
M  V30 6171 C 581.981 1.26964 3.34088 0
M  V30 6172 C 581.81 2.77907 3.5355 0
M  V30 6173 C 580.58 3.45604 3.68627 0
M  V30 6174 C 582.778 3.7609 3.50801 0
M  V30 6175 N 580.76 4.85119 3.76209 0
M  V30 6176 C 582.131 5.0148 3.64579 0
M  V30 6177 C 584.186 3.6915 3.34115 0
M  V30 6178 C 582.889 6.20755 3.63395 0
M  V30 6179 C 584.915 4.87896 3.34233 0
M  V30 6180 C 584.277 6.12123 3.48547 0
M  V30 6181 H 580.376 0.352186 0.698204 0
M  V30 6182 H 582.96 1.37781 1.37567 0
M  V30 6183 H 581.131 0.738008 3.81324 0
M  V30 6184 H 582.863 0.954806 3.93275 0
M  V30 6185 H 579.618 2.96016 3.69691 0
M  V30 6186 H 580.042 5.57748 3.83726 0
M  V30 6187 H 584.684 2.74045 3.21961 0
M  V30 6188 H 582.402 7.16175 3.74326 0
M  V30 6189 H 585.988 4.8421 3.2254 0
M  V30 6190 H 584.868 7.02468 3.48581 0
M  V30 6191 N 582.371 -1.3172 0.865308 0
M  V30 6192 C 583.301 -2.31109 0.333302 0
M  V30 6193 C 584.282 -1.60148 -0.573301 0
M  V30 6194 O 585.467 -1.87882 -0.491305 0
M  V30 6195 C 582.597 -3.44104 -0.470078 0
M  V30 6196 C 581.551 -4.26623 0.343021 0
M  V30 6197 C 580.877 -5.31482 -0.585756 0
M  V30 6198 C 582.177 -4.98001 1.57456 0
M  V30 6199 H 583.871 -2.75855 1.1638 0
M  V30 6200 H 581.417 -1.3262 0.561069 0
M  V30 6201 H 583.37 -4.12682 -0.852752 0
M  V30 6202 H 582.094 -2.98112 -1.33404 0
M  V30 6203 H 580.753 -3.59707 0.707583 0
M  V30 6204 H 580.401 -4.81741 -1.44686 0
M  V30 6205 H 580.101 -5.87582 -0.0456494 0
M  V30 6206 H 581.625 -6.0292 -0.965375 0
M  V30 6207 H 583.039 -5.59201 1.26359 0
M  V30 6208 H 581.436 -5.63876 2.05339 0
M  V30 6209 H 582.506 -4.25253 2.32997 0
M  V30 6210 N 583.85 -0.624285 -1.44708 0
M  V30 6211 C 585.26 -0.2092 -1.85524 0
M  V30 6212 C 585.611 1.23783 -1.52225 0
M  V30 6213 O 584.736 1.94089 -0.956986 0
M  V30 6214 C 585.332 -0.372897 -3.36742 0
M  V30 6215 C 583.891 -0.012374 -3.76398 0
M  V30 6216 C 583.038 -0.68951 -2.68591 0
M  V30 6217 H 585.989 -0.829894 -1.35272 0
M  V30 6218 H 586.01 0.390134 -3.78495 0
M  V30 6219 H 585.522 -1.42615 -3.60947 0
M  V30 6220 H 583.623 1.03941 -3.57809 0
M  V30 6221 H 583.736 -0.417663 -4.77276 0
M  V30 6222 H 582.1 -0.125484 -2.54391 0
M  V30 6223 H 582.883 -1.74522 -2.9563 0
M  V30 6224 N 585.328 1.53329 -0.364422 0
M  V30 6225 C 586.238 2.29414 0.490552 0
M  V30 6226 C 587.254 1.35335 1.09363 0
M  V30 6227 O 588.43 1.68391 1.10483 0
M  V30 6228 C 585.495 3.06772 1.61529 0
M  V30 6229 C 584.556 4.16516 1.03986 0
M  V30 6230 C 583.789 4.90176 2.111 0
M  V30 6231 O 584.012 4.63687 3.32191 0
M  V30 6232 O 582.946 5.76134 1.74222 0
M  V30 6233 H 586.772 3.03428 -0.12856 0
M  V30 6234 H 584.357 1.48843 -0.128837 0
M  V30 6235 H 586.239 3.55082 2.26924 0
M  V30 6236 H 584.914 2.35596 2.21983 0
M  V30 6237 H 583.821 3.7246 0.349856 0
M  V30 6238 H 585.154 4.89855 0.4799 0
M  V30 6239 N 586.806 0.0935595 1.57322 0
M  V30 6240 C 588.046 -0.573901 1.96178 0
M  V30 6241 C 588.41 -1.65445 0.97426 0
M  V30 6242 O 589.611 -2.37901 1.25126 0
M  V30 6243 C 587.882 -1.11612 3.39526 0
M  V30 6244 S 589.441 -1.79566 4.00377 0
M  V30 6245 H 586.259 -0.187315 0.685882 0
M  V30 6246 H 588.861 0.172597 1.94737 0
M  V30 6247 H 587.565 -0.31815 4.09165 0
M  V30 6248 H 587.096 -1.89848 3.4456 0
M  V30 6249 H 589.111 -3.07978 3.89056 0
M  V30 6250 N 588.284 -1.56567 -0.180126 0
M  V30 6251 C 589.512 -1.85618 -0.913972 0
M  V30 6252 C 589.927 -0.677892 -1.7621 0
M  V30 6253 O 589.284 0.353171 -1.7905 0
M  V30 6254 C 589.335 -3.13619 -1.79793 0
M  V30 6255 O 589.056 -4.26906 -0.98402 0
M  V30 6256 C 590.557 -3.55954 -2.64219 0
M  V30 6257 H 587.777 -0.616043 -0.265954 0
M  V30 6258 H 590.321 -2.03681 -0.182872 0
M  V30 6259 H 588.476 -2.97409 -2.48247 0
M  V30 6260 H 588.89 -4.9989 -1.58776 0
M  V30 6261 H 590.364 -4.48444 -3.21873 0
M  V30 6262 H 590.841 -2.79653 -3.38661 0
M  V30 6263 H 591.447 -3.74746 -2.01111 0
M  V30 6264 N 589.762 0.448376 -1.51087 0
M  V30 6265 C 591.173 1.0286 -1.5581 0
M  V30 6266 C 591.524 1.92583 -0.374989 0
M  V30 6267 O 590.649 2.10316 0.509533 0
M  V30 6268 C 591.244 1.87223 -2.8237 0
M  V30 6269 C 589.803 2.40314 -2.897 0
M  V30 6270 C 588.95 1.19238 -2.50355 0
M  V30 6271 H 591.901 0.230075 -1.57023 0
M  V30 6272 H 591.922 2.72553 -2.6551 0
M  V30 6273 H 591.434 1.21894 -3.68461 0
M  V30 6274 H 589.535 3.09129 -2.08014 0
M  V30 6275 H 589.648 2.73866 -3.93108 0
M  V30 6276 H 588.012 1.53428 -2.03303 0
M  V30 6277 H 588.795 0.555367 -3.38778 0
M  V30 6278 N 591.24 1.41047 0.703093 0
M  V30 6279 C 592.489 1.39301 1.4587 0
M  V30 6280 C 592.802 0.00267077 1.956 0
M  V30 6281 O 594.008 -0.137414 2.71152 0
M  V30 6282 C 592.464 2.44891 2.63735 0
M  V30 6283 C 592.072 3.89796 2.20824 0
M  V30 6284 C 593.816 2.5227 3.41409 0
M  V30 6285 C 591.723 4.86955 3.35602 0
M  V30 6286 H 590.653 0.518005 0.547893 0
M  V30 6287 H 593.304 1.66839 0.764009 0
M  V30 6288 H 591.686 2.10472 3.35436 0
M  V30 6289 H 592.86 4.33424 1.56461 0
M  V30 6290 H 591.175 3.86008 1.56163 0
M  V30 6291 H 593.772 3.22044 4.26839 0
M  V30 6292 H 594.115 1.55714 3.86081 0
M  V30 6293 H 594.648 2.85742 2.7676 0
M  V30 6294 H 591.387 5.84888 2.9595 0
M  V30 6295 H 590.907 4.47982 3.98839 0
M  V30 6296 H 592.586 5.07361 4.01489 0
M  V30 6297 N 592.718 -0.936591 1.26751 0
M  V30 6298 C 593.948 -1.71509 1.15188 0
M  V30 6299 C 594.356 -1.86885 -0.295037 0
M  V30 6300 O 593.699 -1.37915 -1.21347 0
M  V30 6301 C 593.761 -3.13853 1.75318 0
M  V30 6302 C 593.425 -3.21845 3.24445 0
M  V30 6303 C 594.422 -3.04771 4.21201 0
M  V30 6304 C 592.107 -3.45088 3.64992 0
M  V30 6305 C 594.101 -3.10816 5.56482 0
M  V30 6306 C 591.788 -3.50767 5.00405 0
M  V30 6307 C 592.786 -3.33648 5.9596 0
M  V30 6308 O 592.474 -3.39045 7.28906 0
M  V30 6309 H 592.206 -0.543658 0.401761 0
M  V30 6310 H 594.76 -1.18234 1.67958 0
M  V30 6311 H 592.99 -3.6857 1.17016 0
M  V30 6312 H 594.679 -3.73634 1.58596 0
M  V30 6313 H 595.445 -2.86665 3.91214 0
M  V30 6314 H 591.324 -3.57467 2.91098 0
M  V30 6315 H 594.868 -2.97372 6.31043 0
M  V30 6316 H 590.765 -3.68396 5.30052 0
M  V30 6317 H 591.533 -3.55558 7.37238 0
M  V30 6318 N 594.196 -1.08629 -1.14182 0
M  V30 6319 C 595.445 -0.812271 -1.84621 0
M  V30 6320 C 595.758 0.664313 -1.83973 0
M  V30 6321 O 596.964 1.05357 -2.50224 0
M  V30 6322 C 595.42 -1.4031 -3.31423 0
M  V30 6323 C 595.028 -2.91164 -3.40481 0
M  V30 6324 C 596.772 -1.20767 -4.06959 0
M  V30 6325 C 594.679 -3.43373 -4.81507 0
M  V30 6326 H 593.609 -0.30019 -0.691666 0
M  V30 6327 H 596.26 -1.30798 -1.28701 0
M  V30 6328 H 594.642 -0.835096 -3.87094 0
M  V30 6329 H 595.816 -3.5412 -2.94848 0
M  V30 6330 H 594.131 -3.09646 -2.78403 0
M  V30 6331 H 596.728 -1.57237 -5.11058 0
M  V30 6332 H 597.071 -0.147664 -4.16038 0
M  V30 6333 H 597.604 -1.74274 -3.57594 0
M  V30 6334 H 594.343 -4.48958 -4.77616 0
M  V30 6335 H 593.863 -2.85176 -5.27669 0
M  V30 6336 H 595.542 -3.40095 -5.50404 0
M  V30 6337 N 595.674 1.31259 -0.872281 0
M  V30 6338 C 596.606 2.27396 -0.28697 0
M  V30 6339 C 597.619 1.53181 0.551297 0
M  V30 6340 O 598.808 1.74561 0.372914 0
M  V30 6341 C 595.908 3.33335 0.611617 0
M  V30 6342 C 595.081 4.36966 -0.194729 0
M  V30 6343 C 594.14 5.22387 0.632358 0
M  V30 6344 O 593.166 5.69169 0.0595691 0
M  V30 6345 N 594.368 5.46985 1.94391 0
M  V30 6346 H 597.133 2.78261 -1.11314 0
M  V30 6347 H 594.694 1.44306 -0.733994 0
M  V30 6348 H 596.686 3.87398 1.17068 0
M  V30 6349 H 595.256 2.82496 1.33846 0
M  V30 6350 H 594.476 3.82945 -0.935241 0
M  V30 6351 H 595.764 5.03273 -0.747935 0
M  V30 6352 H 595.162 5.10737 2.43237 0
M  V30 6353 H 593.719 6.03973 2.45071 0
M  V30 6354 N 597.152 0.631951 1.44375 0
M  V30 6355 C 598.382 0.143658 2.061 0
M  V30 6356 C 598.79 -1.18733 1.47306 0
M  V30 6357 O 598.133 -1.73943 0.590724 0
M  V30 6358 C 598.195 -0.0446102 3.59472 0
M  V30 6359 C 597.859 1.20835 4.40736 0
M  V30 6360 C 598.856 2.13224 4.74164 0
M  V30 6361 C 596.541 1.44399 4.81097 0
M  V30 6362 C 598.535 3.27487 5.46838 0
M  V30 6363 C 596.222 2.58959 5.53519 0
M  V30 6364 C 597.22 3.50329 5.86309 0
M  V30 6365 O 596.908 4.62891 6.57257 0
M  V30 6366 H 596.64 0.0772939 0.671567 0
M  V30 6367 H 599.194 0.866677 1.8622 0
M  V30 6368 H 597.424 -0.822783 3.77845 0
M  V30 6369 H 599.113 -0.487561 4.02961 0
M  V30 6370 H 599.879 1.96253 4.4352 0
M  V30 6371 H 595.758 0.741696 4.54994 0
M  V30 6372 H 599.302 3.98826 5.72349 0
M  V30 6373 H 595.199 2.75873 5.83579 0
M  V30 6374 H 595.967 4.61883 6.75726 0
M  V30 6375 N 598.631 -1.53133 0.372548 0
M  V30 6376 C 599.878 -2.01356 -0.214959 0
M  V30 6377 C 600.206 -1.2596 -1.48204 0
M  V30 6378 O 599.461 -0.343511 -1.92662 0
M  V30 6379 C 599.76 -3.53206 -0.545938 0
M  V30 6380 C 599.426 -4.46511 0.627624 0
M  V30 6381 C 598.088 -4.71737 0.949615 0
M  V30 6382 C 600.44 -5.01666 1.41353 0
M  V30 6383 C 597.768 -5.4937 2.05936 0
M  V30 6384 C 600.12 -5.80511 2.51375 0
M  V30 6385 C 598.784 -6.04022 2.84101 0
M  V30 6386 H 598.054 -0.736813 -0.078659 0
M  V30 6387 H 600.701 -1.84682 0.506447 0
M  V30 6388 H 599.006 -3.67864 -1.34845 0
M  V30 6389 H 600.703 -3.87997 -1.01287 0
M  V30 6390 H 597.293 -4.27029 0.366635 0
M  V30 6391 H 601.477 -4.82117 1.17802 0
M  V30 6392 H 596.733 -5.65803 2.31682 0
M  V30 6393 H 600.907 -6.22255 3.12684 0
M  V30 6394 H 598.534 -6.63962 3.70214 0
M  V30 6395 N 600.109 -0.101901 -1.5727 0
M  V30 6396 C 601.355 0.561027 -1.94885 0
M  V30 6397 C 601.688 1.6741 -0.984258 0
M  V30 6398 O 600.963 1.94491 -0.0184767 0
M  V30 6399 C 601.246 1.10982 -3.42571 0
M  V30 6400 C 601.099 0.00133418 -4.498 0
M  V30 6401 C 602.418 2.00608 -3.9172 0
M  V30 6402 H 599.537 0.202467 -0.708644 0
M  V30 6403 H 602.179 -0.173992 -1.89202 0
M  V30 6404 H 600.329 1.73621 -3.47546 0
M  V30 6405 H 602.001 -0.63322 -4.56933 0
M  V30 6406 H 600.244 -0.664143 -4.28686 0
M  V30 6407 H 600.915 0.426253 -5.50352 0
M  V30 6408 H 603.391 1.47864 -3.88941 0
M  V30 6409 H 602.267 2.3593 -4.95609 0
M  V30 6410 H 602.528 2.92608 -3.3141 0
M  V30 6411 N 601.587 1.56661 0.17182 0
M  V30 6412 C 602.534 1.96371 1.21273 0
M  V30 6413 C 603.504 0.82756 1.44016 0
M  V30 6414 O 604.689 1.08764 1.56764 0
M  V30 6415 C 601.829 2.32838 2.54716 0
M  V30 6416 C 600.942 3.59628 2.39356 0
M  V30 6417 C 600.077 3.85311 3.65662 0
M  V30 6418 C 599.116 5.0545 3.45234 0
M  V30 6419 N 598.253 5.27268 4.63608 0
M  V30 6420 H 603.093 2.85106 0.86709 0
M  V30 6421 H 600.63 1.41073 0.416744 0
M  V30 6422 H 602.588 2.52004 3.3249 0
M  V30 6423 H 601.218 1.47214 2.87277 0
M  V30 6424 H 600.27 3.4838 1.52761 0
M  V30 6425 H 601.582 4.4756 2.20207 0
M  V30 6426 H 600.736 4.04841 4.51872 0
M  V30 6427 H 599.475 2.95753 3.8779 0
M  V30 6428 H 598.48 4.85819 2.5741 0
M  V30 6429 H 599.705 5.96538 3.24529 0
M  V30 6430 H 597.651 4.40662 4.85956 0
M  V30 6431 H 597.568 6.09422 4.4737 0
M  V30 6432 H 598.836 5.51277 5.51103 0
M  V30 6433 N 603.065 -0.440357 1.51323 0
M  V30 6434 C 604.312 -1.19004 1.63842 0
M  V30 6435 C 604.64 -1.91266 0.35321 0
M  V30 6436 O 603.895 -1.84143 -0.662565 0
M  V30 6437 C 604.194 -2.2339 2.78984 0
M  V30 6438 C 603.86 -1.68162 4.18369 0
M  V30 6439 C 602.522 -1.52823 4.56288 0
M  V30 6440 C 604.874 -1.27524 5.05358 0
M  V30 6441 C 602.202 -0.953157 5.78906 0
M  V30 6442 C 604.554 -0.714474 6.28552 0
M  V30 6443 C 603.218 -0.547961 6.65247 0
M  V30 6444 H 602.488 -0.435468 0.59954 0
M  V30 6445 H 605.135 -0.481538 1.85347 0
M  V30 6446 H 603.44 -3.00267 2.51688 0
M  V30 6447 H 605.137 -2.81211 2.85869 0
M  V30 6448 H 601.727 -1.81077 3.8847 0
M  V30 6449 H 605.911 -1.38197 4.76671 0
M  V30 6450 H 601.167 -0.811882 6.05986 0
M  V30 6451 H 605.341 -0.391059 6.95301 0
M  V30 6452 H 602.968 -0.100222 7.60134 0
M  V30 6453 N 604.543 -1.41418 -0.695603 0
M  V30 6454 C 605.79 -1.40774 -1.45564 0
M  V30 6455 C 606.118 -0.0168604 -1.94493 0
M  V30 6456 O 605.373 0.971259 -1.69897 0
M  V30 6457 C 605.672 -2.36112 -2.68302 0
M  V30 6458 C 605.338 -3.82952 -2.38031 0
M  V30 6459 C 604 -4.22954 -2.29486 0
M  V30 6460 C 606.352 -4.75662 -2.13061 0
M  V30 6461 C 603.68 -5.53674 -1.94067 0
M  V30 6462 C 606.032 -6.06702 -1.79151 0
M  V30 6463 C 604.696 -6.45725 -1.69102 0
M  V30 6464 H 603.966 -0.515128 -0.532658 0
M  V30 6465 H 606.613 -1.74216 -0.795047 0
M  V30 6466 H 604.918 -1.95924 -3.39295 0
M  V30 6467 H 606.615 -2.32887 -3.26442 0
M  V30 6468 H 603.205 -3.5127 -2.45576 0
M  V30 6469 H 607.389 -4.45561 -2.18608 0
M  V30 6470 H 602.645 -5.8279 -1.8484 0
M  V30 6471 H 606.819 -6.78041 -1.5885 0
M  V30 6472 H 604.446 -7.46929 -1.41426 0
M  V30 6473 N 606.021 0.929856 -1.27246 0
M  V30 6474 C 607.27 1.67182 -1.12842 0
M  V30 6475 C 607.583 1.9287 0.325666 0
M  V30 6476 O 608.789 2.64999 0.590572 0
M  V30 6477 C 607.245 3.01097 -1.97151 0
M  V30 6478 C 606.853 2.83115 -3.47203 0
M  V30 6479 C 608.597 3.78907 -1.91389 0
M  V30 6480 C 606.504 4.12573 -4.23719 0
M  V30 6481 H 605.434 0.627064 -0.418697 0
M  V30 6482 H 608.085 1.0332 -1.51649 0
M  V30 6483 H 606.467 3.66004 -1.51186 0
M  V30 6484 H 607.641 2.26989 -4.01015 0
M  V30 6485 H 605.956 2.18736 -3.54321 0
M  V30 6486 H 608.553 4.74837 -2.45834 0
M  V30 6487 H 608.896 4.0674 -0.887047 0
M  V30 6488 H 609.429 3.20794 -2.35237 0
M  V30 6489 H 606.168 3.8992 -5.26918 0
M  V30 6490 H 605.688 4.68371 -3.74685 0
M  V30 6491 H 607.367 4.8095 -4.32777 0
M  V30 6492 N 607.499 1.09233 1.13605 0
M  V30 6493 C 608.748 0.82205 1.84188 0
M  V30 6494 C 609.061 -0.654548 1.84323 0
M  V30 6495 O 610.267 -1.04029 2.50779 0
M  V30 6496 C 608.723 1.42066 3.30674 0
M  V30 6497 C 608.331 2.92965 3.38933 0
M  V30 6498 C 610.075 1.22924 4.06313 0
M  V30 6499 C 607.982 3.45922 4.79679 0
M  V30 6500 H 606.912 0.303854 0.690064 0
M  V30 6501 H 609.563 1.31479 1.28006 0
M  V30 6502 H 607.945 0.855613 3.86646 0
M  V30 6503 H 609.119 3.55679 2.92966 0
M  V30 6504 H 607.434 3.11118 2.76757 0
M  V30 6505 H 610.031 1.59945 5.10217 0
M  V30 6506 H 610.374 0.169726 4.15954 0
M  V30 6507 H 610.907 1.76168 3.56665 0
M  V30 6508 H 607.646 4.51484 4.75229 0
M  V30 6509 H 607.166 2.87971 5.26149 0
M  V30 6510 H 608.845 3.43009 5.48592 0
M  V30 6511 N 608.977 -1.30795 0.87923 0
M  V30 6512 C 610.225 -1.95974 0.493809 0
M  V30 6513 C 610.546 -1.69787 -0.959021 0
M  V30 6514 O 609.816 -1.01832 -1.67353 0
M  V30 6515 H 608.396 -0.725083 0.179622 0
M  V30 6516 H 611.058 -1.59432 1.12105 0
M  V30 6517 H 610.154 -3.05058 0.659263 0
M  V30 6518 N 610.455 -0.639598 -1.44038 0
M  V30 6519 C 611.704 -0.144885 -2.01179 0
M  V30 6520 C 612.017 1.24372 -1.50967 0
M  V30 6521 O 613.223 1.83291 -2.00292 0
M  V30 6522 C 611.679 -0.208244 -3.59297 0
M  V30 6523 C 611.287 -1.59869 -4.18504 0
M  V30 6524 C 613.031 0.229568 -4.23879 0
M  V30 6525 C 610.938 -1.61671 -5.68873 0
M  V30 6526 H 609.868 -0.0504005 -0.752314 0
M  V30 6527 H 612.519 -0.799639 -1.65161 0
M  V30 6528 H 610.901 0.513767 -3.92653 0
M  V30 6529 H 612.075 -2.34496 -3.96671 0
M  V30 6530 H 610.39 -1.98131 -3.66242 0
M  V30 6531 H 612.987 0.235758 -5.3418 0
M  V30 6532 H 613.33 1.25848 -3.96822 0
M  V30 6533 H 613.863 -0.440233 -3.95357 0
M  V30 6534 H 610.602 -2.62427 -6.00677 0
M  V30 6535 H 610.122 -0.913489 -5.92803 0
M  V30 6536 H 611.801 -1.35439 -6.32665 0
M  V30 6537 N 611.933 1.52934 -0.380664 0
M  V30 6538 C 613.161 2.05886 0.204599 0
M  V30 6539 C 613.576 1.25305 1.41223 0
M  V30 6540 O 612.933 0.297504 1.80059 0
M  V30 6541 C 612.984 3.56764 0.583249 0
M  V30 6542 O 612.705 4.34292 -0.576398 0
M  V30 6543 C 614.206 4.2603 1.2253 0
M  V30 6544 H 611.426 0.670193 0.0328991 0
M  V30 6545 H 613.97 1.97148 -0.543397 0
M  V30 6546 H 612.125 3.65603 1.28115 0
M  V30 6547 H 612.539 5.23819 -0.267119 0
M  V30 6548 H 614.013 5.32868 1.44068 0
M  V30 6549 H 614.49 3.80698 2.19011 0
M  V30 6550 H 615.096 4.21485 0.568407 0
M  V30 6551 N 613.412 0.11024 1.57214 0
M  V30 6552 C 614.658 -0.550684 1.9518 0
M  V30 6553 C 614.991 -1.66885 0.993122 0
M  V30 6554 O 614.266 -1.94479 0.0287907 0
M  V30 6555 C 614.549 -1.09163 3.43155 0
M  V30 6556 C 614.402 0.0225198 4.49794 0
M  V30 6557 C 615.721 -1.98527 3.92778 0
M  V30 6558 H 612.84 -0.198706 0.709708 0
M  V30 6559 H 615.482 0.184024 1.89107 0
M  V30 6560 H 613.632 -1.71775 3.48462 0
M  V30 6561 H 615.304 0.657443 4.56591 0
M  V30 6562 H 613.547 0.686868 4.28328 0
M  V30 6563 H 614.218 -0.39706 5.5057 0
M  V30 6564 H 616.694 -1.458 3.8972 0
M  V30 6565 H 615.57 -2.33298 4.96853 0
M  V30 6566 H 615.831 -2.90846 3.32958 0
M  V30 6567 N 614.89 -1.56749 -0.16351 0
M  V30 6568 C 615.82 -2.00042 -1.20438 0
M  V30 6569 C 616.801 -0.877256 -1.45733 0
M  V30 6570 O 617.986 -1.1439 -1.56935 0
M  V30 6571 C 615.116 -2.36697 -2.54149 0
M  V30 6572 C 614.07 -3.52046 -2.43408 0
M  V30 6573 C 613.396 -3.74466 -3.81679 0
M  V30 6574 C 614.696 -4.85247 -1.93216 0
M  V30 6575 H 616.39 -2.87244 -0.844477 0
M  V30 6576 H 613.936 -1.38194 -0.40478 0
M  V30 6577 H 615.889 -2.65582 -3.27176 0
M  V30 6578 H 614.613 -1.46414 -2.91943 0
M  V30 6579 H 613.272 -3.23301 -1.72834 0
M  V30 6580 H 612.92 -2.81461 -4.1688 0
M  V30 6581 H 612.62 -4.52084 -3.75359 0
M  V30 6582 H 614.144 -4.0576 -4.5628 0
M  V30 6583 H 615.558 -5.12957 -2.56023 0
M  V30 6584 H 613.955 -5.66556 -1.97825 0
M  V30 6585 H 615.025 -4.7672 -0.88689 0
M  V30 6586 N 616.368 0.432326 -1.51554 0
M  V30 6587 C 617.614 1.18309 -1.64714 0
M  V30 6588 C 617.947 1.90745 -0.364696 0
M  V30 6589 O 617.222 1.8381 0.635936 0
M  V30 6590 C 617.505 2.1961 -2.85383 0
M  V30 6591 C 617.358 1.51223 -4.23617 0
M  V30 6592 C 618.677 3.20538 -3.01569 0
M  V30 6593 H 615.796 0.428751 -0.599451 0
M  V30 6594 H 618.438 0.471689 -1.84052 0
M  V30 6595 H 616.588 2.8028 -2.69027 0
M  V30 6596 H 618.26 0.938516 -4.51652 0
M  V30 6597 H 616.503 0.814501 -4.26085 0
M  V30 6598 H 617.174 2.25024 -5.04052 0
M  V30 6599 H 619.65 2.69926 -3.16669 0
M  V30 6600 H 618.526 3.88706 -3.87555 0
M  V30 6601 H 618.787 3.86933 -2.13859 0
M  V30 6602 N 617.846 1.41785 0.688094 0
M  V30 6603 C 619.092 1.41753 1.4503 0
M  V30 6604 C 619.425 0.0290745 1.94178 0
M  V30 6605 O 618.7 -0.944456 1.7003 0
M  V30 6606 C 618.983 2.43069 2.65686 0
M  V30 6607 C 618.836 3.91053 2.22256 0
M  V30 6608 C 620.155 2.41543 3.67893 0
M  V30 6609 H 617.274 0.516202 0.526027 0
M  V30 6610 H 619.916 1.73111 0.783105 0
M  V30 6611 H 618.066 2.1646 3.2261 0
M  V30 6612 H 619.738 4.28594 1.70602 0
M  V30 6613 H 617.981 4.05559 1.53963 0
M  V30 6614 H 618.652 4.57501 3.08863 0
M  V30 6615 H 621.128 2.65175 3.20658 0
M  V30 6616 H 620.004 3.14434 4.49914 0
M  V30 6617 H 620.265 1.43666 4.18106 0
M  V30 6618 N 619.324 -0.923095 1.27737 0
M  V30 6619 C 620.287 -2.00587 1.10894 0
M  V30 6620 C 621.287 -1.60718 0.0514927 0
M  V30 6621 O 622.477 -1.71658 0.296481 0
M  V30 6622 C 619.609 -3.33829 0.690717 0
M  V30 6623 H 620.802 -2.16959 2.07048 0
M  V30 6624 H 618.355 -1.10451 1.1059 0
M  V30 6625 H 619.09 -3.23157 -0.272 0
M  V30 6626 H 618.875 -3.64125 1.45448 0
M  V30 6627 H 620.365 -4.13336 0.595252 0
M  V30 6628 N 620.802 -1.09834 -1.13024 0
M  V30 6629 C 622.048 -0.83819 -1.84668 0
M  V30 6630 C 622.381 0.634645 -1.83537 0
M  V30 6631 O 621.656 1.46753 -1.27647 0
M  V30 6632 C 621.939 -1.37933 -3.32636 0
M  V30 6633 C 621.792 -2.91857 -3.42257 0
M  V30 6634 C 623.111 -1.01654 -4.28199 0
M  V30 6635 H 620.23 -0.30595 -0.670495 0
M  V30 6636 H 622.872 -1.36044 -1.32635 0
M  V30 6637 H 621.022 -0.935111 -3.77078 0
M  V30 6638 H 622.694 -3.44759 -3.06495 0
M  V30 6639 H 620.937 -3.28776 -2.83 0
M  V30 6640 H 621.608 -3.24799 -4.46329 0
M  V30 6641 H 624.084 -1.39973 -3.9185 0
M  V30 6642 H 622.96 -1.42217 -5.30156 0
M  V30 6643 H 623.221 0.0747794 -4.42037 0
M  V30 6644 N 622.28 1.30327 -0.886154 0
M  V30 6645 C 623.691 1.78243 -0.555554 0
M  V30 6646 C 624.042 1.72849 0.928314 0
M  V30 6647 O 623.167 1.30607 1.72542 0
M  V30 6648 C 623.762 3.23654 -1.00168 0
M  V30 6649 C 622.321 3.69401 -0.722471 0
M  V30 6650 C 621.468 2.50753 -1.18399 0
M  V30 6651 H 624.419 1.1718 -1.07026 0
M  V30 6652 H 624.44 3.79056 -0.331152 0
M  V30 6653 H 623.952 3.27548 -2.08169 0
M  V30 6654 H 622.053 3.70995 0.345496 0
M  V30 6655 H 622.166 4.60818 -1.31085 0
M  V30 6656 H 620.53 2.47452 -0.603303 0
M  V30 6657 H 621.313 2.57383 -2.27176 0
M  V30 6658 N 623.758 0.647228 1.43697 0
M  V30 6659 C 624.668 -0.0487997 2.34549 0
M  V30 6660 C 625.684 -0.818586 1.53542 0
M  V30 6661 O 626.86 -0.767195 1.86215 0
M  V30 6662 C 623.925 -1.00734 3.31743 0
M  V30 6663 C 622.986 -0.23515 4.28655 0
M  V30 6664 C 622.219 -1.14803 5.21206 0
M  V30 6665 O 622.442 -2.38717 5.18045 0
M  V30 6666 O 621.376 -0.623667 5.9866 0
M  V30 6667 H 625.202 0.698863 2.9555 0
M  V30 6668 H 622.787 0.407412 1.43738 0
M  V30 6669 H 624.669 -1.55837 3.91526 0
M  V30 6670 H 623.344 -1.73534 2.73254 0
M  V30 6671 H 622.251 0.359319 3.7237 0
M  V30 6672 H 623.584 0.453152 4.9011 0
M  V30 6673 N 625.236 -1.5273 0.388769 0
M  V30 6674 C 626.484 -2.01174 -0.193208 0
M  V30 6675 C 626.805 -1.27705 -1.47365 0
M  V30 6676 O 626.075 -0.396966 -1.91836 0
M  V30 6677 H 624.655 -0.743287 -0.0743871 0
M  V30 6678 H 627.317 -1.87826 0.520336 0
M  V30 6679 H 626.413 -3.09477 -0.403803 0
M  V30 6680 N 626.714 -0.118576 -1.57153 0
M  V30 6681 C 627.644 0.828436 -2.1831 0
M  V30 6682 C 628.625 1.27758 -1.12303 0
M  V30 6683 O 629.81 1.34026 -1.40537 0
M  V30 6684 C 626.94 2.07876 -2.78217 0
M  V30 6685 C 625.894 1.76742 -3.89803 0
M  V30 6686 C 625.22 3.08801 -4.36516 0
M  V30 6687 C 626.52 1.03606 -5.11921 0
M  V30 6688 H 628.214 0.318824 -2.97698 0
M  V30 6689 H 625.76 0.151911 -1.43196 0
M  V30 6690 H 627.713 2.74584 -3.19659 0
M  V30 6691 H 626.437 2.61161 -1.96118 0
M  V30 6692 H 625.096 1.12424 -3.48936 0
M  V30 6693 H 624.744 3.6002 -3.51276 0
M  V30 6694 H 624.444 2.88743 -5.11763 0
M  V30 6695 H 625.968 3.76627 -4.80608 0
M  V30 6696 H 627.382 1.60467 -5.50385 0
M  V30 6697 H 625.779 0.936454 -5.92748 0
M  V30 6698 H 626.849 0.0227421 -4.84895 0
M  V30 6699 N 628.193 1.56834 0.155195 0
M  V30 6700 C 629.604 1.72421 0.716082 0
M  V30 6701 C 629.955 0.731685 1.82046 0
M  V30 6702 O 629.08 -0.103481 2.16152 0
M  V30 6703 C 629.675 3.12629 1.30571 0
M  V30 6704 C 628.234 3.29846 1.81325 0
M  V30 6705 C 627.381 2.68359 0.698494 0
M  V30 6706 H 630.332 1.58544 -0.0703861 0
M  V30 6707 H 630.353 3.12174 2.1755 0
M  V30 6708 H 629.865 3.84844 0.501701 0
M  V30 6709 H 627.966 2.62614 2.64319 0
M  V30 6710 H 628.079 4.37727 1.9476 0
M  V30 6711 H 626.443 2.28604 1.12305 0
M  V30 6712 H 627.226 3.43171 -0.0939366 0
M  V30 6713 N 629.671 -0.424282 1.51781 0
M  V30 6714 C 630.601 -1.52305 1.7699 0
M  V30 6715 C 631.582 -1.5839 0.620209 0
M  V30 6716 O 632.767 -1.73908 0.864268 0
M  V30 6717 C 629.897 -2.90271 1.90683 0
M  V30 6718 C 628.851 -2.99043 3.06198 0
M  V30 6719 C 628.177 -4.39116 3.05092 0
M  V30 6720 C 629.477 -2.7192 4.45934 0
M  V30 6721 H 631.171 -1.31461 2.68995 0
M  V30 6722 H 628.717 -0.630985 1.29439 0
M  V30 6723 H 630.67 -3.6711 2.06901 0
M  V30 6724 H 629.394 -3.12376 0.953365 0
M  V30 6725 H 628.053 -2.24646 2.89706 0
M  V30 6726 H 627.701 -4.58207 2.07498 0
M  V30 6727 H 627.401 -4.45912 3.82669 0
M  V30 6728 H 628.925 -5.17911 3.2342 0
M  V30 6729 H 630.339 -3.38487 4.62709 0
M  V30 6730 H 628.736 -2.90111 5.25315 0
M  V30 6731 H 629.806 -1.67445 4.55072 0
M  V30 6732 N 631.149 -1.42148 -0.680565 0
M  V30 6733 C 632.112 -1.4488 -1.77602 0
M  V30 6734 C 633.112 -0.337209 -1.57224 0
M  V30 6735 O 634.302 -0.597778 -1.63622 0
M  V30 6736 C 631.434 -1.27483 -3.16166 0
M  V30 6737 H 632.627 -2.42412 -1.76568 0
M  V30 6738 H 630.18 -1.28511 -0.889645 0
M  V30 6739 H 630.915 -0.30851 -3.22829 0
M  V30 6740 H 630.7 -2.08037 -3.3236 0
M  V30 6741 H 632.19 -1.32265 -3.96101 0
M  V30 6742 N 632.627 0.916307 -1.28225 0
M  V30 6743 C 633.873 1.66765 -1.154 0
M  V30 6744 C 634.206 1.91912 0.297251 0
M  V30 6745 O 633.481 1.51766 1.21644 0
M  V30 6746 C 633.764 3.02715 -1.95028 0
M  V30 6747 C 633.617 2.84738 -3.48201 0
M  V30 6748 C 634.936 4.03215 -1.76369 0
M  V30 6749 H 632.055 0.605205 -0.42059 0
M  V30 6750 H 634.697 1.06255 -1.57512 0
M  V30 6751 H 632.847 3.54365 -1.59242 0
M  V30 6752 H 634.519 2.40118 -3.9388 0
M  V30 6753 H 632.762 2.19848 -3.73964 0
M  V30 6754 H 633.433 3.8127 -3.99171 0
M  V30 6755 H 635.909 3.60617 -2.07593 0
M  V30 6756 H 634.785 4.96306 -2.34459 0
M  V30 6757 H 635.046 4.36288 -0.71452 0
M  V30 6758 N 634.105 1.10431 1.1244 0
M  V30 6759 C 635.333 0.868872 1.87772 0
M  V30 6760 C 635.748 -0.580645 1.7965 0
M  V30 6761 O 635.105 -1.40031 1.17036 0
M  V30 6762 C 635.156 1.30855 3.36986 0
M  V30 6763 O 634.877 2.70123 3.44914 0
M  V30 6764 C 636.378 1.107 4.29256 0
M  V30 6765 H 633.598 0.311868 0.59412 0
M  V30 6766 H 636.142 1.46897 1.42273 0
M  V30 6767 H 634.297 0.752126 3.80029 0
M  V30 6768 H 634.711 2.88923 4.37748 0
M  V30 6769 H 636.185 1.46378 5.32238 0
M  V30 6770 H 636.662 0.0456228 4.39176 0
M  V30 6771 H 637.268 1.64988 3.91994 0
M  V30 6772 N 635.583 -1.29855 0.893053 0
M  V30 6773 C 636.832 -1.95104 0.511597 0
M  V30 6774 C 637.145 -1.71226 -0.945567 0
M  V30 6775 O 638.351 -2.30525 -1.43424 0
M  V30 6776 C 636.807 -3.49374 0.864034 0
M  V30 6777 C 636.415 -3.82061 2.33952 0
M  V30 6778 C 638.159 -4.20894 0.552167 0
M  V30 6779 C 636.066 -5.29546 2.63316 0
M  V30 6780 H 634.996 -0.73029 0.187597 0
M  V30 6781 H 637.647 -1.47682 1.08914 0
M  V30 6782 H 636.029 -3.95413 0.215493 0
M  V30 6783 H 637.203 -3.46904 3.03305 0
M  V30 6784 H 635.518 -3.23665 2.61973 0
M  V30 6785 H 638.115 -5.29435 0.748489 0
M  V30 6786 H 638.458 -4.13178 -0.508924 0
M  V30 6787 H 638.991 -3.80564 1.15825 0
M  V30 6788 H 635.73 -5.4232 3.68197 0
M  V30 6789 H 635.25 -5.65974 1.9858 0
M  V30 6790 H 636.929 -5.97068 2.49236 0
M  V30 6791 N 637.061 -0.65484 -1.43351 0
M  V30 6792 C 638.286 -0.175046 -2.0666 0
M  V30 6793 C 638.711 1.15104 -1.4877 0
M  V30 6794 O 638.069 1.71144 -0.598279 0
M  V30 6795 C 638.117 -0.0991544 -3.60464 0
M  V30 6796 O 637.221 0.938169 -4.01587 0
M  V30 6797 H 636.562 -0.0956148 -0.65708 0
M  V30 6798 H 639.092 -0.898222 -1.83829 0
M  V30 6799 H 639.102 0.083632 -4.07914 0
M  V30 6800 H 637.777 -1.06719 -4.01975 0
M  V30 6801 H 636.354 0.72804 -3.65724 0
M  V30 6802 N 638.539 1.52521 -0.396863 0
M  V30 6803 C 639.469 2.29582 0.425941 0
M  V30 6804 C 640.45 1.33281 1.05689 0
M  V30 6805 O 641.635 1.62181 1.06823 0
M  V30 6806 C 638.765 3.10821 1.54943 0
M  V30 6807 C 637.719 4.15069 1.04413 0
M  V30 6808 C 637.045 4.84578 2.26028 0
M  V30 6809 C 638.345 5.22191 0.106767 0
M  V30 6810 H 640.039 2.98612 -0.217045 0
M  V30 6811 H 637.585 1.43611 -0.105826 0
M  V30 6812 H 639.538 3.63492 2.13193 0
M  V30 6813 H 638.262 2.39538 2.22011 0
M  V30 6814 H 636.921 3.63389 0.484118 0
M  V30 6815 H 636.569 4.09835 2.91623 0
M  V30 6816 H 636.269 5.55043 1.92876 0
M  V30 6817 H 637.793 5.40056 2.84906 0
M  V30 6818 H 639.207 5.70176 0.597685 0
M  V30 6819 H 637.604 5.99947 -0.135352 0
M  V30 6820 H 638.674 4.77531 -0.842134 0
M  V30 6821 N 640.017 0.126909 1.57088 0
M  V30 6822 C 640.98 -0.806097 2.14557 0
M  V30 6823 C 641.98 -1.18918 1.08236 0
M  V30 6824 O 643.17 -1.11339 1.33975 0
M  V30 6825 C 640.302 -2.09116 2.69227 0
M  V30 6826 H 641.495 -0.306522 2.98329 0
M  V30 6827 H 639.048 -0.122393 1.5582 0
M  V30 6828 H 639.783 -2.63486 1.89065 0
M  V30 6829 H 639.568 -1.82588 3.46993 0
M  V30 6830 H 641.058 -2.75794 3.13572 0
M  V30 6831 N 641.495 -1.56914 -0.146875 0
M  V30 6832 C 642.725 -1.87243 -0.873126 0
M  V30 6833 C 643.133 -0.713127 -1.75246 0
M  V30 6834 O 642.476 0.326228 -1.8078 0
M  V30 6835 C 642.538 -3.12279 -1.78107 0
M  V30 6836 C 642.202 -4.44082 -1.07889 0
M  V30 6837 C 643.199 -5.18096 -0.432734 0
M  V30 6838 C 640.884 -4.90807 -1.06836 0
M  V30 6839 C 642.878 -6.37039 0.214569 0
M  V30 6840 C 640.565 -6.09674 -0.417243 0
M  V30 6841 C 641.563 -6.82636 0.223093 0
M  V30 6842 O 641.251 -7.99245 0.863884 0
M  V30 6843 H 640.983 -0.624896 -0.257839 0
M  V30 6844 H 643.537 -2.04892 -0.14434 0
M  V30 6845 H 641.767 -2.90639 -2.5508 0
M  V30 6846 H 643.456 -3.28854 -2.37929 0
M  V30 6847 H 644.222 -4.83066 -0.432677 0
M  V30 6848 H 640.101 -4.3394 -1.55618 0
M  V30 6849 H 643.645 -6.93927 0.714965 0
M  V30 6850 H 639.542 -6.44165 -0.414967 0
M  V30 6851 H 640.31 -8.14912 0.765564 0
M  V30 6852 N 642.974 0.416227 -1.52004 0
M  V30 6853 C 644.199 1.19029 -1.69843 0
M  V30 6854 C 644.624 1.83708 -0.404103 0
M  V30 6855 O 643.982 1.69711 0.637787 0
M  V30 6856 C 644.03 2.23439 -2.83032 0
M  V30 6857 O 643.134 3.29419 -2.48106 0
M  V30 6858 H 642.475 0.347785 -0.565634 0
M  V30 6859 H 645.005 0.488871 -1.98674 0
M  V30 6860 H 645.015 2.67884 -3.07737 0
M  V30 6861 H 643.69 1.75745 -3.76944 0
M  V30 6862 H 642.267 2.90303 -2.34048 0
M  V30 6863 N 644.452 1.42507 0.673017 0
M  V30 6864 C 645.698 1.43284 1.43519 0
M  V30 6865 C 646.031 0.049668 1.94136 0
M  V30 6866 O 645.306 -0.926369 1.71022 0
M  V30 6867 C 645.589 2.45874 2.63093 0
M  V30 6868 C 645.442 3.93388 2.18096 0
M  V30 6869 C 646.761 2.45431 3.6531 0
M  V30 6870 H 643.88 0.521752 0.520522 0
M  V30 6871 H 646.522 1.73932 0.764701 0
M  V30 6872 H 644.672 2.19869 3.20296 0
M  V30 6873 H 646.344 4.30379 1.66046 0
M  V30 6874 H 644.587 4.07169 1.49652 0
M  V30 6875 H 645.258 4.60752 3.03993 0
M  V30 6876 H 647.734 2.68561 3.17827 0
M  V30 6877 H 646.61 3.19189 4.46553 0
M  V30 6878 H 646.871 1.48092 4.16559 0
M  V30 6879 N 645.93 -0.909495 1.28709 0
M  V30 6880 C 646.877 -2.01245 1.13 0
M  V30 6881 C 647.847 -1.6608 0.0259684 0
M  V30 6882 O 649.032 -1.89835 0.191687 0
M  V30 6883 C 646.172 -3.35644 0.802315 0
M  V30 6884 C 645.285 -3.83653 1.98582 0
M  V30 6885 C 644.42 -5.06582 1.59837 0
M  V30 6886 C 643.459 -5.46934 2.74827 0
M  V30 6887 N 642.596 -6.61053 2.36546 0
M  V30 6888 H 647.436 -2.14013 2.0737 0
M  V30 6889 H 644.973 -1.0482 1.03205 0
M  V30 6890 H 646.931 -4.12963 0.593057 0
M  V30 6891 H 645.561 -3.22631 -0.104457 0
M  V30 6892 H 644.613 -3.02454 2.30708 0
M  V30 6893 H 645.925 -4.09515 2.84779 0
M  V30 6894 H 645.079 -5.91457 1.35143 0
M  V30 6895 H 643.818 -4.82537 0.707753 0
M  V30 6896 H 642.823 -4.60599 3.00215 0
M  V30 6897 H 644.048 -5.72965 3.64538 0
M  V30 6898 H 641.994 -6.3863 1.49959 0
M  V30 6899 H 641.911 -6.86662 3.16277 0
M  V30 6900 H 643.179 -7.49221 2.15146 0
M  V30 6901 N 647.408 -1.11026 -1.11852 0
M  V30 6902 C 648.355 -0.764662 -2.17765 0
M  V30 6903 C 649.325 0.261854 -1.64023 0
M  V30 6904 O 650.51 0.139748 -1.90288 0
M  V30 6905 C 647.65 -0.209317 -3.44465 0
M  V30 6906 C 646.763 -1.29187 -4.12231 0
M  V30 6907 C 645.898 -0.697523 -5.266 0
M  V30 6908 C 644.937 -1.76023 -5.86244 0
M  V30 6909 N 644.074 -1.18569 -6.92016 0
M  V30 6910 H 648.914 -1.67202 -2.46673 0
M  V30 6911 H 646.451 -0.835065 -1.21099 0
M  V30 6912 H 648.409 0.130599 -4.16996 0
M  V30 6913 H 647.039 0.661251 -3.15955 0
M  V30 6914 H 646.091 -1.74881 -3.37818 0
M  V30 6915 H 647.403 -2.09607 -4.52622 0
M  V30 6916 H 646.557 -0.307412 -6.05921 0
M  V30 6917 H 645.296 0.138044 -4.87505 0
M  V30 6918 H 644.301 -2.1597 -5.05606 0
M  V30 6919 H 645.526 -2.59875 -6.27409 0
M  V30 6920 H 643.472 -0.371695 -6.54946 0
M  V30 6921 H 643.389 -1.92666 -7.31038 0
M  V30 6922 H 644.657 -0.82233 -7.7515 0
M  V30 6923 N 648.886 1.2938 -0.899927 0
M  V30 6924 C 649.819 2.25911 -0.322386 0
M  V30 6925 C 650.797 1.52447 0.565567 0
M  V30 6926 O 651.981 1.81404 0.512324 0
M  V30 6927 C 649.108 3.3436 0.540455 0
M  V30 6928 C 648.154 4.25579 -0.280211 0
M  V30 6929 S 648.987 5.08526 -1.67814 0
M  V30 6930 C 650.143 6.20476 -0.822224 0
M  V30 6931 H 650.376 2.7455 -1.1406 0
M  V30 6932 H 647.909 1.37606 -0.700285 0
M  V30 6933 H 649.867 3.97303 1.0325 0
M  V30 6934 H 648.528 2.84416 1.33291 0
M  V30 6935 H 647.721 5.02574 0.378915 0
M  V30 6936 H 647.323 3.67287 -0.705405 0
M  V30 6937 H 649.615 6.77485 -0.0457138 0
M  V30 6938 H 650.558 6.90606 -1.56426 0
M  V30 6939 H 650.966 5.63243 -0.37651 0
M  V30 6940 N 650.364 0.662433 1.43002 0
M  V30 6941 C 651.297 -0.073459 2.28082 0
M  V30 6942 C 652.275 -0.820869 1.40358 0
M  V30 6943 O 653.459 -0.818545 1.698 0
M  V30 6944 C 650.586 -1.11097 3.19961 0
M  V30 6945 C 649.632 -0.460557 4.24006 0
M  V30 6946 S 650.465 0.772717 5.29896 0
M  V30 6947 C 651.621 -0.264028 6.25343 0
M  V30 6948 H 651.854 0.648227 2.90147 0
M  V30 6949 H 649.387 0.451566 1.47649 0
M  V30 6950 H 651.345 -1.70452 3.73439 0
M  V30 6951 H 650.006 -1.80503 2.57056 0
M  V30 6952 H 649.199 -1.24299 4.88432 0
M  V30 6953 H 648.801 0.0591038 3.73953 0
M  V30 6954 H 651.093 -1.12748 6.68052 0
M  V30 6955 H 652.036 0.345443 7.07257 0
M  V30 6956 H 652.444 -0.603964 5.6126 0
M  V30 6957 N 651.842 -1.52309 0.404946 0
M  V30 6958 C 652.789 -2.26898 -0.422597 0
M  V30 6959 C 653.759 -1.2914 -1.04461 0
M  V30 6960 O 654.944 -1.57996 -1.06967 0
M  V30 6961 C 652.084 -3.09053 -1.53559 0
M  V30 6962 C 651.197 -4.21762 -0.934908 0
M  V30 6963 C 650.332 -4.91283 -2.02025 0
M  V30 6964 C 649.371 -5.95962 -1.39628 0
M  V30 6965 N 648.508 -6.59017 -2.42159 0
M  V30 6966 H 653.348 -2.97188 0.219903 0
M  V30 6967 H 650.885 -1.46607 0.120282 0
M  V30 6968 H 652.843 -3.54987 -2.19181 0
M  V30 6969 H 651.473 -2.40942 -2.14818 0
M  V30 6970 H 650.525 -3.80029 -0.167854 0
M  V30 6971 H 651.837 -4.96864 -0.439073 0
M  V30 6972 H 650.991 -5.40601 -2.75383 0
M  V30 6973 H 649.73 -4.15741 -2.54973 0
M  V30 6974 H 648.735 -5.45968 -0.648023 0
M  V30 6975 H 649.96 -6.73445 -0.874553 0
M  V30 6976 H 647.906 -5.86306 -2.94247 0
M  V30 6977 H 647.823 -7.2978 -1.97376 0
M  V30 6978 H 649.091 -7.12974 -3.15099 0
M  V30 6979 N 653.32 -0.135238 -1.57019 0
M  V30 6980 C 654.597 0.563227 -1.87316 0
M  V30 6981 C 654.977 1.83749 -1.03921 0
M  V30 6982 O 654.325 2.2817 -0.122675 0
M  V30 6983 C 654.535 0.840031 -3.3874 0
M  V30 6984 C 655.883 1.18598 -4.077 0
M  V30 6985 O 656.907 0.92977 -3.43851 0
M  V30 6986 O 655.766 1.66758 -5.20436 0
M  V30 6987 H 652.86 0.285971 -0.775983 0
M  V30 6988 H 655.406 -0.170965 -1.68837 0
M  V30 6989 H 654.178 -0.0622785 -3.9125 0
M  V30 6990 H 653.801 1.62882 -3.62706 0
M  V30 6991 N 654.798 1.5699 0.138552 0
M  V30 6992 C 655.746 1.99858 1.18994 0
M  V30 6993 C 656.74 0.89231 1.43994 0
M  V30 6994 O 657.946 1.0775 1.44187 0
M  V30 6995 H 654.321 0.636325 0.400743 0
M  V30 6996 H 656.292 2.87427 0.801755 0
M  V30 6997 C 655.041 2.40235 2.51361 0
M  V30 6998 H 654.364 3.24917 2.32957 0
M  V30 6999 H 655.804 2.74045 3.23535 0
M  V30 7000 C 654.263 1.25829 3.1252 0
M  V30 7001 O 654.793 0.563604 3.97727 0
M  V30 7002 N 652.999 1.02036 2.72097 0
M  V30 7003 H 652.546 1.58705 2.02905 0
M  V30 7004 H 652.504 0.256796 3.1335 0
M  V30 7005 N 656.276 -0.40816 1.52223 0
M  V30 7006 C 657.224 -1.51788 1.76248 0
M  V30 7007 C 658.218 -1.57264 0.629638 0
M  V30 7008 O 659.424 -1.60659 0.811704 0
M  V30 7009 H 655.799 -0.504823 0.557367 0
M  V30 7010 H 657.77 -1.2871 2.69214 0
M  V30 7011 C 656.519 -2.89145 1.93107 0
M  V30 7012 H 655.842 -2.85674 2.79697 0
M  V30 7013 H 657.282 -3.66082 2.13916 0
M  V30 7014 C 655.741 -3.29581 0.698431 0
M  V30 7015 O 656.271 -4.01479 -0.133238 0
M  V30 7016 N 654.477 -2.85651 0.53405 0
M  V30 7017 H 654.024 -2.2731 1.21194 0
M  V30 7018 H 653.982 -3.13065 -0.289387 0
M  V30 7019 N 657.755 -1.42862 -0.66545 0
M  V30 7020 C 658.685 -1.49867 -1.79059 0
M  V30 7021 C 659.666 -0.354394 -1.66367 0
M  V30 7022 O 660.851 -0.569969 -1.85647 0
M  V30 7023 C 657.981 -1.40943 -3.17415 0
M  V30 7024 C 656.935 -2.53495 -3.44854 0
M  V30 7025 C 656.261 -2.29626 -4.82883 0
M  V30 7026 C 657.561 -3.95781 -3.40815 0
M  V30 7027 H 659.255 -2.44037 -1.73453 0
M  V30 7028 H 656.801 -1.17456 -0.833071 0
M  V30 7029 H 658.754 -1.4445 -3.95869 0
M  V30 7030 H 657.478 -0.432716 -3.23721 0
M  V30 7031 H 656.137 -2.4932 -2.68766 0
M  V30 7032 H 655.785 -1.30226 -4.8585 0
M  V30 7033 H 655.485 -3.05065 -5.02204 0
M  V30 7034 H 657.009 -2.34897 -5.63609 0
M  V30 7035 H 658.423 -4.01508 -4.09224 0
M  V30 7036 H 656.82 -4.71148 -3.71672 0
M  V30 7037 H 657.89 -4.21786 -2.39216 0
M  V30 7038 N 659.233 0.902656 -1.29189 0
M  V30 7039 C 660.479 1.65532 -1.17163 0
M  V30 7040 C 660.812 1.92216 0.276879 0
M  V30 7041 O 660.087 1.53048 1.20027 0
M  V30 7042 C 660.37 3.00629 -1.98228 0
M  V30 7043 C 660.223 2.81029 -3.51202 0
M  V30 7044 C 661.542 4.01321 -1.80635 0
M  V30 7045 H 658.661 0.60071 -0.426985 0
M  V30 7046 H 661.303 1.04578 -1.5863 0
M  V30 7047 H 659.453 3.52656 -1.62991 0
M  V30 7048 H 661.125 2.35927 -3.96404 0
M  V30 7049 H 659.368 2.1587 -3.76275 0
M  V30 7050 H 660.039 3.77014 -4.03192 0
M  V30 7051 H 662.515 3.58394 -2.11406 0
M  V30 7052 H 661.391 4.93792 -2.3971 0
M  V30 7053 H 661.652 4.35505 -0.760754 0
M  V30 7054 N 660.711 1.11618 1.11262 0
M  V30 7055 C 662.127 0.850468 1.35053 0
M  V30 7056 C 662.327 -0.523868 1.94571 0
M  V30 7057 O 661.383 -1.2743 2.17986 0
M  V30 7058 C 662.696 1.96005 2.28041 0
M  V30 7059 C 664.244 1.98993 2.416 0
M  V30 7060 C 664.719 3.0916 3.37911 0
M  V30 7061 N 666.21 3.08547 3.45475 0
M  V30 7062 C 666.945 3.9043 4.19943 0
M  V30 7063 N 666.441 4.8228 4.97371 0
M  V30 7064 N 668.234 3.786 4.15474 0
M  V30 7065 H 660.385 2.00184 0.709932 0
M  V30 7066 H 662.648 0.870635 0.375099 0
M  V30 7067 H 662.354 2.9499 1.91503 0
M  V30 7068 H 662.228 1.85782 3.28275 0
M  V30 7069 H 664.615 1.00633 2.77411 0
M  V30 7070 H 664.696 2.13292 1.4121 0
M  V30 7071 H 664.34 4.07748 3.02827 0
M  V30 7072 H 664.27 2.92102 4.3816 0
M  V30 7073 H 666.761 2.42 2.90249 0
M  V30 7074 H 667.074 5.41289 5.51567 0
M  V30 7075 H 665.419 4.863 4.96525 0
M  V30 7076 H 668.61 3.06185 3.54074 0
M  V30 7077 H 668.783 4.42647 4.73253 0
M  V30 7078 N 662.189 -1.289 0.906776 0
M  V30 7079 C 663.139 -2.25122 0.361109 0
M  V30 7080 C 664.123 -1.52169 -0.52283 0
M  V30 7081 O 665.315 -1.73223 -0.363691 0
M  V30 7082 C 662.444 -3.40915 -0.403982 0
M  V30 7083 C 661.53 -4.21198 0.495279 0
M  V30 7084 N 661.921 -4.79636 1.60572 0
M  V30 7085 C 660.219 -4.45027 0.294372 0
M  V30 7086 C 660.92 -5.39977 2.16332 0
M  V30 7087 N 659.896 -5.23753 1.45546 0
M  V30 7088 H 663.698 -2.67869 1.20927 0
M  V30 7089 H 661.212 -1.43592 0.758632 0
M  V30 7090 H 663.209 -4.08922 -0.811695 0
M  V30 7091 H 661.869 -2.99703 -1.24932 0
M  V30 7092 H 662.88 -4.78209 1.98838 0
M  V30 7093 H 659.557 -4.14348 -0.512021 0
M  V30 7094 H 660.947 -5.96266 3.09704 0
M  V30 7095 N 663.667 -0.670007 -1.42649 0
M  V30 7096 C 664.597 -0.00258501 -2.335 0
M  V30 7097 C 665.578 0.794364 -1.50412 0
M  V30 7098 O 666.763 0.75248 -1.79029 0
M  V30 7099 C 663.893 0.952748 -3.33976 0
M  V30 7100 C 662.847 0.264733 -4.2718 0
M  V30 7101 C 662.173 1.33267 -5.17826 0
M  V30 7102 C 663.473 -0.853289 -5.15283 0
M  V30 7103 H 665.167 -0.761326 -2.89559 0
M  V30 7104 H 662.713 -0.367561 -1.3923 0
M  V30 7105 H 664.666 1.4287 -3.96442 0
M  V30 7106 H 663.39 1.74285 -2.7621 0
M  V30 7107 H 662.049 -0.190938 -3.66102 0
M  V30 7108 H 661.697 2.11464 -4.5639 0
M  V30 7109 H 661.397 0.877476 -5.81011 0
M  V30 7110 H 662.921 1.80965 -5.83167 0
M  V30 7111 H 664.335 -0.458763 -5.71462 0
M  V30 7112 H 662.732 -1.23398 -5.87276 0
M  V30 7113 H 663.802 -1.70412 -4.53969 0
M  V30 7114 N 665.145 1.52092 -0.413018 0
M  V30 7115 C 666.422 1.94356 0.22024 0
M  V30 7116 C 666.802 1.35017 1.62277 0
M  V30 7117 O 666.15 0.527511 2.22328 0
M  V30 7118 C 666.36 3.48289 0.222638 0
M  V30 7119 C 667.708 4.22313 0.440098 0
M  V30 7120 O 668.732 3.54919 0.301826 0
M  V30 7121 O 667.591 5.41829 0.712984 0
M  V30 7122 H 664.685 0.814536 0.14304 0
M  V30 7123 H 667.231 1.63083 -0.469242 0
M  V30 7124 H 666.003 3.83872 -0.758836 0
M  V30 7125 H 665.626 3.85934 0.956057 0
M  V30 7126 N 666.623 0.143563 1.56945 0
M  V30 7127 C 667.586 -0.783295 2.154 0
M  V30 7128 C 668.586 -1.17763 1.09492 0
M  V30 7129 O 669.776 -1.09912 1.35148 0
M  V30 7130 C 666.908 -2.06248 2.7143 0
M  V30 7131 H 668.101 -0.274863 2.98638 0
M  V30 7132 H 665.654 -0.105859 1.55941 0
M  V30 7133 H 666.389 -2.61466 1.91849 0
M  V30 7134 H 666.174 -1.78897 3.4891 0
M  V30 7135 H 667.664 -2.72453 3.16479 0
M  V30 7136 N 668.101 -1.57061 -0.130224 0
M  V30 7137 C 669.341 -1.86071 -0.845993 0
M  V30 7138 C 669.705 -0.73009 -1.77577 0
M  V30 7139 O 670.906 -0.901663 -2.53226 0
M  V30 7140 C 669.177 -3.20293 -1.58579 0
M  V30 7141 S 670.736 -3.70905 -2.34467 0
M  V30 7142 H 667.554 -0.652434 -0.282579 0
M  V30 7143 H 670.156 -1.95218 -0.10498 0
M  V30 7144 H 668.86 -4.00533 -0.894509 0
M  V30 7145 H 668.391 -3.14195 -2.36739 0
M  V30 7146 H 670.406 -3.41509 -3.59981 0
M  V30 7147 N 669.579 0.400081 -1.52437 0
M  V30 7148 C 670.489 1.51253 -1.79331 0
M  V30 7149 C 671.505 1.60188 -0.679396 0
M  V30 7150 O 672.681 1.76733 -0.965791 0
M  V30 7151 C 669.746 2.869 -1.94652 0
M  V30 7152 C 668.807 2.87777 -3.18564 0
M  V30 7153 C 668.04 4.16954 -3.33145 0
M  V30 7154 O 668.263 5.11329 -2.52783 0
M  V30 7155 O 667.197 4.2487 -4.26343 0
M  V30 7156 H 671.023 1.31461 -2.73773 0
M  V30 7157 H 668.608 0.586834 -1.37392 0
M  V30 7158 H 670.49 3.67336 -2.065 0
M  V30 7159 H 669.165 3.06741 -1.034 0
M  V30 7160 H 668.072 2.06162 -3.12167 0
M  V30 7161 H 669.405 2.72886 -4.09627 0
M  V30 7162 N 671.057 1.43213 0.657864 0
M  V30 7163 C 672.285 1.48015 1.44566 0
M  V30 7164 C 672.7 0.0965951 1.88553 0
M  V30 7165 O 672.057 -0.892221 1.59203 0
M  V30 7166 C 672.108 2.42199 2.68369 0
M  V30 7167 O 671.829 3.75173 2.26223 0
M  V30 7168 C 673.33 2.56195 3.61772 0
M  V30 7169 H 670.55 0.502861 0.444266 0
M  V30 7170 H 673.094 1.87907 0.806917 0
M  V30 7171 H 671.249 2.05514 3.28394 0
M  V30 7172 H 671.663 4.25776 3.06293 0
M  V30 7173 H 673.137 3.26182 4.4532 0
M  V30 7174 H 673.614 1.60534 4.0881 0
M  V30 7175 H 674.22 2.93671 3.07632 0
M  V30 7176 N 672.536 -0.895792 1.29666 0
M  V30 7177 C 673.469 -2.00238 1.09453 0
M  V30 7178 C 674.447 -1.62599 0.00527044 0
M  V30 7179 O 675.631 -1.87847 0.156729 0
M  V30 7180 C 672.758 -3.32066 0.667054 0
M  V30 7181 C 671.804 -3.88691 1.7556 0
M  V30 7182 S 672.637 -4.17317 3.35569 0
M  V30 7183 C 673.793 -5.52181 2.94698 0
M  V30 7184 H 674.026 -2.17076 2.03138 0
M  V30 7185 H 671.559 -1.04287 1.13858 0
M  V30 7186 H 673.517 -4.08272 0.427136 0
M  V30 7187 H 672.178 -3.13101 -0.250256 0
M  V30 7188 H 671.371 -4.83918 1.40853 0
M  V30 7189 H 670.973 -3.19187 1.94924 0
M  V30 7190 H 673.265 -6.3281 2.41986 0
M  V30 7191 H 674.208 -5.91817 3.88791 0
M  V30 7192 H 674.616 -5.14225 2.32879 0
M  V30 7193 N 674.014 -1.12206 -1.10668 0
M  V30 7194 C 675.262 -0.874144 -1.82217 0
M  V30 7195 C 675.583 0.601736 -1.85484 0
M  V30 7196 O 674.853 1.43725 -1.33116 0
M  V30 7197 H 673.433 -0.320404 -0.674797 0
M  V30 7198 H 676.095 -1.41606 -1.33917 0
M  V30 7199 H 675.191 -1.25349 -2.85822 0
M  V30 7200 N 675.492 1.28418 -0.913599 0
M  V30 7201 C 676.44 2.29272 -0.392037 0
M  V30 7202 C 677.434 1.61344 0.516198 0
M  V30 7203 O 678.64 1.75557 0.39746 0
M  V30 7204 H 675.015 0.744178 -0.108178 0
M  V30 7205 H 676.986 2.70691 -1.25574 0
M  V30 7206 C 675.735 3.45905 0.352815 0
M  V30 7207 H 675.058 3.98378 -0.336848 0
M  V30 7208 H 676.498 4.18473 0.682398 0
M  V30 7209 C 674.957 2.98572 1.56065 0
M  V30 7210 O 675.487 3.01033 2.65974 0
M  V30 7211 N 673.693 2.54235 1.40759 0
M  V30 7212 H 673.24 2.52432 0.513403 0
M  V30 7213 H 673.198 2.22925 2.21702 0
M  V30 7214 N 676.97 0.677563 1.42291 0
M  V30 7215 C 677.933 0.0101085 2.29198 0
M  V30 7216 C 678.933 -0.726219 1.43467 0
M  V30 7217 O 680.123 -0.563807 1.64824 0
M  V30 7218 C 677.255 -0.996316 3.26016 0
M  V30 7219 H 678.448 0.775071 2.89711 0
M  V30 7220 H 676.001 0.440065 1.49977 0
M  V30 7221 H 676.736 -1.78967 2.70446 0
M  V30 7222 H 676.521 -0.471687 3.89253 0
M  V30 7223 H 678.011 -1.46167 3.91184 0
M  V30 7224 N 678.448 -1.51871 0.421078 0
M  V30 7225 C 679.676 -2.06356 -0.14994 0
M  V30 7226 C 680.091 -1.29006 -1.37851 0
M  V30 7227 O 679.448 -0.345139 -1.79207 0
M  V30 7228 C 679.499 -3.58185 -0.488454 0
M  V30 7229 O 679.22 -4.32611 0.691341 0
M  V30 7230 C 680.721 -4.29129 -1.11191 0
M  V30 7231 H 677.941 -0.67083 -0.0151186 0
M  V30 7232 H 680.485 -1.95638 0.595476 0
M  V30 7233 H 678.64 -3.68871 -1.18376 0
M  V30 7234 H 679.054 -5.22927 0.405906 0
M  V30 7235 H 680.528 -5.36501 -1.29889 0
M  V30 7236 H 681.005 -3.86371 -2.0884 0
M  V30 7237 H 681.611 -4.22843 -0.456458 0
M  V30 7238 N 679.926 -0.151884 -1.56866 0
M  V30 7239 C 680.889 0.771861 -2.15812 0
M  V30 7240 C 681.889 1.17181 -1.10115 0
M  V30 7241 O 683.079 1.09194 -1.35729 0
M  V30 7242 C 680.211 2.04806 -2.7252 0
M  V30 7243 H 681.404 0.259021 -2.98779 0
M  V30 7244 H 678.957 0.097588 -1.55995 0
M  V30 7245 H 679.692 2.60445 -1.93233 0
M  V30 7246 H 679.477 1.77044 -3.49854 0
M  V30 7247 H 680.967 2.70771 -3.1792 0
M  V30 7248 N 681.404 1.57128 0.121893 0
M  V30 7249 C 682.653 1.83888 0.828748 0
M  V30 7250 C 682.966 0.737087 1.81181 0
M  V30 7251 O 684.172 0.891007 2.56463 0
M  V30 7252 C 682.628 3.26014 1.52455 0
M  V30 7253 C 682.236 4.44195 0.58263 0
M  V30 7254 C 683.98 3.62025 2.21671 0
M  V30 7255 C 681.887 5.77349 1.28149 0
M  V30 7256 H 680.817 0.685856 0.313238 0
M  V30 7257 H 683.468 1.83319 0.0814851 0
M  V30 7258 H 681.85 3.21044 2.31834 0
M  V30 7259 H 683.024 4.60457 -0.177729 0
M  V30 7260 H 681.339 4.164 -0.00241228 0
M  V30 7261 H 683.936 4.58776 2.74643 0
M  V30 7262 H 684.279 2.89315 2.99337 0
M  V30 7263 H 684.812 3.68767 1.49184 0
M  V30 7264 H 681.551 6.53221 0.546189 0
M  V30 7265 H 681.071 5.64978 2.01394 0
M  V30 7266 H 682.75 6.21006 1.81549 0
M  V30 7267 N 682.882 -0.391992 1.52647 0
M  V30 7268 C 684.122 -1.1463 1.69232 0
M  V30 7269 C 684.486 -1.87312 0.421684 0
M  V30 7270 O 685.687 -2.64768 0.463852 0
M  V30 7271 C 683.958 -2.10088 2.89133 0
M  V30 7272 S 685.517 -2.93395 3.2629 0
M  V30 7273 H 682.335 -0.388076 0.59575 0
M  V30 7274 H 684.937 -0.431149 1.90687 0
M  V30 7275 H 683.641 -1.55408 3.79837 0
M  V30 7276 H 683.172 -2.86116 2.70003 0
M  V30 7277 H 685.187 -4.12193 2.76244 0
M  V30 7278 N 684.36 -1.4356 -0.65026 0
M  V30 7279 C 685.585 -1.48995 -1.44275 0
M  V30 7280 C 686.01 -0.109954 -1.87778 0
M  V30 7281 O 685.368 0.896926 -1.57559 0
M  V30 7282 C 685.416 -2.44341 -2.65198 0
M  V30 7283 O 684.52 -1.93172 -3.6436 0
M  V30 7284 H 683.861 -0.503852 -0.432469 0
M  V30 7285 H 686.391 -1.88504 -0.795446 0
M  V30 7286 H 686.401 -2.61743 -3.12977 0
M  V30 7287 H 685.076 -3.44588 -2.32877 0
M  V30 7288 H 683.653 -1.85445 -3.23519 0
M  V30 7289 N 685.838 0.888903 -1.30139 0
M  V30 7290 C 687.115 1.62145 -1.094 0
M  V30 7291 C 687.495 2.08041 0.358091 0
M  V30 7292 O 686.843 1.84438 1.34888 0
M  V30 7293 C 687.053 2.794 -2.09133 0
M  V30 7294 C 688.401 3.49826 -2.40638 0
M  V30 7295 O 689.425 2.89583 -2.07412 0
M  V30 7296 O 688.284 4.58457 -2.97455 0
M  V30 7297 H 685.378 0.712475 -0.41989 0
M  V30 7298 H 687.924 0.936023 -1.41551 0
M  V30 7299 H 686.696 2.42762 -3.06891 0
M  V30 7300 H 686.319 3.55643 -1.77776 0
M  V30 7301 N 687.317 1.12792 1.10072 0
M  V30 7302 C 688.264 0.79921 2.16521 0
M  V30 7303 C 689.234 -0.235726 1.64419 0
M  V30 7304 O 690.419 -0.109457 1.90486 0
M  V30 7305 C 687.559 0.264091 3.44088 0
M  V30 7306 C 686.672 1.35729 4.10124 0
M  V30 7307 C 685.807 0.781212 5.25424 0
M  V30 7308 C 684.846 1.85327 5.8337 0
M  V30 7309 N 683.983 1.29564 6.90042 0
M  V30 7310 H 688.823 1.71105 2.43981 0
M  V30 7311 H 686.36 0.854225 1.19756 0
M  V30 7312 H 688.318 -0.0642423 4.17151 0
M  V30 7313 H 686.948 -0.610901 3.16967 0
M  V30 7314 H 686 1.80234 3.34993 0
M  V30 7315 H 687.312 2.16782 4.4923 0
M  V30 7316 H 686.466 0.403769 6.05355 0
M  V30 7317 H 685.205 -0.0604686 4.87663 0
M  V30 7318 H 684.21 2.23986 5.02106 0
M  V30 7319 H 685.435 2.69824 6.23195 0
M  V30 7320 H 683.381 0.475844 6.54272 0
M  V30 7321 H 683.298 2.04271 7.2788 0
M  V30 7322 H 684.566 0.945545 7.73744 0
M  V30 7323 N 688.795 -1.27931 0.920396 0
M  V30 7324 C 690.023 -1.98805 0.573087 0
M  V30 7325 C 690.438 -1.68724 -0.847201 0
M  V30 7326 O 689.795 -0.943699 -1.56207 0
M  V30 7327 C 689.846 -3.52971 0.780633 0
M  V30 7328 O 689.567 -3.81994 2.14504 0
M  V30 7329 C 691.068 -4.411 0.44105 0
M  V30 7330 H 688.288 -0.634651 0.21785 0
M  V30 7331 H 690.832 -1.62965 1.23542 0
M  V30 7332 H 688.987 -3.87048 0.165204 0
M  V30 7333 H 689.401 -4.76609 2.18962 0
M  V30 7334 H 690.875 -5.48312 0.637006 0
M  V30 7335 H 691.352 -4.34758 -0.62306 0
M  V30 7336 H 691.958 -4.12532 1.0343 0
M  V30 7337 N 690.273 -0.685099 -1.4193 0
M  V30 7338 C 691.521 -0.21124 -2.00993 0
M  V30 7339 C 691.842 1.18985 -1.54491 0
M  V30 7340 O 691.112 1.8009 -0.771 0
M  V30 7341 H 689.692 -0.0751059 -0.743215 0
M  V30 7342 H 692.354 -0.883915 -1.73704 0
M  V30 7343 H 691.45 -0.220513 -3.1132 0
M  V30 7344 N 691.751 1.51645 -0.429126 0
M  V30 7345 C 692.979 2.06433 0.138994 0
M  V30 7346 C 693.394 1.29735 1.37165 0
M  V30 7347 O 692.751 0.354638 1.79021 0
M  V30 7348 C 692.802 3.58439 0.469452 0
M  V30 7349 O 692.523 4.32238 -0.714273 0
M  V30 7350 C 694.024 4.29712 1.08914 0
M  V30 7351 H 691.244 0.6709 0.0115608 0
M  V30 7352 H 693.788 1.9532 -0.605843 0
M  V30 7353 H 691.943 3.69494 1.16419 0
M  V30 7354 H 692.357 5.22704 -0.433633 0
M  V30 7355 H 693.831 5.37182 1.27042 0
M  V30 7356 H 694.308 3.87473 2.06788 0
M  V30 7357 H 694.914 4.2308 0.434028 0
M  V30 7358 N 693.229 0.160201 1.56784 0
M  V30 7359 C 694.159 -0.770264 2.2043 0
M  V30 7360 C 695.14 -1.24736 1.15651 0
M  V30 7361 O 696.325 -1.30253 1.44041 0
M  V30 7362 C 693.455 -2.00427 2.83631 0
M  V30 7363 C 692.409 -1.66345 3.94352 0
M  V30 7364 C 691.735 -2.97119 4.4455 0
M  V30 7365 C 693.035 -0.899972 5.14488 0
M  V30 7366 H 694.729 -0.239783 2.98438 0
M  V30 7367 H 692.275 -0.113891 1.43549 0
M  V30 7368 H 694.228 -2.66012 3.26827 0
M  V30 7369 H 692.952 -2.5587 2.02973 0
M  V30 7370 H 691.611 -1.03133 3.51794 0
M  V30 7371 H 691.259 -3.5058 3.60698 0
M  V30 7372 H 690.959 -2.75073 5.19238 0
M  V30 7373 H 692.483 -3.63753 4.90425 0
M  V30 7374 H 693.897 -1.45818 5.54446 0
M  V30 7375 H 692.294 -0.778968 5.95023 0
M  V30 7376 H 693.364 0.105827 4.84785 0
M  V30 7377 N 694.707 -1.5719 -0.113559 0
M  V30 7378 C 695.935 -1.89328 -0.834422 0
M  V30 7379 C 696.35 -0.752018 -1.73177 0
M  V30 7380 O 695.707 0.276912 -1.80387 0
M  V30 7381 C 695.758 -3.20962 -1.66329 0
M  V30 7382 O 695.479 -4.30695 -0.802069 0
M  V30 7383 C 696.98 -3.6684 -2.48884 0
M  V30 7384 H 694.2 -0.626769 -0.239587 0
M  V30 7385 H 696.744 -2.04273 -0.0963195 0
M  V30 7386 H 694.899 -3.0767 -2.35409 0
M  V30 7387 H 695.313 -5.06175 -1.37431 0
M  V30 7388 H 696.787 -4.61692 -3.02563 0
M  V30 7389 H 697.264 -2.93765 -3.26495 0
M  V30 7390 H 697.87 -3.82938 -1.85036 0
M  V30 7391 N 696.185 0.383891 -1.52853 0
M  V30 7392 C 697.118 1.49105 -1.72751 0
M  V30 7393 C 698.096 1.52077 -0.575438 0
M  V30 7394 O 699.28 1.70406 -0.805854 0
M  V30 7395 C 696.407 2.87551 -1.78975 0
M  V30 7396 C 695.453 3.02383 -3.00777 0
M  V30 7397 S 696.286 2.73048 -4.60657 0
M  V30 7398 C 697.442 4.13678 -4.69704 0
M  V30 7399 H 697.675 1.32002 -2.66388 0
M  V30 7400 H 695.208 0.577088 -1.4321 0
M  V30 7401 H 697.166 3.6733 -1.83246 0
M  V30 7402 H 695.827 3.01977 -0.864215 0
M  V30 7403 H 695.02 4.03733 -3.01688 0
M  V30 7404 H 694.622 2.30504 -2.94523 0
M  V30 7405 H 696.914 5.07676 -4.48633 0
M  V30 7406 H 697.857 4.1778 -5.71721 0
M  V30 7407 H 698.265 3.99825 -3.98497 0
M  V30 7408 N 697.663 1.43903 0.642637 0
M  V30 7409 C 698.611 1.50164 1.77634 0
M  V30 7410 C 699.605 0.374294 1.65213 0
M  V30 7411 O 700.811 0.548748 1.71431 0
M  V30 7412 H 697.186 0.470974 0.586249 0
M  V30 7413 H 699.157 2.45603 1.69474 0
M  V30 7414 C 697.906 1.45196 3.15933 0
M  V30 7415 H 697.229 2.31253 3.26132 0
M  V30 7416 H 698.669 1.53638 3.95185 0
M  V30 7417 C 697.128 0.171043 3.36466 0
M  V30 7418 O 697.658 -0.763413 3.94379 0
M  V30 7419 N 695.864 0.077847 2.90496 0
M  V30 7420 H 695.411 0.8391 2.43551 0
M  V30 7421 H 695.369 -0.778473 3.0461 0
M  V30 7422 N 699.141 -0.881989 1.30609 0
M  V30 7423 C 700.557 -1.16576 1.09005 0
M  V30 7424 C 700.757 -2.00961 -0.14727 0
M  V30 7425 O 699.813 -2.38117 -0.840036 0
M  V30 7426 C 701.126 -1.86954 2.35518 0
M  V30 7427 C 702.674 -1.99706 2.41011 0
M  V30 7428 C 703.149 -2.73497 3.67374 0
M  V30 7429 N 704.64 -2.8104 3.68199 0
M  V30 7430 C 705.375 -3.38718 4.62664 0
M  V30 7431 N 704.871 -3.97421 5.67475 0
M  V30 7432 N 706.664 -3.36561 4.50203 0
M  V30 7433 H 698.815 -0.319398 2.09985 0
M  V30 7434 H 701.078 -0.204058 0.925778 0
M  V30 7435 H 700.784 -1.32393 3.2583 0
M  V30 7436 H 700.658 -2.87317 2.44395 0
M  V30 7437 H 703.045 -2.53436 1.51176 0
M  V30 7438 H 703.126 -0.984218 2.36108 0
M  V30 7439 H 702.77 -2.20438 4.57569 0
M  V30 7440 H 702.7 -3.75163 3.6954 0
M  V30 7441 H 705.191 -2.39365 2.92426 0
M  V30 7442 H 705.504 -4.39507 6.35652 0
M  V30 7443 H 703.849 -3.95832 5.71264 0
M  V30 7444 H 707.04 -2.8993 3.67503 0
M  V30 7445 H 707.213 -3.81215 5.24003 0
M  V30 7446 N 700.619 -1.13374 -1.09472 0
M  V30 7447 C 701.552 -0.754354 -2.15371 0
M  V30 7448 C 702.53 0.259205 -1.60521 0
M  V30 7449 O 703.714 0.150819 -1.87896 0
M  V30 7450 C 700.841 -0.118197 -3.38494 0
M  V30 7451 C 699.887 -1.10017 -4.12066 0
M  V30 7452 S 700.72 -2.63242 -4.6633 0
M  V30 7453 C 701.876 -2.00984 -5.92753 0
M  V30 7454 H 702.109 -1.65135 -2.4722 0
M  V30 7455 H 699.642 -0.953838 -1.21414 0
M  V30 7456 H 701.6 0.242447 -4.09783 0
M  V30 7457 H 700.261 0.756065 -3.04865 0
M  V30 7458 H 699.454 -0.60287 -5.00381 0
M  V30 7459 H 699.056 -1.40426 -3.46636 0
M  V30 7460 H 701.348 -1.35863 -6.63738 0
M  V30 7461 H 702.291 -2.8738 -6.47162 0
M  V30 7462 H 702.699 -1.46161 -5.4525 0
M  V30 7463 N 702.098 1.27442 -0.927168 0
M  V30 7464 C 703.326 1.98498 -0.583622 0
M  V30 7465 C 703.741 1.69171 0.838241 0
M  V30 7466 O 703.098 0.951969 1.55704 0
M  V30 7467 C 703.149 3.52552 -0.799341 0
M  V30 7468 O 702.87 3.80851 -2.16527 0
M  V30 7469 C 704.371 4.4086 -0.464436 0
M  V30 7470 H 701.591 0.633487 -0.221213 0
M  V30 7471 H 704.135 1.62308 -1.24404 0
M  V30 7472 H 702.29 3.86955 -0.185728 0
M  V30 7473 H 702.704 4.75441 -2.21487 0
M  V30 7474 H 704.178 5.47967 -0.666075 0
M  V30 7475 H 704.655 4.35082 0.599995 0
M  V30 7476 H 705.261 4.11977 -1.05617 0
M  V30 7477 N 703.576 0.692616 1.41565 0
M  V30 7478 C 704.822 0.222664 2.01574 0
M  V30 7479 C 705.155 -1.1737 1.54719 0
M  V30 7480 O 704.43 -1.79161 0.757084 0
M  V30 7481 C 704.713 0.277064 3.59033 0
M  V30 7482 C 704.566 1.71016 4.16021 0
M  V30 7483 C 705.885 -0.36479 4.38586 0
M  V30 7484 H 703.004 0.0823839 0.732381 0
M  V30 7485 H 705.646 0.880778 1.68352 0
M  V30 7486 H 703.796 -0.283288 3.87466 0
M  V30 7487 H 705.468 2.32413 3.98475 0
M  V30 7488 H 703.711 2.24525 3.71175 0
M  V30 7489 H 704.382 1.69978 5.25178 0
M  V30 7490 H 706.858 0.112404 4.15948 0
M  V30 7491 H 705.734 -0.296169 5.481 0
M  V30 7492 H 705.995 -1.44506 4.17816 0
M  V30 7493 N 705.054 -1.51416 0.437162 0
M  V30 7494 C 706.3 -2.02386 -0.129555 0
M  V30 7495 C 706.633 -1.32071 -1.42376 0
M  V30 7496 O 705.908 -0.43559 -1.8956 0
M  V30 7497 C 706.191 -3.5841 -0.348487 0
M  V30 7498 C 706.044 -4.39341 0.964352 0
M  V30 7499 C 707.363 -4.25654 -1.11834 0
M  V30 7500 H 704.482 -0.735587 -0.0456109 0
M  V30 7501 H 707.124 -1.81055 0.576124 0
M  V30 7502 H 705.274 -3.76716 -0.949592 0
M  V30 7503 H 706.946 -4.32685 1.59942 0
M  V30 7504 H 705.189 -4.04432 1.56898 0
M  V30 7505 H 705.86 -5.4667 0.765212 0
M  V30 7506 H 708.336 -4.11617 -0.609165 0
M  V30 7507 H 707.212 -5.34704 -1.24029 0
M  V30 7508 H 707.473 -3.86502 -2.14636 0
M  V30 7509 N 706.532 -0.168513 -1.56696 0
M  V30 7510 C 707.464 0.794249 -2.14998 0
M  V30 7511 C 708.477 1.1957 -1.10485 0
M  V30 7512 O 709.666 1.13604 -1.37682 0
M  V30 7513 C 706.766 2.08018 -2.67547 0
M  V30 7514 C 705.939 1.84274 -3.96689 0
M  V30 7515 C 704.998 2.97059 -4.3433 0
M  V30 7516 O 704.024 2.67815 -5.02259 0
M  V30 7517 N 705.226 4.24775 -3.9566 0
M  V30 7518 H 707.991 0.295832 -2.98236 0
M  V30 7519 H 705.552 0.0143611 -1.61894 0
M  V30 7520 H 707.544 2.82559 -2.89729 0
M  V30 7521 H 706.114 2.49059 -1.88914 0
M  V30 7522 H 705.334 0.936528 -3.82914 0
M  V30 7523 H 706.622 1.65773 -4.81037 0
M  V30 7524 H 706.02 4.51395 -3.40968 0
M  V30 7525 H 704.577 4.96027 -4.22848 0
M  V30 7526 N 708.01 1.57248 0.105221 0
M  V30 7527 C 708.973 2.00388 1.11252 0
M  V30 7528 C 709.973 0.89594 1.33527 0
M  V30 7529 O 711.163 1.16166 1.29811 0
M  V30 7530 C 708.295 2.35589 2.46395 0
M  V30 7531 H 709.488 2.90591 0.741424 0
M  V30 7532 H 707.041 1.52332 0.349956 0
M  V30 7533 H 707.776 1.4831 2.884 0
M  V30 7534 H 707.561 3.16408 2.31578 0
M  V30 7535 H 709.051 2.69658 3.18864 0
M  V30 7536 N 709.488 -0.375779 1.53054 0
M  V30 7537 C 710.718 -1.1387 1.72386 0
M  V30 7538 C 711.126 -1.8382 0.447966 0
M  V30 7539 O 710.469 -1.74027 -0.588244 0
M  V30 7540 C 710.531 -2.22047 2.82728 0
M  V30 7541 C 710.195 -1.71951 4.23417 0
M  V30 7542 C 711.192 -1.18909 5.06119 0
M  V30 7543 C 708.877 -1.77773 4.69789 0
M  V30 7544 C 710.871 -0.723529 6.3328 0
M  V30 7545 C 708.558 -1.30829 5.96931 0
M  V30 7546 C 709.556 -0.782077 6.78508 0
M  V30 7547 O 709.244 -0.319529 8.03265 0
M  V30 7548 H 708.976 -0.346835 0.580242 0
M  V30 7549 H 711.53 -0.443748 2.00549 0
M  V30 7550 H 709.76 -2.95006 2.50017 0
M  V30 7551 H 711.449 -2.83654 2.90336 0
M  V30 7552 H 712.215 -1.13758 4.7147 0
M  V30 7553 H 708.094 -2.17673 4.06373 0
M  V30 7554 H 711.638 -0.312126 6.96901 0
M  V30 7555 H 707.535 -1.3567 6.31081 0
M  V30 7556 H 708.303 -0.439796 8.17318 0
M  V30 7557 N 710.966 -1.44241 -0.634997 0
M  V30 7558 C 712.215 -1.46102 -1.39058 0
M  V30 7559 C 712.528 -0.0959909 -1.95364 0
M  V30 7560 O 713.734 0.00788751 -2.71499 0
M  V30 7561 C 712.19 -2.57195 -2.51751 0
M  V30 7562 C 711.798 -3.99888 -2.01974 0
M  V30 7563 C 713.542 -2.68272 -3.28984 0
M  V30 7564 C 711.449 -5.02412 -3.11987 0
M  V30 7565 H 710.379 -0.543556 -0.522554 0
M  V30 7566 H 713.03 -1.70294 -0.683538 0
M  V30 7567 H 711.412 -2.26237 -3.25012 0
M  V30 7568 H 712.586 -4.40396 -1.35604 0
M  V30 7569 H 710.901 -3.93019 -1.37568 0
M  V30 7570 H 713.498 -3.42042 -4.10988 0
M  V30 7571 H 713.841 -1.73957 -3.78212 0
M  V30 7572 H 714.374 -2.98622 -2.62812 0
M  V30 7573 H 711.113 -5.98342 -2.67707 0
M  V30 7574 H 710.633 -4.66501 -3.77011 0
M  V30 7575 H 712.312 -5.25939 -3.76825 0
M  V30 7576 N 712.444 0.87505 -1.31075 0
M  V30 7577 C 713.692 1.62447 -1.20231 0
M  V30 7578 C 714.013 1.93506 0.240888 0
M  V30 7579 O 713.283 1.57847 1.16022 0
M  V30 7580 H 711.863 0.602207 -0.441991 0
M  V30 7581 H 714.525 1.04788 -1.64334 0
M  V30 7582 H 713.621 2.57031 -1.77036 0
M  V30 7583 N 713.922 1.13953 1.08869 0
M  V30 7584 C 715.17 0.903023 1.80803 0
M  V30 7585 C 715.491 -0.572151 1.86417 0
M  V30 7586 O 714.761 -1.41589 1.35386 0
M  V30 7587 H 713.341 0.331099 0.669614 0
M  V30 7588 H 716.003 1.43719 1.31647 0
M  V30 7589 H 715.099 1.29881 2.83791 0
M  V30 7590 N 715.4 -1.26948 0.933913 0
M  V30 7591 C 716.649 -1.93378 0.573409 0
M  V30 7592 C 716.962 -1.74148 -0.890614 0
M  V30 7593 O 718.168 -2.34971 -1.36017 0
M  V30 7594 C 716.624 -3.46449 0.974747 0
M  V30 7595 C 716.232 -3.74425 2.45988 0
M  V30 7596 C 717.976 -4.18924 0.685791 0
M  V30 7597 C 715.883 -5.209 2.8003 0
M  V30 7598 H 714.813 -0.723952 0.210736 0
M  V30 7599 H 717.464 -1.44143 1.13557 0
M  V30 7600 H 715.846 -3.94528 0.341181 0
M  V30 7601 H 717.02 -3.37079 3.14188 0
M  V30 7602 H 715.335 -3.15167 2.72138 0
M  V30 7603 H 717.932 -5.26786 0.916546 0
M  V30 7604 H 718.275 -4.14587 -0.377217 0
M  V30 7605 H 718.808 -3.76687 1.27874 0
M  V30 7606 H 715.547 -5.30332 3.85264 0
M  V30 7607 H 715.067 -5.59369 2.16485 0
M  V30 7608 H 716.746 -5.88837 2.68105 0
M  V30 7609 N 716.879 -0.700114 -1.41195 0
M  V30 7610 C 717.829 -0.0144098 -2.27995 0
M  V30 7611 C 718.813 0.748249 -1.42443 0
M  V30 7612 O 720.005 0.622995 -1.65674 0
M  V30 7613 C 717.134 0.917938 -3.308 0
M  V30 7614 C 716.22 0.151286 -4.2383 0
M  V30 7615 N 716.611 -0.85732 -4.98481 0
M  V30 7616 C 714.909 0.386108 -4.44326 0
M  V30 7617 C 715.61 -1.31663 -5.66604 0
M  V30 7618 N 714.586 -0.641689 -5.39799 0
M  V30 7619 H 718.388 -0.787662 -2.83149 0
M  V30 7620 H 715.902 -0.531344 -1.53462 0
M  V30 7621 H 717.899 1.42437 -3.91813 0
M  V30 7622 H 716.559 1.69074 -2.77208 0
M  V30 7623 H 717.57 -1.2377 -5.02893 0
M  V30 7624 H 714.247 1.13644 -4.01735 0
M  V30 7625 H 715.637 -2.15384 -6.36443 0
M  V30 7626 N 718.357 1.51182 -0.445186 0
M  V30 7627 C 719.587 2.06269 0.116922 0
M  V30 7628 C 719.995 1.31188 1.36332 0
M  V30 7629 O 719.338 0.367067 1.79995 0
M  V30 7630 C 719.4 3.56051 0.496757 0
M  V30 7631 C 719.064 4.52441 -0.64394 0
M  V30 7632 C 720.061 4.97233 -1.5184 0
M  V30 7633 C 717.746 4.95447 -0.826905 0
M  V30 7634 C 719.74 5.83712 -2.56046 0
M  V30 7635 C 717.427 5.81714 -1.87222 0
M  V30 7636 C 718.425 6.25745 -2.73738 0
M  V30 7637 O 718.113 7.10298 -3.76474 0
M  V30 7638 H 717.845 0.675954 0.00785733 0
M  V30 7639 H 720.399 1.95648 -0.625371 0
M  V30 7640 H 718.629 3.64483 1.29187 0
M  V30 7641 H 720.318 3.93618 0.990928 0
M  V30 7642 H 721.084 4.64696 -1.38862 0
M  V30 7643 H 716.963 4.60712 -0.163052 0
M  V30 7644 H 720.507 6.18 -3.23607 0
M  V30 7645 H 716.404 6.13664 -2.00218 0
M  V30 7646 H 717.172 7.28493 -3.73149 0
M  V30 7647 N 719.835 0.176821 1.56605 0
M  V30 7648 C 721.251 -0.179278 1.5859 0
M  V30 7649 C 721.451 -1.62433 1.19238 0
M  V30 7650 O 720.507 -2.35665 0.906552 0
M  V30 7651 C 721.82 0.106524 3.00511 0
M  V30 7652 C 723.368 0.0451731 3.12967 0
M  V30 7653 C 723.843 0.304038 4.5699 0
M  V30 7654 N 725.334 0.252008 4.62514 0
M  V30 7655 C 726.069 0.426404 5.71812 0
M  V30 7656 N 725.565 0.660155 6.89648 0
M  V30 7657 N 727.358 0.361926 5.60934 0
M  V30 7658 H 719.509 1.12001 1.8047 0
M  V30 7659 H 721.772 0.445679 0.836704 0
M  V30 7660 H 721.478 1.10778 3.33798 0
M  V30 7661 H 721.352 -0.599337 3.72408 0
M  V30 7662 H 723.739 -0.946662 2.79504 0
M  V30 7663 H 723.82 0.78383 2.43495 0
M  V30 7664 H 723.464 1.29311 4.91163 0
M  V30 7665 H 723.394 -0.455294 5.24628 0
M  V30 7666 H 725.885 0.0772102 3.77821 0
M  V30 7667 H 726.198 0.782529 7.68828 0
M  V30 7668 H 724.543 0.696835 6.91498 0
M  V30 7669 H 727.734 0.17986 4.67754 0
M  V30 7670 H 727.907 0.501263 6.46058 0
M  V30 7671 N 721.313 -1.57302 -0.09688 0
M  V30 7672 C 722.245 -1.98618 -1.14384 0
M  V30 7673 C 723.258 -0.888483 -1.36418 0
M  V30 7674 O 724.447 -1.16661 -1.35101 0
M  V30 7675 C 721.547 -2.28838 -2.49973 0
M  V30 7676 C 720.72 -3.60132 -2.48241 0
M  V30 7677 C 719.779 -3.7831 -3.65743 0
M  V30 7678 O 718.805 -4.50183 -3.48316 0
M  V30 7679 N 720.007 -3.18752 -4.85157 0
M  V30 7680 H 722.772 -2.8904 -0.792202 0
M  V30 7681 H 720.333 -1.59356 -0.285883 0
M  V30 7682 H 722.325 -2.38193 -3.27179 0
M  V30 7683 H 720.895 -1.44431 -2.77233 0
M  V30 7684 H 720.115 -3.61763 -1.56593 0
M  V30 7685 H 721.403 -4.46389 -2.4416 0
M  V30 7686 H 720.801 -2.60368 -5.0222 0
M  V30 7687 H 719.358 -3.33595 -5.59962 0
M  V30 7688 N 722.791 0.367657 -1.53252 0
M  V30 7689 C 724.04 1.10782 -1.68554 0
M  V30 7690 C 724.353 1.90523 -0.442765 0
M  V30 7691 O 725.559 2.6729 -0.47629 0
M  V30 7692 C 724.015 2.01863 -2.97959 0
M  V30 7693 C 723.623 1.27443 -4.29491 0
M  V30 7694 C 725.367 2.75883 -3.22628 0
M  V30 7695 C 723.274 2.17414 -5.49987 0
M  V30 7696 H 722.204 0.417272 -0.628013 0
M  V30 7697 H 724.855 0.368971 -1.79752 0
M  V30 7698 H 723.237 2.7947 -2.80558 0
M  V30 7699 H 724.411 0.549138 -4.57516 0
M  V30 7700 H 722.726 0.652935 -4.11249 0
M  V30 7701 H 725.323 3.43421 -4.09837 0
M  V30 7702 H 725.666 3.41138 -2.38601 0
M  V30 7703 H 726.199 2.0536 -3.40693 0
M  V30 7704 H 722.938 1.5674 -6.36485 0
M  V30 7705 H 722.458 2.87799 -5.26243 0
M  V30 7706 H 724.137 2.77019 -5.84696 0
M  V30 7707 N 724.269 1.44576 0.627338 0
M  V30 7708 C 725.68 1.42266 1.20902 0
M  V30 7709 C 726.031 0.139964 1.957 0
M  V30 7710 O 725.156 -0.759489 2.02634 0
M  V30 7711 C 725.751 2.57727 2.19914 0
M  V30 7712 C 724.31 2.58599 2.73502 0
M  V30 7713 C 723.457 2.34145 1.48564 0
M  V30 7714 H 726.408 1.53102 0.417791 0
M  V30 7715 H 726.429 2.30697 3.02588 0
M  V30 7716 H 725.941 3.51068 1.65447 0
M  V30 7717 H 724.042 1.6921 3.31962 0
M  V30 7718 H 724.155 3.57205 3.19282 0
M  V30 7719 H 722.519 1.83313 1.76829 0
M  V30 7720 H 723.302 3.29606 0.959935 0
M  V30 7721 N 725.747 -0.868086 1.31537 0
M  V30 7722 C 726.972 -1.65926 1.24432 0
M  V30 7723 C 727.397 -1.87169 -0.186936 0
M  V30 7724 O 726.755 -1.4148 -1.13371 0
M  V30 7725 C 726.803 -3.00347 1.9956 0
M  V30 7726 O 725.907 -3.90221 1.33422 0
M  V30 7727 H 725.248 -0.506375 0.429512 0
M  V30 7728 H 727.778 -1.0822 1.73637 0
M  V30 7729 H 727.788 -3.50269 2.09226 0
M  V30 7730 H 726.463 -2.84205 3.03645 0
M  V30 7731 H 725.04 -3.48672 1.32219 0
M  V30 7732 N 727.225 -1.14528 -1.08264 0
M  V30 7733 C 728.636 -0.925261 -1.6216 0
M  V30 7734 C 728.987 0.535587 -1.88748 0
M  V30 7735 O 728.112 1.4048 -1.64604 0
M  V30 7736 C 728.707 -1.67316 -2.94603 0
M  V30 7737 C 727.266 -1.49868 -3.45278 0
M  V30 7738 C 726.413 -1.69471 -2.19487 0
M  V30 7739 H 729.364 -1.29687 -0.914707 0
M  V30 7740 H 729.385 -1.13721 -3.63109 0
M  V30 7741 H 728.897 -2.73635 -2.75219 0
M  V30 7742 H 726.998 -0.459032 -3.69762 0
M  V30 7743 H 727.111 -2.2696 -4.21931 0
M  V30 7744 H 725.475 -1.12048 -2.2873 0
M  V30 7745 H 726.258 -2.77136 -2.0261 0
M  V30 7746 N 728.703 1.26451 -0.940633 0
M  V30 7747 C 729.98 1.88947 -0.505811 0
M  V30 7748 C 730.36 1.85011 1.01657 0
M  V30 7749 O 729.708 1.30406 1.87634 0
M  V30 7750 C 729.918 3.32304 -1.06654 0
M  V30 7751 C 731.266 4.09153 -1.13486 0
M  V30 7752 O 732.29 3.41371 -1.01708 0
M  V30 7753 O 731.149 5.30369 -1.31797 0
M  V30 7754 H 728.243 0.810422 -0.164759 0
M  V30 7755 H 730.789 1.34625 -1.03316 0
M  V30 7756 H 729.561 3.29527 -2.11015 0
M  V30 7757 H 729.184 3.94164 -0.521603 0
M  V30 7758 N 730.181 0.707592 1.40822 0
M  V30 7759 C 731.427 0.244031 2.01326 0
M  V30 7760 C 731.76 -1.15722 1.55955 0
M  V30 7761 O 731.035 -1.78347 0.776044 0
M  V30 7762 C 731.318 0.315128 3.58718 0
M  V30 7763 C 731.171 1.75419 4.14184 0
M  V30 7764 C 732.49 -0.318251 4.38948 0
M  V30 7765 H 729.609 0.0901471 0.731466 0
M  V30 7766 H 732.251 0.898584 1.67408 0
M  V30 7767 H 730.401 -0.242176 3.87744 0
M  V30 7768 H 732.073 2.36626 3.95987 0
M  V30 7769 H 730.316 2.28449 3.68773 0
M  V30 7770 H 730.987 1.75538 5.23345 0
M  V30 7771 H 733.463 0.156514 4.15806 0
M  V30 7772 H 732.339 -0.238019 5.48384 0
M  V30 7773 H 732.6 -1.40067 4.19325 0
M  V30 7774 N 731.66 -1.50943 0.453197 0
M  V30 7775 C 732.907 -2.02212 -0.107922 0
M  V30 7776 C 733.235 -1.33639 -1.41318 0
M  V30 7777 O 732.49 -0.445154 -1.9057 0
M  V30 7778 C 732.789 -3.55603 -0.357944 0
M  V30 7779 C 732.455 -4.42556 0.863427 0
M  V30 7780 C 731.117 -4.6604 1.19834 0
M  V30 7781 C 733.469 -4.93468 1.67747 0
M  V30 7782 C 730.797 -5.37681 2.34768 0
M  V30 7783 C 733.149 -5.6637 2.81793 0
M  V30 7784 C 731.813 -5.88113 3.1572 0
M  V30 7785 H 731.083 -0.739947 -0.0394916 0
M  V30 7786 H 733.73 -1.81738 0.60363 0
M  V30 7787 H 732.035 -3.74495 -1.15156 0
M  V30 7788 H 733.732 -3.92821 -0.805781 0
M  V30 7789 H 730.322 -4.24485 0.592478 0
M  V30 7790 H 734.506 -4.75194 1.43192 0
M  V30 7791 H 729.762 -5.52727 2.61348 0
M  V30 7792 H 733.936 -6.04806 3.45229 0
M  V30 7793 H 731.563 -6.43404 4.04889 0
M  V30 7794 N 733.138 -0.185124 -1.56509 0
M  V30 7795 C 734.068 0.735098 -2.21627 0
M  V30 7796 C 735.049 1.2288 -1.1762 0
M  V30 7797 O 736.234 1.27945 -1.46095 0
M  V30 7798 C 733.364 1.95889 -2.86783 0
M  V30 7799 C 732.318 1.6005 -3.96948 0
M  V30 7800 C 731.644 2.90009 -4.4922 0
M  V30 7801 C 732.944 0.818008 -5.15855 0
M  V30 7802 H 734.638 0.192274 -2.98782 0
M  V30 7803 H 732.184 0.0910393 -1.43712 0
M  V30 7804 H 734.137 2.60779 -3.31017 0
M  V30 7805 H 732.861 2.52608 -2.07018 0
M  V30 7806 H 731.52 0.975237 -3.5339 0
M  V30 7807 H 731.168 3.44797 -3.6623 0
M  V30 7808 H 730.868 2.66778 -5.23549 0
M  V30 7809 H 732.392 3.55904 -4.9615 0
M  V30 7810 H 733.806 1.36979 -5.56695 0
M  V30 7811 H 732.203 0.684207 -5.96187 0
M  V30 7812 H 733.273 -0.182939 -4.84555 0
M  V30 7813 N 734.616 1.57351 0.0885366 0
M  V30 7814 C 736.027 1.75303 0.642308 0
M  V30 7815 C 736.378 0.808238 1.78779 0
M  V30 7816 O 735.503 -0.01171 2.16397 0
M  V30 7817 C 736.098 3.17885 1.17194 0
M  V30 7818 C 734.657 3.37239 1.67172 0
M  V30 7819 C 733.804 2.7108 0.584045 0
M  V30 7820 H 736.755 1.58103 -0.137567 0
M  V30 7821 H 736.776 3.2112 2.04114 0
M  V30 7822 H 736.288 3.86625 0.338024 0
M  V30 7823 H 734.389 2.73588 2.52943 0
M  V30 7824 H 734.502 4.45594 1.76019 0
M  V30 7825 H 732.866 2.33161 1.02508 0
M  V30 7826 H 733.649 3.42464 -0.239403 0
M  V30 7827 N 736.094 -0.359525 1.53444 0
M  V30 7828 C 737.041 -1.44073 1.8031 0
M  V30 7829 C 738.011 -1.52946 0.647811 0
M  V30 7830 O 739.196 -1.68739 0.890614 0
M  V30 7831 C 736.336 -2.80941 2.00416 0
M  V30 7832 C 735.449 -2.80986 3.28132 0
M  V30 7833 C 734.584 -4.09468 3.38393 0
M  V30 7834 C 733.623 -4.03679 4.60119 0
M  V30 7835 N 732.76 -5.23821 4.675 0
M  V30 7836 H 737.6 -1.20464 2.72566 0
M  V30 7837 H 735.137 -0.583859 1.35017 0
M  V30 7838 H 737.095 -3.60459 2.1006 0
M  V30 7839 H 735.725 -3.02936 1.11489 0
M  V30 7840 H 734.777 -1.93666 3.27411 0
M  V30 7841 H 736.089 -2.72583 4.17732 0
M  V30 7842 H 735.243 -4.97404 3.47382 0
M  V30 7843 H 733.982 -4.20632 2.4682 0
M  V30 7844 H 732.987 -3.14129 4.51224 0
M  V30 7845 H 734.212 -3.94112 5.5304 0
M  V30 7846 H 732.158 -5.35559 3.7883 0
M  V30 7847 H 732.075 -5.17611 5.51013 0
M  V30 7848 H 733.343 -6.13572 4.8078 0
M  V30 7849 N 737.572 -1.44907 -0.619662 0
M  V30 7850 C 738.818 -1.48512 -1.38102 0
M  V30 7851 C 739.151 -0.121686 -1.93818 0
M  V30 7852 O 738.426 0.862256 -1.74343 0
M  V30 7853 C 738.709 -2.55469 -2.53787 0
M  V30 7854 C 738.562 -4.01212 -2.03345 0
M  V30 7855 C 739.881 -2.58821 -3.55949 0
M  V30 7856 H 737 -0.540712 -0.500799 0
M  V30 7857 H 739.642 -1.7665 -0.69962 0
M  V30 7858 H 737.792 -2.31606 -3.11915 0
M  V30 7859 H 739.464 -4.36245 -1.49959 0
M  V30 7860 H 737.707 -4.12443 -1.34438 0
M  V30 7861 H 738.378 -4.71717 -2.86683 0
M  V30 7862 H 740.854 -2.80172 -3.07641 0
M  V30 7863 H 739.73 -3.35542 -4.34399 0
M  V30 7864 H 739.991 -1.63451 -4.10775 0
M  V30 7865 N 739.05 0.861098 -1.31996 0
M  V30 7866 C 739.98 1.98482 -1.22993 0
M  V30 7867 C 740.961 1.6971 -0.115168 0
M  V30 7868 O 742.146 1.91849 -0.30126 0
M  V30 7869 C 739.276 3.34179 -0.945615 0
M  V30 7870 C 738.23 3.77284 -2.02091 0
M  V30 7871 C 737.556 5.1054 -1.58912 0
M  V30 7872 C 738.856 3.93439 -3.43515 0
M  V30 7873 H 740.55 2.06271 -2.17008 0
M  V30 7874 H 738.096 0.991043 -1.04472 0
M  V30 7875 H 740.049 4.12338 -0.869206 0
M  V30 7876 H 738.773 3.26586 0.0301849 0
M  V30 7877 H 737.432 3.01371 -2.08737 0
M  V30 7878 H 737.08 4.99397 -0.600942 0
M  V30 7879 H 736.78 5.40352 -2.30854 0
M  V30 7880 H 738.304 5.91199 -1.52696 0
M  V30 7881 H 739.718 4.6197 -3.39495 0
M  V30 7882 H 738.115 4.34661 -4.13751 0
M  V30 7883 H 739.185 2.96548 -3.8365 0
M  V30 7884 N 740.528 1.15101 1.07655 0
M  V30 7885 C 741.805 0.834578 1.76902 0
M  V30 7886 C 742.185 -0.670431 2.00171 0
M  V30 7887 O 741.533 -1.61378 1.6177 0
M  V30 7888 C 741.743 1.64191 3.07965 0
M  V30 7889 C 743.091 1.84615 3.82364 0
M  V30 7890 O 744.115 1.60941 3.17768 0
M  V30 7891 O 742.974 2.24244 4.98374 0
M  V30 7892 H 740.068 0.306608 0.768063 0
M  V30 7893 H 742.614 1.25663 1.14048 0
M  V30 7894 H 741.386 2.66386 2.86626 0
M  V30 7895 H 741.009 1.216 3.78549 0
M  V30 7896 N 742.006 -1.2595 0.947325 0
M  V30 7897 C 742.936 -2.28521 0.479604 0
M  V30 7898 C 743.917 -1.63469 -0.470293 0
M  V30 7899 O 745.102 -1.90627 -0.370824 0
M  V30 7900 C 742.232 -3.46397 -0.250289 0
M  V30 7901 C 741.186 -4.23578 0.613643 0
M  V30 7902 C 740.512 -5.34131 -0.246568 0
M  V30 7903 C 741.812 -4.86979 1.88809 0
M  V30 7904 H 743.506 -2.67895 1.33688 0
M  V30 7905 H 741.052 -1.28783 0.644274 0
M  V30 7906 H 743.005 -4.17269 -0.588576 0
M  V30 7907 H 741.729 -3.05993 -1.14175 0
M  V30 7908 H 740.388 -3.54478 0.93491 0
M  V30 7909 H 740.036 -4.89968 -1.13756 0
M  V30 7910 H 739.736 -5.86683 0.328123 0
M  V30 7911 H 741.26 -6.07839 -0.579986 0
M  V30 7912 H 742.674 -5.50034 1.61666 0
M  V30 7913 H 741.071 -5.49675 2.40784 0
M  V30 7914 H 742.141 -4.09575 2.5957 0
M  V30 7915 N 743.484 -0.715051 -1.40445 0
M  V30 7916 C 744.733 -0.251322 -2.00128 0
M  V30 7917 C 745.046 1.16194 -1.57347 0
M  V30 7918 O 746.252 1.72416 -2.09726 0
M  V30 7919 C 744.708 -0.398407 -3.57688 0
M  V30 7920 C 744.316 -1.81828 -4.09442 0
M  V30 7921 C 746.06 0.00455625 -4.245 0
M  V30 7922 C 743.967 -1.91598 -5.59503 0
M  V30 7923 H 742.897 -0.0902081 -0.748584 0
M  V30 7924 H 745.548 -0.886062 -1.6069 0
M  V30 7925 H 743.93 0.304908 -3.94824 0
M  V30 7926 H 745.104 -2.55193 -3.83684 0
M  V30 7927 H 743.419 -2.17266 -3.55225 0
M  V30 7928 H 746.016 -0.0477303 -5.34679 0
M  V30 7929 H 746.359 1.04636 -4.02935 0
M  V30 7930 H 746.892 -0.649184 -3.92467 0
M  V30 7931 H 743.631 -2.93898 -5.85922 0
M  V30 7932 H 743.151 -1.22644 -5.87127 0
M  V30 7933 H 744.83 -1.68785 -6.24596 0
M  V30 7934 N 744.962 1.50701 -0.461195 0
M  V30 7935 C 746.208 2.02566 0.0973411 0
M  V30 7936 C 746.541 1.3432 1.40257 0
M  V30 7937 O 745.816 0.465692 1.88843 0
M  V30 7938 C 746.099 3.58919 0.291423 0
M  V30 7939 C 745.952 4.37751 -1.03413 0
M  V30 7940 C 747.271 4.27379 1.05048 0
M  V30 7941 H 744.39 0.73622 0.0339026 0
M  V30 7942 H 747.032 1.80115 -0.604855 0
M  V30 7943 H 745.182 3.78179 0.889539 0
M  V30 7944 H 746.854 4.30085 -1.66806 0
M  V30 7945 H 745.097 4.01885 -1.63313 0
M  V30 7946 H 745.768 5.45384 -0.852085 0
M  V30 7947 H 748.244 4.12534 0.543603 0
M  V30 7948 H 747.12 5.36609 1.15506 0
M  V30 7949 H 747.381 3.89868 2.0846 0
M  V30 7950 N 746.441 0.193421 1.56409 0
M  V30 7951 C 747.389 -0.744829 2.20352 0
M  V30 7952 C 748.383 -1.22104 1.17418 0
M  V30 7953 O 749.589 -1.18413 1.35567 0
M  V30 7954 H 745.964 -0.258538 0.70616 0
M  V30 7955 H 747.935 -0.181794 2.97846 0
M  V30 7956 C 746.684 -1.95453 2.87565 0
M  V30 7957 H 746.007 -1.59716 3.66512 0
M  V30 7958 H 747.447 -2.58942 3.35745 0
M  V30 7959 C 745.906 -2.79223 1.8851 0
M  V30 7960 O 746.436 -3.77093 1.38434 0
M  V30 7961 N 744.642 -2.44682 1.56777 0
M  V30 7962 H 744.189 -1.65153 1.97692 0
M  V30 7963 H 744.147 -3.01016 0.907573 0
M  V30 7964 N 747.919 -1.57396 -0.0801906 0
M  V30 7965 C 749.167 -1.86467 -0.779384 0
M  V30 7966 C 749.488 -0.784243 -1.78535 0
M  V30 7967 O 748.758 0.187986 -1.94996 0
M  V30 7968 H 747.338 -0.68806 -0.29083 0
M  V30 7969 H 750 -1.94813 -0.0582749 0
M  V30 7970 H 749.096 -2.83701 -1.30078 0
M  V30 7971 N 749.397 0.351382 -1.53633 0
M  V30 7972 C 750.646 1.08988 -1.69719 0
M  V30 7973 C 750.959 1.90043 -0.462948 0
M  V30 7974 O 752.165 2.66769 -0.504613 0
M  V30 7975 C 750.621 1.98691 -3.00083 0
M  V30 7976 C 750.229 1.22881 -4.30818 0
M  V30 7977 C 751.973 2.72446 -3.25536 0
M  V30 7978 C 749.88 2.11568 -5.52262 0
M  V30 7979 H 748.81 0.410588 -0.632403 0
M  V30 7980 H 751.461 0.349886 -1.80133 0
M  V30 7981 H 749.843 2.76478 -2.83506 0
M  V30 7982 H 751.017 0.500582 -4.58073 0
M  V30 7983 H 749.332 0.60928 -4.11918 0
M  V30 7984 H 751.929 3.39055 -4.13456 0
M  V30 7985 H 752.272 3.38588 -2.42206 0
M  V30 7986 H 752.805 2.01735 -3.42852 0
M  V30 7987 H 749.544 1.4998 -6.38111 0
M  V30 7988 H 749.064 2.82201 -5.29266 0
M  V30 7989 H 750.743 2.70802 -5.87601 0
M  V30 7990 N 750.875 1.45233 0.611969 0
M  V30 7991 C 752.1 1.52767 1.40274 0
M  V30 7992 C 752.525 0.159701 1.87421 0
M  V30 7993 O 751.883 -0.854837 1.59882 0
M  V30 7994 C 751.931 2.51286 2.58626 0
M  V30 7995 O 751.035 2.02764 3.59111 0
M  V30 7996 H 750.376 0.515141 0.418958 0
M  V30 7997 H 752.906 1.90547 0.745188 0
M  V30 7998 H 752.916 2.69949 3.05927 0
M  V30 7999 H 751.591 3.50641 2.23659 0
M  V30 8000 H 750.168 1.93957 3.18489 0
M  V30 8001 N 752.353 -0.854086 1.3245 0
M  V30 8002 C 753.602 -1.60318 1.22397 0
M  V30 8003 C 753.915 -1.9444 -0.212664 0
M  V30 8004 O 755.121 -2.67991 -0.435066 0
M  V30 8005 C 753.577 -2.8909 2.1437 0
M  V30 8006 C 753.185 -2.62391 3.63119 0
M  V30 8007 C 754.929 -3.67104 2.13155 0
M  V30 8008 C 752.836 -3.87167 4.47052 0
M  V30 8009 H 751.766 -0.601586 0.454544 0
M  V30 8010 H 754.417 -0.943023 1.57415 0
M  V30 8011 H 752.799 -3.56567 1.72268 0
M  V30 8012 H 753.973 -2.03222 4.13567 0
M  V30 8013 H 752.288 -1.97706 3.66471 0
M  V30 8014 H 754.885 -4.59696 2.731 0
M  V30 8015 H 755.228 -4.00876 1.12268 0
M  V30 8016 H 755.761 -3.06533 2.5354 0
M  V30 8017 H 752.5 -3.58536 5.48755 0
M  V30 8018 H 752.02 -4.45729 4.01355 0
M  V30 8019 H 753.699 -4.549 4.60081 0
M  V30 8020 N 753.831 -1.1567 -1.07043 0
M  V30 8021 C 754.779 -0.852204 -2.16426 0
M  V30 8022 C 755.773 0.175661 -1.68487 0
M  V30 8023 O 756.979 0.0303874 -1.79974 0
M  V30 8024 H 753.354 -0.257942 -0.706378 0
M  V30 8025 H 755.325 -1.78231 -2.39324 0
M  V30 8026 C 754.074 -0.361362 -3.45817 0
M  V30 8027 H 753.397 -1.14369 -3.83092 0
M  V30 8028 H 754.837 -0.186997 -4.23587 0
M  V30 8029 C 753.296 0.917703 -3.2416 0
M  V30 8030 O 753.826 1.98858 -3.49025 0
M  V30 8031 N 752.032 0.858456 -2.77631 0
M  V30 8032 H 751.579 -0.0131821 -2.57597 0
M  V30 8033 H 751.537 1.71478 -2.6352 0
M  V30 8034 N 755.309 1.25446 -0.953992 0
M  V30 8035 C 756.534 1.97755 -0.625129 0
M  V30 8036 C 756.959 1.70437 0.795787 0
M  V30 8037 O 756.317 0.95992 1.53803 0
M  V30 8038 C 756.365 3.49463 -0.889251 0
M  V30 8039 O 755.469 4.12387 0.0322757 0
M  V30 8040 H 754.81 0.61998 -0.237742 0
M  V30 8041 H 757.34 1.59582 -1.28041 0
M  V30 8042 H 757.35 3.99772 -0.815263 0
M  V30 8043 H 756.025 3.68676 -1.92487 0
M  V30 8044 H 754.602 3.72782 -0.0938625 0
M  V30 8045 N 756.787 0.722489 1.40064 0
M  V30 8046 C 757.75 0.0830209 2.2905 0
M  V30 8047 C 758.75 -0.680208 1.45705 0
M  V30 8048 O 759.94 -0.511084 1.66534 0
M  V30 8049 C 757.072 -0.892092 3.29021 0
M  V30 8050 H 758.265 0.866848 2.87099 0
M  V30 8051 H 755.818 0.487556 1.48501 0
M  V30 8052 H 756.553 -1.70273 2.76003 0
M  V30 8053 H 756.338 -0.34761 3.90556 0
M  V30 8054 H 757.828 -1.33648 3.95636 0
M  V30 8055 N 758.265 -1.50454 0.469181 0
M  V30 8056 C 759.495 -2.06429 -0.0840913 0
M  V30 8057 C 759.903 -1.3334 -1.34227 0
M  V30 8058 O 759.246 -0.395656 -1.79389 0
M  V30 8059 C 759.308 -3.56797 -0.440049 0
M  V30 8060 C 758.972 -4.51359 0.715838 0
M  V30 8061 C 759.969 -4.94754 1.59732 0
M  V30 8062 C 757.654 -4.94069 0.905621 0
M  V30 8063 C 759.648 -5.79564 2.653 0
M  V30 8064 C 757.335 -5.78662 1.96453 0
M  V30 8065 C 758.333 -6.21311 2.83658 0
M  V30 8066 O 758.021 -7.04218 3.87727 0
M  V30 8067 H 757.753 -0.675994 0.00289751 0
M  V30 8068 H 760.307 -1.94629 0.656417 0
M  V30 8069 H 758.537 -3.66492 -1.23372 0
M  V30 8070 H 760.226 -3.95145 -0.928181 0
M  V30 8071 H 760.992 -4.62428 1.46237 0
M  V30 8072 H 756.871 -4.60394 0.236326 0
M  V30 8073 H 760.415 -6.12774 3.33398 0
M  V30 8074 H 756.312 -6.10401 2.09955 0
M  V30 8075 H 757.08 -7.22464 3.84692 0
M  V30 8076 N 759.743 -0.201713 -1.56304 0
M  V30 8077 C 760.971 0.440723 -2.02152 0
M  V30 8078 C 761.386 1.54735 -1.08179 0
M  V30 8079 O 760.743 1.82289 -0.0878196 0
M  V30 8080 C 760.794 0.990884 -3.47655 0
M  V30 8081 O 760.515 -0.0715937 -4.38041 0
M  V30 8082 C 762.016 1.70854 -4.09052 0
M  V30 8083 H 759.236 0.109987 -0.661924 0
M  V30 8084 H 761.78 -0.312358 -2.021 0
M  V30 8085 H 759.935 1.69432 -3.48384 0
M  V30 8086 H 760.349 0.338892 -5.23404 0
M  V30 8087 H 761.823 2.04572 -5.12693 0
M  V30 8088 H 762.3 2.61462 -3.52894 0
M  V30 8089 H 762.906 1.0508 -4.12114 0
M  V30 8090 N 761.222 1.57436 0.0718424 0
M  V30 8091 C 762.447 1.91858 0.787745 0
M  V30 8092 C 762.872 0.798119 1.70328 0
M  V30 8093 O 762.23 -0.24905 1.79581 0
M  V30 8094 C 762.278 3.25232 1.55744 0
M  V30 8095 O 761.382 3.14462 2.6681 0
M  V30 8096 H 760.723 0.628258 0.214914 0
M  V30 8097 H 763.253 2.04561 0.0401012 0
M  V30 8098 H 763.263 3.59105 1.9367 0
M  V30 8099 H 761.938 4.0636 0.885691 0
M  V30 8100 H 760.515 2.92148 2.31741 0
M  V30 8101 N 762.7 -0.34323 1.53817 0
M  V30 8102 C 763.647 -1.42153 1.81827 0
M  V30 8103 C 764.617 -1.52251 0.663996 0
M  V30 8104 O 765.802 -1.67784 0.908461 0
M  V30 8105 C 762.942 -2.78799 2.03384 0
M  V30 8106 C 762.055 -2.7749 3.31094 0
M  V30 8107 C 761.19 -4.05856 3.42717 0
M  V30 8108 C 760.229 -3.98776 4.64375 0
M  V30 8109 N 759.366 -5.18833 4.73029 0
M  V30 8110 H 764.206 -1.17567 2.73829 0
M  V30 8111 H 761.743 -0.569506 1.35628 0
M  V30 8112 H 763.701 -3.58211 2.13872 0
M  V30 8113 H 762.331 -3.01736 1.14696 0
M  V30 8114 H 761.383 -1.90182 3.29446 0
M  V30 8115 H 762.695 -2.68137 4.206 0
M  V30 8116 H 761.849 -4.93691 3.52638 0
M  V30 8117 H 760.588 -4.1799 2.51267 0
M  V30 8118 H 759.593 -3.09325 4.5453 0
M  V30 8119 H 760.818 -3.88224 5.57189 0
M  V30 8120 H 758.764 -5.31511 3.84489 0
M  V30 8121 H 758.681 -5.11737 5.56472 0
M  V30 8122 H 759.949 -6.08439 4.87261 0
M  V30 8123 N 764.178 -1.45556 -0.604258 0
M  V30 8124 C 765.427 -1.49019 -1.35928 0
M  V30 8125 C 765.74 -0.137409 -1.95117 0
M  V30 8126 O 766.946 -0.0497032 -2.71455 0
M  V30 8127 C 765.402 -2.62477 -2.46239 0
M  V30 8128 C 765.01 -4.04082 -1.93447 0
M  V30 8129 C 766.754 -2.7519 -3.23219 0
M  V30 8130 C 764.661 -5.08917 -3.0126 0
M  V30 8131 H 763.591 -0.554518 -0.510907 0
M  V30 8132 H 766.242 -1.71705 -0.647262 0
M  V30 8133 H 764.624 -2.3308 -3.2014 0
M  V30 8134 H 765.798 -4.43173 -1.26232 0
M  V30 8135 H 764.113 -3.95849 -1.29201 0
M  V30 8136 H 766.71 -3.50683 -4.0364 0
M  V30 8137 H 767.053 -1.81941 -3.74437 0
M  V30 8138 H 767.586 -3.04129 -2.56418 0
M  V30 8139 H 764.325 -6.03886 -2.54955 0
M  V30 8140 H 763.845 -4.74393 -3.67031 0
M  V30 8141 H 765.524 -5.33814 -3.65584 0
M  V30 8142 N 765.656 0.84705 -1.32902 0
M  V30 8143 C 766.586 1.97166 -1.25091 0
M  V30 8144 C 767.567 1.69578 -0.133161 0
M  V30 8145 O 768.752 1.91519 -0.321591 0
M  V30 8146 C 765.882 3.33157 -0.981006 0
M  V30 8147 C 764.836 3.75119 -2.06082 0
M  V30 8148 C 764.162 5.08826 -1.64318 0
M  V30 8149 C 765.462 3.89774 -3.47669 0
M  V30 8150 H 767.156 2.03958 -2.19184 0
M  V30 8151 H 764.702 0.979907 -1.05517 0
M  V30 8152 H 766.655 4.11393 -0.912891 0
M  V30 8153 H 765.379 3.266 -0.00445559 0
M  V30 8154 H 764.038 2.9914 -2.11921 0
M  V30 8155 H 763.686 4.98732 -0.653876 0
M  V30 8156 H 763.386 5.37873 -2.36572 0
M  V30 8157 H 764.91 5.89546 -1.58958 0
M  V30 8158 H 766.324 4.58343 -3.44376 0
M  V30 8159 H 764.721 4.30248 -4.18338 0
M  V30 8160 H 765.791 2.92463 -3.86773 0
M  V30 8161 N 767.134 1.16236 1.06428 0
M  V30 8162 C 768.545 0.950942 1.60667 0
M  V30 8163 C 768.896 -0.505491 1.89576 0
M  V30 8164 O 768.021 -1.37843 1.66818 0
M  V30 8165 C 768.616 1.71982 2.91904 0
M  V30 8166 C 767.175 1.55342 3.4285 0
M  V30 8167 C 766.322 1.72942 2.16763 0
M  V30 8168 H 769.273 1.31126 0.893959 0
M  V30 8169 H 769.294 1.19483 3.61253 0
M  V30 8170 H 768.806 2.77978 2.70831 0
M  V30 8171 H 766.907 0.5178 3.68985 0
M  V30 8172 H 767.02 2.33643 4.18267 0
M  V30 8173 H 765.384 1.15673 2.26918 0
M  V30 8174 H 766.167 2.80324 1.98175 0
M  V30 8175 N 768.612 -1.24939 0.960631 0
M  V30 8176 C 770.023 -1.74701 0.658529 0
M  V30 8177 C 770.374 -1.77967 -0.825959 0
M  V30 8178 O 769.499 -1.40444 -1.64634 0
M  V30 8179 C 770.094 -3.17263 1.18867 0
M  V30 8180 C 768.653 -3.64561 0.936614 0
M  V30 8181 C 767.8 -2.43423 1.32817 0
M  V30 8182 H 770.751 -1.10741 1.13676 0
M  V30 8183 H 770.772 -3.76481 0.551589 0
M  V30 8184 H 770.284 -3.14854 2.26912 0
M  V30 8185 H 768.385 -3.72378 -0.128608 0
M  V30 8186 H 768.498 -4.52392 1.57729 0
M  V30 8187 H 766.862 -2.43513 0.746548 0
M  V30 8188 H 767.645 -2.437 2.41796 0
M  V30 8189 N 770.09 -0.729906 -1.39679 0
M  V30 8190 C 771 -0.0880322 -2.34435 0
M  V30 8191 C 772.016 0.727674 -1.58053 0
M  V30 8192 O 773.192 0.657321 -1.90371 0
M  V30 8193 C 770.257 0.812211 -3.37052 0
M  V30 8194 C 769.318 -0.0151681 -4.29297 0
M  V30 8195 C 768.551 0.842202 -5.27013 0
M  V30 8196 O 768.774 2.08108 -5.31081 0
M  V30 8197 O 767.708 0.27357 -6.01278 0
M  V30 8198 H 771.534 -0.869989 -2.90972 0
M  V30 8199 H 769.119 -0.490522 -1.41118 0
M  V30 8200 H 771.001 1.32745 -3.99946 0
M  V30 8201 H 769.676 1.57307 -2.82907 0
M  V30 8202 H 768.583 -0.575811 -3.69642 0
M  V30 8203 H 769.916 -0.738129 -4.86634 0
M  V30 8204 N 771.568 1.50203 -0.477153 0
M  V30 8205 C 772.515 2.28656 0.31386 0
M  V30 8206 C 773.485 1.33977 0.981802 0
M  V30 8207 O 774.67 1.62919 0.993072 0
M  V30 8208 C 771.81 3.16027 1.38639 0
M  V30 8209 C 770.923 4.25743 0.732615 0
M  V30 8210 C 770.058 5.00363 1.78355 0
M  V30 8211 C 769.097 6.01945 1.11035 0
M  V30 8212 N 768.234 6.6982 2.10441 0
M  V30 8213 H 773.074 2.958 -0.361445 0
M  V30 8214 H 770.611 1.45867 -0.190093 0
M  V30 8215 H 772.569 3.6504 2.01994 0
M  V30 8216 H 771.199 2.50917 2.03077 0
M  V30 8217 H 770.251 3.80398 -0.0136546 0
M  V30 8218 H 771.563 4.98393 0.201513 0
M  V30 8219 H 770.717 5.53124 2.49276 0
M  V30 8220 H 769.456 4.27432 2.34847 0
M  V30 8221 H 768.461 5.48438 0.386797 0
M  V30 8222 H 769.686 6.76851 0.552248 0
M  V30 8223 H 767.632 5.99677 2.65939 0
M  V30 8224 H 767.549 7.38366 1.62332 0
M  V30 8225 H 768.817 7.27196 2.80724 0
M  V30 8226 N 773.046 0.209999 1.56195 0
M  V30 8227 C 773.956 -0.716459 2.23392 0
M  V30 8228 C 774.972 -1.22291 1.23778 0
M  V30 8229 O 776.148 -1.26694 1.56558 0
M  V30 8230 C 773.213 -1.91261 2.89172 0
M  V30 8231 C 772.274 -1.44927 4.04097 0
M  V30 8232 C 771.507 -2.5884 4.66731 0
M  V30 8233 O 771.73 -3.76693 4.2832 0
M  V30 8234 O 770.664 -2.30701 5.55932 0
M  V30 8235 H 774.49 -0.174089 3.03201 0
M  V30 8236 H 772.075 -0.0199505 1.49387 0
M  V30 8237 H 773.957 -2.6114 3.30733 0
M  V30 8238 H 772.632 -2.4433 2.12331 0
M  V30 8239 H 771.539 -0.718839 3.67129 0
M  V30 8240 H 772.872 -0.965084 4.82646 0
M  V30 8241 N 774.524 -1.57472 -0.0634922 0
M  V30 8242 C 775.772 -1.87283 -0.759563 0
M  V30 8243 C 776.093 -0.803135 -1.77693 0
M  V30 8244 O 775.363 0.167293 -1.95184 0
M  V30 8245 H 773.943 -0.691106 -0.283516 0
M  V30 8246 H 776.605 -1.94864 -0.0376091 0
M  V30 8247 H 775.701 -2.85064 -1.27062 0
M  V30 8248 N 776.003 0.335068 -1.53997 0
M  V30 8249 C 777.251 1.07223 -1.71312 0
M  V30 8250 C 777.572 1.88911 -0.483486 0
M  V30 8251 O 776.842 1.89344 0.50257 0
M  V30 8252 H 775.422 0.398846 -0.63161 0
M  V30 8253 H 778.084 0.374288 -1.91272 0
M  V30 8254 H 777.18 1.7448 -2.58772 0
M  V30 8255 N 777.481 1.45874 0.596531 0
M  V30 8256 C 778.411 1.5824 1.71705 0
M  V30 8257 C 779.392 0.433366 1.64487 0
M  V30 8258 O 780.577 0.657895 1.82717 0
M  V30 8259 C 777.707 1.55927 3.10329 0
M  V30 8260 C 776.661 2.69659 3.32367 0
M  V30 8261 C 775.987 2.52403 4.71377 0
M  V30 8262 C 777.287 4.11591 3.21544 0
M  V30 8263 H 778.981 2.52035 1.61613 0
M  V30 8264 H 776.527 1.21297 0.776082 0
M  V30 8265 H 778.48 1.63173 3.88526 0
M  V30 8266 H 777.204 0.586674 3.21288 0
M  V30 8267 H 775.863 2.61859 2.56564 0
M  V30 8268 H 775.511 1.53258 4.79083 0
M  V30 8269 H 775.211 3.28679 4.87077 0
M  V30 8270 H 776.735 2.6152 5.5176 0
M  V30 8271 H 778.149 4.20576 3.89601 0
M  V30 8272 H 776.546 4.88344 3.4877 0
M  V30 8273 H 777.616 4.32719 2.1882 0
M  V30 8274 N 778.959 -0.83999 1.33349 0
M  V30 8275 C 780.37 -1.41139 1.22216 0
M  V30 8276 C 780.721 -1.95551 -0.159398 0
M  V30 8277 O 779.846 -1.88721 -1.05893 0
M  V30 8278 C 780.441 -2.56564 2.21269 0
M  V30 8279 C 779 -3.09661 2.13979 0
M  V30 8280 C 778.147 -1.82457 2.08818 0
M  V30 8281 H 781.098 -0.645853 1.44964 0
M  V30 8282 H 781.119 -3.34163 1.81976 0
M  V30 8283 H 780.631 -2.16932 3.21811 0
M  V30 8284 H 778.732 -3.53841 1.16736 0
M  V30 8285 H 778.845 -3.6991 3.04472 0
M  V30 8286 H 777.209 -2.0266 1.54276 0
M  V30 8287 H 777.992 -1.45022 3.11165 0
M  V30 8288 N 780.437 -1.16799 -1.0581 0
M  V30 8289 C 781.853 -0.913935 -1.30841 0
M  V30 8290 C 782.053 0.430439 -1.96849 0
M  V30 8291 O 781.109 1.16885 -2.23817 0
M  V30 8292 C 782.422 -2.06662 -2.18429 0
M  V30 8293 C 783.97 -2.10294 -2.31831 0
M  V30 8294 C 784.445 -3.2493 -3.22776 0
M  V30 8295 N 785.936 -3.24678 -3.30361 0
M  V30 8296 C 786.671 -4.10021 -4.00837 0
M  V30 8297 N 786.167 -5.05461 -4.73795 0
M  V30 8298 N 787.96 -3.97991 -3.96937 0
M  V30 8299 H 780.111 -2.03343 -0.613613 0
M  V30 8300 H 782.374 -0.88754 -0.333133 0
M  V30 8301 H 782.08 -3.03791 -1.77211 0
M  V30 8302 H 781.954 -2.01233 -3.19038 0
M  V30 8303 H 784.341 -1.13754 -2.72294 0
M  V30 8304 H 784.422 -2.19786 -1.30873 0
M  V30 8305 H 784.066 -4.21731 -2.83028 0
M  V30 8306 H 783.996 -3.12674 -4.23725 0
M  V30 8307 H 786.487 -2.55573 -2.78372 0
M  V30 8308 H 786.8 -5.66989 -5.25113 0
M  V30 8309 H 785.145 -5.09436 -4.72758 0
M  V30 8310 H 788.336 -3.2273 -3.39062 0
M  V30 8311 H 788.509 -4.64722 -4.51594 0
M  V30 8312 N 781.915 1.24427 -0.967243 0
M  V30 8313 C 782.847 2.24641 -0.454856 0
M  V30 8314 C 783.86 1.56849 0.436152 0
M  V30 8315 O 785.049 1.76846 0.242401 0
M  V30 8316 C 782.149 3.36954 0.362672 0
M  V30 8317 C 781.322 4.34318 -0.518324 0
M  V30 8318 C 780.381 5.25638 0.243122 0
M  V30 8319 O 779.407 5.68043 -0.362791 0
M  V30 8320 N 780.609 5.59897 1.53282 0
M  V30 8321 H 783.374 2.69238 -1.31648 0
M  V30 8322 H 780.935 1.38464 -0.839015 0
M  V30 8323 H 782.927 3.95014 0.880094 0
M  V30 8324 H 781.497 2.91646 1.12522 0
M  V30 8325 H 780.717 3.74953 -1.21672 0
M  V30 8326 H 782.005 4.96338 -1.11919 0
M  V30 8327 H 781.403 5.27373 2.04682 0
M  V30 8328 H 779.96 6.20488 1.99594 0
M  V30 8329 N 783.393 0.737304 1.3929 0
M  V30 8330 C 784.639 0.286681 2.00763 0
M  V30 8331 C 784.972 -1.12388 1.58375 0
M  V30 8332 O 784.247 -1.76661 0.813699 0
M  V30 8333 C 784.53 0.391147 3.57969 0
M  V30 8334 C 784.383 1.84165 4.1037 0
M  V30 8335 C 785.702 -0.225072 4.39524 0
M  V30 8336 H 782.821 0.105642 0.729389 0
M  V30 8337 H 785.463 0.933892 1.65464 0
M  V30 8338 H 783.613 -0.159875 3.88171 0
M  V30 8339 H 785.285 2.44972 3.90879 0
M  V30 8340 H 783.528 2.3622 3.63844 0
M  V30 8341 H 784.199 1.866 5.19504 0
M  V30 8342 H 786.675 0.244677 4.1538 0
M  V30 8343 H 785.551 -0.121646 5.48765 0
M  V30 8344 H 785.812 -1.31141 4.22202 0
M  V30 8345 N 784.871 -1.49948 0.485112 0
M  V30 8346 C 786.119 -2.01996 -0.0648775 0
M  V30 8347 C 786.44 -1.36819 -1.38945 0
M  V30 8348 O 785.71 -0.518163 -1.88923 0
M  V30 8349 H 784.29 -0.746513 -0.0269662 0
M  V30 8350 H 786.952 -1.84136 0.638733 0
M  V30 8351 H 786.048 -3.11418 -0.20617 0
M  V30 8352 N 786.349 -0.21828 -1.56081 0
M  V30 8353 C 787.297 0.709679 -2.21509 0
M  V30 8354 C 788.291 1.20221 -1.19346 0
M  V30 8355 O 789.497 1.16241 -1.37433 0
M  V30 8356 H 785.872 0.247271 -0.710184 0
M  V30 8357 H 787.843 0.134386 -2.98097 0
M  V30 8358 C 786.592 1.90853 -2.90638 0
M  V30 8359 H 785.915 1.53865 -3.69006 0
M  V30 8360 H 787.355 2.53568 -3.39822 0
M  V30 8361 C 785.814 2.76189 -1.92929 0
M  V30 8362 O 786.344 3.74842 -1.44416 0
M  V30 8363 N 784.55 2.42157 -1.6065 0
M  V30 8364 H 784.097 1.61987 -2.00294 0
M  V30 8365 H 784.055 2.99534 -0.955347 0
M  V30 8366 N 787.827 1.57504 0.0551401 0
M  V30 8367 C 788.774 2.04825 1.06373 0
M  V30 8368 C 789.744 0.932108 1.37481 0
M  V30 8369 O 790.929 1.20093 1.48265 0
M  V30 8370 C 788.069 2.51091 2.36743 0
M  V30 8371 C 787.182 3.76392 2.12021 0
M  V30 8372 C 786.317 4.11373 3.36074 0
M  V30 8373 C 785.356 5.29666 3.0679 0
M  V30 8374 N 784.493 5.60205 4.2322 0
M  V30 8375 H 789.333 2.90753 0.653216 0
M  V30 8376 H 786.87 1.43776 0.310951 0
M  V30 8377 H 788.828 2.75973 3.12881 0
M  V30 8378 H 787.458 1.68118 2.75565 0
M  V30 8379 H 786.51 3.58751 1.26498 0
M  V30 8380 H 787.822 4.62662 1.86401 0
M  V30 8381 H 786.976 4.37245 4.20597 0
M  V30 8382 H 785.715 3.23704 3.64784 0
M  V30 8383 H 784.72 5.03574 2.20664 0
M  V30 8384 H 785.945 6.18968 2.79385 0
M  V30 8385 H 783.891 4.75495 4.5193 0
M  V30 8386 H 783.808 6.40928 4.00933 0
M  V30 8387 H 785.076 5.90637 5.08692 0
M  V30 8388 N 789.305 -0.326896 1.54172 0
M  V30 8389 C 790.533 -1.08486 1.76177 0
M  V30 8390 C 790.948 -1.81815 0.508788 0
M  V30 8391 O 790.305 -1.74924 -0.520362 0
M  V30 8392 C 790.356 -2.08552 2.95276 0
M  V30 8393 O 790.077 -1.38202 4.15731 0
M  V30 8394 C 791.578 -2.96593 3.29466 0
M  V30 8395 H 788.798 -0.322835 0.588233 0
M  V30 8396 H 791.342 -0.374036 2.0105 0
M  V30 8397 H 789.497 -2.75174 2.72687 0
M  V30 8398 H 789.911 -2.05186 4.827 0
M  V30 8399 H 791.385 -3.62708 4.16109 0
M  V30 8400 H 791.862 -3.63511 2.46487 0
M  V30 8401 H 792.468 -2.35537 3.54122 0
M  V30 8402 N 790.784 -1.46188 -0.588786 0
M  V30 8403 C 791.694 -1.58865 -1.72624 0
M  V30 8404 C 792.71 -0.472348 -1.67466 0
M  V30 8405 O 793.886 -0.735638 -1.87484 0
M  V30 8406 C 790.951 -1.56989 -3.0912 0
M  V30 8407 C 790.012 -2.79804 -3.25589 0
M  V30 8408 C 789.245 -2.78009 -4.55573 0
M  V30 8409 O 789.468 -1.86406 -5.39082 0
M  V30 8410 O 788.402 -3.6947 -4.75159 0
M  V30 8411 H 792.228 -2.55047 -1.64878 0
M  V30 8412 H 789.813 -1.28912 -0.755115 0
M  V30 8413 H 791.695 -1.58618 -3.90408 0
M  V30 8414 H 790.37 -0.639648 -3.17317 0
M  V30 8415 H 789.277 -2.83732 -2.43818 0
M  V30 8416 H 790.61 -3.72017 -3.22279 0
M  V30 8417 N 792.262 0.832906 -1.33792 0
M  V30 8418 C 793.502 1.60217 -1.26925 0
M  V30 8419 C 793.866 1.91323 0.161146 0
M  V30 8420 O 795.067 2.66461 0.353864 0
M  V30 8421 C 793.338 2.87314 -2.12568 0
M  V30 8422 S 794.897 3.77939 -2.22952 0
M  V30 8423 H 791.715 0.549273 -0.451464 0
M  V30 8424 H 794.317 0.984648 -1.68893 0
M  V30 8425 H 793.021 2.62444 -3.15518 0
M  V30 8426 H 792.552 3.5407 -1.71459 0
M  V30 8427 H 794.567 4.76188 -1.39496 0
M  V30 8428 N 793.74 1.17359 1.05189 0
M  V30 8429 C 794.703 0.892604 2.11105 0
M  V30 8430 C 795.703 -0.117236 1.60372 0
M  V30 8431 O 796.893 0.114936 1.7382 0
M  V30 8432 C 794.025 0.337032 3.3923 0
M  V30 8433 H 795.218 1.83169 2.37464 0
M  V30 8434 H 792.771 0.984051 1.21434 0
M  V30 8435 H 793.506 -0.609198 3.18527 0
M  V30 8436 H 793.291 1.06484 3.77364 0
M  V30 8437 H 794.781 0.158763 4.17298 0
M  V30 8438 N 795.218 -1.23913 0.973828 0
M  V30 8439 C 796.148 -2.27453 0.527969 0
M  V30 8440 C 797.129 -1.6443 -0.435513 0
M  V30 8441 O 798.314 -1.9137 -0.330306 0
M  V30 8442 C 795.444 -3.4685 -0.176757 0
M  V30 8443 C 794.398 -4.22181 0.703352 0
M  V30 8444 C 793.724 -5.34534 -0.133215 0
M  V30 8445 C 795.024 -4.82865 1.99096 0
M  V30 8446 H 796.718 -2.65 1.3934 0
M  V30 8447 H 794.264 -1.27388 0.671446 0
M  V30 8448 H 796.217 -4.18424 -0.499934 0
M  V30 8449 H 794.941 -3.08346 -1.07659 0
M  V30 8450 H 793.6 -3.52416 1.00989 0
M  V30 8451 H 793.248 -4.92271 -1.03338 0
M  V30 8452 H 792.948 -5.85855 0.452494 0
M  V30 8453 H 794.472 -6.08933 -0.450924 0
M  V30 8454 H 795.886 -5.46481 1.73297 0
M  V30 8455 H 794.283 -5.44444 2.52389 0
M  V30 8456 H 795.353 -4.03977 2.68199 0
M  V30 8457 N 796.696 -0.74468 -1.38897 0
M  V30 8458 C 797.626 -0.126355 -2.33158 0
M  V30 8459 C 798.607 0.713517 -1.54412 0
M  V30 8460 O 799.792 0.656523 -1.82766 0
M  V30 8461 C 796.922 0.774375 -3.38557 0
M  V30 8462 C 795.876 0.0379214 -4.27983 0
M  V30 8463 C 795.202 1.05631 -5.24162 0
M  V30 8464 C 796.502 -1.12523 -5.10035 0
M  V30 8465 H 798.196 -0.913744 -2.85116 0
M  V30 8466 H 795.742 -0.440847 -1.37086 0
M  V30 8467 H 797.695 1.21655 -4.03458 0
M  V30 8468 H 796.419 1.59399 -2.85061 0
M  V30 8469 H 795.078 -0.384733 -3.64576 0
M  V30 8470 H 794.726 1.86975 -4.66958 0
M  V30 8471 H 794.426 0.568261 -5.84846 0
M  V30 8472 H 795.95 1.49799 -5.9194 0
M  V30 8473 H 797.364 -0.761037 -5.68226 0
M  V30 8474 H 795.761 -1.54355 -5.79909 0
M  V30 8475 H 796.831 -1.94237 -4.44297 0
M  V30 8476 N 798.174 1.49689 -0.493057 0
M  V30 8477 C 799.422 2.02027 0.0541642 0
M  V30 8478 C 799.743 1.37554 1.38217 0
M  V30 8479 O 799.013 0.528174 1.88646 0
M  V30 8480 H 797.593 0.746646 0.0230069 0
M  V30 8481 H 800.255 1.83795 -0.648489 0
M  V30 8482 H 799.351 3.11523 0.189652 0
M  V30 8483 N 799.652 0.226554 1.55963 0
M  V30 8484 C 800.899 -0.403789 1.98433 0
M  V30 8485 C 801.227 -1.59416 1.1143 0
M  V30 8486 O 800.482 -1.95042 0.160389 0
M  V30 8487 C 800.781 -0.87642 3.46488 0
M  V30 8488 C 800.447 0.203973 4.50438 0
M  V30 8489 C 799.109 0.500754 4.78587 0
M  V30 8490 C 801.461 0.934396 5.12756 0
M  V30 8491 C 798.789 1.53239 5.66334 0
M  V30 8492 C 801.141 1.9554 6.0162 0
M  V30 8493 C 799.805 2.25905 6.28111 0
M  V30 8494 H 799.075 -0.147757 0.726119 0
M  V30 8495 H 801.722 0.330121 1.88633 0
M  V30 8496 H 800.027 -1.68918 3.53517 0
M  V30 8497 H 801.724 -1.37407 3.76723 0
M  V30 8498 H 798.314 -0.0374917 4.28584 0
M  V30 8499 H 802.498 0.718355 4.91074 0
M  V30 8500 H 797.754 1.77321 5.85122 0
M  V30 8501 H 801.928 2.52642 6.48957 0
M  V30 8502 H 799.555 3.05985 6.959 0
M  V30 8503 N 801.13 -1.57531 -0.0467866 0
M  V30 8504 C 802.376 -1.8873 -0.742218 0
M  V30 8505 C 802.709 -0.822084 -1.75941 0
M  V30 8506 O 801.984 0.164922 -1.938 0
M  V30 8507 C 802.267 -3.30586 -1.42776 0
M  V30 8508 C 802.12 -4.47785 -0.425285 0
M  V30 8509 C 803.439 -3.71068 -2.36636 0
M  V30 8510 H 800.558 -0.686406 -0.268359 0
M  V30 8511 H 803.2 -1.89999 -0.00511341 0
M  V30 8512 H 801.35 -3.29634 -2.05605 0
M  V30 8513 H 803.022 -4.60867 0.199721 0
M  V30 8514 H 801.265 -4.33037 0.25713 0
M  V30 8515 H 801.936 -5.43884 -0.943086 0
M  V30 8516 H 804.412 -3.73273 -1.83866 0
M  V30 8517 H 803.288 -4.71165 -2.81593 0
M  V30 8518 H 803.549 -3.02355 -3.22542 0
M  V30 8519 N 802.608 0.318715 -1.54344 0
M  V30 8520 C 803.836 1.0755 -1.7675 0
M  V30 8521 C 804.251 1.81543 -0.518422 0
M  V30 8522 O 803.608 1.75198 0.511078 0
M  V30 8523 C 803.659 2.06983 -2.96378 0
M  V30 8524 O 803.38 1.35995 -4.16458 0
M  V30 8525 C 804.881 2.94841 -3.31034 0
M  V30 8526 H 802.101 0.319711 -0.589937 0
M  V30 8527 H 804.645 0.363369 -2.01246 0
M  V30 8528 H 802.8 2.73724 -2.74142 0
M  V30 8529 H 803.214 2.02623 -4.83781 0
M  V30 8530 H 804.688 3.60496 -4.18027 0
M  V30 8531 H 805.165 3.62199 -2.48412 0
M  V30 8532 H 805.771 2.33656 -3.55366 0
M  V30 8533 N 804.086 1.46499 0.581025 0
M  V30 8534 C 805.363 1.42372 1.34125 0
M  V30 8535 C 805.743 0.108073 2.10823 0
M  V30 8536 O 805.091 -0.910366 2.09582 0
M  V30 8537 C 805.301 2.65445 2.26583 0
M  V30 8538 C 806.649 3.11664 2.88359 0
M  V30 8539 O 807.673 2.66006 2.36896 0
M  V30 8540 O 806.532 3.90974 3.81839 0
M  V30 8541 H 803.626 0.566262 0.602724 0
M  V30 8542 H 806.172 1.58667 0.601903 0
M  V30 8543 H 804.944 3.52756 1.69348 0
M  V30 8544 H 804.567 2.51618 3.07854 0
M  V30 8545 N 805.565 -0.825799 1.34232 0
M  V30 8546 C 806.495 -1.95151 1.28212 0
M  V30 8547 C 807.476 -1.69345 0.160123 0
M  V30 8548 O 808.661 -1.90983 0.352019 0
M  V30 8549 C 805.791 -3.31554 1.03388 0
M  V30 8550 C 804.745 -3.71793 2.12023 0
M  V30 8551 C 804.071 -5.06147 1.72392 0
M  V30 8552 C 805.371 -3.84193 3.53826 0
M  V30 8553 H 807.065 -2.00445 2.22401 0
M  V30 8554 H 804.611 -0.962996 1.07063 0
M  V30 8555 H 806.564 -4.09889 0.978225 0
M  V30 8556 H 805.288 -3.26551 0.0564142 0
M  V30 8557 H 803.947 -2.95731 2.16654 0
M  V30 8558 H 803.595 -4.97628 0.733137 0
M  V30 8559 H 803.295 -5.34041 2.451 0
M  V30 8560 H 804.819 -5.86943 1.68317 0
M  V30 8561 H 806.233 -4.52806 3.51624 0
M  V30 8562 H 804.63 -4.23538 4.2513 0
M  V30 8563 H 805.7 -2.86272 3.91377 0
M  V30 8564 N 807.043 -1.17915 -1.04565 0
M  V30 8565 C 807.99 -0.901605 -2.12461 0
M  V30 8566 C 808.96 0.157011 -1.65356 0
M  V30 8567 O 810.145 0.0184494 -1.90791 0
M  V30 8568 C 807.285 -0.42796 -3.42436 0
M  V30 8569 C 806.398 -1.55142 -4.03181 0
M  V30 8570 C 805.533 -1.03101 -5.21098 0
M  V30 8571 C 804.572 -2.1295 -5.73863 0
M  V30 8572 N 803.709 -1.62339 -6.83074 0
M  V30 8573 H 808.549 -1.82551 -2.3554 0
M  V30 8574 H 806.086 -0.910389 -1.15544 0
M  V30 8575 H 808.044 -0.134859 -4.16982 0
M  V30 8576 H 806.674 0.458977 -3.1952 0
M  V30 8577 H 805.726 -1.96011 -3.26012 0
M  V30 8578 H 807.038 -2.37968 -4.38375 0
M  V30 8579 H 806.192 -0.692132 -6.02739 0
M  V30 8580 H 804.931 -0.17227 -4.87396 0
M  V30 8581 H 803.936 -2.47687 -4.90847 0
M  V30 8582 H 805.161 -2.9925 -6.09611 0
M  V30 8583 H 803.107 -0.787464 -6.51256 0
M  V30 8584 H 803.024 -2.38767 -7.17305 0
M  V30 8585 H 804.292 -1.31363 -7.68351 0
M  V30 8586 N 808.521 1.23394 -0.980386 0
M  V30 8587 C 809.453 2.24146 -0.478657 0
M  V30 8588 C 810.466 1.57303 0.419492 0
M  V30 8589 O 811.655 1.77094 0.223631 0
M  V30 8590 C 808.755 3.3732 0.326913 0
M  V30 8591 C 807.928 4.33744 -0.56436 0
M  V30 8592 C 806.987 5.25866 0.187358 0
M  V30 8593 O 806.013 5.67626 -0.423019 0
M  V30 8594 N 807.215 5.61492 1.47335 0
M  V30 8595 H 809.98 2.67826 -1.34496 0
M  V30 8596 H 807.541 1.37566 -0.853653 0
M  V30 8597 H 809.533 3.95926 0.838148 0
M  V30 8598 H 808.103 2.92823 1.09422 0
M  V30 8599 H 807.323 3.73641 -1.25642 0
M  V30 8600 H 808.611 4.95123 -1.17177 0
M  V30 8601 H 808.009 5.29514 1.99077 0
M  V30 8602 H 806.566 6.2257 1.93002 0
M  V30 8603 N 809.999 0.752036 1.385 0
M  V30 8604 C 811.276 0.233075 1.94206 0
M  V30 8605 C 811.656 -1.26838 1.68746 0
M  V30 8606 O 811.004 -2.04214 1.02513 0
M  V30 8607 C 811.214 0.58509 3.44061 0
M  V30 8608 C 812.562 0.543871 4.21102 0
M  V30 8609 O 813.586 0.523291 3.52335 0
M  V30 8610 O 812.445 0.553436 5.4369 0
M  V30 8611 H 809.539 0.0483049 0.825588 0
M  V30 8612 H 812.085 0.832053 1.47902 0
M  V30 8613 H 810.857 1.62212 3.56094 0
M  V30 8614 H 810.48 -0.0419738 3.97578 0
M  V30 8615 N 811.477 -1.49425 0.500989 0
M  V30 8616 C 812.707 -2.06561 -0.0402858 0
M  V30 8617 C 813.115 -1.36157 -1.31369 0
M  V30 8618 O 812.458 -0.433618 -1.78509 0
M  V30 8619 C 812.52 -3.5765 -0.364269 0
M  V30 8620 C 812.184 -4.49739 0.811417 0
M  V30 8621 C 813.181 -4.91255 1.7019 0
M  V30 8622 C 810.866 -4.92036 1.01022 0
M  V30 8623 C 812.86 -5.73806 2.77534 0
M  V30 8624 C 810.547 -5.74364 2.08683 0
M  V30 8625 C 811.545 -6.15154 2.96774 0
M  V30 8626 O 811.233 -6.95836 4.02577 0
M  V30 8627 H 810.965 -0.67578 0.0172357 0
M  V30 8628 H 813.519 -1.93193 0.697553 0
M  V30 8629 H 811.749 -3.69026 -1.1557 0
M  V30 8630 H 813.438 -3.97025 -0.844156 0
M  V30 8631 H 814.204 -4.59222 1.56013 0
M  V30 8632 H 810.083 -4.59789 0.333929 0
M  V30 8633 H 813.627 -6.05564 3.4632 0
M  V30 8634 H 809.524 -6.0581 2.22855 0
M  V30 8635 H 810.292 -7.14142 3.9993 0
M  V30 8636 N 812.955 -0.234822 -1.55841 0
M  V30 8637 C 813.887 0.702346 -2.18174 0
M  V30 8638 C 814.9 1.14776 -1.15457 0
M  V30 8639 O 816.089 1.07662 -1.42377 0
M  V30 8640 C 813.189 1.96483 -2.76129 0
M  V30 8641 C 812.362 1.67283 -4.04148 0
M  V30 8642 C 811.421 2.7837 -4.46539 0
M  V30 8643 O 810.447 2.46272 -5.13166 0
M  V30 8644 N 811.649 4.07611 -4.1332 0
M  V30 8645 H 814.414 0.169074 -2.99223 0
M  V30 8646 H 811.975 -0.0543164 -1.61809 0
M  V30 8647 H 813.967 2.70016 -3.01452 0
M  V30 8648 H 812.537 2.40822 -1.99307 0
M  V30 8649 H 811.757 0.773278 -3.86541 0
M  V30 8650 H 813.045 1.45222 -4.87635 0
M  V30 8651 H 812.443 4.36527 -3.59806 0
M  V30 8652 H 811 4.77646 -4.43506 0
M  V30 8653 N 814.433 1.57553 0.0384317 0
M  V30 8654 C 815.396 2.04927 1.02653 0
M  V30 8655 C 816.396 0.951768 1.29607 0
M  V30 8656 O 817.586 1.21568 1.24768 0
M  V30 8657 C 814.718 2.45828 2.36181 0
M  V30 8658 H 815.911 2.93474 0.617508 0
M  V30 8659 H 813.464 1.53679 0.285031 0
M  V30 8660 H 814.199 1.60408 2.8185 0
M  V30 8661 H 813.984 3.25945 2.1795 0
M  V30 8662 H 815.474 2.82939 3.0714 0
M  V30 8663 N 815.911 -0.310526 1.54511 0
M  V30 8664 C 817.157 -1.04846 1.73595 0
M  V30 8665 C 817.49 -1.87244 0.515118 0
M  V30 8666 O 816.765 -1.88282 -0.48786 0
M  V30 8667 C 817.048 -1.96237 3.01932 0
M  V30 8668 C 816.901 -1.17082 4.34295 0
M  V30 8669 C 818.22 -2.9556 3.26086 0
M  V30 8670 H 815.339 -0.37976 0.631626 0
M  V30 8671 H 817.981 -0.32394 1.87218 0
M  V30 8672 H 816.131 -2.58015 2.90449 0
M  V30 8673 H 817.803 -0.576643 4.57682 0
M  V30 8674 H 816.046 -0.473336 4.3121 0
M  V30 8675 H 816.717 -1.84257 5.20339 0
M  V30 8676 H 819.193 -2.43908 3.37117 0
M  V30 8677 H 818.069 -3.5668 4.17218 0
M  V30 8678 H 818.33 -3.68715 2.4393 0
M  V30 8679 N 817.389 -1.46805 -0.573248 0
M  V30 8680 C 818.805 -1.31969 -0.897577 0
M  V30 8681 C 819.005 -0.298171 -1.99282 0
M  V30 8682 O 818.061 0.295953 -2.5076 0
M  V30 8683 C 819.374 -2.70859 -1.30598 0
M  V30 8684 C 820.922 -2.79022 -1.4183 0
M  V30 8685 C 821.397 -4.18516 -1.86033 0
M  V30 8686 N 822.888 -4.2098 -1.9321 0
M  V30 8687 C 823.623 -5.25814 -2.28707 0
M  V30 8688 N 823.119 -6.40968 -2.6293 0
M  V30 8689 N 824.912 -5.13184 -2.29343 0
M  V30 8690 H 817.063 -2.11869 0.150094 0
M  V30 8691 H 819.326 -0.947989 0.00447895 0
M  V30 8692 H 819.032 -3.46965 -0.575161 0
M  V30 8693 H 818.906 -3.01585 -2.26554 0
M  V30 8694 H 821.293 -2.03198 -2.13996 0
M  V30 8695 H 821.374 -2.51969 -0.441024 0
M  V30 8696 H 821.018 -4.94839 -1.14442 0
M  V30 8697 H 820.948 -4.42982 -2.84735 0
M  V30 8698 H 823.439 -3.37898 -1.69214 0
M  V30 8699 H 823.752 -7.16729 -2.88996 0
M  V30 8700 H 822.097 -6.44314 -2.60547 0
M  V30 8701 H 825.288 -4.22255 -2.02036 0
M  V30 8702 H 825.461 -5.94996 -2.56679 0
M  V30 8703 N 818.867 0.818669 -1.34668 0
M  V30 8704 C 819.815 1.95123 -1.26609 0
M  V30 8705 C 820.809 1.68611 -0.163348 0
M  V30 8706 O 822.015 1.76975 -0.328586 0
M  V30 8707 H 818.39 0.640871 -0.393431 0
M  V30 8708 H 820.361 1.99043 -2.22316 0
M  V30 8709 C 819.11 3.31697 -1.04272 0
M  V30 8710 H 818.433 3.52648 -1.8836 0
M  V30 8711 H 819.873 4.11382 -1.0267 0
M  V30 8712 C 818.332 3.35942 0.253858 0
M  V30 8713 O 818.862 3.81632 1.25378 0
M  V30 8714 N 817.068 2.89165 0.288447 0
M  V30 8715 H 816.615 2.52176 -0.525845 0
M  V30 8716 H 816.573 2.92387 1.15572 0
M  V30 8717 N 820.346 1.18468 1.03938 0
M  V30 8718 C 821.256 0.927889 2.1547 0
M  V30 8719 C 822.272 -0.108447 1.73662 0
M  V30 8720 O 823.448 0.0737636 2.01265 0
M  V30 8721 C 820.513 0.458494 3.43655 0
M  V30 8722 C 819.574 1.56295 3.99838 0
M  V30 8723 C 818.807 1.11586 5.21904 0
M  V30 8724 O 819.03 -0.0249057 5.70395 0
M  V30 8725 O 817.964 1.91412 5.70653 0
M  V30 8726 H 821.79 1.86116 2.39989 0
M  V30 8727 H 819.375 0.966607 1.13917 0
M  V30 8728 H 821.257 0.204861 4.20902 0
M  V30 8729 H 819.932 -0.446464 3.20606 0
M  V30 8730 H 818.839 1.87061 3.23974 0
M  V30 8731 H 820.172 2.44408 4.2723 0
M  V30 8732 N 821.824 -1.22873 0.986916 0
M  V30 8733 C 823.07 -1.91746 0.660401 0
M  V30 8734 C 823.403 -1.76738 -0.804812 0
M  V30 8735 O 822.678 -1.13246 -1.58131 0
M  V30 8736 C 822.961 -3.44156 1.05966 0
M  V30 8737 C 822.814 -3.68242 2.58298 0
M  V30 8738 C 824.133 -4.35874 0.60842 0
M  V30 8739 H 821.252 -0.696347 0.241391 0
M  V30 8740 H 823.894 -1.44867 1.22937 0
M  V30 8741 H 822.044 -3.84213 0.575534 0
M  V30 8742 H 823.716 -3.37626 3.14335 0
M  V30 8743 H 821.959 -3.12728 3.00638 0
M  V30 8744 H 822.63 -4.74956 2.81285 0
M  V30 8745 H 825.106 -4.03299 1.02417 0
M  V30 8746 H 823.982 -5.41201 0.916142 0
M  V30 8747 H 824.243 -4.39364 -0.491086 0
M  V30 8748 N 823.302 -0.75937 -1.38099 0
M  V30 8749 C 824.713 -0.385078 -1.82686 0
M  V30 8750 C 825.064 1.0871 -1.6333 0
M  V30 8751 O 824.189 1.84084 -1.13762 0
M  V30 8752 C 824.784 -0.692161 -3.31654 0
M  V30 8753 C 823.343 -0.371077 -3.74566 0
M  V30 8754 C 822.49 -0.942375 -2.60796 0
M  V30 8755 H 825.441 -0.955048 -1.26746 0
M  V30 8756 H 825.462 0.0276001 -3.8049 0
M  V30 8757 H 824.974 -1.76369 -3.4571 0
M  V30 8758 H 823.075 0.693637 -3.66087 0
M  V30 8759 H 823.188 -0.870672 -4.71122 0
M  V30 8760 H 821.552 -0.367383 -2.52036 0
M  V30 8761 H 822.335 -2.01905 -2.77649 0
M  V30 8762 N 824.78 1.49157 -0.508906 0
M  V30 8763 C 825.69 2.33045 0.269656 0
M  V30 8764 C 826.706 1.45143 0.959662 0
M  V30 8765 O 827.882 1.78155 0.939295 0
M  V30 8766 C 824.947 3.20772 1.31554 0
M  V30 8767 C 824.008 4.24531 0.638131 0
M  V30 8768 C 823.241 5.08065 1.63418 0
M  V30 8769 O 823.464 4.93238 2.86483 0
M  V30 8770 O 822.398 5.90117 1.18516 0
M  V30 8771 H 826.224 3.00821 -0.417183 0
M  V30 8772 H 823.809 1.46938 -0.270119 0
M  V30 8773 H 825.691 3.75095 1.92047 0
M  V30 8774 H 824.366 2.55681 1.98516 0
M  V30 8775 H 823.273 3.74099 -0.00674357 0
M  V30 8776 H 824.606 4.92199 0.0108155 0
M  V30 8777 N 826.258 0.243083 1.55714 0
M  V30 8778 C 827.168 -0.668913 2.24862 0
M  V30 8779 C 828.184 -1.19638 1.26344 0
M  V30 8780 O 829.36 -1.23345 1.5921 0
M  V30 8781 C 826.425 -1.85084 2.93163 0
M  V30 8782 C 825.486 -1.36323 4.07081 0
M  V30 8783 C 824.719 -2.48882 4.72116 0
M  V30 8784 O 824.942 -3.67523 4.36214 0
M  V30 8785 O 823.876 -2.18857 5.60701 0
M  V30 8786 H 827.702 -0.109737 3.03502 0
M  V30 8787 H 825.287 0.0117411 1.49395 0
M  V30 8788 H 827.169 -2.54065 3.36197 0
M  V30 8789 H 825.844 -2.39771 2.17466 0
M  V30 8790 H 824.751 -0.640804 3.68571 0
M  V30 8791 H 826.084 -0.86249 4.84584 0
M  V30 8792 N 827.736 -1.57571 -0.0300757 0
M  V30 8793 C 828.683 -2.06492 -1.03101 0
M  V30 8794 C 829.653 -0.953862 -1.3598 0
M  V30 8795 O 830.838 -1.22436 -1.46335 0
M  V30 8796 C 827.978 -2.54826 -2.32718 0
M  V30 8797 C 827.091 -3.79718 -2.06006 0
M  V30 8798 C 826.226 -4.16668 -3.29487 0
M  V30 8799 C 825.265 -5.3448 -2.98324 0
M  V30 8800 N 824.402 -5.66867 -4.14254 0
M  V30 8801 H 829.242 -2.91755 -0.606877 0
M  V30 8802 H 826.779 -1.44252 -0.288038 0
M  V30 8803 H 828.737 -2.80916 -3.08451 0
M  V30 8804 H 827.367 -1.72481 -2.72856 0
M  V30 8805 H 826.419 -3.60718 -1.20774 0
M  V30 8806 H 827.731 -4.65569 -1.79017 0
M  V30 8807 H 826.885 -4.43881 -4.13588 0
M  V30 8808 H 825.624 -3.29466 -3.59588 0
M  V30 8809 H 824.629 -5.07021 -2.12625 0
M  V30 8810 H 825.854 -6.23334 -2.69502 0
M  V30 8811 H 823.8 -4.82625 -4.44308 0
M  V30 8812 H 823.717 -6.47226 -3.90685 0
M  V30 8813 H 824.985 -5.98656 -4.99231 0
M  V30 8814 N 829.214 0.302327 -1.54673 0
M  V30 8815 C 830.144 1.37759 -1.88533 0
M  V30 8816 C 831.125 1.52961 -0.744113 0
M  V30 8817 O 832.31 1.6649 -0.999731 0
M  V30 8818 C 829.44 2.74201 -2.13146 0
M  V30 8819 C 828.394 2.73765 -3.28993 0
M  V30 8820 C 827.72 4.13483 -3.39022 0
M  V30 8821 C 829.02 2.35624 -4.66132 0
M  V30 8822 H 830.714 1.0967 -2.78591 0
M  V30 8823 H 828.26 0.52613 -1.34044 0
M  V30 8824 H 830.213 3.49508 -2.35419 0
M  V30 8825 H 828.937 3.03812 -1.19858 0
M  V30 8826 H 827.596 2.00914 -3.06642 0
M  V30 8827 H 827.244 4.40269 -2.43253 0
M  V30 8828 H 826.944 4.14093 -4.16894 0
M  V30 8829 H 828.468 4.90572 -3.63553 0
M  V30 8830 H 829.882 3.00647 -4.88143 0
M  V30 8831 H 828.279 2.47449 -5.46707 0
M  V30 8832 H 829.349 1.30753 -4.66939 0
M  V30 8833 N 830.692 1.47107 0.565454 0
M  V30 8834 C 831.922 1.56681 1.34664 0
M  V30 8835 C 832.33 0.213011 1.87997 0
M  V30 8836 O 831.673 -0.802629 1.65238 0
M  V30 8837 C 831.735 2.52528 2.55871 0
M  V30 8838 C 831.399 3.98403 2.23883 0
M  V30 8839 C 832.396 4.87125 1.81673 0
M  V30 8840 C 830.081 4.43674 2.35496 0
M  V30 8841 C 832.075 6.19135 1.51494 0
M  V30 8842 C 829.762 5.75714 2.0493 0
M  V30 8843 C 830.76 6.63266 1.62996 0
M  V30 8844 O 830.448 7.92853 1.32813 0
M  V30 8845 H 830.18 0.531967 0.417117 0
M  V30 8846 H 832.734 1.93368 0.692669 0
M  V30 8847 H 830.964 2.10893 3.24131 0
M  V30 8848 H 832.653 2.5232 3.17945 0
M  V30 8849 H 833.419 4.534 1.72201 0
M  V30 8850 H 829.298 3.7574 2.67096 0
M  V30 8851 H 832.842 6.87429 1.1869 0
M  V30 8852 H 828.739 6.08983 2.14031 0
M  V30 8853 H 829.507 8.0528 1.46513 0
M  V30 8854 N 832.17 -0.811516 1.35101 0
M  V30 8855 C 833.117 -1.92308 1.27617 0
M  V30 8856 C 834.087 -1.6543 0.149091 0
M  V30 8857 O 835.272 -1.8789 0.331974 0
M  V30 8858 C 832.412 -3.28768 1.04908 0
M  V30 8859 C 831.525 -3.67865 2.26493 0
M  V30 8860 C 830.66 -4.9333 1.96974 0
M  V30 8861 C 829.699 -5.25041 3.1464 0
M  V30 8862 N 828.836 -6.41685 2.84929 0
M  V30 8863 H 833.676 -1.98041 2.22674 0
M  V30 8864 H 831.213 -0.968755 1.10696 0
M  V30 8865 H 833.171 -4.07426 0.897749 0
M  V30 8866 H 831.801 -3.22517 0.135151 0
M  V30 8867 H 830.853 -2.84507 2.52507 0
M  V30 8868 H 832.165 -3.87263 3.14371 0
M  V30 8869 H 831.319 -5.79803 1.78643 0
M  V30 8870 H 830.058 -4.75958 1.06374 0
M  V30 8871 H 829.063 -4.3706 3.33554 0
M  V30 8872 H 830.288 -5.44346 4.06035 0
M  V30 8873 H 828.234 -6.25747 1.96918 0
M  V30 8874 H 828.151 -6.6131 3.66341 0
M  V30 8875 H 829.419 -7.31198 2.70128 0
M  V30 8876 N 833.648 -1.19017 -1.03309 0
M  V30 8877 C 834.894 -0.991681 -1.769 0
M  V30 8878 C 835.227 0.476813 -1.88255 0
M  V30 8879 O 834.502 1.35407 -1.39625 0
M  V30 8880 C 834.785 -1.65627 -3.19749 0
M  V30 8881 C 834.638 -3.19813 -3.1629 0
M  V30 8882 C 835.957 -1.37579 -4.18043 0
M  V30 8883 H 833.076 -0.361674 -0.642153 0
M  V30 8884 H 835.718 -1.46795 -1.20628 0
M  V30 8885 H 833.868 -1.25132 -3.67796 0
M  V30 8886 H 835.54 -3.69494 -2.76174 0
M  V30 8887 H 833.783 -3.51578 -2.54117 0
M  V30 8888 H 834.454 -3.61457 -4.17196 0
M  V30 8889 H 836.93 -1.72679 -3.78578 0
M  V30 8890 H 835.806 -1.86636 -5.16196 0
M  V30 8891 H 836.067 -0.300118 -4.4108 0
M  V30 8892 N 835.127 1.22348 -0.993418 0
M  V30 8893 C 836.357 1.94842 -0.687023 0
M  V30 8894 C 836.765 1.73594 0.752445 0
M  V30 8895 O 836.108 1.03238 1.51946 0
M  V30 8896 C 836.17 3.47694 -0.913754 0
M  V30 8897 C 835.834 3.92678 -2.33781 0
M  V30 8898 C 836.831 4.0031 -3.31734 0
M  V30 8899 C 834.516 4.25311 -2.67237 0
M  V30 8900 C 836.51 4.39951 -4.61218 0
M  V30 8901 C 834.197 4.64631 -3.9694 0
M  V30 8902 C 835.195 4.71919 -4.93742 0
M  V30 8903 O 834.883 5.10349 -6.21127 0
M  V30 8904 H 834.615 0.626771 -0.253247 0
M  V30 8905 H 837.169 1.56436 -1.33105 0
M  V30 8906 H 835.399 3.86115 -0.212552 0
M  V30 8907 H 837.088 4.01403 -0.602528 0
M  V30 8908 H 837.854 3.75288 -3.07219 0
M  V30 8909 H 833.733 4.18842 -1.92594 0
M  V30 8910 H 837.277 4.45555 -5.36774 0
M  V30 8911 H 833.174 4.89104 -4.21245 0
M  V30 8912 H 833.942 5.2842 -6.25072 0
M  V30 8913 N 836.605 0.766683 1.37694 0
M  V30 8914 C 837.833 0.339939 2.04088 0
M  V30 8915 C 838.248 -1.03617 1.57826 0
M  V30 8916 O 837.605 -1.6605 0.757214 0
M  V30 8917 C 837.656 0.368269 3.59619 0
M  V30 8918 O 837.377 1.69009 4.04188 0
M  V30 8919 C 838.878 -0.0707053 4.43244 0
M  V30 8920 H 836.098 0.143189 0.655544 0
M  V30 8921 H 838.642 1.03919 1.76128 0
M  V30 8922 H 836.797 -0.282359 3.8637 0
M  V30 8923 H 837.211 1.62523 4.98685 0
M  V30 8924 H 838.685 0.000273538 5.52 0
M  V30 8925 H 839.162 -1.1204 4.24669 0
M  V30 8926 H 839.768 0.551543 4.21709 0
M  V30 8927 N 838.083 -1.48885 0.516809 0
M  V30 8928 C 839.33 -2.02488 -0.0220602 0
M  V30 8929 C 839.658 -1.39513 -1.35523 0
M  V30 8930 O 838.913 -0.52558 -1.8851 0
M  V30 8931 C 839.212 -3.56801 -0.206798 0
M  V30 8932 C 838.878 -4.38496 1.05035 0
M  V30 8933 C 837.54 -4.60538 1.39492 0
M  V30 8934 C 839.892 -4.85909 1.88525 0
M  V30 8935 C 837.22 -5.2724 2.57361 0
M  V30 8936 C 839.572 -5.53909 3.05561 0
M  V30 8937 C 838.236 -5.74193 3.4038 0
M  V30 8938 H 837.506 -0.740956 -0.00807238 0
M  V30 8939 H 840.153 -1.79014 0.680168 0
M  V30 8940 H 838.458 -3.79042 -0.991687 0
M  V30 8941 H 840.155 -3.95885 -0.638447 0
M  V30 8942 H 836.745 -4.2159 0.771984 0
M  V30 8943 H 840.929 -4.68694 1.63218 0
M  V30 8944 H 836.185 -5.41145 2.84556 0
M  V30 8945 H 840.359 -5.89619 3.7057 0
M  V30 8946 H 837.986 -6.25652 4.31814 0
M  V30 8947 N 839.561 -0.251338 -1.55583 0
M  V30 8948 C 840.509 0.662534 -2.22965 0
M  V30 8949 C 841.503 1.17662 -1.21869 0
M  V30 8950 O 842.709 1.133 -1.39868 0
M  V30 8951 H 839.084 0.232151 -0.715269 0
M  V30 8952 H 841.055 0.0711252 -2.98315 0
M  V30 8953 C 839.804 1.84646 -2.94621 0
M  V30 8954 H 839.127 1.46003 -3.72187 0
M  V30 8955 H 840.567 2.46303 -3.45124 0
M  V30 8956 C 839.026 2.72034 -1.98744 0
M  V30 8957 O 839.556 3.71695 -1.52335 0
M  V30 8958 N 837.762 2.38695 -1.6575 0
M  V30 8959 H 837.309 1.57702 -2.03685 0
M  V30 8960 H 837.267 2.9744 -1.01867 0
M  V30 8961 N 841.039 1.57585 0.0217189 0
M  V30 8962 C 842.264 1.94267 0.726309 0
M  V30 8963 C 842.689 0.851904 1.67703 0
M  V30 8964 O 842.047 -0.191792 1.80283 0
M  V30 8965 C 842.095 3.30023 1.45318 0
M  V30 8966 O 841.199 3.22791 2.5667 0
M  V30 8967 H 840.54 0.634777 0.194818 0
M  V30 8968 H 843.07 2.04585 -0.0249985 0
M  V30 8969 H 843.08 3.65084 1.82147 0
M  V30 8970 H 841.755 4.08972 0.755962 0
M  V30 8971 H 840.332 2.99373 2.2233 0
M  V30 8972 N 842.517 -0.29412 1.54831 0
M  V30 8973 C 843.763 -1.02999 1.74697 0
M  V30 8974 C 844.096 -1.86687 0.534949 0
M  V30 8975 O 843.371 -1.88789 -0.467863 0
M  V30 8976 C 843.654 -1.93024 3.03996 0
M  V30 8977 C 843.507 -1.1247 4.35512 0
M  V30 8978 C 844.826 -2.92085 3.29203 0
M  V30 8979 H 841.945 -0.373039 0.635618 0
M  V30 8980 H 844.587 -0.304065 1.87551 0
M  V30 8981 H 842.737 -2.5492 2.93169 0
M  V30 8982 H 844.409 -0.528067 4.58268 0
M  V30 8983 H 842.652 -0.427574 4.31688 0
M  V30 8984 H 843.323 -1.78728 5.22265 0
M  V30 8985 H 845.799 -2.40319 3.39685 0
M  V30 8986 H 844.675 -3.52234 4.20978 0
M  V30 8987 H 844.936 -3.66107 2.47827 0
M  V30 8988 N 843.995 -1.47404 -0.557645 0
M  V30 8989 C 845.411 -1.32913 -0.88353 0
M  V30 8990 C 845.611 -0.31929 -1.98954 0
M  V30 8991 O 844.667 0.26934 -2.51059 0
M  V30 8992 C 845.98 -2.72229 -1.27718 0
M  V30 8993 C 847.528 -2.8051 -1.38863 0
M  V30 8994 C 848.003 -4.20466 -1.81583 0
M  V30 8995 N 849.494 -4.23005 -1.88735 0
M  V30 8996 C 850.229 -5.2821 -2.23118 0
M  V30 8997 N 849.725 -6.4372 -2.56117 0
M  V30 8998 N 851.518 -5.15588 -2.23888 0
M  V30 8999 H 843.669 -2.11698 0.172557 0
M  V30 9000 H 845.932 -0.947889 0.0145334 0
M  V30 9001 H 845.638 -3.47556 -0.538329 0
M  V30 9002 H 845.512 -3.03971 -2.23342 0
M  V30 9003 H 847.899 -2.05457 -2.11829 0
M  V30 9004 H 847.98 -2.52423 -0.414274 0
M  V30 9005 H 847.624 -4.96025 -1.09187 0
M  V30 9006 H 847.554 -4.45977 -2.80021 0
M  V30 9007 H 850.045 -3.39674 -1.65621 0
M  V30 9008 H 850.358 -7.19754 -2.81378 0
M  V30 9009 H 848.703 -6.47041 -2.53698 0
M  V30 9010 H 851.894 -4.24374 -1.97546 0
M  V30 9011 H 852.067 -5.97685 -2.50353 0
M  V30 9012 N 845.473 0.80434 -1.35529 0
M  V30 9013 C 846.42 1.91629 -1.28635 0
M  V30 9014 C 847.39 1.65348 -0.157862 0
M  V30 9015 O 848.575 1.87711 -0.341934 0
M  V30 9016 C 845.715 3.28207 -1.0665 0
M  V30 9017 C 844.828 3.66659 -2.28441 0
M  V30 9018 C 843.963 4.92279 -1.99588 0
M  V30 9019 C 843.002 5.23365 -3.1742 0
M  V30 9020 N 842.139 6.40165 -2.88328 0
M  V30 9021 H 846.979 1.96858 -2.23721 0
M  V30 9022 H 844.516 0.962871 -1.11208 0
M  V30 9023 H 846.474 4.06945 -0.919343 0
M  V30 9024 H 845.104 3.22441 -0.152253 0
M  V30 9025 H 844.156 2.83164 -2.54013 0
M  V30 9026 H 845.468 3.8559 -3.1642 0
M  V30 9027 H 844.622 5.78847 -1.81715 0
M  V30 9028 H 843.361 4.75387 -1.08896 0
M  V30 9029 H 842.366 4.35285 -3.35867 0
M  V30 9030 H 843.591 5.42185 -4.08916 0
M  V30 9031 H 841.537 6.24694 -2.00233 0
M  V30 9032 H 841.454 6.59357 -3.69843 0
M  V30 9033 H 842.722 7.29755 -2.74002 0
M  V30 9034 N 846.951 1.19563 1.02676 0
M  V30 9035 C 848.176 1.02556 1.80269 0
M  V30 9036 C 848.601 -0.421056 1.83327 0
M  V30 9037 O 847.959 -1.30279 1.26084 0
M  V30 9038 C 848.007 1.60165 3.23078 0
M  V30 9039 O 847.111 0.832404 4.03912 0
M  V30 9040 H 846.452 0.362354 0.556413 0
M  V30 9041 H 848.982 1.58633 1.29216 0
M  V30 9042 H 848.992 1.6347 3.7382 0
M  V30 9043 H 847.667 2.65454 3.20167 0
M  V30 9044 H 846.244 0.872768 3.62543 0
M  V30 9045 N 848.429 -1.21819 0.999893 0
M  V30 9046 C 849.362 -2.22635 0.500887 0
M  V30 9047 C 850.34 -1.56459 -0.442636 0
M  V30 9048 O 851.524 -1.84902 -0.366551 0
M  V30 9049 C 848.651 -3.37598 -0.273046 0
M  V30 9050 C 847.697 -4.22006 0.617511 0
M  V30 9051 S 848.53 -4.93583 2.07693 0
M  V30 9052 C 849.686 -6.1198 1.31269 0
M  V30 9053 H 849.919 -2.64618 1.35516 0
M  V30 9054 H 847.452 -1.31606 0.807419 0
M  V30 9055 H 849.41 -4.04251 -0.713515 0
M  V30 9056 H 848.071 -2.94108 -1.10268 0
M  V30 9057 H 847.264 -5.03995 0.0216543 0
M  V30 9058 H 846.866 -3.6052 0.99504 0
M  V30 9059 H 849.158 -6.74979 0.583933 0
M  V30 9060 H 850.101 -6.75991 2.10811 0
M  V30 9061 H 850.509 -5.5847 0.822901 0
M  V30 9062 N 849.908 -0.773975 -1.37286 0
M  V30 9063 C 851.133 -0.349561 -2.04433 0
M  V30 9064 C 851.558 1.02082 -1.5799 0
M  V30 9065 O 850.916 1.65458 -0.741172 0
M  V30 9066 C 850.964 -0.404292 -3.58326 0
M  V30 9067 O 850.068 0.594447 -4.08093 0
M  V30 9068 H 849.409 -0.150959 -0.646612 0
M  V30 9069 H 851.939 -1.05079 -1.75555 0
M  V30 9070 H 851.949 -0.262378 -4.07155 0
M  V30 9071 H 850.624 -1.40403 -3.91484 0
M  V30 9072 H 849.201 0.415468 -3.70578 0
M  V30 9073 N 851.386 1.48609 -0.524698 0
M  V30 9074 C 852.614 2.06899 0.00742946 0
M  V30 9075 C 853.029 1.38196 1.28637 0
M  V30 9076 O 852.386 0.467771 1.76403 0
M  V30 9077 C 852.437 3.60699 0.240548 0
M  V30 9078 O 852.158 4.26821 -0.987715 0
M  V30 9079 C 853.659 4.35769 0.813652 0
M  V30 9080 H 850.879 0.670278 -0.0311294 0
M  V30 9081 H 853.423 1.91071 -0.728832 0
M  V30 9082 H 851.578 3.76149 0.926845 0
M  V30 9083 H 851.992 5.18889 -0.765175 0
M  V30 9084 H 853.466 5.44174 0.926219 0
M  V30 9085 H 853.943 3.9984 1.81728 0
M  V30 9086 H 854.549 4.24983 0.164086 0
M  V30 9087 N 852.864 0.259585 1.55447 0
M  V30 9088 C 854.11 -0.362143 1.9954 0
M  V30 9089 C 854.443 -1.5666 1.14767 0
M  V30 9090 O 853.718 -1.93319 0.214025 0
M  V30 9091 C 854.001 -0.759588 3.51998 0
M  V30 9092 C 853.854 0.451134 4.47532 0
M  V30 9093 C 855.173 -1.60186 4.09913 0
M  V30 9094 H 852.292 -0.130157 0.725416 0
M  V30 9095 H 854.934 0.363431 1.86492 0
M  V30 9096 H 853.084 -1.3778 3.63248 0
M  V30 9097 H 854.756 1.08965 4.48246 0
M  V30 9098 H 852.999 1.092 4.19831 0
M  V30 9099 H 853.67 0.129518 5.51848 0
M  V30 9100 H 856.146 -1.0799 4.01842 0
M  V30 9101 H 855.022 -1.84879 5.16828 0
M  V30 9102 H 855.283 -2.57787 3.59163 0
M  V30 9103 N 854.342 -1.57594 -0.0133615 0
M  V30 9104 C 855.591 -1.8916 -0.700103 0
M  V30 9105 C 855.904 -0.860147 -1.75673 0
M  V30 9106 O 857.11 -1.06556 -2.49716 0
M  V30 9107 C 855.566 -3.35742 -1.29635 0
M  V30 9108 C 855.174 -4.47154 -0.275249 0
M  V30 9109 C 856.918 -3.76436 -1.96205 0
M  V30 9110 C 854.825 -5.84805 -0.880726 0
M  V30 9111 H 853.755 -0.705805 -0.265247 0
M  V30 9112 H 856.406 -1.83445 0.044993 0
M  V30 9113 H 854.788 -3.36252 -2.09167 0
M  V30 9114 H 855.962 -4.58139 0.494506 0
M  V30 9115 H 854.277 -4.15394 0.289256 0
M  V30 9116 H 856.874 -4.76606 -2.42386 0
M  V30 9117 H 857.217 -3.09249 -2.78695 0
M  V30 9118 H 857.75 -3.78168 -1.23426 0
M  V30 9119 H 854.489 -6.55431 -0.0949013 0
M  V30 9120 H 854.009 -5.7751 -1.61995 0
M  V30 9121 H 855.688 -6.32038 -1.38338 0
M  V30 9122 N 855.82 0.285905 -1.54985 0
M  V30 9123 C 857.236 0.632405 -1.46536 0
M  V30 9124 C 857.436 1.90074 -0.668888 0
M  V30 9125 O 856.492 2.51839 -0.182586 0
M  V30 9126 C 857.805 0.771361 -2.90638 0
M  V30 9127 C 859.353 0.866262 -3.00774 0
M  V30 9128 C 859.828 1.0371 -4.46103 0
M  V30 9129 N 861.319 1.10294 -4.49877 0
M  V30 9130 C 862.054 1.25369 -5.59527 0
M  V30 9131 N 861.55 1.37246 -6.7907 0
M  V30 9132 N 863.343 1.28377 -5.47244 0
M  V30 9133 H 855.494 -0.547226 -2.0523 0
M  V30 9134 H 857.757 -0.183298 -0.930111 0
M  V30 9135 H 857.463 -0.0899485 -3.51585 0
M  V30 9136 H 857.337 1.65569 -3.3892 0
M  V30 9137 H 859.724 1.71805 -2.39931 0
M  V30 9138 H 859.805 -0.0424049 -2.55765 0
M  V30 9139 H 859.449 0.190021 -5.07544 0
M  V30 9140 H 859.379 1.96022 -4.88757 0
M  V30 9141 H 861.87 1.02407 -3.6376 0
M  V30 9142 H 862.183 1.48546 -7.58389 0
M  V30 9143 H 860.528 1.34274 -6.81906 0
M  V30 9144 H 863.719 1.1872 -4.52795 0
M  V30 9145 H 863.892 1.39782 -6.32744 0
M  V30 9146 N 857.298 1.47698 0.54982 0
M  V30 9147 C 858.246 1.61156 1.67724 0
M  V30 9148 C 859.24 0.478606 1.62498 0
M  V30 9149 O 860.446 0.656661 1.67595 0
M  V30 9150 H 856.821 0.507304 0.55511 0
M  V30 9151 H 858.792 2.55884 1.53512 0
M  V30 9152 C 857.541 1.64994 3.06059 0
M  V30 9153 H 856.864 2.51525 3.10765 0
M  V30 9154 H 858.304 1.78459 3.84615 0
M  V30 9155 C 856.763 0.384677 3.34697 0
M  V30 9156 O 857.293 -0.511057 3.98436 0
M  V30 9157 N 855.499 0.262434 2.89413 0
M  V30 9158 H 855.046 0.99229 2.37721 0
M  V30 9159 H 855.004 -0.583177 3.08944 0
M  V30 9160 N 858.776 -0.797141 1.35954 0
M  V30 9161 C 860.187 -1.37179 1.26644 0
M  V30 9162 C 860.538 -1.9596 -0.0971046 0
M  V30 9163 O 859.663 -1.91994 -0.998355 0
M  V30 9164 C 860.258 -2.49395 2.2932 0
M  V30 9165 C 858.817 -3.02697 2.23722 0
M  V30 9166 C 857.964 -1.75721 2.14517 0
M  V30 9167 H 860.915 -0.599407 1.46945 0
M  V30 9168 H 860.936 -3.28204 1.92515 0
M  V30 9169 H 860.448 -2.06584 3.2855 0
M  V30 9170 H 858.549 -3.49948 1.27934 0
M  V30 9171 H 858.662 -3.60036 3.16087 0
M  V30 9172 H 857.026 -1.97649 1.60646 0
M  V30 9173 H 857.809 -1.35049 3.15621 0
M  V30 9174 N 860.254 -1.20106 -1.0204 0
M  V30 9175 C 861.202 -0.943231 -2.12617 0
M  V30 9176 C 862.196 0.104042 -1.6908 0
M  V30 9177 O 863.402 -0.0459732 -1.79941 0
M  V30 9178 H 859.777 -0.28767 -0.694802 0
M  V30 9179 H 861.748 -1.88221 -2.3155 0
M  V30 9180 C 860.497 -0.50771 -3.43973 0
M  V30 9181 H 859.82 -1.30514 -3.77897 0
M  V30 9182 H 861.26 -0.366486 -4.22413 0
M  V30 9183 C 859.719 0.77939 -3.27761 0
M  V30 9184 O 860.249 1.83876 -3.57145 0
M  V30 9185 N 858.455 0.739931 -2.81022 0
M  V30 9186 H 858.002 -0.122426 -2.57309 0
M  V30 9187 H 857.96 1.60147 -2.70556 0
M  V30 9188 N 861.732 1.21287 -1.00634 0
M  V30 9189 C 862.98 1.90013 -0.688438 0
M  V30 9190 C 863.301 1.78573 0.783365 0
M  V30 9191 O 862.571 1.1815 1.56261 0
M  V30 9192 H 861.151 0.703336 -0.251648 0
M  V30 9193 H 863.813 1.47346 -1.27574 0
M  V30 9194 H 862.909 2.96879 -0.962781 0
M  V30 9195 N 863.21 0.781244 1.36873 0
M  V30 9196 C 864.458 0.349198 1.9906 0
M  V30 9197 C 864.779 -1.0806 1.62321 0
M  V30 9198 O 864.049 -1.74351 0.893229 0
M  V30 9199 H 862.629 0.126126 0.736275 0
M  V30 9200 H 865.291 1.00148 1.67202 0
M  V30 9201 H 864.387 0.434451 3.09061 0
M  V30 9202 N 864.689 -1.48329 0.532571 0
M  V30 9203 C 865.936 -2.025 -0.000582356 0
M  V30 9204 C 866.264 -1.40942 -1.34036 0
M  V30 9205 O 865.519 -0.545545 -1.87942 0
M  V30 9206 C 865.818 -3.57 -0.168943 0
M  V30 9207 C 865.484 -4.37357 1.0968 0
M  V30 9208 C 864.146 -4.59033 1.44369 0
M  V30 9209 C 866.498 -4.83882 1.93669 0
M  V30 9210 C 863.826 -5.24481 2.62939 0
M  V30 9211 C 866.178 -5.50637 3.11419 0
M  V30 9212 C 864.842 -5.70551 3.46451 0
M  V30 9213 H 864.112 -0.741 -0.000213099 0
M  V30 9214 H 866.759 -1.78282 0.699117 0
M  V30 9215 H 865.064 -3.80072 -0.951429 0
M  V30 9216 H 866.761 -3.9654 -0.596422 0
M  V30 9217 H 863.351 -4.20748 0.816655 0
M  V30 9218 H 867.535 -4.66936 1.6818 0
M  V30 9219 H 862.791 -5.38096 2.9028 0
M  V30 9220 H 866.965 -5.85655 3.76803 0
M  V30 9221 H 864.592 -6.21037 4.38425 0
M  V30 9222 N 866.167 -0.267825 -1.55308 0
M  V30 9223 C 867.583 0.0865107 -1.59365 0
M  V30 9224 C 867.783 1.55205 -1.28505 0
M  V30 9225 O 866.839 2.29978 -1.04241 0
M  V30 9226 C 868.152 -0.28155 -2.99379 0
M  V30 9227 C 869.7 -0.227565 -3.12172 0
M  V30 9228 C 870.175 -0.569959 -4.5444 0
M  V30 9229 N 871.666 -0.521238 -4.60258 0
M  V30 9230 C 872.401 -0.759061 -5.68354 0
M  V30 9231 N 871.897 -1.06112 -6.84626 0
M  V30 9232 N 873.69 -0.688351 -5.57869 0
M  V30 9233 H 865.841 -1.22332 -1.73633 0
M  V30 9234 H 868.104 -0.493703 -0.809297 0
M  V30 9235 H 867.81 -1.3005 -3.26772 0
M  V30 9236 H 867.684 0.381192 -3.75269 0
M  V30 9237 H 870.071 0.782093 -2.84548 0
M  V30 9238 H 870.152 -0.924461 -2.38511 0
M  V30 9239 H 869.796 -1.57727 -4.82788 0
M  V30 9240 H 869.726 0.148646 -5.2639 0
M  V30 9241 H 872.217 -0.297359 -3.76728 0
M  V30 9242 H 872.53 -1.22945 -7.62958 0
M  V30 9243 H 870.875 -1.09881 -6.86259 0
M  V30 9244 H 874.066 -0.452268 -4.6591 0
M  V30 9245 H 874.239 -0.877081 -6.42037 0
M  V30 9246 N 867.645 1.57599 0.00500368 0
M  V30 9247 C 868.578 2.03541 1.03181 0
M  V30 9248 C 869.556 0.924301 1.33774 0
M  V30 9249 O 870.74 1.19204 1.46023 0
M  V30 9250 C 867.867 2.42879 2.36067 0
M  V30 9251 C 866.913 3.64673 2.21169 0
M  V30 9252 S 867.746 5.12805 1.54243 0
M  V30 9253 C 868.902 5.55408 2.88569 0
M  V30 9254 H 869.135 2.90316 0.640598 0
M  V30 9255 H 866.668 1.52886 0.215722 0
M  V30 9256 H 868.626 2.66212 3.12476 0
M  V30 9257 H 867.287 1.56512 2.72329 0
M  V30 9258 H 866.48 3.89932 3.19326 0
M  V30 9259 H 866.082 3.41316 1.52904 0
M  V30 9260 H 868.374 5.57563 3.84876 0
M  V30 9261 H 869.317 6.55418 2.68016 0
M  V30 9262 H 869.725 4.82961 2.92249 0
M  V30 9263 N 869.123 -0.277682 1.55134 0
M  V30 9264 C 870.353 -1.02677 1.79279 0
M  V30 9265 C 870.761 -1.80599 0.563962 0
M  V30 9266 O 870.104 -1.77416 -0.476378 0
M  V30 9267 C 870.166 -2.03617 2.96277 0
M  V30 9268 C 869.83 -1.44676 4.33495 0
M  V30 9269 C 870.827 -0.864811 5.12657 0
M  V30 9270 C 868.512 -1.47537 4.80144 0
M  V30 9271 C 870.506 -0.319322 6.366 0
M  V30 9272 C 868.193 -0.926016 6.04043 0
M  V30 9273 C 869.191 -0.348988 6.82108 0
M  V30 9274 O 868.879 0.191964 8.03671 0
M  V30 9275 H 868.611 -0.309232 0.601125 0
M  V30 9276 H 871.165 -0.315308 2.02965 0
M  V30 9277 H 869.395 -2.78509 2.68272 0
M  V30 9278 H 871.084 -2.64616 3.07788 0
M  V30 9279 H 871.85 -0.835438 4.7775 0
M  V30 9280 H 867.729 -1.91389 4.19394 0
M  V30 9281 H 871.273 0.131709 6.97476 0
M  V30 9282 H 867.17 -0.952613 6.38432 0
M  V30 9283 H 867.938 0.0808779 8.1846 0
M  V30 9284 N 870.601 -1.47988 -0.541979 0
M  V30 9285 C 871.826 -1.59286 -1.32826 0
M  V30 9286 C 872.251 -0.24894 -1.86445 0
M  V30 9287 O 871.609 0.777581 -1.63778 0
M  V30 9288 C 871.657 -2.6334 -2.46343 0
M  V30 9289 O 870.761 -2.19667 -3.49028 0
M  V30 9290 H 870.102 -0.534543 -0.393903 0
M  V30 9291 H 872.632 -1.93885 -0.653427 0
M  V30 9292 H 872.642 -2.84238 -2.92699 0
M  V30 9293 H 871.317 -3.60913 -2.06675 0
M  V30 9294 H 869.894 -2.08932 -3.08872 0
M  V30 9295 N 872.079 0.78992 -1.36375 0
M  V30 9296 C 873.026 1.90254 -1.3066 0
M  V30 9297 C 873.996 1.65171 -0.17539 0
M  V30 9298 O 875.181 1.87338 -0.361824 0
M  V30 9299 C 872.321 3.27057 -1.10125 0
M  V30 9300 C 871.434 3.64215 -2.32317 0
M  V30 9301 C 870.569 4.90134 -2.04798 0
M  V30 9302 C 869.608 5.19969 -3.22953 0
M  V30 9303 N 868.745 6.37071 -2.95102 0
M  V30 9304 H 873.585 1.94474 -2.25796 0
M  V30 9305 H 871.122 0.951022 -1.12223 0
M  V30 9306 H 873.08 4.05947 -0.962453 0
M  V30 9307 H 871.71 3.22261 -0.186444 0
M  V30 9308 H 870.762 2.80454 -2.57002 0
M  V30 9309 H 872.074 3.82212 -3.20492 0
M  V30 9310 H 871.228 5.76888 -1.87845 0
M  V30 9311 H 869.967 4.74205 -1.13932 0
M  V30 9312 H 868.972 4.31699 -3.40465 0
M  V30 9313 H 870.197 5.37817 -4.14644 0
M  V30 9314 H 868.143 6.22535 -2.06848 0
M  V30 9315 H 868.06 6.55398 -3.76815 0
M  V30 9316 H 869.328 7.26808 -2.81727 0
M  V30 9317 N 873.557 1.20646 1.01402 0
M  V30 9318 C 874.805 1.01618 1.74695 0
M  V30 9319 C 875.126 -0.452438 1.89679 0
M  V30 9320 O 874.396 -1.32693 1.44116 0
M  V30 9321 H 872.976 0.373013 0.647202 0
M  V30 9322 H 875.638 1.518 1.22241 0
M  V30 9323 H 874.734 1.47666 2.74957 0
M  V30 9324 N 875.035 -1.20752 1.01276 0
M  V30 9325 C 875.998 -2.2162 0.584583 0
M  V30 9326 C 876.998 -1.57094 -0.343215 0
M  V30 9327 O 878.188 -1.73696 -0.132433 0
M  V30 9328 C 875.32 -3.40583 -0.146872 0
M  V30 9329 H 876.513 -2.61015 1.47686 0
M  V30 9330 H 874.066 -1.34148 0.802123 0
M  V30 9331 H 874.801 -3.06686 -1.05424 0
M  V30 9332 H 874.586 -3.88642 0.51958 0
M  V30 9333 H 876.076 -4.15339 -0.433924 0
M  V30 9334 N 876.513 -0.788492 -1.36457 0
M  V30 9335 C 877.738 -0.371224 -2.04051 0
M  V30 9336 C 878.163 1.004 -1.59064 0
M  V30 9337 O 877.521 1.64663 -0.758679 0
M  V30 9338 C 877.569 -0.442275 -3.57877 0
M  V30 9339 O 876.673 0.55113 -4.08701 0
M  V30 9340 H 876.014 -0.157808 -0.644975 0
M  V30 9341 H 878.544 -1.06935 -1.74431 0
M  V30 9342 H 878.554 -0.305548 -4.06854 0
M  V30 9343 H 877.229 -1.44547 -3.89973 0
M  V30 9344 H 875.806 0.37614 -3.70998 0
M  V30 9345 N 877.991 1.48044 -0.54043 0
M  V30 9346 C 878.901 2.33565 0.220163 0
M  V30 9347 C 879.917 1.47146 0.928659 0
M  V30 9348 O 881.093 1.80107 0.901295 0
M  V30 9349 C 878.158 3.2349 1.2472 0
M  V30 9350 C 877.219 4.25789 0.547938 0
M  V30 9351 C 876.452 5.11417 1.52605 0
M  V30 9352 O 876.675 4.99204 2.75956 0
M  V30 9353 O 875.609 5.92498 1.05972 0
M  V30 9354 H 879.435 2.99868 -0.480898 0
M  V30 9355 H 877.02 1.46332 -0.301226 0
M  V30 9356 H 878.902 3.79084 1.84047 0
M  V30 9357 H 877.577 2.59835 1.93048 0
M  V30 9358 H 876.484 3.74001 -0.0860941 0
M  V30 9359 H 877.817 4.92111 -0.0935896 0
M  V30 9360 N 879.47 0.276058 1.55163 0
M  V30 9361 C 880.719 -0.341098 1.98795 0
M  V30 9362 C 881.032 -1.56905 1.16791 0
M  V30 9363 O 882.238 -2.25922 1.50571 0
M  V30 9364 C 880.694 -0.658231 3.5383 0
M  V30 9365 C 880.302 0.549972 4.44611 0
M  V30 9366 C 882.046 -1.23796 4.06048 0
M  V30 9367 C 879.953 0.207373 5.91036 0
M  V30 9368 H 878.883 -0.131224 0.742493 0
M  V30 9369 H 881.534 0.380858 1.79504 0
M  V30 9370 H 879.916 -1.43911 3.68925 0
M  V30 9371 H 881.09 1.32681 4.41285 0
M  V30 9372 H 879.405 1.04661 4.03032 0
M  V30 9373 H 882.002 -1.50811 5.12991 0
M  V30 9374 H 882.345 -2.17214 3.55139 0
M  V30 9375 H 882.878 -0.519345 3.94395 0
M  V30 9376 H 879.617 1.10946 6.46043 0
M  V30 9377 H 879.137 -0.532687 5.9743 0
M  V30 9378 H 880.816 -0.200072 6.46691 0
M  V30 9379 N 880.948 -1.576 0.00335426 0
M  V30 9380 C 882.197 -1.89892 -0.680001 0
M  V30 9381 C 882.51 -0.878731 -1.7475 0
M  V30 9382 O 883.716 -1.09199 -2.48572 0
M  V30 9383 C 882.172 -3.37098 -1.26066 0
M  V30 9384 C 881.78 -4.4742 -0.227807 0
M  V30 9385 C 883.524 -3.78495 -1.92202 0
M  V30 9386 C 881.431 -5.85706 -0.81865 0
M  V30 9387 H 880.361 -0.708578 -0.257746 0
M  V30 9388 H 883.012 -1.83387 0.0644472 0
M  V30 9389 H 881.394 -3.38451 -2.05589 0
M  V30 9390 H 882.568 -4.57589 0.54307 0
M  V30 9391 H 880.883 -4.15064 0.333297 0
M  V30 9392 H 883.48 -4.7915 -2.37318 0
M  V30 9393 H 883.823 -3.12187 -2.75399 0
M  V30 9394 H 884.356 -3.79456 -1.19408 0
M  V30 9395 H 881.095 -6.55495 -0.0253787 0
M  V30 9396 H 880.615 -5.79196 -1.55861 0
M  V30 9397 H 882.294 -6.33469 -1.31627 0
M  V30 9398 N 882.426 0.269451 -1.5528 0
M  V30 9399 C 883.356 1.33729 -1.91413 0
M  V30 9400 C 884.337 1.51348 -0.776391 0
M  V30 9401 O 885.522 1.64332 -1.03482 0
M  V30 9402 C 882.652 2.69618 -2.18914 0
M  V30 9403 C 881.606 2.66725 -3.34726 0
M  V30 9404 C 880.932 4.06199 -3.47716 0
M  V30 9405 C 882.232 2.25684 -4.71025 0
M  V30 9406 H 883.926 1.03736 -2.80854 0
M  V30 9407 H 881.472 0.497579 -1.3513 0
M  V30 9408 H 883.425 3.44436 -2.42779 0
M  V30 9409 H 882.149 3.01201 -1.26275 0
M  V30 9410 H 880.808 1.94365 -3.10834 0
M  V30 9411 H 880.456 4.3501 -2.52537 0
M  V30 9412 H 880.156 4.05157 -4.25583 0
M  V30 9413 H 881.68 4.8275 -3.73877 0
M  V30 9414 H 883.094 2.90225 -4.94411 0
M  V30 9415 H 881.491 2.35797 -5.51833 0
M  V30 9416 H 882.561 1.20819 -4.69607 0
M  V30 9417 N 883.904 1.48273 0.534124 0
M  V30 9418 C 885.32 1.34302 0.862272 0
M  V30 9419 C 885.52 0.350902 1.98421 0
M  V30 9420 O 884.576 -0.229364 2.51456 0
M  V30 9421 C 885.889 2.74227 1.23371 0
M  V30 9422 C 887.437 2.82684 1.34383 0
M  V30 9423 C 887.912 4.23301 1.74871 0
M  V30 9424 N 889.403 4.25954 1.81981 0
M  V30 9425 C 890.138 5.31693 2.14686 0
M  V30 9426 N 889.634 6.47714 2.45844 0
M  V30 9427 N 891.427 5.19084 2.15657 0
M  V30 9428 H 883.578 2.11397 -0.206215 0
M  V30 9429 H 885.841 0.947537 -0.0296116 0
M  V30 9430 H 885.547 3.48368 0.482967 0
M  V30 9431 H 885.421 3.07485 2.18478 0
M  V30 9432 H 887.808 2.08801 2.08534 0
M  V30 9433 H 887.889 2.5305 0.374063 0
M  V30 9434 H 887.533 4.97699 1.01282 0
M  V30 9435 H 887.463 4.50376 2.7289 0
M  V30 9436 H 889.954 3.42266 1.60196 0
M  V30 9437 H 890.267 7.2414 2.69892 0
M  V30 9438 H 888.612 6.50995 2.43372 0
M  V30 9439 H 891.803 4.27463 1.9077 0
M  V30 9440 H 891.976 6.01592 2.40813 0
M  V30 9441 N 885.382 -0.782676 1.36792 0
M  V30 9442 C 886.329 -1.89558 1.31667 0
M  V30 9443 C 887.299 -1.65076 0.184147 0
M  V30 9444 O 888.484 -1.87143 0.371753 0
M  V30 9445 C 885.624 -3.26469 1.11858 0
M  V30 9446 C 884.737 -3.62978 2.34245 0
M  V30 9447 C 883.872 -4.89041 2.07394 0
M  V30 9448 C 882.911 -5.18249 3.25706 0
M  V30 9449 N 882.048 -6.35497 2.98476 0
M  V30 9450 H 886.888 -1.93274 2.26824 0
M  V30 9451 H 884.425 -0.945057 1.12726 0
M  V30 9452 H 886.383 -4.05431 0.983968 0
M  V30 9453 H 885.013 -3.22158 0.203531 0
M  V30 9454 H 884.065 -2.79087 2.58485 0
M  V30 9455 H 885.377 -3.80507 3.22514 0
M  V30 9456 H 884.531 -5.75883 1.90901 0
M  V30 9457 H 883.27 -4.73594 1.16446 0
M  V30 9458 H 882.275 -4.29887 3.4275 0
M  V30 9459 H 883.5 -5.35611 4.1749 0
M  V30 9460 H 881.446 -6.21429 2.10146 0
M  V30 9461 H 881.363 -6.5339 3.80286 0
M  V30 9462 H 882.631 -7.25304 2.85577 0
M  V30 9463 N 886.86 -1.21182 -1.00761 0
M  V30 9464 C 888.1 -1.03886 -1.76031 0
M  V30 9465 C 888.464 0.420593 -1.87337 0
M  V30 9466 O 889.665 0.713994 -2.59144 0
M  V30 9467 C 887.936 -1.71394 -3.13622 0
M  V30 9468 S 889.495 -1.69319 -4.04816 0
M  V30 9469 H 886.313 -0.372327 -0.605717 0
M  V30 9470 H 888.915 -1.53885 -1.20581 0
M  V30 9471 H 887.619 -2.76773 -3.03026 0
M  V30 9472 H 887.15 -1.21564 -3.74147 0
M  V30 9473 H 889.165 -0.732434 -4.90765 0
M  V30 9474 N 888.338 1.20213 -1.01915 0
M  V30 9475 C 889.286 2.25125 -0.584936 0
M  V30 9476 C 890.28 1.65138 0.377602 0
M  V30 9477 O 891.486 1.78294 0.247245 0
M  V30 9478 H 887.861 0.732333 -0.170858 0
M  V30 9479 H 889.832 2.59075 -1.48063 0
M  V30 9480 C 888.581 3.47651 0.058389 0
M  V30 9481 H 887.904 3.9409 -0.673263 0
M  V30 9482 H 889.344 4.2275 0.325285 0
M  V30 9483 C 887.803 3.10725 1.30199 0
M  V30 9484 O 888.333 3.22491 2.39505 0
M  V30 9485 N 886.539 2.6525 1.18706 0
M  V30 9486 H 886.086 2.55875 0.297618 0
M  V30 9487 H 886.044 2.40913 2.02011 0
M  V30 9488 N 889.816 0.795718 1.36037 0
M  V30 9489 C 891.232 0.478145 1.52269 0
M  V30 9490 C 891.432 -1.0025 1.74792 0
M  V30 9491 O 890.488 -1.78783 1.78305 0
M  V30 9492 C 891.801 1.31406 2.70468 0
M  V30 9493 C 893.349 1.3084 2.84341 0
M  V30 9494 C 893.824 2.12819 4.05551 0
M  V30 9495 N 895.315 2.10298 4.12709 0
M  V30 9496 C 896.05 2.70495 5.05589 0
M  V30 9497 N 895.546 3.39576 6.03871 0
M  V30 9498 N 897.339 2.60195 4.98252 0
M  V30 9499 H 889.49 1.75477 1.19673 0
M  V30 9500 H 891.753 0.74627 0.584624 0
M  V30 9501 H 891.459 2.36435 2.60368 0
M  V30 9502 H 891.333 0.959726 3.64786 0
M  V30 9503 H 893.72 0.266003 2.93899 0
M  V30 9504 H 893.801 1.70254 1.90912 0
M  V30 9505 H 893.445 3.17093 3.96755 0
M  V30 9506 H 893.375 1.70772 4.98141 0
M  V30 9507 H 895.866 1.60026 3.42345 0
M  V30 9508 H 896.179 3.82823 6.71317 0
M  V30 9509 H 894.524 3.43679 6.04077 0
M  V30 9510 H 897.715 2.05823 4.20422 0
M  V30 9511 H 897.888 3.074 5.70447 0
M  V30 9512 N 891.294 -1.47756 0.548274 0
M  V30 9513 C 892.543 -2.01691 0.0187961 0
M  V30 9514 C 892.856 -1.42894 -1.33569 0
M  V30 9515 O 894.062 -1.88438 -1.95457 0
M  V30 9516 C 892.518 -3.59896 -0.016847 0
M  V30 9517 C 892.126 -4.27683 1.33385 0
M  V30 9518 C 893.87 -4.21614 -0.494188 0
M  V30 9519 C 891.777 -5.7787 1.2578 0
M  V30 9520 H 890.707 -0.753993 0.00325648 0
M  V30 9521 H 893.358 -1.69838 0.694792 0
M  V30 9522 H 891.74 -3.88672 -0.758304 0
M  V30 9523 H 892.914 -4.10559 2.09232 0
M  V30 9524 H 891.229 -3.77915 1.7484 0
M  V30 9525 H 893.826 -5.3166 -0.569342 0
M  V30 9526 H 894.169 -3.88176 -1.50417 0
M  V30 9527 H 894.702 -3.97336 0.192138 0
M  V30 9528 H 891.441 -6.15912 2.2435 0
M  V30 9529 H 890.961 -5.97355 0.540997 0
M  V30 9530 H 892.64 -6.39897 0.956109 0
M  V30 9531 N 892.772 -0.284283 -1.55015 0
M  V30 9532 C 893.702 0.592663 -2.25853 0
M  V30 9533 C 894.683 1.15151 -1.25197 0
M  V30 9534 O 895.868 1.18395 -1.53936 0
M  V30 9535 C 892.998 1.77254 -2.98661 0
M  V30 9536 C 891.952 1.34482 -4.06323 0
M  V30 9537 C 891.278 2.60853 -4.66754 0
M  V30 9538 C 892.578 0.488288 -5.20013 0
M  V30 9539 H 894.272 0.00187041 -2.994 0
M  V30 9540 H 891.818 -0.000540402 -1.44 0
M  V30 9541 H 893.771 2.39199 -3.46932 0
M  V30 9542 H 892.495 2.38931 -2.22664 0
M  V30 9543 H 891.154 0.748519 -3.58877 0
M  V30 9544 H 890.802 3.20808 -3.87416 0
M  V30 9545 H 890.502 2.32942 -5.39455 0
M  V30 9546 H 892.026 3.23631 -5.1778 0
M  V30 9547 H 893.44 1.01298 -5.6428 0
M  V30 9548 H 891.837 0.303669 -5.99331 0
M  V30 9549 H 892.907 -0.490727 -4.8241 0
M  V30 9550 N 894.251 1.57596 -0.0117121 0
M  V30 9551 C 895.528 1.82323 0.708356 0
M  V30 9552 C 895.908 0.891947 1.91331 0
M  V30 9553 O 895.256 -0.0565984 2.2843 0
M  V30 9554 C 895.466 3.31111 1.10303 0
M  V30 9555 C 896.814 3.97147 1.50199 0
M  V30 9556 O 897.838 3.35503 1.1965 0
M  V30 9557 O 896.697 5.0576 2.07049 0
M  V30 9558 H 893.791 0.751173 0.345931 0
M  V30 9559 H 896.337 1.69657 -0.0380632 0
M  V30 9560 H 895.109 3.90534 0.24467 0
M  V30 9561 H 894.732 3.48818 1.90818 0
M  V30 9562 N 895.729 -0.261212 1.5542 0
M  V30 9563 C 897.145 -0.609012 1.47524 0
M  V30 9564 C 897.345 -1.88986 0.699042 0
M  V30 9565 O 896.401 -2.51517 0.222628 0
M  V30 9566 C 897.714 -0.725025 2.91828 0
M  V30 9567 C 899.262 -0.818302 3.02114 0
M  V30 9568 C 899.737 -0.965996 4.47697 0
M  V30 9569 N 901.228 -1.03123 4.51575 0
M  V30 9570 C 901.963 -1.16451 5.6145 0
M  V30 9571 N 901.459 -1.26425 6.81167 0
M  V30 9572 N 903.252 -1.19655 5.49217 0
M  V30 9573 H 895.403 0.579807 2.04333 0
M  V30 9574 H 897.666 0.198072 0.927077 0
M  V30 9575 H 897.372 0.145871 3.51397 0
M  V30 9576 H 897.246 -1.60156 3.41511 0
M  V30 9577 H 899.633 -1.67966 2.42634 0
M  V30 9578 H 899.714 0.0830895 2.55665 0
M  V30 9579 H 899.358 -0.109251 5.07782 0
M  V30 9580 H 899.288 -1.88221 4.91813 0
M  V30 9581 H 901.779 -0.966072 3.65343 0
M  V30 9582 H 902.092 -1.36462 7.60656 0
M  V30 9583 H 900.437 -1.23408 6.83956 0
M  V30 9584 H 903.628 -1.11501 4.54626 0
M  V30 9585 H 903.801 -1.29698 6.34888 0
M  V30 9586 N 897.207 -1.48554 -0.526253 0
M  V30 9587 C 898.154 -1.63354 -1.63046 0
M  V30 9588 C 899.124 -0.475509 -1.59148 0
M  V30 9589 O 900.309 -0.699453 -1.77517 0
M  V30 9590 C 897.449 -1.68271 -3.01295 0
M  V30 9591 C 896.562 -2.95207 -3.15399 0
M  V30 9592 C 895.697 -2.91262 -4.4423 0
M  V30 9593 C 894.736 -4.12886 -4.51876 0
M  V30 9594 N 893.873 -4.06996 -5.721 0
M  V30 9595 H 898.713 -2.57649 -1.49737 0
M  V30 9596 H 896.25 -1.27769 -0.728938 0
M  V30 9597 H 898.208 -1.69104 -3.81392 0
M  V30 9598 H 896.838 -0.774641 -3.13367 0
M  V30 9599 H 895.89 -3.04102 -2.2853 0
M  V30 9600 H 897.202 -3.85187 -3.1691 0
M  V30 9601 H 896.356 -2.90516 -5.32621 0
M  V30 9602 H 895.095 -1.99016 -4.45246 0
M  V30 9603 H 894.1 -4.13902 -3.61891 0
M  V30 9604 H 895.325 -5.06294 -4.52596 0
M  V30 9605 H 893.271 -3.17573 -5.74006 0
M  V30 9606 H 893.188 -4.90685 -5.75121 0
M  V30 9607 H 894.456 -4.10315 -6.62768 0
M  V30 9608 N 898.685 0.775411 -1.37205 0
M  V30 9609 C 899.933 1.53081 -1.3195 0
M  V30 9610 C 900.254 1.9476 0.0966864 0
M  V30 9611 O 899.524 1.66019 1.03993 0
M  V30 9612 H 898.104 0.567762 -0.485444 0
M  V30 9613 H 900.766 0.92309 -1.71654 0
M  V30 9614 H 899.862 2.4319 -1.95614 0
M  V30 9615 N 900.163 1.21714 1.00117 0
M  V30 9616 C 901.073 0.99597 2.12409 0
M  V30 9617 C 902.089 -0.0531431 1.73919 0
M  V30 9618 O 903.265 0.137757 2.00928 0
M  V30 9619 C 900.33 0.567593 3.42022 0
M  V30 9620 C 899.391 1.68936 3.94663 0
M  V30 9621 C 898.624 1.28133 5.1809 0
M  V30 9622 O 898.847 0.156574 5.70185 0
M  V30 9623 O 897.781 2.0947 5.64275 0
M  V30 9624 H 901.607 1.93657 2.33946 0
M  V30 9625 H 899.192 1.00236 1.10784 0
M  V30 9626 H 901.074 0.338664 4.20037 0
M  V30 9627 H 899.749 -0.34424 3.21864 0
M  V30 9628 H 898.656 1.97274 3.17858 0
M  V30 9629 H 899.989 2.57876 4.19238 0
M  V30 9630 N 901.641 -1.19671 1.02551 0
M  V30 9631 C 902.604 -2.20987 0.608055 0
M  V30 9632 C 903.604 -1.5745 -0.326534 0
M  V30 9633 O 904.794 -1.73827 -0.114003 0
M  V30 9634 C 901.926 -3.4072 -0.11074 0
M  V30 9635 H 903.119 -2.59434 1.50446 0
M  V30 9636 H 900.672 -1.3329 0.816307 0
M  V30 9637 H 901.407 -3.07787 -1.02165 0
M  V30 9638 H 901.192 -3.88069 0.560772 0
M  V30 9639 H 902.682 -4.15776 -0.389848 0
M  V30 9640 N 903.119 -0.802921 -1.35613 0
M  V30 9641 C 904.365 -0.382141 -1.99167 0
M  V30 9642 C 904.698 1.04704 -1.63556 0
M  V30 9643 O 903.973 1.72578 -0.89706 0
M  V30 9644 C 904.256 -0.561493 -3.55695 0
M  V30 9645 C 904.109 -2.03534 -4.01116 0
M  V30 9646 C 905.428 0.0151135 -4.40097 0
M  V30 9647 H 902.547 -0.140322 -0.723518 0
M  V30 9648 H 905.189 -1.01177 -1.6082 0
M  V30 9649 H 903.339 -0.0255083 -3.88492 0
M  V30 9650 H 905.011 -2.63343 -3.78746 0
M  V30 9651 H 903.254 -2.5331 -3.52159 0
M  V30 9652 H 903.925 -2.11173 -5.1001 0
M  V30 9653 H 906.401 -0.442582 -4.1374 0
M  V30 9654 H 905.277 -0.140316 -5.48721 0
M  V30 9655 H 905.538 1.10848 -4.27978 0
M  V30 9656 N 904.597 1.47463 -0.556102 0
M  V30 9657 C 906.008 1.86298 -0.122429 0
M  V30 9658 C 906.359 1.46285 1.30749 0
M  V30 9659 O 905.484 0.865405 1.98342 0
M  V30 9660 C 906.079 3.38115 -0.215407 0
M  V30 9661 C 904.638 3.76046 0.163223 0
M  V30 9662 C 903.785 2.71515 -0.563466 0
M  V30 9663 H 906.736 1.38996 -0.765888 0
M  V30 9664 H 906.757 3.76263 0.566271 0
M  V30 9665 H 906.269 3.67207 -1.25622 0
M  V30 9666 H 904.37 3.5257 1.20519 0
M  V30 9667 H 904.483 4.78705 -0.194568 0
M  V30 9668 H 902.847 2.54699 -0.00667879 0
M  V30 9669 H 903.63 3.03449 -1.60542 0
M  V30 9670 N 906.075 0.2925 1.54862 0
M  V30 9671 C 907.322 -0.319263 1.99967 0
M  V30 9672 C 907.65 -1.54547 1.18092 0
M  V30 9673 O 906.905 -1.94186 0.242969 0
M  V30 9674 C 907.204 -0.728674 3.49893 0
M  V30 9675 C 906.87 0.394836 4.49168 0
M  V30 9676 C 905.532 0.703289 4.76033 0
M  V30 9677 C 907.884 1.15103 5.08331 0
M  V30 9678 C 905.212 1.77121 5.59325 0
M  V30 9679 C 907.564 2.20881 5.92785 0
M  V30 9680 C 906.228 2.52342 6.17964 0
M  V30 9681 H 905.498 -0.116827 0.731733 0
M  V30 9682 H 908.145 0.40983 1.87063 0
M  V30 9683 H 906.45 -1.53772 3.60363 0
M  V30 9684 H 908.147 -1.21305 3.82212 0
M  V30 9685 H 904.737 0.144319 4.28357 0
M  V30 9686 H 908.921 0.92599 4.87585 0
M  V30 9687 H 904.177 2.01978 5.77074 0
M  V30 9688 H 908.351 2.79939 6.37657 0
M  V30 9689 H 905.978 3.35225 6.82296 0
M  V30 9690 N 907.553 -1.57587 0.0200696 0
M  V30 9691 C 908.5 -2.09667 -0.964791 0
M  V30 9692 C 909.47 -0.99664 -1.32877 0
M  V30 9693 O 910.655 -1.2703 -1.42366 0
M  V30 9694 C 907.795 -2.62101 -2.24493 0
M  V30 9695 C 906.908 -3.8608 -1.93821 0
M  V30 9696 C 906.043 -4.26939 -3.16064 0
M  V30 9697 C 905.082 -5.43701 -2.81169 0
M  V30 9698 N 904.219 -5.79759 -3.9601 0
M  V30 9699 H 909.059 -2.93538 -0.513751 0
M  V30 9700 H 906.596 -1.45096 -0.242 0
M  V30 9701 H 908.554 -2.90587 -2.99358 0
M  V30 9702 H 907.184 -1.81074 -2.6723 0
M  V30 9703 H 906.236 -3.64378 -1.09237 0
M  V30 9704 H 907.548 -4.71028 -1.64115 0
M  V30 9705 H 906.702 -4.56814 -3.99257 0
M  V30 9706 H 905.441 -3.40739 -3.48924 0
M  V30 9707 H 904.446 -5.13529 -1.96387 0
M  V30 9708 H 905.671 -6.31593 -2.49535 0
M  V30 9709 H 903.617 -4.96516 -4.28729 0
M  V30 9710 H 903.534 -6.59327 -3.69896 0
M  V30 9711 H 904.802 -6.14235 -4.79933 0
M  V30 9712 N 909.032 0.252966 -1.55557 0
M  V30 9713 C 909.98 1.33289 -1.90622 0
M  V30 9714 C 910.974 1.50133 -0.784638 0
M  V30 9715 O 912.18 1.51679 -0.969196 0
M  V30 9716 H 908.555 0.446196 -0.605321 0
M  V30 9717 H 910.526 1.00977 -2.80796 0
M  V30 9718 C 909.275 2.68254 -2.21213 0
M  V30 9719 H 908.598 2.5609 -3.07014 0
M  V30 9720 H 910.038 3.42707 -2.49656 0
M  V30 9721 C 908.497 3.20884 -1.02642 0
M  V30 9722 O 909.027 4.00783 -0.271292 0
M  V30 9723 N 907.233 2.7883 -0.818682 0
M  V30 9724 H 906.78 2.13966 -1.43444 0
M  V30 9725 H 906.738 3.14388 -0.0269989 0
M  V30 9726 N 910.51 1.48831 0.518367 0
M  V30 9727 C 911.457 1.64216 1.62178 0
M  V30 9728 C 912.427 0.483942 1.58894 0
M  V30 9729 O 913.612 0.708857 1.77144 0
M  V30 9730 C 910.752 1.69867 3.00399 0
M  V30 9731 C 909.865 2.96875 3.1383 0
M  V30 9732 C 909 2.93613 4.42679 0
M  V30 9733 C 908.039 4.15276 4.4968 0
M  V30 9734 N 907.176 4.10024 5.69934 0
M  V30 9735 H 912.016 2.58439 1.48368 0
M  V30 9736 H 909.553 1.28154 0.722152 0
M  V30 9737 H 911.511 1.71124 3.8049 0
M  V30 9738 H 910.141 0.791249 3.12952 0
M  V30 9739 H 909.193 3.0531 2.26914 0
M  V30 9740 H 910.505 3.86863 3.14863 0
M  V30 9741 H 909.659 2.93337 5.31073 0
M  V30 9742 H 908.398 2.01375 4.44184 0
M  V30 9743 H 907.403 4.15816 3.59691 0
M  V30 9744 H 908.628 5.08687 4.49904 0
M  V30 9745 H 906.574 3.20613 5.72314 0
M  V30 9746 H 906.491 4.93728 5.72511 0
M  V30 9747 H 907.759 4.13824 6.60583 0
M  V30 9748 N 911.988 -0.768124 1.37614 0
M  V30 9749 C 913.265 -1.51637 1.23554 0
M  V30 9750 C 913.645 -2.1042 -0.169331 0
M  V30 9751 O 912.993 -1.95834 -1.17735 0
M  V30 9752 C 913.203 -2.59436 2.33439 0
M  V30 9753 C 914.551 -3.2674 2.71157 0
M  V30 9754 O 915.575 -2.69733 2.32642 0
M  V30 9755 O 914.434 -4.29814 3.37524 0
M  V30 9756 H 911.528 -0.671778 0.482332 0
M  V30 9757 H 914.074 -0.804779 1.49403 0
M  V30 9758 H 912.846 -2.14146 3.27502 0
M  V30 9759 H 912.469 -3.38192 2.09073 0
M  V30 9760 N 913.466 -1.22244 -0.994698 0
M  V30 9761 C 914.882 -0.982006 -1.25813 0
M  V30 9762 C 915.082 0.325488 -1.98854 0
M  V30 9763 O 914.138 1.04857 -2.29698 0
M  V30 9764 C 915.451 -2.1795 -2.07167 0
M  V30 9765 C 916.999 -2.22287 -2.20358 0
M  V30 9766 C 917.474 -3.41583 -3.05098 0
M  V30 9767 N 918.965 -3.41734 -3.12686 0
M  V30 9768 C 919.7 -4.30692 -3.78539 0
M  V30 9769 N 919.196 -5.29865 -4.46335 0
M  V30 9770 N 920.989 -4.18473 -3.75283 0
M  V30 9771 H 913.14 -2.0631 -0.504963 0
M  V30 9772 H 915.403 -0.90395 -0.285618 0
M  V30 9773 H 915.109 -3.12758 -1.60858 0
M  V30 9774 H 914.983 -2.17862 -3.07922 0
M  V30 9775 H 917.37 -1.28028 -2.65881 0
M  V30 9776 H 917.451 -2.26414 -1.19039 0
M  V30 9777 H 917.095 -4.36141 -2.60275 0
M  V30 9778 H 917.025 -3.34695 -4.06555 0
M  V30 9779 H 919.516 -2.69969 -2.64433 0
M  V30 9780 H 919.829 -5.94027 -4.9432 0
M  V30 9781 H 918.174 -5.3378 -4.45089 0
M  V30 9782 H 921.365 -3.40249 -3.21478 0
M  V30 9783 H 921.538 -4.88007 -4.26326 0
M  V30 9784 N 914.944 1.19125 -1.03184 0
M  V30 9785 C 916.221 1.84674 -0.644574 0
M  V30 9786 C 916.601 1.92042 0.876534 0
M  V30 9787 O 915.949 1.43965 1.77444 0
M  V30 9788 C 916.159 3.23477 -1.3101 0
M  V30 9789 C 917.507 3.99608 -1.43524 0
M  V30 9790 O 918.531 3.32886 -1.2675 0
M  V30 9791 O 917.39 5.19132 -1.70776 0
M  V30 9792 H 914.484 0.795968 -0.22442 0
M  V30 9793 H 917.03 1.2659 -1.13018 0
M  V30 9794 H 915.802 3.12967 -2.34878 0
M  V30 9795 H 915.425 3.89209 -0.812547 0
M  V30 9796 N 916.422 0.810101 1.35185 0
M  V30 9797 C 917.699 0.315235 1.93043 0
M  V30 9798 C 918.079 -1.19567 1.73974 0
M  V30 9799 O 917.427 -1.99682 1.11083 0
M  V30 9800 C 917.637 0.730492 3.41269 0
M  V30 9801 C 918.985 0.721985 4.18417 0
M  V30 9802 O 920.009 0.672258 3.49799 0
M  V30 9803 O 918.868 0.783535 5.40854 0
M  V30 9804 H 915.962 0.0832774 0.822796 0
M  V30 9805 H 918.508 0.894034 1.4424 0
M  V30 9806 H 917.28 1.77169 3.48894 0
M  V30 9807 H 916.903 0.12669 3.97398 0
M  V30 9808 N 917.9 -1.47166 0.563914 0
M  V30 9809 C 918.833 -2.27058 -0.227989 0
M  V30 9810 C 919.811 -1.34468 -0.914179 0
M  V30 9811 O 920.995 -1.63857 -0.931829 0
M  V30 9812 C 918.122 -3.11689 -1.32543 0
M  V30 9813 C 917.168 -4.19906 -0.747084 0
M  V30 9814 S 918.001 -5.33916 0.41153 0
M  V30 9815 C 919.157 -6.22112 -0.687566 0
M  V30 9816 H 919.39 -2.93876 0.449939 0
M  V30 9817 H 916.923 -1.50372 0.350382 0
M  V30 9818 H 918.881 -3.61017 -1.95389 0
M  V30 9819 H 917.542 -2.44221 -1.97522 0
M  V30 9820 H 916.735 -4.78876 -1.57141 0
M  V30 9821 H 916.337 -3.73493 -0.194671 0
M  V30 9822 H 918.629 -6.58867 -1.578 0
M  V30 9823 H 919.572 -7.07971 -0.135058 0
M  V30 9824 H 919.98 -5.55871 -0.983255 0
M  V30 9825 N 919.378 -0.300708 -1.54705 0
M  V30 9826 C 920.624 0.309111 -2.0043 0
M  V30 9827 C 920.957 1.53562 -1.1888 0
M  V30 9828 O 920.232 1.92683 -0.265205 0
M  V30 9829 C 920.515 0.665995 -3.53888 0
M  V30 9830 C 920.368 -0.56963 -4.46178 0
M  V30 9831 C 921.687 1.49262 -4.14016 0
M  V30 9832 H 918.806 0.110878 -0.728612 0
M  V30 9833 H 921.448 -0.412748 -1.85463 0
M  V30 9834 H 919.598 1.281 -3.66773 0
M  V30 9835 H 921.27 -1.20811 -4.45199 0
M  V30 9836 H 919.513 -1.20292 -4.16788 0
M  V30 9837 H 920.184 -0.275785 -5.51311 0
M  V30 9838 H 922.66 0.972979 -4.04564 0
M  V30 9839 H 921.536 1.71111 -5.21548 0
M  V30 9840 H 921.797 2.48174 -3.65872 0
M  V30 9841 N 920.856 1.57574 -0.0284266 0
M  V30 9842 C 922.272 1.56194 0.327958 0
M  V30 9843 C 922.472 1.03397 1.72949 0
M  V30 9844 O 921.528 0.680392 2.4316 0
M  V30 9845 C 922.841 3.00177 0.177196 0
M  V30 9846 C 924.389 3.12 0.250014 0
M  V30 9847 C 924.864 4.57821 0.128049 0
M  V30 9848 N 926.355 4.6283 0.185054 0
M  V30 9849 C 927.09 5.73286 0.114454 0
M  V30 9850 N 926.586 6.928 -0.00719225 0
M  V30 9851 N 928.379 5.61848 0.16839 0
M  V30 9852 H 920.53 1.90224 -0.944921 0
M  V30 9853 H 922.793 0.874987 -0.364832 0
M  V30 9854 H 922.499 3.42753 -0.788224 0
M  V30 9855 H 922.373 3.65101 0.94768 0
M  V30 9856 H 924.76 2.69337 1.20589 0
M  V30 9857 H 924.841 2.49799 -0.550835 0
M  V30 9858 H 924.485 5.01165 -0.824407 0
M  V30 9859 H 924.415 5.18001 0.947753 0
M  V30 9860 H 926.906 3.76867 0.279247 0
M  V30 9861 H 927.219 7.72781 -0.0543903 0
M  V30 9862 H 925.564 6.94987 -0.0419648 0
M  V30 9863 H 928.755 4.67367 0.261821 0
M  V30 9864 H 928.928 6.47907 0.109908 0
M  V30 9865 N 922.334 -0.244713 1.55689 0
M  V30 9866 C 923.562 -0.989944 1.8168 0
M  V30 9867 C 923.977 -1.78863 0.604449 0
M  V30 9868 O 923.334 -1.77437 -0.426907 0
M  V30 9869 C 923.385 -1.92607 3.05916 0
M  V30 9870 O 923.106 -1.1597 4.22472 0
M  V30 9871 C 924.607 -2.78711 3.44724 0
M  V30 9872 H 921.827 -0.2912 0.604519 0
M  V30 9873 H 924.371 -0.266938 2.0275 0
M  V30 9874 H 922.526 -2.60333 2.8689 0
M  V30 9875 H 922.94 -1.79311 4.92898 0
M  V30 9876 H 924.414 -3.40141 4.34751 0
M  V30 9877 H 924.891 -3.49935 2.6541 0
M  V30 9878 H 925.497 -2.16435 3.66109 0
M  V30 9879 N 923.813 -1.49104 -0.510467 0
M  V30 9880 C 925.059 -1.58346 -1.26705 0
M  V30 9881 C 925.392 -0.265121 -1.92382 0
M  V30 9882 O 924.667 0.730558 -1.80258 0
M  V30 9883 C 924.95 -2.7359 -2.34137 0
M  V30 9884 C 924.803 -4.1519 -1.73024 0
M  V30 9885 C 926.122 -2.84511 -3.3577 0
M  V30 9886 H 923.241 -0.57637 -0.459311 0
M  V30 9887 H 925.883 -1.81353 -0.566658 0
M  V30 9888 H 924.033 -2.54105 -2.93876 0
M  V30 9889 H 925.705 -4.46167 -1.17186 0
M  V30 9890 H 923.948 -4.21279 -1.03473 0
M  V30 9891 H 924.619 -4.91683 -2.50903 0
M  V30 9892 H 927.095 -3.0222 -2.86011 0
M  V30 9893 H 925.971 -3.6684 -4.08313 0
M  V30 9894 H 926.232 -1.93471 -3.97519 0
M  V30 9895 N 925.291 0.760815 -1.38019 0
M  V30 9896 C 926.54 1.51506 -1.3315 0
M  V30 9897 C 926.853 1.95444 0.0782124 0
M  V30 9898 O 928.059 2.70352 0.249418 0
M  V30 9899 C 926.515 2.73636 -2.33776 0
M  V30 9900 C 926.123 2.36753 -3.80332 0
M  V30 9901 C 927.867 3.51548 -2.37937 0
M  V30 9902 C 925.774 3.55451 -4.72661 0
M  V30 9903 H 924.704 0.568844 -0.494907 0
M  V30 9904 H 927.355 0.832343 -1.63537 0
M  V30 9905 H 925.737 3.43852 -1.96422 0
M  V30 9906 H 926.911 1.7425 -4.26584 0
M  V30 9907 H 925.226 1.71991 -3.7922 0
M  V30 9908 H 927.823 4.39791 -3.04119 0
M  V30 9909 H 928.166 3.9219 -1.39617 0
M  V30 9910 H 928.699 2.88339 -2.74054 0
M  V30 9911 H 925.438 3.19882 -5.7215 0
M  V30 9912 H 924.958 4.17022 -4.31107 0
M  V30 9913 H 926.637 4.22125 -4.90326 0
M  V30 9914 N 926.769 1.22769 0.988202 0
M  V30 9915 C 927.679 1.01844 2.11341 0
M  V30 9916 C 928.695 -0.0346937 1.73965 0
M  V30 9917 O 929.871 0.159061 2.00771 0
M  V30 9918 C 926.936 0.603837 3.41401 0
M  V30 9919 C 925.997 1.73113 3.92849 0
M  V30 9920 C 925.23 1.33621 5.16702 0
M  V30 9921 O 925.453 0.217041 5.69987 0
M  V30 9922 O 924.387 2.15444 5.62021 0
M  V30 9923 H 928.213 1.96127 2.31879 0
M  V30 9924 H 925.798 1.01405 1.09715 0
M  V30 9925 H 927.68 0.383196 4.19654 0
M  V30 9926 H 926.355 -0.310082 3.22211 0
M  V30 9927 H 925.262 2.00634 3.15748 0
M  V30 9928 H 926.595 2.62308 4.1648 0
M  V30 9929 N 928.247 -1.18576 1.03814 0
M  V30 9930 C 929.658 -1.70159 0.768299 0
M  V30 9931 C 930.009 -1.8286 -0.711106 0
M  V30 9932 O 929.134 -1.5063 -1.55369 0
M  V30 9933 C 929.729 -3.09062 1.38804 0
M  V30 9934 C 928.288 -3.57866 1.16656 0
M  V30 9935 C 927.435 -2.34484 1.48029 0
M  V30 9936 H 930.386 -1.03287 1.20488 0
M  V30 9937 H 930.407 -3.72211 0.7899 0
M  V30 9938 H 929.919 -2.99785 2.46476 0
M  V30 9939 H 928.02 -3.72442 0.108471 0
M  V30 9940 H 928.133 -4.41445 1.8618 0
M  V30 9941 H 926.497 -2.38273 0.899902 0
M  V30 9942 H 927.28 -2.27829 2.56805 0
M  V30 9943 N 929.725 -0.817259 -1.34754 0
M  V30 9944 C 930.658 -0.180483 -2.27485 0
M  V30 9945 C 931.636 0.659792 -1.48612 0
M  V30 9946 O 932.82 0.624761 -1.77845 0
M  V30 9947 C 929.947 0.748487 -3.30326 0
M  V30 9948 C 928.993 -0.0135304 -4.26498 0
M  V30 9949 S 929.826 -1.35685 -5.18025 0
M  V30 9950 C 930.982 -0.432605 -6.24403 0
M  V30 9951 H 931.215 -0.966677 -2.81145 0
M  V30 9952 H 928.748 -0.612864 -1.41716 0
M  V30 9953 H 930.706 1.27893 -3.90069 0
M  V30 9954 H 929.367 1.50816 -2.75524 0
M  V30 9955 H 928.56 0.692454 -4.9922 0
M  V30 9956 H 928.162 -0.474344 -3.7098 0
M  V30 9957 H 930.454 0.378035 -6.76444 0
M  V30 9958 H 931.397 -1.12934 -6.99036 0
M  V30 9959 H 931.805 -0.0235533 -5.64495 0
M  V30 9960 N 931.203 1.46865 -0.571711 0
M  V30 9961 C 932.166 2.28658 0.157499 0
M  V30 9962 C 933.166 1.37773 0.829172 0
M  V30 9963 O 934.356 1.6026 0.682811 0
M  V30 9964 C 931.488 3.17859 1.23202 0
M  V30 9965 H 932.681 2.94603 -0.561171 0
M  V30 9966 H 930.234 1.52793 -0.329229 0
M  V30 9967 H 930.969 2.56637 1.98262 0
M  V30 9968 H 930.754 3.84762 0.755031 0
M  V30 9969 H 932.244 3.7945 1.74378 0
M  V30 9970 N 932.681 0.308908 1.54543 0
M  V30 9971 C 933.921 -0.298811 2.02204 0
M  V30 9972 C 934.285 -1.50484 1.19242 0
M  V30 9973 O 935.486 -2.18445 1.56637 0
M  V30 9974 C 933.757 -0.638849 3.51644 0
M  V30 9975 S 935.316 -1.22831 4.21258 0
M  V30 9976 H 932.134 -0.0912638 0.705118 0
M  V30 9977 H 934.736 0.438622 1.90516 0
M  V30 9978 H 933.44 0.24726 4.09654 0
M  V30 9979 H 932.971 -1.40687 3.67384 0
M  V30 9980 H 934.986 -2.51579 4.27694 0
M  V30 9981 N 934.159 -1.57557 0.0367827 0
M  V30 9982 C 935.436 -1.83427 -0.679261 0
M  V30 9983 C 935.816 -0.922274 -1.89888 0
M  V30 9984 O 935.164 0.02025 -2.28491 0
M  V30 9985 C 935.374 -3.32823 -1.05022 0
M  V30 9986 C 936.722 -3.99486 -1.43861 0
M  V30 9987 O 937.746 -3.37364 -1.14297 0
M  V30 9988 O 936.605 -5.0899 -1.98977 0
M  V30 9989 H 933.699 -0.756581 -0.333936 0
M  V30 9990 H 936.245 -1.69575 0.0650494 0
M  V30 9991 H 935.017 -3.90874 -0.182509 0
M  V30 9992 H 934.64 -3.5181 -1.85244 0
M  V30 9993 N 935.637 0.236453 -1.55816 0
M  V30 9994 C 936.885 0.96111 -1.77784 0
M  V30 9995 C 937.206 1.85454 -0.602648 0
M  V30 9996 O 936.476 1.92157 0.381137 0
M  V30 9997 H 935.056 0.35787 -0.655697 0
M  V30 9998 H 937.718 0.251888 -1.93265 0
M  V30 9999 H 936.814 1.5767 -2.69345 0
M  V30 10000 N 937.115 1.49373 0.502552 0
M  V30 10001 C 938.045 1.68839 1.61294 0
M  V30 10002 C 939.026 0.537096 1.61398 0
M  V30 10003 O 940.211 0.772764 1.78163 0
M  V30 10004 C 937.341 1.75347 2.99784 0
M  V30 10005 C 936.295 2.90251 3.14545 0
M  V30 10006 C 935.621 2.8187 4.54371 0
M  V30 10007 C 936.921 4.31207 2.94717 0
M  V30 10008 H 938.615 2.61803 1.45257 0
M  V30 10009 H 936.161 1.25987 0.697371 0
M  V30 10010 H 938.114 1.87552 3.77362 0
M  V30 10011 H 936.838 0.789814 3.16906 0
M  V30 10012 H 935.497 2.77646 2.39392 0
M  V30 10013 H 935.145 1.83416 4.68367 0
M  V30 10014 H 934.845 3.5899 4.65188 0
M  V30 10015 H 936.369 2.96081 5.34012 0
M  V30 10016 H 937.783 4.44501 3.62065 0
M  V30 10017 H 936.18 5.09536 3.17007 0
M  V30 10018 H 937.25 4.45759 1.90857 0
M  V30 10019 N 938.594 -0.753485 1.38421 0
M  V30 10020 C 940.01 -1.05656 1.1962 0
M  V30 10021 C 940.21 -2.0145 0.0449443 0
M  V30 10022 O 939.266 -2.45039 -0.609253 0
M  V30 10023 C 940.579 -1.63655 2.52265 0
M  V30 10024 C 942.127 -1.75825 2.58949 0
M  V30 10025 C 942.602 -2.37236 3.91769 0
M  V30 10026 N 944.093 -2.44666 3.9331 0
M  V30 10027 C 944.828 -2.93077 4.92842 0
M  V30 10028 N 944.324 -3.41523 6.02772 0
M  V30 10029 N 946.117 -2.92118 4.80232 0
M  V30 10030 H 938.268 -0.117799 2.12073 0
M  V30 10031 H 940.531 -0.114889 0.941012 0
M  V30 10032 H 940.237 -1.00734 3.36965 0
M  V30 10033 H 940.111 -2.62715 2.70667 0
M  V30 10034 H 942.498 -2.37873 1.74644 0
M  V30 10035 H 942.579 -0.754693 2.44414 0
M  V30 10036 H 942.223 -1.75822 4.76497 0
M  V30 10037 H 942.153 -3.38233 4.03616 0
M  V30 10038 H 944.644 -2.10403 3.1391 0
M  V30 10039 H 944.957 -3.76919 6.74649 0
M  V30 10040 H 943.302 -3.3958 6.06391 0
M  V30 10041 H 946.493 -2.53582 3.93464 0
M  V30 10042 H 946.666 -3.29535 5.57952 0
M  V30 10043 N 940.072 -1.23292 -0.981677 0
M  V30 10044 C 941.3 -1.09088 -1.75805 0
M  V30 10045 C 941.715 0.357746 -1.8538 0
M  V30 10046 O 941.072 1.24751 -1.33205 0
M  V30 10047 C 941.123 -1.70885 -3.1856 0
M  V30 10048 O 940.844 -3.10082 -3.09484 0
M  V30 10049 C 942.345 -1.62106 -4.12597 0
M  V30 10050 H 939.565 -0.38184 -0.55176 0
M  V30 10051 H 942.109 -1.63116 -1.23342 0
M  V30 10052 H 940.264 -1.20893 -3.68054 0
M  V30 10053 H 940.678 -3.40039 -3.99342 0
M  V30 10054 H 942.152 -2.10049 -5.10474 0
M  V30 10055 H 942.629 -0.579642 -4.35358 0
M  V30 10056 H 943.235 -2.11457 -3.69007 0
M  V30 10057 N 941.55 1.18024 -1.04442 0
M  V30 10058 C 942.799 1.8743 -0.745185 0
M  V30 10059 C 943.112 1.81459 0.730206 0
M  V30 10060 O 944.318 2.46263 1.1431 0
M  V30 10061 C 942.774 3.36266 -1.28271 0
M  V30 10062 C 942.382 3.50757 -2.787 0
M  V30 10063 C 944.126 4.11048 -1.06018 0
M  V30 10064 C 942.033 4.93573 -3.25791 0
M  V30 10065 H 940.963 0.702038 -0.27506 0
M  V30 10066 H 943.614 1.33333 -1.26073 0
M  V30 10067 H 941.996 3.89853 -0.695002 0
M  V30 10068 H 943.17 3.07423 -3.43261 0
M  V30 10069 H 941.485 2.89385 -2.99408 0
M  V30 10070 H 944.082 5.16395 -1.38711 0
M  V30 10071 H 944.425 4.163 0.00241716 0
M  V30 10072 H 944.958 3.63644 -1.61269 0
M  V30 10073 H 941.697 4.93491 -4.31447 0
M  V30 10074 H 941.217 5.37607 -2.65968 0
M  V30 10075 H 942.896 5.62307 -3.20031 0
M  V30 10076 N 943.028 0.824394 1.34319 0
M  V30 10077 C 944.268 0.419044 2.00058 0
M  V30 10078 C 944.632 -0.999504 1.63933 0
M  V30 10079 O 945.833 -1.50781 2.22527 0
M  V30 10080 C 944.104 0.616897 3.52036 0
M  V30 10081 S 945.663 0.304614 4.37741 0
M  V30 10082 H 942.481 0.158265 0.693162 0
M  V30 10083 H 945.083 1.07053 1.63585 0
M  V30 10084 H 943.787 1.64896 3.75816 0
M  V30 10085 H 943.318 -0.0492693 3.93369 0
M  V30 10086 H 945.333 -0.88114 4.88314 0
M  V30 10087 N 944.506 -1.46559 0.579492 0
M  V30 10088 C 945.755 -2.01606 0.0615735 0
M  V30 10089 C 946.068 -1.45695 -1.30508 0
M  V30 10090 O 947.274 -1.92541 -1.91416 0
M  V30 10091 C 945.73 -3.59851 0.059496 0
M  V30 10092 C 945.338 -4.24757 1.42427 0
M  V30 10093 C 947.082 -4.22567 -0.404646 0
M  V30 10094 C 944.989 -5.75072 1.38009 0
M  V30 10095 H 943.919 -0.753754 0.0192491 0
M  V30 10096 H 946.57 -1.68326 0.73066 0
M  V30 10097 H 944.952 -3.90193 -0.675691 0
M  V30 10098 H 946.126 -4.06029 2.17893 0
M  V30 10099 H 944.441 -3.74121 1.82817 0
M  V30 10100 H 947.038 -5.32748 -0.456441 0
M  V30 10101 H 947.381 -3.91279 -1.42149 0
M  V30 10102 H 947.914 -3.96839 0.276376 0
M  V30 10103 H 944.653 -6.11014 2.37364 0
M  V30 10104 H 944.173 -5.96073 0.667583 0
M  V30 10105 H 945.852 -6.37724 1.09163 0
M  V30 10106 N 945.984 -0.3171 -1.54377 0
M  V30 10107 C 946.947 0.53905 -2.22771 0
M  V30 10108 C 947.947 1.04865 -1.21901 0
M  V30 10109 O 949.137 0.942108 -1.46526 0
M  V30 10110 C 946.269 1.74804 -2.92671 0
M  V30 10111 H 947.462 -0.0587417 -2.99842 0
M  V30 10112 H 945.015 -0.068107 -1.56152 0
M  V30 10113 H 945.75 2.38524 -2.1972 0
M  V30 10114 H 945.535 1.39011 -3.66631 0
M  V30 10115 H 947.025 2.35592 -3.44799 0
M  V30 10116 N 947.462 1.57535 -0.0451378 0
M  V30 10117 C 948.692 1.96476 0.638814 0
M  V30 10118 C 949.1 0.921056 1.65267 0
M  V30 10119 O 948.443 -0.103843 1.83406 0
M  V30 10120 C 948.505 3.31629 1.38788 0
M  V30 10121 C 948.169 4.5391 0.530545 0
M  V30 10122 C 949.166 5.19512 -0.200864 0
M  V30 10123 C 946.851 5.00159 0.463242 0
M  V30 10124 C 948.845 6.29695 -0.988078 0
M  V30 10125 C 946.532 6.10221 -0.327665 0
M  V30 10126 C 947.53 6.74849 -1.05202 0
M  V30 10127 O 947.218 7.82795 -1.82993 0
M  V30 10128 H 946.95 0.651625 0.17989 0
M  V30 10129 H 949.504 2.05126 -0.106031 0
M  V30 10130 H 947.734 3.19516 2.17822 0
M  V30 10131 H 949.423 3.5536 1.96148 0
M  V30 10132 H 950.189 4.84742 -0.158299 0
M  V30 10133 H 946.068 4.49651 1.01663 0
M  V30 10134 H 949.612 6.80072 -1.55397 0
M  V30 10135 H 945.509 6.44428 -0.37189 0
M  V30 10136 H 946.277 7.99542 -1.7514 0
M  V30 10137 N 948.94 -0.228186 1.55939 0
M  V30 10138 C 950.356 -0.577583 1.48782 0
M  V30 10139 C 950.556 -1.87461 0.738972 0
M  V30 10140 O 949.612 -2.50988 0.275929 0
M  V30 10141 C 950.925 -0.662961 2.93301 0
M  V30 10142 C 952.473 -0.754035 3.03782 0
M  V30 10143 C 952.948 -0.870815 4.49645 0
M  V30 10144 N 954.439 -0.935208 4.53661 0
M  V30 10145 C 955.174 -1.04516 5.63794 0
M  V30 10146 N 954.67 -1.11948 6.83696 0
M  V30 10147 N 956.463 -1.07978 5.51631 0
M  V30 10148 H 948.614 0.623018 2.03057 0
M  V30 10149 H 950.877 0.217692 0.922667 0
M  V30 10150 H 950.583 0.220375 3.51009 0
M  V30 10151 H 950.457 -1.52876 3.44831 0
M  V30 10152 H 952.844 -1.62782 2.46143 0
M  V30 10153 H 952.925 0.137301 2.55431 0
M  V30 10154 H 952.569 -0.0015186 5.079 0
M  V30 10155 H 952.499 -1.77747 4.95695 0
M  V30 10156 H 954.99 -0.88836 3.6731 0
M  V30 10157 H 955.303 -1.20297 7.6338 0
M  V30 10158 H 953.648 -1.08873 6.8642 0
M  V30 10159 H 956.839 -1.01833 4.56889 0
M  V30 10160 H 957.012 -1.16202 6.37496 0
M  V30 10161 N 950.418 -1.49637 -0.494624 0
M  V30 10162 C 951.695 -1.4995 -1.25596 0
M  V30 10163 C 952.075 -0.230805 -2.09834 0
M  V30 10164 O 951.423 0.786625 -2.14533 0
M  V30 10165 C 951.633 -2.78204 -2.10721 0
M  V30 10166 C 952.981 -3.27946 -2.69698 0
M  V30 10167 O 954.005 -2.79365 -2.20984 0
M  V30 10168 O 952.864 -4.12571 -3.58395 0
M  V30 10169 H 949.958 -0.60044 -0.568684 0
M  V30 10170 H 952.504 -1.61906 -0.508371 0
M  V30 10171 H 951.276 -3.62029 -1.48494 0
M  V30 10172 H 950.899 -2.69139 -2.92661 0
M  V30 10173 N 951.896 0.746133 -1.38819 0
M  V30 10174 C 953.143 1.50545 -1.35434 0
M  V30 10175 C 953.471 1.94427 0.0532669 0
M  V30 10176 O 952.726 1.66285 1.03188 0
M  V30 10177 C 953.025 2.76639 -2.26286 0
M  V30 10178 C 952.691 2.51682 -3.74122 0
M  V30 10179 C 951.353 2.44584 -4.14406 0
M  V30 10180 C 953.705 2.30071 -4.67672 0
M  V30 10181 C 951.033 2.13902 -5.46318 0
M  V30 10182 C 953.385 2.00907 -5.99849 0
M  V30 10183 C 952.049 1.92271 -6.39209 0
M  V30 10184 H 951.319 0.550883 -0.49559 0
M  V30 10185 H 953.966 0.857337 -1.71237 0
M  V30 10186 H 952.271 3.46138 -1.83564 0
M  V30 10187 H 953.968 3.34626 -2.20967 0
M  V30 10188 H 950.558 2.5808 -3.42188 0
M  V30 10189 H 954.742 2.34528 -4.3739 0
M  V30 10190 H 949.998 2.0573 -5.75748 0
M  V30 10191 H 954.172 1.83191 -6.71874 0
M  V30 10192 H 951.799 1.68261 -7.41345 0
M  V30 10193 N 953.375 1.23811 0.975125 0
M  V30 10194 C 954.652 0.9815 1.69192 0
M  V30 10195 C 955.032 -0.498373 2.05133 0
M  V30 10196 O 954.38 -1.47087 1.74864 0
M  V30 10197 C 954.59 1.89701 2.92941 0
M  V30 10198 C 955.938 2.16357 3.65342 0
M  V30 10199 O 956.962 1.87293 3.02985 0
M  V30 10200 O 955.821 2.65675 4.77576 0
M  V30 10201 H 952.915 0.370599 0.739314 0
M  V30 10202 H 955.461 1.34876 1.02988 0
M  V30 10203 H 954.233 2.89719 2.63018 0
M  V30 10204 H 953.856 1.53244 3.66881 0
M  V30 10205 N 954.853 -1.17469 1.05066 0
M  V30 10206 C 956.13 -1.83625 0.673872 0
M  V30 10207 C 956.51 -1.93412 -0.845871 0
M  V30 10208 O 955.858 -1.4677 -1.75131 0
M  V30 10209 C 956.068 -3.21352 1.36139 0
M  V30 10210 C 957.416 -3.97274 1.49863 0
M  V30 10211 O 958.44 -3.30827 1.3203 0
M  V30 10212 O 957.299 -5.16349 1.79013 0
M  V30 10213 H 954.393 -0.792297 0.237055 0
M  V30 10214 H 956.939 -1.24776 1.15017 0
M  V30 10215 H 955.711 -3.0919 2.39827 0
M  V30 10216 H 955.334 -3.87867 0.874364 0
M  V30 10217 N 956.331 -0.831506 -1.3388 0
M  V30 10218 C 957.559 -0.436925 -2.02234 0
M  V30 10219 C 957.974 0.959689 -1.6259 0
M  V30 10220 O 957.331 1.62248 -0.835576 0
M  V30 10221 C 957.382 -0.539429 -3.57453 0
M  V30 10222 O 957.103 -1.88101 -3.95664 0
M  V30 10223 C 958.604 -0.140852 -4.43076 0
M  V30 10224 H 955.824 -0.174302 -0.647966 0
M  V30 10225 H 958.368 -1.12204 -1.70969 0
M  V30 10226 H 956.523 0.0976959 -3.87277 0
M  V30 10227 H 956.937 -1.86131 -4.90363 0
M  V30 10228 H 958.411 -0.26364 -5.5137 0
M  V30 10229 H 958.888 0.916505 -4.29531 0
M  V30 10230 H 959.494 -0.752117 -4.18597 0
M  V30 10231 N 957.809 1.4625 -0.587256 0
M  V30 10232 C 958.719 2.34147 0.145744 0
M  V30 10233 C 959.735 1.50026 0.881376 0
M  V30 10234 O 960.911 1.82884 0.843539 0
M  V30 10235 C 957.976 3.27294 1.14366 0
M  V30 10236 C 957.037 4.27317 0.412199 0
M  V30 10237 C 956.27 5.16013 1.36257 0
M  V30 10238 O 956.493 5.0773 2.59934 0
M  V30 10239 O 955.427 5.95569 0.870681 0
M  V30 10240 H 959.253 2.98187 -0.576055 0
M  V30 10241 H 956.838 1.45299 -0.347628 0
M  V30 10242 H 958.72 3.84747 1.71894 0
M  V30 10243 H 957.395 2.65845 1.84684 0
M  V30 10244 H 956.302 3.73538 -0.205036 0
M  V30 10245 H 957.635 4.91564 -0.250104 0
M  V30 10246 N 959.287 0.325282 1.54207 0
M  V30 10247 C 960.698 -0.162426 1.85992 0
M  V30 10248 C 961.049 -1.51482 1.2469 0
M  V30 10249 O 960.174 -2.092 0.553578 0
M  V30 10250 C 960.769 -0.3015 3.37456 0
M  V30 10251 C 959.328 -0.73343 3.69185 0
M  V30 10252 C 958.475 0.143831 2.76927 0
M  V30 10253 H 961.426 0.545508 1.4903 0
M  V30 10254 H 961.447 -1.13212 3.63268 0
M  V30 10255 H 960.959 0.682942 3.82044 0
M  V30 10256 H 959.06 -1.72755 3.30131 0
M  V30 10257 H 959.173 -0.535987 4.76092 0
M  V30 10258 H 957.537 -0.380892 2.51836 0
M  V30 10259 H 958.32 1.12507 3.24341 0
M  V30 10260 N 960.765 -1.57509 0.0534917 0
M  V30 10261 C 961.99 -1.97511 -0.632794 0
M  V30 10262 C 962.415 -0.930947 -1.63447 0
M  V30 10263 O 961.773 0.105558 -1.80992 0
M  V30 10264 C 961.821 -3.3658 -1.29407 0
M  V30 10265 O 960.925 -3.3467 -2.40977 0
M  V30 10266 H 960.266 -0.643349 -0.16431 0
M  V30 10267 H 962.796 -2.04232 0.12258 0
M  V30 10268 H 962.806 -3.73359 -1.64521 0
M  V30 10269 H 961.481 -4.12113 -0.559976 0
M  V30 10270 H 960.058 -3.09639 -2.07793 0
M  V30 10271 N 962.243 0.219913 -1.56058 0
M  V30 10272 C 963.489 0.941055 -1.80321 0
M  V30 10273 C 963.844 1.81906 -0.626735 0
M  V30 10274 O 963.137 1.87811 0.379147 0
M  V30 10275 C 963.331 1.81293 -3.08006 0
M  V30 10276 C 963.16 1.02082 -4.37961 0
M  V30 10277 C 961.93 0.715096 -5.00214 0
M  V30 10278 C 964.128 0.385342 -5.12854 0
M  V30 10279 N 962.11 -0.098246 -6.13821 0
M  V30 10280 C 963.481 -0.291319 -6.19315 0
M  V30 10281 C 965.536 0.29854 -4.97004 0
M  V30 10282 C 964.239 -1.04648 -7.11647 0
M  V30 10283 C 966.265 -0.443159 -5.89737 0
M  V30 10284 C 965.627 -1.10836 -6.95625 0
M  V30 10285 H 961.726 0.324568 -0.711463 0
M  V30 10286 H 964.31 0.211795 -1.93545 0
M  V30 10287 H 962.481 2.51399 -2.96063 0
M  V30 10288 H 964.213 2.47167 -3.20454 0
M  V30 10289 H 960.968 1.03352 -4.62185 0
M  V30 10290 H 961.392 -0.4938 -6.75197 0
M  V30 10291 H 966.034 0.798478 -4.15192 0
M  V30 10292 H 963.752 -1.55793 -7.9294 0
M  V30 10293 H 967.338 -0.511348 -5.79549 0
M  V30 10294 H 966.218 -1.6731 -7.66144 0
M  V30 10295 N 963.721 1.49897 0.486681 0
M  V30 10296 C 964.998 1.50614 1.24799 0
M  V30 10297 C 965.378 0.24193 2.09709 0
M  V30 10298 O 964.726 -0.775237 2.14947 0
M  V30 10299 C 964.936 2.79318 2.09243 0
M  V30 10300 C 966.284 3.29371 2.67955 0
M  V30 10301 O 967.308 2.80533 2.19499 0
M  V30 10302 O 966.167 4.14466 3.56202 0
M  V30 10303 H 963.261 0.603447 0.565491 0
M  V30 10304 H 965.807 1.62174 0.499778 0
M  V30 10305 H 964.579 3.62812 1.46572 0
M  V30 10306 H 964.202 2.70687 2.91229 0
M  V30 10307 N 965.199 -0.738761 1.39212 0
M  V30 10308 C 966.147 -1.8741 1.3777 0
M  V30 10309 C 967.141 -1.67371 0.261375 0
M  V30 10310 O 968.347 -1.74759 0.431209 0
M  V30 10311 H 964.722 -0.616843 0.430126 0
M  V30 10312 H 966.693 -1.85742 2.33543 0
M  V30 10313 C 965.442 -3.25053 1.23433 0
M  V30 10314 H 964.765 -3.41066 2.086 0
M  V30 10315 H 966.205 -4.04696 1.2648 0
M  V30 10316 C 964.664 -3.36851 -0.0575624 0
M  V30 10317 O 965.194 -3.88293 -1.02915 0
M  V30 10318 N 963.4 -2.90355 -0.119364 0
M  V30 10319 H 962.947 -2.48681 0.671976 0
M  V30 10320 H 962.905 -2.98628 -0.983286 0
M  V30 10321 N 966.677 -1.24326 -0.968545 0
M  V30 10322 C 967.587 -1.05194 -2.09694 0
M  V30 10323 C 968.603 0.00701291 -1.73999 0
M  V30 10324 O 969.779 -0.190981 -2.00492 0
M  V30 10325 C 966.844 -0.658075 -3.40397 0
M  V30 10326 C 965.905 -1.79341 -3.90045 0
M  V30 10327 C 965.138 -1.41824 -5.14511 0
M  V30 10328 O 965.361 -0.307693 -5.69569 0
M  V30 10329 O 964.295 -2.24358 -5.58522 0
M  V30 10330 H 968.121 -1.99791 -2.2873 0
M  V30 10331 H 965.706 -1.03138 -1.08088 0
M  V30 10332 H 967.588 -0.449911 -4.18991 0
M  V30 10333 H 966.263 0.258782 -3.22664 0
M  V30 10334 H 965.17 -2.05632 -3.12516 0
M  V30 10335 H 966.503 -2.68901 -4.12254 0
M  V30 10336 N 968.156 1.1691 -1.05688 0
M  V30 10337 C 969.104 2.2315 -0.656262 0
M  V30 10338 C 970.098 1.66256 0.324873 0
M  V30 10339 O 971.304 1.7899 0.190397 0
M  V30 10340 H 967.679 0.726527 -0.19407 0
M  V30 10341 H 969.65 2.54233 -1.56231 0
M  V30 10342 C 968.399 3.47661 -0.0522431 0
M  V30 10343 H 967.722 3.91749 -0.798299 0
M  V30 10344 H 969.162 4.23571 0.190626 0
M  V30 10345 C 967.621 3.14709 1.20248 0
M  V30 10346 O 968.151 3.29947 2.29124 0
M  V30 10347 N 966.357 2.68892 1.10207 0
M  V30 10348 H 965.904 2.56692 0.216063 0
M  V30 10349 H 965.862 2.47218 1.94244 0
M  V30 10350 N 969.634 0.838594 1.33437 0
M  V30 10351 C 970.544 0.274048 2.32994 0
M  V30 10352 C 971.56 -0.599776 1.63336 0
M  V30 10353 O 972.736 -0.503963 1.94993 0
M  V30 10354 C 969.801 -0.541804 3.4244 0
M  V30 10355 C 968.862 0.356262 4.27819 0
M  V30 10356 C 968.095 -0.420747 5.32039 0
M  V30 10357 O 968.318 -1.65247 5.45939 0
M  V30 10358 O 967.252 0.205101 6.0155 0
M  V30 10359 H 971.078 1.09846 2.83139 0
M  V30 10360 H 968.663 0.601111 1.36774 0
M  V30 10361 H 970.545 -1.00544 4.0923 0
M  V30 10362 H 969.22 -1.34328 2.94513 0
M  V30 10363 H 968.127 0.867726 3.63897 0
M  V30 10364 H 969.46 1.1225 4.79229 0
M  V30 10365 N 971.112 -1.45937 0.595003 0
M  V30 10366 C 972.361 -2.01529 0.0829531 0
M  V30 10367 C 972.674 -1.47071 -1.28955 0
M  V30 10368 O 973.88 -1.94561 -1.89363 0
M  V30 10369 C 972.336 -3.59767 0.0976597 0
M  V30 10370 C 971.944 -4.23223 1.46924 0
M  V30 10371 C 973.688 -4.22972 -0.359805 0
M  V30 10372 C 971.595 -5.73576 1.44101 0
M  V30 10373 H 970.525 -0.753508 0.0272425 0
M  V30 10374 H 973.176 -1.67541 0.748473 0
M  V30 10375 H 971.558 -3.90888 -0.634268 0
M  V30 10376 H 972.732 -4.03695 2.22187 0
M  V30 10377 H 971.047 -3.72161 1.86775 0
M  V30 10378 H 973.644 -5.33202 -0.39991 0
M  V30 10379 H 973.987 -3.92765 -1.37991 0
M  V30 10380 H 974.52 -3.96523 0.31845 0
M  V30 10381 H 971.259 -6.08462 2.43831 0
M  V30 10382 H 970.779 -5.95332 0.730767 0
M  V30 10383 H 972.458 -6.36531 1.1592 0
M  V30 10384 N 972.59 -0.333456 -1.54032 0
M  V30 10385 C 973.52 0.52051 -2.27625 0
M  V30 10386 C 974.501 1.1111 -1.28797 0
M  V30 10387 O 975.686 1.13438 -1.57625 0
M  V30 10388 C 972.816 1.67663 -3.04149 0
M  V30 10389 C 971.77 1.21487 -4.10396 0
M  V30 10390 C 971.096 2.45872 -4.74817 0
M  V30 10391 C 972.396 0.322603 -5.21303 0
M  V30 10392 H 974.09 -0.0933823 -2.99254 0
M  V30 10393 H 971.636 -0.0463526 -1.43925 0
M  V30 10394 H 973.589 2.28041 -3.54366 0
M  V30 10395 H 972.313 2.31727 -2.30153 0
M  V30 10396 H 970.972 0.633966 -3.61077 0
M  V30 10397 H 970.62 3.0832 -3.97426 0
M  V30 10398 H 970.32 2.15662 -5.46593 0
M  V30 10399 H 971.844 3.06994 -5.27814 0
M  V30 10400 H 973.258 0.832942 -5.67217 0
M  V30 10401 H 971.655 0.112843 -5.99994 0
M  V30 10402 H 972.725 -0.643954 -4.80605 0
M  V30 10403 N 974.068 1.57479 -0.061844 0
M  V30 10404 C 975.296 1.97429 0.618837 0
M  V30 10405 C 975.711 0.939826 1.63746 0
M  V30 10406 O 975.068 -0.0747173 1.82347 0
M  V30 10407 C 975.119 3.3746 1.29628 0
M  V30 10408 O 974.84 4.36941 0.318431 0
M  V30 10409 C 976.341 3.92228 2.06572 0
M  V30 10410 H 973.561 0.649513 0.168444 0
M  V30 10411 H 976.105 2.04078 -0.131303 0
M  V30 10412 H 974.26 3.31928 1.99757 0
M  V30 10413 H 974.674 5.18313 0.803239 0
M  V30 10414 H 976.148 4.92458 2.49377 0
M  V30 10415 H 976.625 3.28231 2.91824 0
M  V30 10416 H 977.231 4.01131 1.4133 0
M  V30 10417 N 975.546 -0.211634 1.56173 0
M  V30 10418 C 976.456 -1.2831 1.96402 0
M  V30 10419 C 977.472 -1.50731 0.869254 0
M  V30 10420 O 978.648 -1.63669 1.17365 0
M  V30 10421 C 975.713 -2.61084 2.28114 0
M  V30 10422 C 974.774 -2.46879 3.51211 0
M  V30 10423 C 974.007 -3.73321 3.81401 0
M  V30 10424 O 974.23 -4.76773 3.13119 0
M  V30 10425 O 973.164 -3.69839 4.74871 0
M  V30 10426 H 976.99 -0.971733 2.87734 0
M  V30 10427 H 974.575 -0.415305 1.43512 0
M  V30 10428 H 976.457 -3.39481 2.49661 0
M  V30 10429 H 975.132 -2.91881 1.39954 0
M  V30 10430 H 974.039 -1.66648 3.34932 0
M  V30 10431 H 975.372 -2.21018 4.39786 0
M  V30 10432 N 977.024 -1.50153 -0.478725 0
M  V30 10433 C 977.954 -1.71384 -1.58587 0
M  V30 10434 C 978.935 -0.562705 -1.60523 0
M  V30 10435 O 980.12 -0.80101 -1.76911 0
M  V30 10436 C 977.25 -1.80094 -2.96957 0
M  V30 10437 C 976.204 -2.95218 -3.09888 0
M  V30 10438 C 975.53 -2.89063 -4.49829 0
M  V30 10439 C 976.83 -4.35841 -2.8782 0
M  V30 10440 H 978.524 -2.64081 -1.41073 0
M  V30 10441 H 976.07 -1.27081 -0.677239 0
M  V30 10442 H 978.023 -1.93531 -3.74331 0
M  V30 10443 H 976.747 -0.840131 -3.1561 0
M  V30 10444 H 975.406 -2.81419 -2.34944 0
M  V30 10445 H 975.054 -1.90844 -4.6539 0
M  V30 10446 H 974.754 -3.66345 -4.59418 0
M  V30 10447 H 976.278 -3.04539 -5.29234 0
M  V30 10448 H 977.692 -4.50205 -3.54948 0
M  V30 10449 H 976.089 -5.14515 -3.0886 0
M  V30 10450 H 977.159 -4.48739 -1.83742 0
M  V30 10451 N 978.502 0.731368 -1.39602 0
M  V30 10452 C 979.73 1.52059 -1.40305 0
M  V30 10453 C 980.145 1.888 0.00147921 0
M  V30 10454 O 979.502 1.54354 0.973715 0
M  V30 10455 C 979.553 2.80588 -2.27931 0
M  V30 10456 O 979.274 2.45406 -3.62915 0
M  V30 10457 C 980.775 3.74592 -2.37056 0
M  V30 10458 H 977.995 0.469787 -0.479104 0
M  V30 10459 H 980.539 0.903436 -1.83462 0
M  V30 10460 H 978.694 3.38626 -1.88178 0
M  V30 10461 H 979.108 3.27996 -4.09291 0
M  V30 10462 H 980.582 4.61662 -3.02609 0
M  V30 10463 H 981.059 4.16597 -1.39081 0
M  V30 10464 H 981.665 3.22471 -2.77295 0
M  V30 10465 N 979.98 1.24838 0.961938 0
M  V30 10466 C 981.22 1.10348 1.72054 0
M  V30 10467 C 981.584 -0.350775 1.88769 0
M  V30 10468 O 982.785 -0.617323 2.61615 0
M  V30 10469 C 981.056 1.82916 3.07045 0
M  V30 10470 S 982.615 1.84227 3.98253 0
M  V30 10471 H 979.433 0.394552 0.591481 0
M  V30 10472 H 982.035 1.58254 1.14786 0
M  V30 10473 H 980.739 2.87829 2.92545 0
M  V30 10474 H 980.27 1.35366 3.69377 0
M  V30 10475 H 982.285 0.914073 4.87708 0
M  V30 10476 N 981.458 -1.16348 1.06306 0
M  V30 10477 C 982.707 -1.8622 0.774909 0
M  V30 10478 C 983.02 -1.82598 -0.701245 0
M  V30 10479 O 984.226 -2.48051 -1.10377 0
M  V30 10480 C 982.682 -3.34182 1.33604 0
M  V30 10481 C 982.29 -3.46279 2.84245 0
M  V30 10482 C 984.034 -4.09309 1.12544 0
M  V30 10483 C 981.941 -4.88327 3.33602 0
M  V30 10484 H 980.871 -0.697574 0.286194 0
M  V30 10485 H 983.522 -1.31311 1.28179 0
M  V30 10486 H 981.904 -3.88698 0.756937 0
M  V30 10487 H 983.078 -3.01923 3.48108 0
M  V30 10488 H 981.393 -2.84585 3.03974 0
M  V30 10489 H 983.99 -5.14123 1.46909 0
M  V30 10490 H 984.333 -4.16251 0.0638129 0
M  V30 10491 H 984.866 -3.61032 1.67034 0
M  V30 10492 H 981.605 -4.86565 4.39244 0
M  V30 10493 H 981.125 -5.33307 2.74487 0
M  V30 10494 H 982.804 -5.57144 3.28937 0
M  V30 10495 N 982.937 -0.845659 -1.3299 0
M  V30 10496 C 983.9 -0.288905 -2.27372 0
M  V30 10497 C 984.9 0.546263 -1.51237 0
M  V30 10498 O 986.09 0.359072 -1.70459 0
M  V30 10499 C 983.222 0.59224 -3.35716 0
M  V30 10500 H 984.415 -1.12181 -2.78128 0
M  V30 10501 H 981.968 -0.619276 -1.43508 0
M  V30 10502 H 982.703 1.44732 -2.90212 0
M  V30 10503 H 982.488 -0.00543255 -3.921 0
M  V30 10504 H 983.978 0.974848 -4.06062 0
M  V30 10505 N 984.415 1.45619 -0.602734 0
M  V30 10506 C 985.661 2.02572 -0.0961759 0
M  V30 10507 C 985.994 1.47076 1.26815 0
M  V30 10508 O 985.269 0.643566 1.83544 0
M  V30 10509 C 985.552 3.60062 -0.0520032 0
M  V30 10510 C 985.405 4.25901 -1.44665 0
M  V30 10511 C 986.724 4.35446 0.638342 0
M  V30 10512 H 983.843 0.736099 -0.0364238 0
M  V30 10513 H 986.485 1.7353 -0.773776 0
M  V30 10514 H 984.635 3.84936 0.525032 0
M  V30 10515 H 986.307 4.12228 -2.0704 0
M  V30 10516 H 984.55 3.84489 -2.00874 0
M  V30 10517 H 985.221 5.34779 -1.36803 0
M  V30 10518 H 987.697 4.15837 0.147926 0
M  V30 10519 H 986.573 5.45176 0.63834 0
M  V30 10520 H 986.834 4.07962 1.70351 0
M  V30 10521 N 985.893 0.34162 1.53853 0
M  V30 10522 C 987.139 -0.255862 2.01179 0
M  V30 10523 C 987.472 -1.50356 1.22909 0
M  V30 10524 O 986.747 -1.91913 0.316198 0
M  V30 10525 C 987.03 -0.571934 3.55529 0
M  V30 10526 C 986.883 0.687727 4.44511 0
M  V30 10527 C 988.202 -1.38233 4.17827 0
M  V30 10528 H 985.321 -0.091521 0.731295 0
M  V30 10529 H 987.963 0.461775 1.84303 0
M  V30 10530 H 986.113 -1.18331 3.70041 0
M  V30 10531 H 987.785 1.32572 4.4184 0
M  V30 10532 H 986.028 1.313 4.13452 0
M  V30 10533 H 986.699 0.421858 5.50386 0
M  V30 10534 H 989.175 -0.865374 4.07002 0
M  V30 10535 H 988.051 -1.57223 5.25901 0
M  V30 10536 H 988.312 -2.38386 3.72323 0
M  V30 10537 N 987.371 -1.57444 0.0701946 0
M  V30 10538 C 988.619 -1.93047 -0.598106 0
M  V30 10539 C 988.94 -0.950841 -1.70247 0
M  V30 10540 O 988.21 0.00127177 -1.959 0
M  V30 10541 H 986.79 -0.712648 -0.223924 0
M  V30 10542 H 989.452 -1.94481 0.127674 0
M  V30 10543 H 988.548 -2.94807 -1.02445 0
M  V30 10544 N 988.849 0.203349 -1.56283 0
M  V30 10545 C 990.098 0.92315 -1.79334 0
M  V30 10546 C 990.411 1.84765 -0.641977 0
M  V30 10547 O 991.617 2.60745 -0.756584 0
M  V30 10548 C 990.073 1.69184 -3.17655 0
M  V30 10549 C 989.681 0.812581 -4.40569 0
M  V30 10550 C 991.425 2.40177 -3.50022 0
M  V30 10551 C 989.332 1.57967 -5.69913 0
M  V30 10552 H 988.262 0.348442 -0.668659 0
M  V30 10553 H 990.913 0.1766 -1.82648 0
M  V30 10554 H 989.295 2.48197 -3.08568 0
M  V30 10555 H 990.469 0.0616956 -4.60759 0
M  V30 10556 H 988.784 0.21389 -4.1585 0
M  V30 10557 H 991.381 2.98103 -4.4389 0
M  V30 10558 H 991.724 3.13961 -2.73376 0
M  V30 10559 H 992.257 1.68138 -3.6052 0
M  V30 10560 H 988.996 0.884767 -6.49501 0
M  V30 10561 H 988.516 2.3047 -5.53754 0
M  V30 10562 H 990.195 2.13562 -6.10737 0
M  V30 10563 N 990.327 1.50405 0.470755 0
M  V30 10564 C 991.237 1.7208 1.59454 0
M  V30 10565 C 992.253 0.603932 1.63183 0
M  V30 10566 O 993.429 0.882296 1.81046 0
M  V30 10567 C 990.494 1.81057 2.95667 0
M  V30 10568 C 989.555 3.04792 3.02324 0
M  V30 10569 C 988.788 3.13332 4.3204 0
M  V30 10570 O 989.011 2.28655 5.22564 0
M  V30 10571 O 987.945 4.0606 4.44296 0
M  V30 10572 H 991.771 2.67343 1.44089 0
M  V30 10573 H 989.356 1.34505 0.650286 0
M  V30 10574 H 991.238 1.8914 3.76569 0
M  V30 10575 H 989.913 0.889782 3.11231 0
M  V30 10576 H 988.82 3.0221 2.205 0
M  V30 10577 H 990.153 3.96451 2.91698 0
M  V30 10578 N 991.805 -0.723954 1.39988 0
M  V30 10579 C 993.082 -1.4763 1.28316 0
M  V30 10580 C 993.462 -2.10852 -0.102302 0
M  V30 10581 O 992.81 -1.9948 -1.11445 0
M  V30 10582 C 993.02 -2.51878 2.41574 0
M  V30 10583 C 994.368 -3.17948 2.81415 0
M  V30 10584 O 995.392 -2.62195 2.41106 0
M  V30 10585 O 994.251 -4.18858 3.51027 0
M  V30 10586 H 991.345 -0.656092 0.50346 0
M  V30 10587 H 993.891 -0.75684 1.51888 0
M  V30 10588 H 992.663 -2.03618 3.34149 0
M  V30 10589 H 992.286 -3.3137 2.19727 0
M  V30 10590 N 993.283 -1.25346 -0.955304 0
M  V30 10591 C 994.694 -1.09173 -1.51453 0
M  V30 10592 C 995.045 0.332755 -1.93358 0
M  V30 10593 O 994.17 1.22264 -1.78551 0
M  V30 10594 C 994.765 -1.97564 -2.75234 0
M  V30 10595 C 993.324 -1.85579 -3.27471 0
M  V30 10596 C 992.471 -1.91755 -2.00313 0
M  V30 10597 H 995.422 -1.38642 -0.772271 0
M  V30 10598 H 995.443 -1.51523 -3.49029 0
M  V30 10599 H 994.955 -3.01233 -2.44704 0
M  V30 10600 H 993.056 -0.847906 -3.62824 0
M  V30 10601 H 993.169 -2.70353 -3.95533 0
M  V30 10602 H 991.533 -1.35633 -2.15582 0
M  V30 10603 H 992.316 -2.97028 -1.72132 0
M  V30 10604 N 994.761 1.15782 -1.06922 0
M  V30 10605 C 996.007 1.86741 -0.790922 0
M  V30 10606 C 996.34 1.81863 0.681149 0
M  V30 10607 O 995.615 1.23871 1.49954 0
M  V30 10608 C 995.898 3.36038 -1.29422 0
M  V30 10609 C 995.751 3.49573 -2.83052 0
M  V30 10610 C 997.07 4.30647 -0.907239 0
M  V30 10611 H 994.189 0.678064 -0.288787 0
M  V30 10612 H 996.831 1.36054 -1.32624 0
M  V30 10613 H 994.981 3.79336 -0.838843 0
M  V30 10614 H 996.653 3.1517 -3.36847 0
M  V30 10615 H 994.896 2.91275 -3.21467 0
M  V30 10616 H 995.567 4.5445 -3.13335 0
M  V30 10617 H 998.043 3.95286 -1.29956 0
M  V30 10618 H 996.919 5.33604 -1.28679 0
M  V30 10619 H 997.18 4.41703 0.187251 0
M  V30 10620 N 996.239 0.8527 1.3254 0
M  V30 10621 C 997.655 0.542298 1.50104 0
M  V30 10622 C 997.855 -0.927465 1.78886 0
M  V30 10623 O 996.911 -1.7106 1.85728 0
M  V30 10624 C 998.224 1.4276 2.64651 0
M  V30 10625 C 999.772 1.42782 2.78536 0
M  V30 10626 C 1000.25 2.29828 3.9616 0
M  V30 10627 N 1001.74 2.27613 4.03418 0
M  V30 10628 C 1002.47 2.91696 4.93661 0
M  V30 10629 N 1001.97 3.64883 5.88925 0
M  V30 10630 N 1003.76 2.81094 4.86768 0
M  V30 10631 H 995.913 1.80395 1.12123 0
M  V30 10632 H 998.176 0.770394 0.552446 0
M  V30 10633 H 997.882 2.47266 2.50105 0
M  V30 10634 H 997.756 1.11358 3.60388 0
M  V30 10635 H 1000.14 0.390417 2.92506 0
M  V30 10636 H 1000.22 1.78198 1.83519 0
M  V30 10637 H 999.868 3.33635 3.82949 0
M  V30 10638 H 999.798 1.91746 4.9045 0
M  V30 10639 H 1002.29 1.74402 3.3525 0
M  V30 10640 H 1002.6 4.10952 6.54476 0
M  V30 10641 H 1000.95 3.68991 5.88957 0
M  V30 10642 H 1004.14 2.23469 4.11314 0
M  V30 10643 H 1004.31 3.31318 5.56895 0
M  V30 10644 N 997.718 -1.45297 0.610449 0
M  V30 10645 C 999.129 -1.85715 0.191488 0
M  V30 10646 C 999.48 -1.51036 -1.25229 0
M  V30 10647 O 998.605 -0.938422 -1.94994 0
M  V30 10648 C 999.2 -3.37082 0.340747 0
M  V30 10649 C 997.759 -3.76393 -0.0235433 0
M  V30 10650 C 996.906 -2.69237 0.663849 0
M  V30 10651 H 999.857 -1.36058 0.816948 0
M  V30 10652 H 999.878 -3.78105 -0.426233 0
M  V30 10653 H 999.39 -3.62291 1.39164 0
M  V30 10654 H 997.491 -3.56801 -1.07351 0
M  V30 10655 H 997.604 -4.77653 0.372102 0
M  V30 10656 H 995.968 -2.54499 0.101204 0
M  V30 10657 H 996.751 -2.97281 1.71694 0
M  V30 10658 N 999.196 -0.349774 -1.5367 0
M  V30 10659 C 1000.11 0.512421 -2.28935 0
M  V30 10660 C 1001.12 1.1065 -1.34286 0
M  V30 10661 O 1002.3 1.12084 -1.67329 0
M  V30 10662 C 999.363 1.64449 -3.05217 0
M  V30 10663 C 998.424 1.07956 -4.15505 0
M  V30 10664 C 997.657 2.15768 -4.88139 0
M  V30 10665 O 997.88 3.366 -4.60496 0
M  V30 10666 O 996.814 1.79712 -5.74445 0
M  V30 10667 H 1000.64 -0.0996001 -3.03537 0
M  V30 10668 H 998.225 -0.114629 -1.4896 0
M  V30 10669 H 1000.11 2.30302 -3.52901 0
M  V30 10670 H 998.782 2.24221 -2.33467 0
M  V30 10671 H 997.689 0.385381 -3.7211 0
M  V30 10672 H 999.022 0.526621 -4.89375 0
M  V30 10673 N 1000.67 1.57404 -0.0785433 0
M  V30 10674 C 1001.92 1.94031 0.589896 0
M  V30 10675 C 1002.25 0.959297 1.68852 0
M  V30 10676 O 1001.53 -0.0103978 1.94497 0
M  V30 10677 C 1001.81 3.40886 1.16055 0
M  V30 10678 C 1001.66 4.49748 0.0681072 0
M  V30 10679 C 1002.98 3.88699 2.06401 0
M  V30 10680 H 1000.1 0.70556 0.212965 0
M  V30 10681 H 1002.74 1.89439 -0.145886 0
M  V30 10682 H 1000.89 3.4493 1.78761 0
M  V30 10683 H 1002.57 4.57823 -0.565318 0
M  V30 10684 H 1000.81 4.29625 -0.600431 0
M  V30 10685 H 1001.48 5.49658 0.507906 0
M  V30 10686 H 1003.96 3.86703 1.53622 0
M  V30 10687 H 1002.83 4.92052 2.43261 0
M  V30 10688 H 1003.09 3.2703 2.97496 0
M  V30 10689 N 1002.15 -0.195058 1.56388 0
M  V30 10690 C 1003.56 -0.75973 1.70543 0
M  V30 10691 C 1003.91 -1.83849 0.685118 0
M  V30 10692 O 1003.04 -2.15819 -0.158457 0
M  V30 10693 C 1003.63 -1.38485 3.09204 0
M  V30 10694 C 1002.19 -1.89661 3.25124 0
M  V30 10695 C 1001.34 -0.766563 2.66494 0
M  V30 10696 H 1004.29 0.0300148 1.58672 0
M  V30 10697 H 1004.31 -2.25424 3.06536 0
M  V30 10698 H 1003.82 -0.599479 3.83442 0
M  V30 10699 H 1001.92 -2.70917 2.55802 0
M  V30 10700 H 1002.04 -2.05837 4.32629 0
M  V30 10701 H 1000.4 -1.18086 2.25672 0
M  V30 10702 H 1001.18 0.00657102 3.43299 0
M  V30 10703 N 1003.63 -1.50653 -0.462772 0
M  V30 10704 C 1004.91 -1.5258 -1.22387 0
M  V30 10705 C 1005.29 -0.275263 -2.09298 0
M  V30 10706 O 1004.63 0.740943 -2.16153 0
M  V30 10707 C 1004.84 -2.82611 -2.04773 0
M  V30 10708 C 1006.19 -3.33592 -2.62681 0
M  V30 10709 O 1007.22 -2.83989 -2.15008 0
M  V30 10710 O 1006.08 -4.20081 -3.49563 0
M  V30 10711 H 1003.17 -0.612367 -0.55582 0
M  V30 10712 H 1005.72 -1.62948 -0.473914 0
M  V30 10713 H 1004.49 -3.65098 -1.40781 0
M  V30 10714 H 1004.11 -2.75286 -2.86886 0
M  V30 10715 N 1005.11 0.71652 -1.4037 0
M  V30 10716 C 1006.07 1.81231 -1.40313 0
M  V30 10717 C 1007.07 1.58032 -0.297087 0
M  V30 10718 O 1008.26 1.65091 -0.555944 0
M  V30 10719 C 1005.39 3.19308 -1.19395 0
M  V30 10720 H 1006.59 1.8268 -2.3784 0
M  V30 10721 H 1004.14 0.922062 -1.26205 0
M  V30 10722 H 1004.87 3.2351 -0.226252 0
M  V30 10723 H 1004.66 3.37546 -1.99512 0
M  V30 10724 H 1006.15 3.99339 -1.22141 0
M  V30 10725 N 1006.59 1.25851 0.948643 0
M  V30 10726 C 1007.84 1.10347 1.68838 0
M  V30 10727 C 1008.15 -0.354262 1.92365 0
M  V30 10728 O 1009.35 -0.629847 2.64093 0
M  V30 10729 C 1007.81 1.92659 3.03991 0
M  V30 10730 C 1007.42 3.42962 2.88238 0
M  V30 10731 C 1009.16 1.85743 3.81707 0
M  V30 10732 C 1007.07 4.17547 4.18818 0
M  V30 10733 H 1006 0.409342 0.63321 0
M  V30 10734 H 1008.65 1.50098 1.05559 0
M  V30 10735 H 1007.03 1.45736 3.68208 0
M  V30 10736 H 1008.21 3.97601 2.32917 0
M  V30 10737 H 1006.52 3.51035 2.23972 0
M  V30 10738 H 1009.12 2.38758 4.78434 0
M  V30 10739 H 1009.46 0.826568 4.08012 0
M  V30 10740 H 1009.99 2.30449 3.2425 0
M  V30 10741 H 1006.73 5.21072 3.97699 0
M  V30 10742 H 1006.25 3.6769 4.73882 0
M  V30 10743 H 1007.93 4.25589 4.87322 0
M  V30 10744 N 1008.06 -1.15214 1.07534 0
M  V30 10745 C 1009.03 -2.18209 0.701237 0
M  V30 10746 C 1010.03 -1.58693 -0.25946 0
M  V30 10747 O 1011.22 -1.74154 -0.0401744 0
M  V30 10748 C 1008.35 -3.40883 0.0338703 0
M  V30 10749 H 1009.54 -2.5282 1.61314 0
M  V30 10750 H 1007.1 -1.29707 0.872105 0
M  V30 10751 H 1007.83 -3.11843 -0.890187 0
M  V30 10752 H 1007.62 -3.85342 0.72486 0
M  V30 10753 H 1009.11 -4.17056 -0.213152 0
M  V30 10754 N 1009.54 -0.859717 -1.32086 0
M  V30 10755 C 1010.49 -0.306042 -2.28762 0
M  V30 10756 C 1011.46 0.589801 -1.55276 0
M  V30 10757 O 1012.64 0.523633 -1.83474 0
M  V30 10758 C 1009.78 0.495256 -3.41528 0
M  V30 10759 C 1008.9 -0.426947 -4.29885 0
M  V30 10760 C 1008.03 0.387474 -5.29785 0
M  V30 10761 C 1007.07 -0.531807 -6.09785 0
M  V30 10762 N 1006.21 0.245741 -7.0167 0
M  V30 10763 H 1011.05 -1.1357 -2.7551 0
M  V30 10764 H 1008.59 -0.571468 -1.35546 0
M  V30 10765 H 1010.54 0.97551 -4.05635 0
M  V30 10766 H 1009.17 1.28969 -2.95917 0
M  V30 10767 H 1008.23 -1.02561 -3.66313 0
M  V30 10768 H 1009.54 -1.13226 -4.85779 0
M  V30 10769 H 1008.69 0.930677 -5.99519 0
M  V30 10770 H 1007.43 1.12612 -4.74521 0
M  V30 10771 H 1006.44 -1.08685 -5.3895 0
M  V30 10772 H 1007.66 -1.26915 -6.67135 0
M  V30 10773 H 1005.61 0.967391 -6.48828 0
M  V30 10774 H 1005.52 -0.400432 -7.54939 0
M  V30 10775 H 1006.79 0.770507 -7.75683 0
M  V30 10776 N 1011.02 1.44971 -0.618145 0
M  V30 10777 C 1012.26 2.04044 -0.120625 0
M  V30 10778 C 1012.62 1.47472 1.22947 0
M  V30 10779 O 1013.83 1.97965 1.81834 0
M  V30 10780 C 1012.1 3.57279 -0.0930863 0
M  V30 10781 S 1013.66 4.37468 0.341705 0
M  V30 10782 H 1010.47 0.708891 -0.0547272 0
M  V30 10783 H 1013.08 1.77535 -0.818621 0
M  V30 10784 H 1011.78 3.95961 -1.07903 0
M  V30 10785 H 1011.31 3.88378 0.62657 0
M  V30 10786 H 1013.33 4.70073 1.58888 0
M  V30 10787 N 1012.5 0.357919 1.53482 0
M  V30 10788 C 1013.45 -0.49217 2.25491 0
M  V30 10789 C 1014.42 -1.08382 1.25867 0
M  V30 10790 O 1015.6 -1.11775 1.54632 0
M  V30 10791 C 1012.74 -1.6299 3.04185 0
M  V30 10792 C 1011.85 -1.06416 4.18688 0
M  V30 10793 C 1010.99 -2.17037 4.84839 0
M  V30 10794 C 1010.03 -1.57889 5.91386 0
M  V30 10795 N 1009.16 -2.6231 6.51259 0
M  V30 10796 H 1014 0.128412 2.97723 0
M  V30 10797 H 1011.54 0.0751423 1.46908 0
M  V30 10798 H 1013.5 -2.29993 3.48079 0
M  V30 10799 H 1012.13 -2.22125 2.34223 0
M  V30 10800 H 1011.18 -0.284635 3.79334 0
M  V30 10801 H 1012.49 -0.591654 4.95279 0
M  V30 10802 H 1011.65 -2.91876 5.31877 0
M  V30 10803 H 1010.39 -2.67636 4.07703 0
M  V30 10804 H 1009.39 -0.815605 5.43717 0
M  V30 10805 H 1010.62 -1.08123 6.70437 0
M  V30 10806 H 1008.56 -3.12137 5.7698 0
M  V30 10807 H 1008.48 -2.19724 7.23365 0
M  V30 10808 H 1009.75 -3.36875 7.02948 0
M  V30 10809 N 1013.98 -1.5736 0.0868897 0
M  V30 10810 C 1014.91 -2.10582 -0.904858 0
M  V30 10811 C 1015.92 -1.04124 -1.25148 0
M  V30 10812 O 1017.11 -1.31595 -1.20603 0
M  V30 10813 C 1014.21 -2.56381 -2.21635 0
M  V30 10814 C 1013.38 -3.86581 -2.04631 0
M  V30 10815 C 1012.44 -4.18313 -3.19219 0
M  V30 10816 O 1011.47 -4.87669 -2.93544 0
M  V30 10817 N 1012.67 -3.73061 -4.44754 0
M  V30 10818 H 1015.44 -2.96297 -0.450352 0
M  V30 10819 H 1013 -1.616 -0.0984376 0
M  V30 10820 H 1014.99 -2.7466 -2.97227 0
M  V30 10821 H 1013.56 -1.75721 -2.58536 0
M  V30 10822 H 1012.78 -3.77532 -1.13417 0
M  V30 10823 H 1014.07 -4.71777 -1.90537 0
M  V30 10824 H 1013.46 -3.1706 -4.68497 0
M  V30 10825 H 1012.02 -3.96511 -5.17322 0
M  V30 10826 N 1015.45 0.186762 -1.56489 0
M  V30 10827 C 1016.42 1.21511 -1.94339 0
M  V30 10828 C 1017.42 1.38001 -0.82537 0
M  V30 10829 O 1018.61 1.3567 -1.09266 0
M  V30 10830 C 1015.74 2.583 -2.22472 0
M  V30 10831 H 1016.93 0.891371 -2.86347 0
M  V30 10832 H 1014.49 0.428612 -1.50308 0
M  V30 10833 H 1015.22 2.95715 -1.33129 0
M  V30 10834 H 1015.01 2.47701 -3.03951 0
M  V30 10835 H 1016.5 3.32441 -2.5273 0
M  V30 10836 N 1016.93 1.50896 0.454776 0
M  V30 10837 C 1018.18 1.62378 1.20324 0
M  V30 10838 C 1018.5 0.333883 1.9212 0
M  V30 10839 O 1017.77 -0.649477 1.8482 0
M  V30 10840 H 1016.35 0.598395 0.447139 0
M  V30 10841 H 1019.01 1.87749 0.523102 0
M  V30 10842 H 1018.11 2.44296 1.94232 0
M  V30 10843 N 1018.41 -0.709066 1.40748 0
M  V30 10844 C 1019.66 -1.4646 1.38681 0
M  V30 10845 C 1019.97 -1.95599 -0.0056209 0
M  V30 10846 O 1021.18 -2.71091 -0.148907 0
M  V30 10847 C 1019.63 -2.64771 2.43771 0
M  V30 10848 C 1019.24 -2.22474 3.88856 0
M  V30 10849 C 1020.99 -3.42475 2.50821 0
M  V30 10850 C 1018.89 -3.37663 4.85528 0
M  V30 10851 H 1017.82 -0.550084 0.515678 0
M  V30 10852 H 1020.47 -0.771074 1.66513 0
M  V30 10853 H 1018.86 -3.36325 2.09048 0
M  V30 10854 H 1020.03 -1.58297 4.32757 0
M  V30 10855 H 1018.35 -1.57798 3.85342 0
M  V30 10856 H 1020.94 -4.28201 3.20232 0
M  V30 10857 H 1021.29 -3.86738 1.54076 0
M  V30 10858 H 1021.82 -2.77969 2.84567 0
M  V30 10859 H 1018.56 -2.98426 5.83628 0
M  V30 10860 H 1018.08 -4.00734 4.46287 0
M  V30 10861 H 1019.76 -4.03636 5.05655 0
M  V30 10862 N 1019.89 -1.26353 -0.941956 0
M  V30 10863 C 1021.12 -1.14626 -1.72245 0
M  V30 10864 C 1021.53 0.298588 -1.86424 0
M  V30 10865 O 1020.89 1.2045 -1.37106 0
M  V30 10866 C 1020.94 -1.80933 -3.12963 0
M  V30 10867 O 1020.66 -3.19771 -2.99463 0
M  V30 10868 C 1022.16 -1.7515 -4.07231 0
M  V30 10869 H 1019.38 -0.3992 -0.539333 0
M  V30 10870 H 1021.93 -1.66958 -1.1809 0
M  V30 10871 H 1020.08 -1.32541 -3.64021 0
M  V30 10872 H 1020.5 -3.52571 -3.88322 0
M  V30 10873 H 1021.97 -2.26183 -5.03533 0
M  V30 10874 H 1022.45 -0.717855 -4.33294 0
M  V30 10875 H 1023.05 -2.2309 -3.62093 0
M  V30 10876 N 1021.37 1.14642 -1.08144 0
M  V30 10877 C 1022.61 1.85892 -0.810683 0
M  V30 10878 C 1022.95 1.82575 0.661821 0
M  V30 10879 O 1022.22 1.25454 1.48632 0
M  V30 10880 C 1022.5 3.34647 -1.32979 0
M  V30 10881 C 1022.36 3.46551 -2.86744 0
M  V30 10882 C 1023.68 4.29661 -0.952864 0
M  V30 10883 H 1020.8 0.674963 -0.295963 0
M  V30 10884 H 1023.44 1.3464 -1.3406 0
M  V30 10885 H 1021.59 3.78425 -0.87903 0
M  V30 10886 H 1023.26 3.11579 -3.40171 0
M  V30 10887 H 1021.5 2.87849 -3.24539 0
M  V30 10888 H 1022.17 4.51101 -3.18138 0
M  V30 10889 H 1024.65 3.93885 -1.34141 0
M  V30 10890 H 1023.53 5.32209 -1.34331 0
M  V30 10891 H 1023.79 4.41877 0.140392 0
M  V30 10892 N 1022.85 0.866709 1.31628 0
M  V30 10893 C 1024.26 0.558188 1.49521 0
M  V30 10894 C 1024.46 -0.90844 1.7986 0
M  V30 10895 O 1023.52 -1.6908 1.87531 0
M  V30 10896 C 1024.83 1.45559 2.63122 0
M  V30 10897 C 1026.38 1.45728 2.77006 0
M  V30 10898 C 1026.85 2.34017 3.937 0
M  V30 10899 N 1028.34 2.31879 4.00982 0
M  V30 10900 C 1029.08 2.96915 4.90539 0
M  V30 10901 N 1028.58 3.71109 5.85021 0
M  V30 10902 N 1030.37 2.86241 4.83759 0
M  V30 10903 H 1022.52 1.81574 1.10203 0
M  V30 10904 H 1024.78 0.77621 0.544244 0
M  V30 10905 H 1024.49 2.49904 2.47469 0
M  V30 10906 H 1024.36 1.15174 3.59186 0
M  V30 10907 H 1026.75 0.421419 2.92075 0
M  V30 10908 H 1026.83 1.80134 1.81619 0
M  V30 10909 H 1026.47 3.37678 3.79389 0
M  V30 10910 H 1026.4 1.96937 4.88388 0
M  V30 10911 H 1028.9 1.77948 3.33381 0
M  V30 10912 H 1029.21 4.1787 6.5008 0
M  V30 10913 H 1027.55 3.75217 5.8501 0
M  V30 10914 H 1030.74 2.27819 4.08921 0
M  V30 10915 H 1030.92 3.37206 5.5335 0
M  V30 10916 N 1024.32 -1.44642 0.625825 0
M  V30 10917 C 1025.26 -2.27821 -0.131481 0
M  V30 10918 C 1026.23 -1.38224 -0.856324 0
M  V30 10919 O 1027.42 -1.67662 -0.861493 0
M  V30 10920 C 1024.55 -3.1703 -1.19204 0
M  V30 10921 C 1023.59 -4.22697 -0.568315 0
M  V30 10922 S 1024.42 -5.3169 0.637612 0
M  V30 10923 C 1025.58 -6.24468 -0.423088 0
M  V30 10924 H 1025.81 -2.91703 0.574177 0
M  V30 10925 H 1023.35 -1.4875 0.413844 0
M  V30 10926 H 1025.3 -3.6898 -1.79901 0
M  V30 10927 H 1023.97 -2.52379 -1.86986 0
M  V30 10928 H 1023.16 -4.8511 -1.36689 0
M  V30 10929 H 1022.76 -3.73983 -0.0360843 0
M  V30 10930 H 1025.05 -6.64967 -1.29713 0
M  V30 10931 H 1026 -7.07907 0.165338 0
M  V30 10932 H 1026.4 -5.59541 -0.746606 0
M  V30 10933 N 1025.8 -0.366053 -1.5329 0
M  V30 10934 C 1027.05 0.223824 -2.01561 0
M  V30 10935 C 1027.38 1.48382 -1.25286 0
M  V30 10936 O 1026.66 1.91385 -0.34669 0
M  V30 10937 C 1026.94 0.5153 -3.56394 0
M  V30 10938 C 1026.79 -0.758357 -4.43361 0
M  V30 10939 C 1028.11 1.31568 -4.19974 0
M  V30 10940 H 1025.23 0.0798751 -0.732659 0
M  V30 10941 H 1027.87 -0.491038 -1.83545 0
M  V30 10942 H 1026.02 1.12429 -3.71876 0
M  V30 10943 H 1027.69 -1.39584 -4.39675 0
M  V30 10944 H 1025.94 -1.37862 -4.11311 0
M  V30 10945 H 1026.61 -0.509366 -5.49645 0
M  V30 10946 H 1029.08 0.800514 -4.08327 0
M  V30 10947 H 1027.96 1.48837 -5.28336 0
M  V30 10948 H 1028.22 2.32432 -3.76069 0
M  V30 10949 N 1027.28 1.57312 -0.0952337 0
M  V30 10950 C 1028.51 1.98697 0.57682 0
M  V30 10951 C 1028.92 0.974347 1.61716 0
M  V30 10952 O 1028.28 -0.036022 1.82464 0
M  V30 10953 C 1028.33 3.40133 1.2244 0
M  V30 10954 O 1028.05 4.37518 0.225678 0
M  V30 10955 C 1029.55 3.96522 1.98205 0
M  V30 10956 H 1026.77 0.65294 0.154629 0
M  V30 10957 H 1029.32 2.03754 -0.174562 0
M  V30 10958 H 1027.47 3.3609 1.92671 0
M  V30 10959 H 1027.89 5.199 0.693116 0
M  V30 10960 H 1029.36 4.97637 2.38875 0
M  V30 10961 H 1029.84 3.34347 2.84796 0
M  V30 10962 H 1030.44 4.04038 1.3279 0
M  V30 10963 N 1028.76 -0.17846 1.56586 0
M  V30 10964 C 1030.01 -0.894464 1.81228 0
M  V30 10965 C 1030.33 -1.83089 0.671062 0
M  V30 10966 O 1029.6 -1.93439 -0.309557 0
M  V30 10967 H 1028.18 -0.333288 0.668527 0
M  V30 10968 H 1030.84 -0.179986 1.94067 0
M  V30 10969 H 1029.93 -1.47565 2.75011 0
M  V30 10970 N 1030.24 -1.51135 -0.446768 0
M  V30 10971 C 1031.51 -1.5387 -1.20762 0
M  V30 10972 C 1031.89 -0.297446 -2.08994 0
M  V30 10973 O 1031.24 0.717975 -2.16927 0
M  V30 10974 C 1031.45 -2.84767 -2.01764 0
M  V30 10975 C 1032.8 -3.3636 -2.59128 0
M  V30 10976 O 1033.82 -2.86254 -2.11984 0
M  V30 10977 O 1032.68 -4.23765 -3.45088 0
M  V30 10978 H 1029.78 -0.618228 -0.549293 0
M  V30 10979 H 1032.32 -1.63442 -0.456605 0
M  V30 10980 H 1031.09 -3.6657 -1.36901 0
M  V30 10981 H 1030.72 -2.78313 -2.8395 0
M  V30 10982 N 1031.71 0.701592 -1.41122 0
M  V30 10983 C 1032.66 1.83691 -1.4269 0
M  V30 10984 C 1033.66 1.6662 -0.305658 0
M  V30 10985 O 1034.86 1.73554 -0.477392 0
M  V30 10986 H 1031.24 0.605222 -0.44633 0
M  V30 10987 H 1033.21 1.79485 -2.38386 0
M  V30 10988 C 1031.96 3.21666 -1.32008 0
M  V30 10989 H 1031.28 3.35416 -2.17569 0
M  V30 10990 H 1032.72 4.012 -1.37165 0
M  V30 10991 C 1031.18 3.36885 -0.0317678 0
M  V30 10992 O 1031.71 3.90885 0.925836 0
M  V30 10993 N 1029.91 2.90569 0.0423401 0
M  V30 10994 H 1029.46 2.46812 -0.737673 0
M  V30 10995 H 1029.42 3.0113 0.903764 0
M  V30 10996 N 1033.19 1.2685 0.935242 0
M  V30 10997 C 1034.44 1.12132 1.67658 0
M  V30 10998 C 1034.75 -0.333839 1.9273 0
M  V30 10999 O 1035.96 -0.601801 2.64746 0
M  V30 11000 C 1034.42 1.95873 3.0193 0
M  V30 11001 C 1034.02 3.46 2.84584 0
M  V30 11002 C 1035.77 1.89781 3.79715 0
M  V30 11003 C 1033.67 4.21966 4.14365 0
M  V30 11004 H 1032.6 0.416035 0.628833 0
M  V30 11005 H 1035.26 1.51209 1.03962 0
M  V30 11006 H 1033.64 1.49633 3.66641 0
M  V30 11007 H 1034.81 4.00049 2.28687 0
M  V30 11008 H 1033.13 3.53391 2.20236 0
M  V30 11009 H 1035.72 2.43819 4.75875 0
M  V30 11010 H 1036.07 0.869797 4.07112 0
M  V30 11011 H 1036.6 2.33875 3.21788 0
M  V30 11012 H 1033.34 5.2526 3.9215 0
M  V30 11013 H 1032.86 3.72696 4.69955 0
M  V30 11014 H 1034.54 4.30734 4.82781 0
M  V30 11015 N 1034.67 -1.14067 1.0875 0
M  V30 11016 C 1035.62 -2.21332 0.715195 0
M  V30 11017 C 1036.61 -1.67059 -0.280679 0
M  V30 11018 O 1037.82 -1.79432 -0.142874 0
M  V30 11019 H 1034.19 -0.721126 0.213264 0
M  V30 11020 H 1036.16 -2.50002 1.62916 0
M  V30 11021 C 1034.91 -3.474 0.144401 0
M  V30 11022 H 1034.24 -3.89495 0.901884 0
M  V30 11023 H 1035.68 -4.23928 -0.0782564 0
M  V30 11024 C 1034.14 -3.17787 -1.11862 0
M  V30 11025 O 1034.67 -3.35906 -2.20295 0
M  V30 11026 N 1032.87 -2.71719 -1.03039 0
M  V30 11027 H 1032.42 -2.57175 -0.14793 0
M  V30 11028 H 1032.38 -2.52281 -1.87621 0
M  V30 11029 N 1036.15 -0.873678 -1.31166 0
M  V30 11030 C 1037.38 -0.501043 -2.00742 0
M  V30 11031 C 1037.79 0.907477 -1.65561 0
M  V30 11032 O 1037.15 1.59507 -0.886771 0
M  V30 11033 C 1037.2 -0.652877 -3.55556 0
M  V30 11034 O 1036.92 -2.00593 -3.89479 0
M  V30 11035 C 1038.42 -0.281742 -4.42404 0
M  V30 11036 H 1035.64 -0.194829 -0.642092 0
M  V30 11037 H 1038.19 -1.17587 -1.67313 0
M  V30 11038 H 1036.34 -0.0255627 -3.87392 0
M  V30 11039 H 1036.75 -2.01638 -4.84193 0
M  V30 11040 H 1038.23 -0.43892 -5.50252 0
M  V30 11041 H 1038.71 0.779389 -4.32229 0
M  V30 11042 H 1039.31 -0.88491 -4.15992 0
M  V30 11043 N 1037.63 1.44308 -0.633487 0
M  V30 11044 C 1038.59 2.2912 0.060376 0
M  V30 11045 C 1039.59 1.41166 0.769992 0
M  V30 11046 O 1040.78 1.63012 0.614224 0
M  V30 11047 C 1037.91 3.22798 1.0961 0
M  V30 11048 H 1039.1 2.91958 -0.685617 0
M  V30 11049 H 1036.66 1.51259 -0.393738 0
M  V30 11050 H 1037.39 2.64815 1.87199 0
M  V30 11051 H 1037.18 3.87618 0.591161 0
M  V30 11052 H 1038.67 3.86504 1.58127 0
M  V30 11053 N 1039.1 0.374177 1.53094 0
M  V30 11054 C 1040.52 0.0234783 1.59583 0
M  V30 11055 C 1040.72 -1.45984 1.38892 0
M  V30 11056 O 1039.78 -2.22251 1.19836 0
M  V30 11057 C 1041.09 0.487117 2.96728 0
M  V30 11058 C 1042.64 0.442073 3.09862 0
M  V30 11059 C 1043.11 0.881659 4.49434 0
M  V30 11060 N 1044.6 0.837062 4.55574 0
M  V30 11061 C 1045.34 1.14878 5.61774 0
M  V30 11062 N 1044.83 1.53022 6.75689 0
M  V30 11063 N 1046.63 1.07102 5.51802 0
M  V30 11064 H 1038.78 1.34003 1.64794 0
M  V30 11065 H 1041.04 0.548281 0.773364 0
M  V30 11066 H 1040.75 1.52252 3.17037 0
M  V30 11067 H 1040.62 -0.121772 3.77003 0
M  V30 11068 H 1043.01 -0.584216 2.89259 0
M  V30 11069 H 1043.09 1.08657 2.31576 0
M  V30 11070 H 1042.73 1.90611 4.70776 0
M  V30 11071 H 1042.66 0.214326 5.26164 0
M  V30 11072 H 1045.15 0.556173 3.73785 0
M  V30 11073 H 1045.47 1.75211 7.52676 0
M  V30 11074 H 1043.81 1.56895 6.77059 0
M  V30 11075 H 1047 0.772149 4.61688 0
M  V30 11076 H 1047.18 1.31728 6.3447 0
M  V30 11077 N 1040.58 -1.57259 0.103575 0
M  V30 11078 C 1041.55 -2.13337 -0.837859 0
M  V30 11079 C 1042.55 -1.06459 -1.20512 0
M  V30 11080 O 1043.74 -1.32307 -1.13316 0
M  V30 11081 C 1040.87 -2.66093 -2.13089 0
M  V30 11082 H 1042.06 -2.97842 -0.350775 0
M  V30 11083 H 1039.61 -1.55621 -0.145511 0
M  V30 11084 H 1040.35 -1.85133 -2.66264 0
M  V30 11085 H 1040.13 -3.44244 -1.87719 0
M  V30 11086 H 1041.62 -3.09443 -2.80419 0
M  V30 11087 N 1042.06 0.170153 -1.56679 0
M  V30 11088 C 1043.31 0.884902 -1.81252 0
M  V30 11089 C 1043.62 1.83361 -0.681024 0
M  V30 11090 O 1044.83 2.59082 -0.811722 0
M  V30 11091 C 1043.28 1.62408 -3.21172 0
M  V30 11092 C 1042.89 0.718947 -4.42194 0
M  V30 11093 C 1044.64 2.32699 -3.55037 0
M  V30 11094 C 1042.54 1.45843 -5.73135 0
M  V30 11095 H 1041.47 0.33418 -0.675899 0
M  V30 11096 H 1044.12 0.137818 -1.82982 0
M  V30 11097 H 1042.51 2.41596 -3.13763 0
M  V30 11098 H 1043.68 -0.0360521 -4.60786 0
M  V30 11099 H 1042 0.125634 -4.1621 0
M  V30 11100 H 1044.59 2.88621 -4.50114 0
M  V30 11101 H 1044.94 3.08092 -2.79974 0
M  V30 11102 H 1045.47 1.60453 -3.64005 0
M  V30 11103 H 1042.21 0.746799 -6.51232 0
M  V30 11104 H 1041.73 2.18672 -5.58518 0
M  V30 11105 H 1043.41 2.0056 -6.1513 0
M  V30 11106 N 1043.54 1.5137 0.438746 0
M  V30 11107 C 1044.5 1.71993 1.51496 0
M  V30 11108 C 1045.5 0.589978 1.49586 0
M  V30 11109 O 1046.69 0.857505 1.51633 0
M  V30 11110 C 1043.82 1.77508 2.91039 0
M  V30 11111 H 1045.02 2.68041 1.34514 0
M  V30 11112 H 1042.57 1.41338 0.667326 0
M  V30 11113 H 1043.3 0.832698 3.13427 0
M  V30 11114 H 1043.09 2.59627 2.9383 0
M  V30 11115 H 1044.58 1.95308 3.69113 0
M  V30 11116 N 1045.02 -0.694098 1.41492 0
M  V30 11117 C 1046.24 -1.48286 1.44288 0
M  V30 11118 C 1046.66 -1.88737 0.0485783 0
M  V30 11119 O 1046.02 -1.56881 -0.932449 0
M  V30 11120 C 1046.07 -2.74446 2.3529 0
M  V30 11121 O 1045.79 -2.35698 3.69294 0
M  V30 11122 C 1047.29 -3.68175 2.46905 0
M  V30 11123 H 1044.51 -0.45692 0.491391 0
M  V30 11124 H 1047.05 -0.854477 1.85793 0
M  V30 11125 H 1045.21 -3.33518 1.9709 0
M  V30 11126 H 1045.62 -3.17029 4.17843 0
M  V30 11127 H 1047.1 -4.53476 3.14743 0
M  V30 11128 H 1047.57 -4.12763 1.50078 0
M  V30 11129 H 1048.18 -3.15006 2.85747 0
M  V30 11130 N 1046.49 -1.27344 -0.928501 0
M  V30 11131 C 1047.44 -1.10001 -2.029 0
M  V30 11132 C 1048.41 -0.00131084 -1.661 0
M  V30 11133 O 1049.6 -0.163485 -1.90098 0
M  V30 11134 C 1046.74 -0.7524 -3.36798 0
M  V30 11135 C 1045.85 -1.92865 -3.86558 0
M  V30 11136 C 1044.98 -1.52299 -5.08899 0
M  V30 11137 C 1044.02 -2.66677 -5.50953 0
M  V30 11138 N 1043.16 -2.26706 -6.64491 0
M  V30 11139 H 1048 -2.0417 -2.17068 0
M  V30 11140 H 1045.54 -1.01637 -1.0634 0
M  V30 11141 H 1047.5 -0.531687 -4.13798 0
M  V30 11142 H 1046.13 0.15234 -3.2244 0
M  V30 11143 H 1045.18 -2.26192 -3.05845 0
M  V30 11144 H 1046.49 -2.78668 -4.13698 0
M  V30 11145 H 1045.64 -1.26348 -5.93398 0
M  V30 11146 H 1044.38 -0.636042 -4.83535 0
M  V30 11147 H 1043.39 -2.93344 -4.65004 0
M  V30 11148 H 1044.61 -3.55992 -5.78313 0
M  V30 11149 H 1042.56 -1.40462 -6.40786 0
M  V30 11150 H 1042.48 -3.06049 -6.91281 0
M  V30 11151 H 1043.74 -2.04 -7.52333 0
M  V30 11152 N 1047.97 1.13488 -1.09353 0
M  V30 11153 C 1049.21 1.86397 -0.83877 0
M  V30 11154 C 1049.58 1.81568 0.624259 0
M  V30 11155 O 1050.78 2.49709 0.994923 0
M  V30 11156 C 1049.05 3.30583 -1.35828 0
M  V30 11157 S 1050.61 4.20995 -1.23728 0
M  V30 11158 H 1047.43 0.643022 -0.303387 0
M  V30 11159 H 1050.03 1.36788 -1.39676 0
M  V30 11160 H 1048.73 3.31652 -2.41734 0
M  V30 11161 H 1048.26 3.85255 -0.796386 0
M  V30 11162 H 1050.28 4.95845 -0.187745 0
M  V30 11163 N 1049.45 0.880621 1.30701 0
M  V30 11164 C 1050.7 0.495894 1.95922 0
M  V30 11165 C 1051.02 -0.957214 1.69889 0
M  V30 11166 O 1050.29 -1.67245 1.0201 0
M  V30 11167 H 1048.87 0.180394 0.724891 0
M  V30 11168 H 1051.53 1.12274 1.59313 0
M  V30 11169 H 1050.63 0.662508 3.04987 0
M  V30 11170 N 1050.93 -1.4397 0.641131 0
M  V30 11171 C 1052.18 -2.01163 0.147026 0
M  V30 11172 C 1052.49 -1.51099 -1.24211 0
M  V30 11173 O 1053.7 -2.00487 -1.83078 0
M  V30 11174 C 1052.15 -3.59275 0.212068 0
M  V30 11175 C 1051.76 -4.18334 1.60314 0
M  V30 11176 C 1053.51 -4.23903 -0.225057 0
M  V30 11177 C 1051.41 -5.68701 1.62276 0
M  V30 11178 H 1050.34 -0.75226 0.051201 0
M  V30 11179 H 1052.99 -1.65075 0.801396 0
M  V30 11180 H 1051.38 -3.92708 -0.509589 0
M  V30 11181 H 1052.55 -3.96422 2.34918 0
M  V30 11182 H 1050.86 -3.66031 1.9852 0
M  V30 11183 H 1053.46 -5.34205 -0.230074 0
M  V30 11184 H 1053.8 -3.96956 -1.25426 0
M  V30 11185 H 1054.34 -3.95309 0.44444 0
M  V30 11186 H 1051.08 -6.00397 2.63066 0
M  V30 11187 H 1050.6 -5.92705 0.919797 0
M  V30 11188 H 1052.28 -6.32521 1.36112 0
M  V30 11189 N 1052.41 -0.382291 -1.52893 0
M  V30 11190 C 1053.34 0.447829 -2.29165 0
M  V30 11191 C 1054.32 1.06956 -1.32267 0
M  V30 11192 O 1055.5 1.08365 -1.61154 0
M  V30 11193 C 1052.63 1.57902 -3.09329 0
M  V30 11194 C 1051.59 1.08369 -4.14053 0
M  V30 11195 C 1050.91 2.30641 -4.82399 0
M  V30 11196 C 1052.21 0.156591 -5.22065 0
M  V30 11197 H 1053.91 -0.188541 -2.98806 0
M  V30 11198 H 1051.45 -0.0921179 -1.43705 0
M  V30 11199 H 1053.41 2.16652 -3.61442 0
M  V30 11200 H 1052.13 2.24287 -2.37409 0
M  V30 11201 H 1050.79 0.518772 -3.62911 0
M  V30 11202 H 1050.44 2.9552 -4.07034 0
M  V30 11203 H 1050.14 1.98163 -5.53177 0
M  V30 11204 H 1051.66 2.90047 -5.37313 0
M  V30 11205 H 1053.08 0.652065 -5.6958 0
M  V30 11206 H 1051.47 -0.0780978 -6.00049 0
M  V30 11207 H 1052.54 -0.796529 -4.78313 0
M  V30 11208 N 1053.89 1.57202 -0.111913 0
M  V30 11209 C 1055.11 1.99297 0.555713 0
M  V30 11210 C 1055.53 0.991444 1.60673 0
M  V30 11211 O 1054.89 -0.0166672 1.82492 0
M  V30 11212 C 1054.94 3.41413 1.18826 0
M  V30 11213 O 1054.66 4.37733 0.179261 0
M  V30 11214 C 1056.16 3.98602 1.93989 0
M  V30 11215 H 1053.38 0.654543 0.147695 0
M  V30 11216 H 1055.92 2.03557 -0.196163 0
M  V30 11217 H 1054.08 3.38115 1.89096 0
M  V30 11218 H 1054.49 5.20606 0.637935 0
M  V30 11219 H 1055.97 5.00143 2.33584 0
M  V30 11220 H 1056.44 3.37349 2.81233 0
M  V30 11221 H 1057.05 4.05424 1.28497 0
M  V30 11222 N 1055.36 -0.161842 1.56767 0
M  V30 11223 C 1056.77 -0.723385 1.72116 0
M  V30 11224 C 1057.13 -1.82355 0.723961 0
M  V30 11225 O 1056.25 -2.16107 -0.112643 0
M  V30 11226 C 1056.85 -1.31895 3.12072 0
M  V30 11227 C 1055.4 -1.82722 3.29074 0
M  V30 11228 C 1054.55 -0.709863 2.6806 0
M  V30 11229 H 1057.5 0.0636647 1.58572 0
M  V30 11230 H 1057.52 -2.18871 3.11249 0
M  V30 11231 H 1057.04 -0.51801 3.84627 0
M  V30 11232 H 1055.14 -2.6543 2.61491 0
M  V30 11233 H 1055.25 -1.96614 4.36898 0
M  V30 11234 H 1053.61 -1.13273 2.28126 0
M  V30 11235 H 1054.4 0.0793884 3.43208 0
M  V30 11236 N 1056.84 -1.516 -0.430713 0
M  V30 11237 C 1058.09 -1.64271 -1.17726 0
M  V30 11238 C 1058.41 -0.364406 -1.91565 0
M  V30 11239 O 1057.68 0.619991 -1.8583 0
M  V30 11240 H 1056.26 -0.605432 -0.437562 0
M  V30 11241 H 1058.92 -1.88557 -0.493166 0
M  V30 11242 H 1058.02 -2.47355 -1.90321 0
M  V30 11243 N 1058.32 0.686584 -1.41858 0
M  V30 11244 C 1059.6 1.44176 -1.32185 0
M  V30 11245 C 1059.98 2.11049 0.046362 0
M  V30 11246 O 1059.32 2.02365 1.06117 0
M  V30 11247 C 1059.53 2.45385 -2.48168 0
M  V30 11248 C 1060.88 3.10375 -2.89746 0
M  V30 11249 O 1061.91 2.55711 -2.47973 0
M  V30 11250 O 1060.77 4.09404 -3.62009 0
M  V30 11251 H 1057.86 0.642513 -0.520678 0
M  V30 11252 H 1060.41 0.716303 -1.53841 0
M  V30 11253 H 1059.18 1.94687 -3.3943 0
M  V30 11254 H 1058.8 3.25428 -2.28435 0
M  V30 11255 N 1059.8 1.27835 0.921735 0
M  V30 11256 C 1061.07 1.05238 1.64877 0
M  V30 11257 C 1061.45 -0.410921 2.07062 0
M  V30 11258 O 1060.8 -1.39538 1.80946 0
M  V30 11259 C 1061.01 2.01955 2.84632 0
M  V30 11260 C 1062.36 2.31657 3.55837 0
M  V30 11261 O 1063.38 1.99975 2.94768 0
M  V30 11262 O 1062.24 2.85692 4.65878 0
M  V30 11263 H 1059.34 0.401622 0.72293 0
M  V30 11264 H 1061.88 1.39123 0.971744 0
M  V30 11265 H 1060.66 3.00614 2.50494 0
M  V30 11266 H 1060.28 1.68667 3.60052 0
M  V30 11267 N 1061.28 -1.12907 1.09954 0
M  V30 11268 C 1062.52 -1.84306 0.838912 0
M  V30 11269 C 1062.85 -1.83825 -0.635508 0
M  V30 11270 O 1062.11 -1.27556 -1.48418 0
M  V30 11271 C 1062.4 -3.31885 1.32616 0
M  V30 11272 C 1062.07 -3.52542 2.81114 0
M  V30 11273 C 1060.73 -3.57888 3.21667 0
M  V30 11274 C 1063.08 -3.60065 3.76833 0
M  V30 11275 C 1060.41 -3.68296 4.567 0
M  V30 11276 C 1062.76 -3.72001 5.11662 0
M  V30 11277 C 1061.43 -3.75602 5.51797 0
M  V30 11278 H 1060.7 -0.674422 0.30698 0
M  V30 11279 H 1063.35 -1.33261 1.37527 0
M  V30 11280 H 1061.65 -3.85318 0.709719 0
M  V30 11281 H 1063.35 -3.85588 1.10105 0
M  V30 11282 H 1059.94 -3.4904 2.48735 0
M  V30 11283 H 1064.12 -3.55209 3.46612 0
M  V30 11284 H 1059.38 -3.69352 4.87226 0
M  V30 11285 H 1063.55 -3.76765 5.8568 0
M  V30 11286 H 1061.18 -3.83419 6.56425 0
M  V30 11287 N 1062.75 -0.88754 -1.30232 0
M  V30 11288 C 1063.68 -0.372481 -2.3051 0
M  V30 11289 C 1064.66 0.546037 -1.61098 0
M  V30 11290 O 1065.85 0.459345 -1.88689 0
M  V30 11291 C 1062.98 0.411605 -3.44852 0
M  V30 11292 C 1061.93 -0.415383 -4.2598 0
M  V30 11293 C 1061.26 0.495463 -5.324 0
M  V30 11294 C 1062.56 -1.65886 -4.95257 0
M  V30 11295 H 1064.25 -1.21045 -2.7384 0
M  V30 11296 H 1061.8 -0.583498 -1.31648 0
M  V30 11297 H 1063.75 0.782584 -4.1407 0
M  V30 11298 H 1062.48 1.28325 -3.00334 0
M  V30 11299 H 1061.14 -0.768534 -3.58454 0
M  V30 11300 H 1060.78 1.36489 -4.84128 0
M  V30 11301 H 1060.48 -0.0540885 -5.87575 0
M  V30 11302 H 1062.01 0.862901 -6.04472 0
M  V30 11303 H 1063.42 -1.35832 -5.56976 0
M  V30 11304 H 1061.82 -2.14881 -5.60309 0
M  V30 11305 H 1062.89 -2.40181 -4.21237 0
M  V30 11306 N 1064.23 1.43628 -0.648757 0
M  V30 11307 C 1065.47 2.03742 -0.163878 0
M  V30 11308 C 1065.84 1.50047 1.19791 0
M  V30 11309 O 1067.04 2.01777 1.77594 0
M  V30 11310 C 1065.31 3.57001 -0.168849 0
M  V30 11311 S 1066.87 4.38094 0.248835 0
M  V30 11312 H 1063.69 0.70757 -0.0697515 0
M  V30 11313 H 1066.29 1.75759 -0.856094 0
M  V30 11314 H 1064.99 3.93583 -1.16277 0
M  V30 11315 H 1064.52 3.8962 0.544048 0
M  V30 11316 H 1066.54 4.73338 1.48882 0
M  V30 11317 N 1065.71 0.390394 1.52688 0
M  V30 11318 C 1066.64 -0.43567 2.294 0
M  V30 11319 C 1067.62 -1.06253 1.32832 0
M  V30 11320 O 1068.81 -1.07509 1.61726 0
M  V30 11321 C 1065.94 -1.56259 3.10162 0
M  V30 11322 C 1064.89 -1.06172 4.14622 0
M  V30 11323 C 1064.22 -2.2808 4.83615 0
M  V30 11324 C 1065.52 -0.128902 5.22141 0
M  V30 11325 H 1067.21 0.204384 2.98702 0
M  V30 11326 H 1064.76 0.0997377 1.43654 0
M  V30 11327 H 1066.71 -2.14732 3.62585 0
M  V30 11328 H 1065.43 -2.23025 2.38595 0
M  V30 11329 H 1064.09 -0.499518 3.63181 0
M  V30 11330 H 1063.74 -2.93358 4.08595 0
M  V30 11331 H 1063.44 -1.95227 5.5422 0
M  V30 11332 H 1064.96 -2.87193 5.38844 0
M  V30 11333 H 1066.38 -0.621849 5.69917 0
M  V30 11334 H 1064.78 0.109919 5.99999 0
M  V30 11335 H 1065.85 0.821884 4.77884 0
M  V30 11336 N 1067.19 -1.57141 0.120249 0
M  V30 11337 C 1068.1 -2.18925 -0.843155 0
M  V30 11338 C 1069.11 -1.16575 -1.29175 0
M  V30 11339 O 1070.29 -1.4905 -1.35448 0
M  V30 11340 C 1067.36 -2.7775 -2.075 0
M  V30 11341 C 1066.42 -3.95139 -1.6782 0
M  V30 11342 C 1065.65 -4.51149 -2.85132 0
M  V30 11343 O 1065.87 -4.06056 -4.00593 0
M  V30 11344 O 1064.81 -5.41815 -2.62145 0
M  V30 11345 H 1068.63 -3.01707 -0.347357 0
M  V30 11346 H 1066.22 -1.49028 -0.105427 0
M  V30 11347 H 1068.1 -3.15243 -2.79643 0
M  V30 11348 H 1066.77 -1.97998 -2.56083 0
M  V30 11349 H 1065.68 -3.62412 -0.927807 0
M  V30 11350 H 1067.01 -4.7633 -1.23977 0
M  V30 11351 N 1068.67 0.153526 -1.5685 0
M  V30 11352 C 1069.91 0.865519 -1.82629 0
M  V30 11353 C 1070.24 1.81999 -0.700105 0
M  V30 11354 O 1069.51 1.93907 0.278744 0
M  V30 11355 H 1068.09 0.32261 -0.673745 0
M  V30 11356 H 1070.75 0.149088 -1.94329 0
M  V30 11357 H 1069.84 1.43171 -2.77324 0
M  V30 11358 N 1070.14 1.51827 0.422667 0
M  V30 11359 C 1071.09 1.74198 1.51406 0
M  V30 11360 C 1072.06 0.584013 1.55494 0
M  V30 11361 O 1073.25 0.820079 1.72277 0
M  V30 11362 C 1070.39 1.88627 2.88988 0
M  V30 11363 C 1069.5 3.16233 2.94314 0
M  V30 11364 C 1068.63 3.21172 4.2311 0
M  V30 11365 C 1067.67 4.43033 4.2236 0
M  V30 11366 N 1066.81 4.4544 5.42704 0
M  V30 11367 H 1071.65 2.67352 1.31632 0
M  V30 11368 H 1069.19 1.32487 0.63919 0
M  V30 11369 H 1071.15 1.94976 3.68837 0
M  V30 11370 H 1069.78 0.988673 3.07287 0
M  V30 11371 H 1068.83 3.19123 2.07039 0
M  V30 11372 H 1070.14 4.06104 2.89623 0
M  V30 11373 H 1069.29 3.26517 5.11343 0
M  V30 11374 H 1068.03 2.29216 4.30478 0
M  V30 11375 H 1067.04 4.37849 3.32518 0
M  V30 11376 H 1068.26 5.3627 4.16643 0
M  V30 11377 H 1066.21 3.56361 5.50766 0
M  V30 11378 H 1066.13 5.29138 5.39953 0
M  V30 11379 H 1067.39 4.54997 6.32928 0
M  V30 11380 N 1071.62 -0.679052 1.4222 0
M  V30 11381 C 1072.53 -1.82221 1.47759 0
M  V30 11382 C 1073.55 -1.70092 0.3667 0
M  V30 11383 O 1074.72 -1.91718 0.616957 0
M  V30 11384 C 1071.79 -3.18332 1.37351 0
M  V30 11385 C 1070.85 -3.42449 2.58896 0
M  V30 11386 C 1070.08 -4.72067 2.48976 0
M  V30 11387 O 1070.31 -5.49683 1.5233 0
M  V30 11388 O 1069.24 -4.97333 3.39033 0
M  V30 11389 H 1073.07 -1.80504 2.44238 0
M  V30 11390 H 1070.65 -0.834251 1.23938 0
M  V30 11391 H 1072.53 -3.99563 1.33893 0
M  V30 11392 H 1071.21 -3.20696 0.439965 0
M  V30 11393 H 1070.12 -2.61083 2.6793 0
M  V30 11394 H 1071.45 -3.44912 3.51136 0
M  V30 11395 N 1073.1 -1.28322 -0.914942 0
M  V30 11396 C 1074.35 -1.15407 -1.66396 0
M  V30 11397 C 1074.68 0.297587 -1.9221 0
M  V30 11398 O 1073.93 1.23299 -1.51973 0
M  V30 11399 C 1074.23 -1.89663 -3.02924 0
M  V30 11400 C 1073.9 -3.39464 -2.96774 0
M  V30 11401 C 1072.56 -3.80321 -2.94804 0
M  V30 11402 C 1074.91 -4.3499 -2.87111 0
M  V30 11403 C 1072.24 -5.15046 -2.8097 0
M  V30 11404 C 1074.59 -5.69788 -2.74818 0
M  V30 11405 C 1073.25 -6.09921 -2.71205 0
M  V30 11406 H 1072.52 -0.422303 -0.608885 0
M  V30 11407 H 1075.17 -1.59082 -1.06607 0
M  V30 11408 H 1073.48 -1.38533 -3.66491 0
M  V30 11409 H 1075.17 -1.77087 -3.59779 0
M  V30 11410 H 1071.76 -3.06979 -2.99101 0
M  V30 11411 H 1075.95 -4.04389 -2.87721 0
M  V30 11412 H 1071.2 -5.45271 -2.76568 0
M  V30 11413 H 1075.38 -6.43469 -2.66309 0
M  V30 11414 H 1073 -7.14267 -2.60243 0
M  V30 11415 N 1074.58 1.12322 -1.10551 0
M  V30 11416 C 1075.53 2.20166 -0.750317 0
M  V30 11417 C 1076.52 1.67484 0.254066 0
M  V30 11418 O 1077.73 1.79637 0.114309 0
M  V30 11419 H 1074.1 0.717642 -0.22471 0
M  V30 11420 H 1076.07 2.47378 -1.66873 0
M  V30 11421 C 1074.82 3.47126 -0.199651 0
M  V30 11422 H 1074.14 3.88011 -0.963735 0
M  V30 11423 H 1075.58 4.23999 0.0108033 0
M  V30 11424 C 1074.04 3.19526 1.06792 0
M  V30 11425 O 1074.57 3.39368 2.14923 0
M  V30 11426 N 1072.78 2.73324 0.987032 0
M  V30 11427 H 1072.33 2.57378 0.106997 0
M  V30 11428 H 1072.28 2.55234 1.83584 0
M  V30 11429 N 1076.06 0.894434 1.2976 0
M  V30 11430 C 1077.47 0.589778 1.48303 0
M  V30 11431 C 1077.67 -0.870085 1.81746 0
M  V30 11432 O 1076.73 -1.65065 1.91076 0
M  V30 11433 C 1078.04 1.51107 2.59975 0
M  V30 11434 C 1079.59 1.51571 2.73853 0
M  V30 11435 C 1080.06 2.42316 3.88648 0
M  V30 11436 N 1081.56 2.40333 3.95973 0
M  V30 11437 C 1082.29 3.07254 4.84131 0
M  V30 11438 N 1081.79 3.83435 5.77018 0
M  V30 11439 N 1083.58 2.96438 4.77578 0
M  V30 11440 H 1075.73 1.83871 1.06327 0
M  V30 11441 H 1077.99 0.78758 0.527657 0
M  V30 11442 H 1077.7 2.55097 2.42112 0
M  V30 11443 H 1077.57 1.22767 3.56662 0
M  V30 11444 H 1079.96 0.483277 2.91116 0
M  V30 11445 H 1080.04 1.83946 1.77757 0
M  V30 11446 H 1079.69 3.4565 3.72141 0
M  V30 11447 H 1079.62 2.07252 4.84101 0
M  V30 11448 H 1082.11 1.84979 3.29532 0
M  V30 11449 H 1082.42 4.31565 6.4107 0
M  V30 11450 H 1080.76 3.87542 5.7692 0
M  V30 11451 H 1083.96 2.36442 4.03996 0
M  V30 11452 H 1084.13 3.48867 5.46073 0
M  V30 11453 N 1077.53 -1.43282 0.656365 0
M  V30 11454 C 1078.46 -2.33492 -0.0196962 0
M  V30 11455 C 1079.45 -1.49647 -0.80868 0
M  V30 11456 O 1080.63 -1.78303 -0.769529 0
M  V30 11457 C 1077.76 -3.33052 -0.984574 0
M  V30 11458 C 1076.71 -4.26908 -0.305483 0
M  V30 11459 C 1076.04 -5.16531 -1.38202 0
M  V30 11460 C 1077.34 -5.16073 0.804081 0
M  V30 11461 H 1079.03 -2.90272 0.733661 0
M  V30 11462 H 1076.58 -1.39574 0.354259 0
M  V30 11463 H 1078.53 -3.9506 -1.46647 0
M  V30 11464 H 1077.26 -2.74535 -1.76913 0
M  V30 11465 H 1075.92 -3.66268 0.155995 0
M  V30 11466 H 1075.56 -4.54351 -2.1581 0
M  V30 11467 H 1075.26 -5.80148 -0.932878 0
M  V30 11468 H 1076.79 -5.81414 -1.86522 0
M  V30 11469 H 1078.2 -5.71873 0.404212 0
M  V30 11470 H 1076.6 -5.88427 1.17789 0
M  V30 11471 H 1077.67 -4.55574 1.66073 0
M  V30 11472 N 1079.01 -0.398486 -1.52479 0
M  V30 11473 C 1080.26 0.182046 -2.00877 0
M  V30 11474 C 1080.58 1.47128 -1.2889 0
M  V30 11475 O 1081.78 2.13242 -1.68048 0
M  V30 11476 C 1080.24 0.374978 -3.57941 0
M  V30 11477 C 1079.85 -0.901544 -4.38835 0
M  V30 11478 C 1081.59 0.911378 -4.14601 0
M  V30 11479 C 1079.5 -0.676385 -5.87519 0
M  V30 11480 H 1078.43 0.0718068 -0.750573 0
M  V30 11481 H 1081.08 -0.522297 -1.7591 0
M  V30 11482 H 1079.46 1.14139 -3.79194 0
M  V30 11483 H 1080.63 -1.67329 -4.29346 0
M  V30 11484 H 1078.95 -1.36357 -3.93441 0
M  V30 11485 H 1081.55 1.09569 -5.23353 0
M  V30 11486 H 1081.89 1.88306 -3.71277 0
M  V30 11487 H 1082.42 0.204296 -3.97275 0
M  V30 11488 H 1079.16 -1.61933 -6.35184 0
M  V30 11489 H 1078.68 0.0562542 -5.99774 0
M  V30 11490 H 1080.36 -0.314454 -6.46235 0
M  V30 11491 N 1080.49 1.57075 -0.12858 0
M  V30 11492 C 1081.91 1.57964 0.227961 0
M  V30 11493 C 1082.11 1.14186 1.66023 0
M  V30 11494 O 1081.16 0.833655 2.38341 0
M  V30 11495 C 1082.48 3.00697 -0.0140648 0
M  V30 11496 C 1084.02 3.12958 0.0510876 0
M  V30 11497 C 1084.5 4.57709 -0.163368 0
M  V30 11498 N 1085.99 4.6307 -0.109663 0
M  V30 11499 C 1086.73 5.72853 -0.250366 0
M  V30 11500 N 1086.22 6.91351 -0.447772 0
M  V30 11501 N 1088.01 5.61781 -0.189265 0
M  V30 11502 H 1080.17 1.83829 -1.06398 0
M  V30 11503 H 1082.43 0.850014 -0.419739 0
M  V30 11504 H 1082.13 3.37047 -1.00461 0
M  V30 11505 H 1082.01 3.70389 0.713571 0
M  V30 11506 H 1084.4 2.7646 1.03216 0
M  V30 11507 H 1084.48 2.4579 -0.708583 0
M  V30 11508 H 1084.12 4.94907 -1.14146 0
M  V30 11509 H 1084.05 5.2298 0.616405 0
M  V30 11510 H 1086.54 3.7788 0.0390086 0
M  V30 11511 H 1086.85 7.70871 -0.54574 0
M  V30 11512 H 1085.2 6.93314 -0.483866 0
M  V30 11513 H 1088.39 4.68086 -0.0359374 0
M  V30 11514 H 1088.56 6.47294 -0.302359 0
M  V30 11515 N 1081.97 -0.145205 1.5693 0
M  V30 11516 C 1082.92 -1.19841 1.99351 0
M  V30 11517 C 1083.91 -1.44371 0.886197 0
M  V30 11518 O 1085.12 -1.44642 1.07138 0
M  V30 11519 H 1081.49 -0.403437 0.63462 0
M  V30 11520 H 1083.46 -0.813932 2.87085 0
M  V30 11521 C 1082.21 -2.52377 2.39167 0
M  V30 11522 H 1081.54 -2.34332 3.23927 0
M  V30 11523 H 1082.98 -3.24694 2.72671 0
M  V30 11524 C 1081.43 -3.1305 1.24503 0
M  V30 11525 O 1081.96 -3.97962 0.546739 0
M  V30 11526 N 1080.17 -2.72528 1.00882 0
M  V30 11527 H 1079.72 -2.03576 1.57843 0
M  V30 11528 H 1079.68 -3.13456 0.24351 0
M  V30 11529 N 1083.45 -1.52049 -0.414609 0
M  V30 11530 C 1084.36 -1.7788 -1.52958 0
M  V30 11531 C 1085.37 -0.66408 -1.60829 0
M  V30 11532 O 1086.55 -0.948882 -1.77646 0
M  V30 11533 C 1083.61 -1.91906 -2.88744 0
M  V30 11534 C 1082.68 -3.15803 -2.90804 0
M  V30 11535 C 1081.91 -3.29151 -4.20114 0
M  V30 11536 O 1082.13 -2.47892 -5.13718 0
M  V30 11537 O 1081.07 -4.2227 -4.28919 0
M  V30 11538 H 1084.89 -2.72506 -1.34067 0
M  V30 11539 H 1082.48 -1.36826 -0.599918 0
M  V30 11540 H 1084.36 -2.02986 -3.6929 0
M  V30 11541 H 1083.03 -1.00468 -3.07714 0
M  V30 11542 H 1081.94 -3.10185 -2.09131 0
M  V30 11543 H 1083.27 -4.07004 -2.76783 0
M  V30 11544 N 1084.93 0.6715 -1.42579 0
M  V30 11545 C 1085.87 1.78496 -1.46314 0
M  V30 11546 C 1086.84 1.63091 -0.314743 0
M  V30 11547 O 1088.03 1.83597 -0.519292 0
M  V30 11548 C 1085.17 3.16548 -1.37447 0
M  V30 11549 C 1084.28 3.43216 -2.62348 0
M  V30 11550 C 1083.42 4.71014 -2.456 0
M  V30 11551 C 1082.45 4.90728 -3.65859 0
M  V30 11552 N 1081.59 6.09769 -3.48032 0
M  V30 11553 H 1086.43 1.74638 -2.41466 0
M  V30 11554 H 1083.97 0.852491 -1.19879 0
M  V30 11555 H 1085.93 3.96329 -1.30303 0
M  V30 11556 H 1084.56 3.19522 -0.458891 0
M  V30 11557 H 1083.61 2.57664 -2.79846 0
M  V30 11558 H 1084.92 3.53675 -3.51732 0
M  V30 11559 H 1084.07 5.58892 -2.3606 0
M  V30 11560 H 1082.81 4.62843 -1.53712 0
M  V30 11561 H 1081.82 4.01291 -3.75827 0
M  V30 11562 H 1083.04 5.00741 -4.58732 0
M  V30 11563 H 1080.99 6.02765 -2.58864 0
M  V30 11564 H 1080.91 6.21104 -4.31005 0
M  V30 11565 H 1082.17 7.00317 -3.42311 0
M  V30 11566 N 1086.4 1.28806 0.908124 0
M  V30 11567 C 1087.65 1.16058 1.65454 0
M  V30 11568 C 1087.97 -0.290057 1.92831 0
M  V30 11569 O 1087.24 -1.20001 1.54843 0
M  V30 11570 H 1085.82 0.426522 0.61326 0
M  V30 11571 H 1088.48 1.61614 1.08936 0
M  V30 11572 H 1087.58 1.70437 2.61453 0
M  V30 11573 N 1087.88 -1.11734 1.11145 0
M  V30 11574 C 1088.79 -2.21267 0.779607 0
M  V30 11575 C 1089.81 -1.72526 -0.225986 0
M  V30 11576 O 1090.98 -2.01302 -0.0629166 0
M  V30 11577 C 1088.05 -3.45973 0.22435 0
M  V30 11578 C 1087.11 -4.09518 1.28816 0
M  V30 11579 C 1086.34 -5.28271 0.7593 0
M  V30 11580 O 1086.57 -5.68912 -0.411725 0
M  V30 11581 O 1085.5 -5.82322 1.52266 0
M  V30 11582 H 1089.33 -2.5206 1.6941 0
M  V30 11583 H 1086.91 -1.20211 0.887115 0
M  V30 11584 H 1088.79 -4.21322 -0.0810921 0
M  V30 11585 H 1087.47 -3.1684 -0.662891 0
M  V30 11586 H 1086.37 -3.35915 1.64657 0
M  V30 11587 H 1087.71 -4.42824 2.14868 0
M  V30 11588 N 1089.36 -0.901303 -1.29284 0
M  V30 11589 C 1090.61 -0.528826 -1.95784 0
M  V30 11590 C 1090.94 0.922833 -1.70873 0
M  V30 11591 O 1090.21 1.65448 -1.0226 0
M  V30 11592 C 1090.5 -0.823793 -3.50551 0
M  V30 11593 C 1090.35 -2.32727 -3.84913 0
M  V30 11594 C 1091.67 -0.311382 -4.38997 0
M  V30 11595 H 1088.79 -0.193604 -0.711116 0
M  V30 11596 H 1091.43 -1.12828 -1.52872 0
M  V30 11597 H 1089.58 -0.313612 -3.87232 0
M  V30 11598 H 1091.25 -2.90712 -3.58168 0
M  V30 11599 H 1089.49 -2.78735 -3.32399 0
M  V30 11600 H 1090.17 -2.48423 -4.9294 0
M  V30 11601 H 1092.64 -0.748265 -4.09317 0
M  V30 11602 H 1091.52 -0.546957 -5.46168 0
M  V30 11603 H 1091.78 0.787959 -4.35021 0
M  V30 11604 N 1090.84 1.42931 -0.663954 0
M  V30 11605 C 1091.75 2.3459 0.0214234 0
M  V30 11606 C 1092.76 1.54487 0.800611 0
M  V30 11607 O 1093.94 1.87098 0.74541 0
M  V30 11608 C 1091 3.32896 0.968556 0
M  V30 11609 C 1090.07 4.28901 0.185108 0
M  V30 11610 C 1089.3 5.2251 1.08713 0
M  V30 11611 O 1089.52 5.20795 2.32655 0
M  V30 11612 O 1088.46 5.99347 0.553758 0
M  V30 11613 H 1092.28 2.94714 -0.733308 0
M  V30 11614 H 1089.87 1.43252 -0.424159 0
M  V30 11615 H 1091.75 3.93318 1.51257 0
M  V30 11616 H 1090.42 2.75261 1.70333 0
M  V30 11617 H 1089.33 3.71926 -0.402752 0
M  V30 11618 H 1090.66 4.89547 -0.510319 0
M  V30 11619 N 1092.32 0.406567 1.52266 0
M  V30 11620 C 1093.25 -0.45552 2.24628 0
M  V30 11621 C 1094.26 -1.01234 1.27497 0
M  V30 11622 O 1095.45 -0.911718 1.5346 0
M  V30 11623 C 1092.55 -1.64578 2.96256 0
M  V30 11624 C 1091.72 -1.2133 4.20235 0
M  V30 11625 C 1090.78 -2.27018 4.7471 0
M  V30 11626 O 1089.81 -1.87714 5.37357 0
M  V30 11627 N 1091.01 -3.5915 4.56061 0
M  V30 11628 H 1093.77 0.164525 2.99248 0
M  V30 11629 H 1091.34 0.233812 1.60203 0
M  V30 11630 H 1093.33 -2.3484 3.29594 0
M  V30 11631 H 1091.9 -2.1718 2.24837 0
M  V30 11632 H 1091.12 -0.338892 3.92741 0
M  V30 11633 H 1092.41 -0.901268 5.00754 0
M  V30 11634 H 1091.8 -3.93834 4.06092 0
M  V30 11635 H 1090.36 -4.25397 4.93843 0
M  V30 11636 N 1093.79 -1.57004 0.136909 0
M  V30 11637 C 1094.7 -2.19807 -0.819887 0
M  V30 11638 C 1095.72 -1.17939 -1.27932 0
M  V30 11639 O 1096.9 -1.50478 -1.3386 0
M  V30 11640 C 1093.96 -2.79935 -2.04542 0
M  V30 11641 C 1093.02 -3.96897 -1.6362 0
M  V30 11642 C 1092.26 -4.54148 -2.80331 0
M  V30 11643 O 1092.48 -4.10282 -3.96264 0
M  V30 11644 O 1091.41 -5.44565 -2.56384 0
M  V30 11645 H 1095.24 -3.02058 -0.315337 0
M  V30 11646 H 1092.82 -1.49131 -0.0896151 0
M  V30 11647 H 1094.71 -3.18191 -2.76283 0
M  V30 11648 H 1093.38 -2.00703 -2.53969 0
M  V30 11649 H 1092.29 -3.63376 -0.889316 0
M  V30 11650 H 1093.62 -4.77618 -1.18918 0
M  V30 11651 N 1095.27 0.136881 -1.57004 0
M  V30 11652 C 1096.22 1.16869 -1.99023 0
M  V30 11653 C 1097.19 1.42137 -0.859435 0
M  V30 11654 O 1098.37 1.54303 -1.12229 0
M  V30 11655 C 1095.51 2.49466 -2.38455 0
M  V30 11656 C 1094.63 2.31286 -3.64871 0
M  V30 11657 C 1093.76 3.56989 -3.9336 0
M  V30 11658 C 1092.8 3.33889 -5.13015 0
M  V30 11659 N 1091.94 4.51748 -5.37464 0
M  V30 11660 H 1096.78 0.803366 -2.86967 0
M  V30 11661 H 1094.32 0.385216 -1.41967 0
M  V30 11662 H 1096.27 3.26794 -2.59348 0
M  V30 11663 H 1094.9 2.83926 -1.53577 0
M  V30 11664 H 1093.96 1.44962 -3.51696 0
M  V30 11665 H 1095.27 2.10183 -4.52355 0
M  V30 11666 H 1094.42 4.42742 -4.14806 0
M  V30 11667 H 1093.16 3.81106 -3.04318 0
M  V30 11668 H 1092.17 2.46525 -4.91432 0
M  V30 11669 H 1093.39 3.1116 -6.03619 0
M  V30 11670 H 1091.34 4.76019 -4.51377 0
M  V30 11671 H 1091.25 4.33684 -6.19237 0
M  V30 11672 H 1092.52 5.38686 -5.63416 0
M  V30 11673 N 1096.75 1.52266 0.40654 0
M  V30 11674 C 1097.68 1.78755 1.50229 0
M  V30 11675 C 1098.66 0.638652 1.57655 0
M  V30 11676 O 1099.85 0.884505 1.72888 0
M  V30 11677 C 1096.98 1.94057 2.88026 0
M  V30 11678 C 1095.93 3.09667 2.95449 0
M  V30 11679 C 1095.26 3.10196 4.35526 0
M  V30 11680 C 1096.56 4.49077 2.66697 0
M  V30 11681 H 1098.25 2.70511 1.28313 0
M  V30 11682 H 1095.8 1.30167 0.615836 0
M  V30 11683 H 1097.75 2.11171 3.64671 0
M  V30 11684 H 1096.47 0.989755 3.11242 0
M  V30 11685 H 1095.13 2.92308 2.2125 0
M  V30 11686 H 1094.78 2.12831 4.55754 0
M  V30 11687 H 1094.48 3.87847 4.41416 0
M  V30 11688 H 1096 3.29443 5.14101 0
M  V30 11689 H 1097.42 4.66628 3.33064 0
M  V30 11690 H 1095.82 5.28665 2.8396 0
M  V30 11691 H 1096.89 4.56995 1.62122 0
M  V30 11692 N 1098.23 -0.663929 1.42933 0
M  V30 11693 C 1099.51 -1.42054 1.34462 0
M  V30 11694 C 1099.89 -2.11096 -0.0127801 0
M  V30 11695 O 1099.23 -2.04027 -1.02884 0
M  V30 11696 C 1099.44 -2.41406 2.5204 0
M  V30 11697 C 1100.79 -3.05726 2.94647 0
M  V30 11698 O 1101.82 -2.51733 2.52009 0
M  V30 11699 O 1100.67 -4.03593 3.68477 0
M  V30 11700 H 1097.77 -0.634149 0.530834 0
M  V30 11701 H 1100.31 -0.691738 1.54962 0
M  V30 11702 H 1099.09 -1.89263 3.42484 0
M  V30 11703 H 1098.71 -3.21752 2.33584 0
M  V30 11704 N 1099.71 -1.29285 -0.901281 0
M  V30 11705 C 1100.65 -1.1428 -2.00521 0
M  V30 11706 C 1101.62 -0.0365428 -1.6606 0
M  V30 11707 O 1102.81 -0.203771 -1.89709 0
M  V30 11708 C 1099.95 -0.823671 -3.35126 0
M  V30 11709 C 1099.06 -2.01021 -3.8238 0
M  V30 11710 C 1098.2 -1.6306 -5.05554 0
M  V30 11711 C 1097.24 -2.78304 -5.45173 0
M  V30 11712 N 1096.37 -2.4075 -6.59533 0
M  V30 11713 H 1101.21 -2.08729 -2.12688 0
M  V30 11714 H 1098.75 -1.0387 -1.04161 0
M  V30 11715 H 1100.71 -0.61934 -4.12577 0
M  V30 11716 H 1099.34 0.0839113 -3.22691 0
M  V30 11717 H 1098.39 -2.32629 -3.00978 0
M  V30 11718 H 1099.7 -2.8738 -4.07694 0
M  V30 11719 H 1098.86 -1.38906 -5.90584 0
M  V30 11720 H 1097.59 -0.738464 -4.82077 0
M  V30 11721 H 1096.6 -3.03142 -4.58678 0
M  V30 11722 H 1097.82 -3.68179 -5.70632 0
M  V30 11723 H 1095.77 -1.54022 -6.37662 0
M  V30 11724 H 1095.69 -3.20643 -6.84634 0
M  V30 11725 H 1096.96 -2.19912 -7.47836 0
M  V30 11726 N 1101.18 1.11143 -1.11736 0
M  V30 11727 C 1102.43 1.82311 -0.862875 0
M  V30 11728 C 1102.75 1.85735 0.613326 0
M  V30 11729 O 1103.95 2.53034 0.984168 0
M  V30 11730 C 1102.41 3.27427 -1.49396 0
M  V30 11731 C 1102.02 3.32323 -3.00443 0
M  V30 11732 C 1103.76 4.03474 -1.31944 0
M  V30 11733 C 1101.67 4.71855 -3.56521 0
M  V30 11734 H 1100.6 0.683124 -0.31915 0
M  V30 11735 H 1103.25 1.25045 -1.34298 0
M  V30 11736 H 1101.63 3.84644 -0.941528 0
M  V30 11737 H 1102.8 2.84971 -3.62117 0
M  V30 11738 H 1101.12 2.69758 -3.17206 0
M  V30 11739 H 1103.72 5.06528 -1.71271 0
M  V30 11740 H 1104.06 4.15473 -0.262339 0
M  V30 11741 H 1104.59 3.52652 -1.84069 0
M  V30 11742 H 1101.33 4.65054 -4.61958 0
M  V30 11743 H 1100.85 5.19604 -2.99619 0
M  V30 11744 H 1102.53 5.40816 -3.55144 0
M  V30 11745 N 1102.66 0.908147 1.28804 0
M  V30 11746 C 1103.91 0.548635 1.95861 0
M  V30 11747 C 1104.26 -0.896789 1.70222 0
M  V30 11748 O 1103.56 -1.6285 1.00948 0
M  V30 11749 C 1103.75 0.787327 3.4862 0
M  V30 11750 C 1103.58 2.2544 3.8911 0
M  V30 11751 C 1102.35 2.90345 4.13555 0
M  V30 11752 C 1104.55 3.23034 4.00192 0
M  V30 11753 N 1102.53 4.27408 4.40676 0
M  V30 11754 C 1103.9 4.45242 4.31462 0
M  V30 11755 C 1105.96 3.18509 3.82696 0
M  V30 11756 C 1104.66 5.63498 4.47059 0
M  V30 11757 C 1106.68 4.36059 3.99508 0
M  V30 11758 C 1106.05 5.5704 4.31145 0
M  V30 11759 H 1102.15 0.250526 0.740784 0
M  V30 11760 H 1104.73 1.17071 1.55571 0
M  V30 11761 H 1102.9 0.194565 3.87912 0
M  V30 11762 H 1104.63 0.392407 4.02793 0
M  V30 11763 H 1101.39 2.411 4.07637 0
M  V30 11764 H 1101.81 4.98259 4.5833 0
M  V30 11765 H 1106.45 2.26058 3.57292 0
M  V30 11766 H 1104.17 6.56434 4.71296 0
M  V30 11767 H 1107.76 4.34054 3.87413 0
M  V30 11768 H 1106.64 6.46483 4.4388 0
M  V30 11769 N 1104.14 -1.42577 0.671525 0
M  V30 11770 C 1105.55 -1.84736 0.270084 0
M  V30 11771 C 1105.9 -1.56212 -1.18711 0
M  V30 11772 O 1105.03 -1.02028 -1.90838 0
M  V30 11773 C 1105.62 -3.35334 0.483409 0
M  V30 11774 C 1104.18 -3.76154 0.136119 0
M  V30 11775 C 1103.33 -2.66179 0.777444 0
M  V30 11776 H 1106.28 -1.3247 0.873919 0
M  V30 11777 H 1106.3 -3.79573 -0.265483 0
M  V30 11778 H 1105.81 -3.56063 1.54405 0
M  V30 11779 H 1103.91 -3.61033 -0.921209 0
M  V30 11780 H 1104.03 -4.75645 0.574356 0
M  V30 11781 H 1102.39 -2.53841 0.209055 0
M  V30 11782 H 1103.17 -2.89732 1.84148 0
M  V30 11783 N 1105.62 -0.414636 -1.52048 0
M  V30 11784 C 1106.57 0.408141 -2.27163 0
M  V30 11785 C 1107.54 1.03636 -1.29803 0
M  V30 11786 O 1108.72 1.05959 -1.58674 0
M  V30 11787 C 1105.86 1.51588 -3.10024 0
M  V30 11788 C 1104.97 0.908034 -4.22349 0
M  V30 11789 C 1104.11 1.98893 -4.9256 0
M  V30 11790 C 1103.15 1.35831 -5.96839 0
M  V30 11791 N 1102.28 2.37958 -6.60545 0
M  V30 11792 H 1107.12 -0.238822 -2.97041 0
M  V30 11793 H 1104.66 -0.129614 -1.46528 0
M  V30 11794 H 1106.62 2.16916 -3.56375 0
M  V30 11795 H 1105.25 2.13279 -2.42305 0
M  V30 11796 H 1104.3 0.143652 -3.80129 0
M  V30 11797 H 1105.61 0.407426 -4.97133 0
M  V30 11798 H 1104.77 2.71935 -5.42343 0
M  V30 11799 H 1103.51 2.5232 -4.17356 0
M  V30 11800 H 1102.51 0.613246 -5.46369 0
M  V30 11801 H 1103.74 0.831655 -6.73988 0
M  V30 11802 H 1101.68 2.90508 -5.88167 0
M  V30 11803 H 1101.6 1.92725 -7.31022 0
M  V30 11804 H 1102.87 3.10553 -7.14966 0
M  V30 11805 N 1107.1 1.56929 -0.145233 0
M  V30 11806 C 1108.03 2.19685 0.791263 0
M  V30 11807 C 1109.01 1.14455 1.25833 0
M  V30 11808 O 1110.19 1.42791 1.31622 0
M  V30 11809 C 1107.32 2.81705 2.03124 0
M  V30 11810 C 1106.28 3.92746 1.70101 0
M  V30 11811 C 1105.6 4.41694 3.01347 0
M  V30 11812 C 1106.9 5.13606 0.949025 0
M  V30 11813 H 1108.6 2.98196 0.26825 0
M  V30 11814 H 1106.14 1.43434 0.127584 0
M  V30 11815 H 1108.1 3.24273 2.69119 0
M  V30 11816 H 1106.82 2.00523 2.57795 0
M  V30 11817 H 1105.48 3.50794 1.06486 0
M  V30 11818 H 1105.13 3.57336 3.54006 0
M  V30 11819 H 1104.83 5.1659 2.80016 0
M  V30 11820 H 1106.35 4.86931 3.68416 0
M  V30 11821 H 1107.76 5.53029 1.51102 0
M  V30 11822 H 1106.16 5.94252 0.835711 0
M  V30 11823 H 1107.23 4.84863 -0.0595631 0
M  V30 11824 N 1108.58 -0.128553 1.57075 0
M  V30 11825 C 1109.99 -0.481794 1.52154 0
M  V30 11826 C 1110.19 -1.82381 0.856694 0
M  V30 11827 O 1109.25 -2.48725 0.434989 0
M  V30 11828 C 1110.56 -0.475091 2.96923 0
M  V30 11829 C 1112.11 -0.559315 3.07962 0
M  V30 11830 C 1112.58 -0.583095 4.54273 0
M  V30 11831 N 1114.07 -0.644803 4.5869 0
M  V30 11832 C 1114.81 -0.684493 5.693 0
M  V30 11833 N 1114.31 -0.682407 6.89431 0
M  V30 11834 N 1116.1 -0.726777 5.57382 0
M  V30 11835 H 1108.25 0.750894 1.98684 0
M  V30 11836 H 1110.51 0.27593 0.906955 0
M  V30 11837 H 1110.22 0.443157 3.48897 0
M  V30 11838 H 1110.09 -1.30637 3.53856 0
M  V30 11839 H 1112.48 -1.46798 2.55997 0
M  V30 11840 H 1112.56 0.299468 2.54041 0
M  V30 11841 H 1112.2 0.32149 5.06881 0
M  V30 11842 H 1112.13 -1.45863 5.05996 0
M  V30 11843 H 1114.63 -0.652967 3.72216 0
M  V30 11844 H 1114.94 -0.715051 7.69485 0
M  V30 11845 H 1113.28 -0.649984 6.91954 0
M  V30 11846 H 1116.47 -0.725704 4.6244 0
M  V30 11847 H 1116.65 -0.754242 6.43596 0
M  V30 11848 N 1110.05 -1.5248 -0.398459 0
M  V30 11849 C 1111.3 -1.67309 -1.1461 0
M  V30 11850 C 1111.63 -0.407095 -1.89885 0
M  V30 11851 O 1110.91 0.594834 -1.85181 0
M  V30 11852 C 1111.19 -2.90204 -2.13198 0
M  V30 11853 C 1111.04 -4.26881 -1.4175 0
M  V30 11854 C 1112.36 -3.08634 -3.13741 0
M  V30 11855 H 1109.48 -0.608853 -0.415292 0
M  V30 11856 H 1112.12 -1.85057 -0.430573 0
M  V30 11857 H 1110.27 -2.75204 -2.74218 0
M  V30 11858 H 1111.95 -4.53631 -0.837676 0
M  V30 11859 H 1110.19 -4.27793 -0.719387 0
M  V30 11860 H 1110.86 -5.08939 -2.1374 0
M  V30 11861 H 1113.34 -3.22603 -2.62805 0
M  V30 11862 H 1112.21 -3.96117 -3.79977 0
M  V30 11863 H 1112.47 -2.22425 -3.82073 0
M  V30 11864 N 1111.53 0.65634 -1.43283 0
M  V30 11865 C 1112.46 1.78101 -1.51004 0
M  V30 11866 C 1113.44 1.66138 -0.36498 0
M  V30 11867 O 1114.63 1.85281 -0.581778 0
M  V30 11868 C 1111.76 3.16511 -1.42961 0
M  V30 11869 C 1110.71 3.43233 -2.55685 0
M  V30 11870 C 1110.04 4.81411 -2.32696 0
M  V30 11871 C 1111.34 3.38288 -3.97943 0
M  V30 11872 H 1113.03 1.71896 -2.45137 0
M  V30 11873 H 1110.58 0.825575 -1.17984 0
M  V30 11874 H 1112.53 3.94941 -1.46968 0
M  V30 11875 H 1111.25 3.23439 -0.45332 0
M  V30 11876 H 1109.91 2.67173 -2.51026 0
M  V30 11877 H 1109.56 4.85011 -1.33317 0
M  V30 11878 H 1109.26 5.00251 -3.08257 0
M  V30 11879 H 1110.79 5.62102 -2.38481 0
M  V30 11880 H 1112.2 4.06659 -4.04106 0
M  V30 11881 H 1110.6 3.68664 -4.73505 0
M  V30 11882 H 1111.67 2.36525 -4.23301 0
M  V30 11883 N 1113.01 1.29761 0.894412 0
M  V30 11884 C 1113.97 1.15335 1.98067 0
M  V30 11885 C 1114.97 0.0872804 1.60563 0
M  V30 11886 O 1116.16 0.334645 1.70955 0
M  V30 11887 C 1113.29 0.764907 3.32208 0
M  V30 11888 H 1114.49 2.11829 2.12293 0
M  V30 11889 H 1112.04 1.13023 1.0796 0
M  V30 11890 H 1112.78 -0.199948 3.23683 0
M  V30 11891 H 1112.56 1.53523 3.60795 0
M  V30 11892 H 1114.05 0.687176 4.11907 0
M  V30 11893 N 1114.49 -1.10549 1.12324 0
M  V30 11894 C 1115.9 -1.34508 0.85905 0
M  V30 11895 C 1116.1 -1.94901 -0.511468 0
M  V30 11896 O 1115.16 -2.18793 -1.2604 0
M  V30 11897 C 1116.47 -2.26788 1.97453 0
M  V30 11898 C 1118.02 -2.40328 2.00528 0
M  V30 11899 C 1118.5 -3.35936 3.11305 0
M  V30 11900 N 1119.99 -3.43504 3.1074 0
M  V30 11901 C 1120.72 -4.17449 3.93096 0
M  V30 11902 N 1120.22 -4.9429 4.85437 0
M  V30 11903 N 1122.01 -4.13055 3.81237 0
M  V30 11904 H 1114.16 -0.697171 2.00632 0
M  V30 11905 H 1116.42 -0.369548 0.873005 0
M  V30 11906 H 1116.13 -1.89621 2.96204 0
M  V30 11907 H 1116 -3.27086 1.87869 0
M  V30 11908 H 1118.39 -2.76765 1.02397 0
M  V30 11909 H 1118.47 -1.39849 2.14186 0
M  V30 11910 H 1118.12 -3.00225 4.09667 0
M  V30 11911 H 1118.05 -4.36291 2.94886 0
M  V30 11912 H 1120.54 -2.88702 2.43843 0
M  V30 11913 H 1120.85 -5.48109 5.4479 0
M  V30 11914 H 1119.2 -4.93419 4.89452 0
M  V30 11915 H 1122.39 -3.52117 3.08433 0
M  V30 11916 H 1122.56 -4.70424 4.45651 0
M  V30 11917 N 1115.97 -0.914965 -1.28321 0
M  V30 11918 C 1117.19 -0.564023 -1.99583 0
M  V30 11919 C 1117.62 0.847821 -1.6791 0
M  V30 11920 O 1116.97 1.56682 -0.912171 0
M  V30 11921 C 1117.02 -0.781368 -3.52033 0
M  V30 11922 O 1116.13 0.159072 -4.12093 0
M  V30 11923 H 1115.47 -0.218565 -0.626997 0
M  V30 11924 H 1118 -1.23074 -1.63444 0
M  V30 11925 H 1118.01 -0.691946 -4.0209 0
M  V30 11926 H 1116.68 -1.81059 -3.7442 0
M  V30 11927 H 1115.26 0.0208145 -3.72894 0
M  V30 11928 N 1117.44 1.42219 -0.679077 0
M  V30 11929 C 1118.67 2.06333 -0.210097 0
M  V30 11930 C 1119.09 1.50703 1.12562 0
M  V30 11931 O 1118.45 0.627241 1.70104 0
M  V30 11932 C 1118.5 3.60243 -0.160322 0
M  V30 11933 O 1117.6 4.03122 0.869872 0
M  V30 11934 H 1116.94 0.655362 -0.106754 0
M  V30 11935 H 1119.47 1.82278 -0.929294 0
M  V30 11936 H 1119.48 4.07997 0.014384 0
M  V30 11937 H 1118.16 4.00106 -1.13526 0
M  V30 11938 H 1116.74 3.66907 0.66586 0
M  V30 11939 N 1118.92 0.422693 1.51826 0
M  V30 11940 C 1120.33 -0.0438129 1.86649 0
M  V30 11941 C 1120.68 -1.43246 1.34071 0
M  V30 11942 O 1119.81 -2.05256 0.685501 0
M  V30 11943 C 1120.4 -0.0862802 3.3869 0
M  V30 11944 C 1118.96 -0.497157 3.73102 0
M  V30 11945 C 1118.11 0.319655 2.75451 0
M  V30 11946 H 1121.06 0.639181 1.45259 0
M  V30 11947 H 1121.08 -0.8988 3.69732 0
M  V30 11948 H 1120.59 0.924525 3.76927 0
M  V30 11949 H 1118.69 -1.51411 3.40449 0
M  V30 11950 H 1118.81 -0.232125 4.78537 0
M  V30 11951 H 1117.17 -0.219963 2.53748 0
M  V30 11952 H 1117.95 1.32906 3.16529 0
M  V30 11953 N 1120.4 -1.5685 0.153553 0
M  V30 11954 C 1121.63 -2.00701 -0.502678 0
M  V30 11955 C 1122.04 -1.0337 -1.57988 0
M  V30 11956 O 1121.4 -0.0317233 -1.82472 0
M  V30 11957 C 1121.45 -3.44443 -1.09732 0
M  V30 11958 O 1121.17 -4.38054 -0.0631405 0
M  V30 11959 C 1122.67 -4.03605 -1.83352 0
M  V30 11960 H 1119.89 -0.658229 -0.130289 0
M  V30 11961 H 1122.44 -2.02965 0.250063 0
M  V30 11962 H 1120.59 -3.43009 -1.80065 0
M  V30 11963 H 1121.01 -5.22114 -0.499681 0
M  V30 11964 H 1122.48 -5.0616 -2.20241 0
M  V30 11965 H 1122.96 -3.44687 -2.7219 0
M  V30 11966 H 1123.56 -4.08688 -1.17703 0
M  V30 11967 N 1121.88 0.120221 -1.57141 0
M  V30 11968 C 1123.15 0.858458 -1.75755 0
M  V30 11969 C 1123.53 1.98124 -0.728693 0
M  V30 11970 O 1122.88 2.27155 0.247573 0
M  V30 11971 C 1123.09 1.37627 -3.20718 0
M  V30 11972 C 1124.44 1.82909 -3.83183 0
M  V30 11973 O 1125.46 1.47309 -3.24312 0
M  V30 11974 O 1124.32 2.4865 -4.86657 0
M  V30 11975 H 1121.42 0.407583 -0.719587 0
M  V30 11976 H 1123.96 0.104057 -1.69381 0
M  V30 11977 H 1122.74 0.570651 -3.87117 0
M  V30 11978 H 1122.36 2.19341 -3.31625 0
M  V30 11979 N 1123.36 1.52689 0.390367 0
M  V30 11980 C 1124.3 1.7737 1.47677 0
M  V30 11981 C 1125.27 0.616864 1.54221 0
M  V30 11982 O 1126.46 0.856437 1.70499 0
M  V30 11983 C 1123.6 1.94715 2.84921 0
M  V30 11984 C 1122.71 3.22405 2.8754 0
M  V30 11985 C 1121.85 3.30074 4.16202 0
M  V30 11986 C 1120.89 4.51893 4.12867 0
M  V30 11987 N 1120.02 4.56851 5.33134 0
M  V30 11988 H 1124.86 2.70084 1.25932 0
M  V30 11989 H 1122.4 1.33813 0.610943 0
M  V30 11990 H 1124.36 2.02755 3.64618 0
M  V30 11991 H 1122.99 1.05363 3.0512 0
M  V30 11992 H 1122.04 3.23442 2.00223 0
M  V30 11993 H 1123.35 4.12156 2.80943 0
M  V30 11994 H 1122.51 3.3729 5.04302 0
M  V30 11995 H 1121.24 2.38295 4.25519 0
M  V30 11996 H 1120.25 4.44803 3.23156 0
M  V30 11997 H 1121.47 5.44987 4.05174 0
M  V30 11998 H 1119.42 3.67963 5.43083 0
M  V30 11999 H 1119.34 5.40472 5.28607 0
M  V30 12000 H 1120.61 4.6832 6.23134 0
M  V30 12001 N 1124.83 -0.648732 1.43629 0
M  V30 12002 C 1125.78 -1.75473 1.45579 0
M  V30 12003 C 1126.77 -1.57611 0.323683 0
M  V30 12004 O 1127.96 -1.67646 0.56778 0
M  V30 12005 C 1125.09 -3.14083 1.38589 0
M  V30 12006 C 1124.18 -3.37477 2.56846 0
M  V30 12007 N 1124.57 -3.31322 3.82177 0
M  V30 12008 C 1122.86 -3.68212 2.51666 0
M  V30 12009 C 1123.57 -3.54921 4.60875 0
M  V30 12010 N 1122.54 -3.76951 3.91675 0
M  V30 12011 H 1126.34 -1.69146 2.40347 0
M  V30 12012 H 1123.86 -0.850566 1.38344 0
M  V30 12013 H 1125.85 -3.93374 1.38068 0
M  V30 12014 H 1124.51 -3.21588 0.448442 0
M  V30 12015 H 1125.53 -3.10633 4.144 0
M  V30 12016 H 1122.2 -3.82806 1.66631 0
M  V30 12017 H 1123.59 -3.55904 5.69897 0
M  V30 12018 N 1126.31 -1.30234 -0.887518 0
M  V30 12019 C 1127.54 -1.21829 -1.67229 0
M  V30 12020 C 1127.96 0.219251 -1.87523 0
M  V30 12021 O 1127.31 1.14526 -1.42091 0
M  V30 12022 C 1127.36 -1.94044 -3.05007 0
M  V30 12023 O 1127.08 -3.32185 -2.85631 0
M  V30 12024 C 1128.59 -1.92265 -3.99436 0
M  V30 12025 H 1125.81 -0.421716 -0.521916 0
M  V30 12026 H 1128.35 -1.71816 -1.10903 0
M  V30 12027 H 1126.5 -1.47861 -3.58072 0
M  V30 12028 H 1126.92 -3.68724 -3.73018 0
M  V30 12029 H 1128.39 -2.47336 -4.93486 0
M  V30 12030 H 1128.87 -0.900984 -4.29859 0
M  V30 12031 H 1129.48 -2.38247 -3.52305 0
M  V30 12032 N 1127.79 1.09952 -1.12909 0
M  V30 12033 C 1128.72 2.18477 -0.824014 0
M  V30 12034 C 1129.7 1.68744 0.214324 0
M  V30 12035 O 1130.89 1.94057 0.0744281 0
M  V30 12036 C 1128.02 3.46143 -0.283308 0
M  V30 12037 C 1126.97 4.09178 -1.25528 0
M  V30 12038 C 1126.3 5.31604 -0.574574 0
M  V30 12039 C 1127.6 4.52308 -2.6118 0
M  V30 12040 H 1129.29 2.44254 -1.73148 0
M  V30 12041 H 1126.84 1.17394 -0.833952 0
M  V30 12042 H 1128.79 4.21361 -0.057583 0
M  V30 12043 H 1127.51 3.19872 0.659525 0
M  V30 12044 H 1126.17 3.35973 -1.4669 0
M  V30 12045 H 1125.82 5.01611 0.37356 0
M  V30 12046 H 1125.52 5.74732 -1.22299 0
M  V30 12047 H 1127.04 6.0955 -0.358004 0
M  V30 12048 H 1128.46 5.18776 -2.44017 0
M  V30 12049 H 1126.86 5.06302 -3.22147 0
M  V30 12050 H 1127.93 3.64977 -3.19249 0
M  V30 12051 N 1129.27 0.921757 1.27833 0
M  V30 12052 C 1130.51 0.559906 1.94918 0
M  V30 12053 C 1130.85 -0.895532 1.72319 0
M  V30 12054 O 1130.12 -1.638 1.04879 0
M  V30 12055 C 1130.41 0.879458 3.49196 0
M  V30 12056 C 1130.26 2.38821 3.81162 0
M  V30 12057 C 1131.58 0.381183 4.38446 0
M  V30 12058 H 1128.7 0.204893 0.707946 0
M  V30 12059 H 1131.34 1.15246 1.51058 0
M  V30 12060 H 1129.49 0.375177 3.86684 0
M  V30 12061 H 1131.16 2.96373 3.53498 0
M  V30 12062 H 1129.4 2.83988 3.27923 0
M  V30 12063 H 1130.07 2.56234 4.88926 0
M  V30 12064 H 1132.55 0.813289 4.08075 0
M  V30 12065 H 1131.43 0.633778 5.45229 0
M  V30 12066 H 1131.69 -0.718651 4.3622 0
M  V30 12067 N 1130.75 -1.41857 0.686609 0
M  V30 12068 C 1131.69 -2.30795 0.015643 0
M  V30 12069 C 1132.66 -1.46616 -0.780569 0
M  V30 12070 O 1133.85 -1.75423 -0.750424 0
M  V30 12071 C 1130.99 -3.32577 -0.921229 0
M  V30 12072 C 1130.1 -4.3184 -0.117585 0
M  V30 12073 C 1129.24 -5.20693 -1.05128 0
M  V30 12074 C 1128.28 -6.11629 -0.240018 0
M  V30 12075 N 1127.41 -6.92995 -1.12704 0
M  V30 12076 H 1132.25 -2.87615 0.77985 0
M  V30 12077 H 1129.79 -1.41661 0.396298 0
M  V30 12078 H 1131.75 -3.90129 -1.47836 0
M  V30 12079 H 1130.38 -2.77328 -1.65193 0
M  V30 12080 H 1129.43 -3.7631 0.55634 0
M  V30 12081 H 1130.74 -4.96168 0.511753 0
M  V30 12082 H 1129.9 -5.83035 -1.67795 0
M  V30 12083 H 1128.63 -4.5657 -1.71449 0
M  V30 12084 H 1127.64 -5.48345 0.399779 0
M  V30 12085 H 1128.86 -6.77805 0.419266 0
M  V30 12086 H 1126.81 -6.31489 -1.77644 0
M  V30 12087 H 1126.73 -7.53974 -0.553065 0
M  V30 12088 H 1128 -7.59813 -1.7408 0
M  V30 12089 N 1132.22 -0.430739 -1.51599 0
M  V30 12090 C 1133.47 0.137657 -2.01631 0
M  V30 12091 C 1133.79 1.43787 -1.31721 0
M  V30 12092 O 1133.06 1.90668 -0.449717 0
M  V30 12093 H 1131.64 0.0538611 -0.745056 0
M  V30 12094 H 1134.31 -0.571935 -1.86319 0
M  V30 12095 H 1133.4 0.318305 -3.10473 0
M  V30 12096 N 1133.7 1.56767 -0.161869 0
M  V30 12097 C 1134.95 1.95769 0.485536 0
M  V30 12098 C 1135.26 1.05006 1.65025 0
M  V30 12099 O 1136.47 1.33649 2.36326 0
M  V30 12100 C 1134.93 3.4807 0.915176 0
M  V30 12101 C 1134.53 4.47443 -0.223416 0
M  V30 12102 C 1136.28 3.95909 1.53153 0
M  V30 12103 C 1134.19 5.90971 0.225325 0
M  V30 12104 H 1133.12 0.730911 0.185161 0
M  V30 12105 H 1135.77 1.81808 -0.248592 0
M  V30 12106 H 1134.15 3.57415 1.705 0
M  V30 12107 H 1135.32 4.49805 -1.00061 0
M  V30 12108 H 1133.64 4.09606 -0.749127 0
M  V30 12109 H 1136.23 5.00592 1.87915 0
M  V30 12110 H 1136.58 3.38307 2.42599 0
M  V30 12111 H 1137.11 3.89542 0.806322 0
M  V30 12112 H 1133.85 6.52426 -0.634124 0
M  V30 12113 H 1133.37 5.91936 0.96808 0
M  V30 12114 H 1135.05 6.43497 0.672373 0
M  V30 12115 N 1135.18 -0.111886 1.57202 0
M  V30 12116 C 1136.43 -0.817022 1.84412 0
M  V30 12117 C 1136.74 -1.80708 0.748608 0
M  V30 12118 O 1137.95 -2.55891 0.907319 0
M  V30 12119 C 1136.4 -1.50376 3.26979 0
M  V30 12120 C 1136.01 -0.554334 4.44557 0
M  V30 12121 C 1137.76 -2.19361 3.63429 0
M  V30 12122 C 1135.66 -1.24471 5.78153 0
M  V30 12123 H 1134.59 -0.308864 0.687836 0
M  V30 12124 H 1137.24 -0.0698109 1.83367 0
M  V30 12125 H 1135.63 -2.29785 3.22514 0
M  V30 12126 H 1136.8 0.207045 4.60335 0
M  V30 12127 H 1135.12 0.0289261 4.1639 0
M  V30 12128 H 1137.71 -2.71716 4.60515 0
M  V30 12129 H 1138.06 -2.97488 2.91215 0
M  V30 12130 H 1138.59 -1.46833 3.69709 0
M  V30 12131 H 1135.33 -0.504584 6.53555 0
M  V30 12132 H 1134.85 -1.97792 5.66249 0
M  V30 12133 H 1136.53 -1.77591 6.2215 0
M  V30 12134 N 1136.66 -1.52894 -0.382264 0
M  V30 12135 C 1137.94 -1.58853 -1.14127 0
M  V30 12136 C 1138.32 -0.38582 -2.07544 0
M  V30 12137 O 1137.66 0.625323 -2.19777 0
M  V30 12138 C 1137.87 -2.93068 -1.89504 0
M  V30 12139 C 1139.22 -3.47048 -2.44629 0
M  V30 12140 O 1140.25 -2.94987 -1.99652 0
M  V30 12141 O 1139.1 -4.3802 -3.26804 0
M  V30 12142 H 1136.2 -0.640969 -0.522578 0
M  V30 12143 H 1138.74 -1.65231 -0.386873 0
M  V30 12144 H 1137.52 -3.72047 -1.2123 0
M  V30 12145 H 1137.14 -2.90106 -2.7189 0
M  V30 12146 N 1138.14 0.641106 -1.43971 0
M  V30 12147 C 1139.36 1.43324 -1.4991 0
M  V30 12148 C 1139.79 1.87705 -0.121908 0
M  V30 12149 O 1139.15 1.58127 0.886875 0
M  V30 12150 C 1139.19 2.63637 -2.46025 0
M  V30 12151 O 1138.3 3.63123 -1.95488 0
M  V30 12152 H 1137.64 0.429252 -0.506595 0
M  V30 12153 H 1140.17 0.783427 -1.89007 0
M  V30 12154 H 1140.18 3.11304 -2.63731 0
M  V30 12155 H 1138.85 2.30678 -3.46064 0
M  V30 12156 H 1137.43 3.22332 -1.87501 0
M  V30 12157 N 1139.62 1.30703 0.880598 0
M  V30 12158 C 1140.84 1.22714 1.6658 0
M  V30 12159 C 1141.26 -0.209303 1.87636 0
M  V30 12160 O 1140.62 -1.13771 1.42697 0
M  V30 12161 C 1140.67 1.95659 3.03974 0
M  V30 12162 O 1140.39 3.33695 2.83865 0
M  V30 12163 C 1141.89 1.9438 3.98411 0
M  V30 12164 H 1139.11 0.424478 0.519673 0
M  V30 12165 H 1141.65 1.72402 1.0999 0
M  V30 12166 H 1139.81 1.49758 3.57283 0
M  V30 12167 H 1140.22 3.70697 3.71058 0
M  V30 12168 H 1141.7 2.4995 4.92168 0
M  V30 12169 H 1142.17 0.923767 4.29375 0
M  V30 12170 H 1142.78 2.40112 3.51036 0
M  V30 12171 N 1141.09 -1.09351 1.1349 0
M  V30 12172 C 1142.34 -1.81812 0.898452 0
M  V30 12173 C 1142.67 -1.85525 -0.573959 0
M  V30 12174 O 1141.95 -1.32403 -1.42477 0
M  V30 12175 C 1142.23 -3.27921 1.48794 0
M  V30 12176 C 1142.08 -3.32476 3.02952 0
M  V30 12177 C 1143.4 -4.24625 1.15678 0
M  V30 12178 H 1140.52 -0.660074 0.327829 0
M  V30 12179 H 1143.16 -1.28091 1.40331 0
M  V30 12180 H 1141.31 -3.738 1.05858 0
M  V30 12181 H 1142.99 -2.94994 3.54649 0
M  V30 12182 H 1141.23 -2.72037 3.37903 0
M  V30 12183 H 1141.9 -4.35409 3.39298 0
M  V30 12184 H 1144.38 -3.87036 1.52781 0
M  V30 12185 H 1143.25 -5.25194 1.59571 0
M  V30 12186 H 1143.51 -4.42044 0.0705933 0
M  V30 12187 N 1142.57 -0.928524 -1.27343 0
M  V30 12188 C 1143.82 -0.568267 -1.93946 0
M  V30 12189 C 1144.14 0.893501 -1.73325 0
M  V30 12190 O 1143.41 1.63344 -1.08147 0
M  V30 12191 H 1141.99 -0.207173 -0.717696 0
M  V30 12192 H 1144.65 -1.1811 -1.55036 0
M  V30 12193 H 1143.75 -0.775246 -3.02318 0
M  V30 12194 N 1144.05 1.41491 -0.694123 0
M  V30 12195 C 1144.96 2.34583 -0.0283414 0
M  V30 12196 C 1145.98 1.5615 0.767662 0
M  V30 12197 O 1147.15 1.88637 0.705556 0
M  V30 12198 C 1144.22 3.34876 0.897726 0
M  V30 12199 C 1143.28 4.29197 0.0940905 0
M  V30 12200 C 1142.51 5.24699 0.976051 0
M  V30 12201 O 1142.73 5.25613 2.21556 0
M  V30 12202 O 1141.67 6.00387 0.426503 0
M  V30 12203 H 1145.49 2.93092 -0.795656 0
M  V30 12204 H 1143.08 1.4232 -0.45445 0
M  V30 12205 H 1144.96 3.96438 1.4288 0
M  V30 12206 H 1143.64 2.78812 1.64456 0
M  V30 12207 H 1142.54 3.70988 -0.481552 0
M  V30 12208 H 1143.88 4.88355 -0.614045 0
M  V30 12209 N 1145.53 0.438773 1.51369 0
M  V30 12210 C 1146.48 -0.389921 2.24641 0
M  V30 12211 C 1147.46 -0.988871 1.26926 0
M  V30 12212 O 1148.65 -0.906774 1.52009 0
M  V30 12213 C 1145.78 -1.48972 3.09293 0
M  V30 12214 C 1144.87 -0.900093 4.14438 0
M  V30 12215 N 1145.26 -0.0397688 5.05784 0
M  V30 12216 C 1143.56 -1.16752 4.30447 0
M  V30 12217 C 1144.26 0.291527 5.80969 0
M  V30 12218 N 1143.23 -0.325219 5.42626 0
M  V30 12219 H 1147.04 0.273335 2.92626 0
M  V30 12220 H 1144.55 0.250934 1.6045 0
M  V30 12221 H 1146.55 -2.09627 3.60364 0
M  V30 12222 H 1145.21 -2.1553 2.42852 0
M  V30 12223 H 1146.22 0.326771 5.16868 0
M  V30 12224 H 1142.9 -1.83049 3.75232 0
M  V30 12225 H 1144.29 0.991699 6.64541 0
M  V30 12226 N 1147.01 -1.56678 0.170181 0
M  V30 12227 C 1148.42 -1.58512 -0.185999 0
M  V30 12228 C 1148.62 -1.18548 -1.62937 0
M  V30 12229 O 1147.68 -0.896554 -2.36047 0
M  V30 12230 C 1148.99 -3.00554 0.0937842 0
M  V30 12231 C 1150.54 -3.12984 0.0319057 0
M  V30 12232 C 1151.01 -4.57115 0.284664 0
M  V30 12233 N 1152.5 -4.62617 0.2324 0
M  V30 12234 C 1153.24 -5.71988 0.40216 0
M  V30 12235 N 1152.74 -6.89921 0.630915 0
M  V30 12236 N 1154.53 -5.61082 0.338144 0
M  V30 12237 H 1146.68 -1.80944 1.11235 0
M  V30 12238 H 1148.94 -0.838586 0.442128 0
M  V30 12239 H 1148.65 -3.34265 1.09362 0
M  V30 12240 H 1148.52 -3.72151 -0.615118 0
M  V30 12241 H 1150.91 -2.791 -0.958502 0
M  V30 12242 H 1150.99 -2.43825 0.773501 0
M  V30 12243 H 1150.63 -4.91707 1.27227 0
M  V30 12244 H 1150.56 -5.2443 -0.477529 0
M  V30 12245 H 1153.06 -3.7785 0.0611933 0
M  V30 12246 H 1153.37 -7.69153 0.749931 0
M  V30 12247 H 1151.71 -6.91787 0.667516 0
M  V30 12248 H 1154.9 -4.67826 0.16003 0
M  V30 12249 H 1155.08 -6.46265 0.473872 0
M  V30 12250 N 1148.48 0.103547 -1.57259 0
M  V30 12251 C 1149.42 1.15225 -1.98131 0
M  V30 12252 C 1150.43 1.36793 -0.882692 0
M  V30 12253 O 1151.62 1.35595 -1.16088 0
M  V30 12254 C 1148.72 2.50941 -2.27776 0
M  V30 12255 C 1147.89 2.49765 -3.59077 0
M  V30 12256 C 1146.95 3.67344 -3.76756 0
M  V30 12257 O 1145.98 3.50221 -4.48702 0
M  V30 12258 N 1147.18 4.86504 -3.16692 0
M  V30 12259 H 1149.94 0.804448 -2.88702 0
M  V30 12260 H 1147.5 0.292636 -1.59233 0
M  V30 12261 H 1149.5 3.28186 -2.36804 0
M  V30 12262 H 1148.07 2.77843 -1.43255 0
M  V30 12263 H 1147.29 1.58125 -3.61096 0
M  V30 12264 H 1148.57 2.4605 -4.4535 0
M  V30 12265 H 1147.97 5.03319 -2.58236 0
M  V30 12266 H 1146.53 5.61371 -3.31218 0
M  V30 12267 N 1149.96 1.53094 0.37415 0
M  V30 12268 C 1151.21 1.69111 1.11934 0
M  V30 12269 C 1151.54 0.437252 1.89213 0
M  V30 12270 O 1150.82 -0.565298 1.86104 0
M  V30 12271 C 1151.1 2.93559 2.08554 0
M  V30 12272 C 1150.95 4.29082 1.3494 0
M  V30 12273 C 1152.27 3.13586 3.08791 0
M  V30 12274 H 1149.39 0.615383 0.405553 0
M  V30 12275 H 1152.03 1.85719 0.401078 0
M  V30 12276 H 1150.18 2.79531 2.69805 0
M  V30 12277 H 1151.85 4.54906 0.765402 0
M  V30 12278 H 1150.1 4.28884 0.651238 0
M  V30 12279 H 1150.77 5.12275 2.05616 0
M  V30 12280 H 1153.24 3.26743 2.57639 0
M  V30 12281 H 1152.12 4.02112 3.73627 0
M  V30 12282 H 1152.38 2.28475 3.78486 0
M  V30 12283 N 1151.44 -0.633461 1.44309 0
M  V30 12284 C 1152.69 -1.39513 1.47187 0
M  V30 12285 C 1153.02 -1.93926 0.103186 0
M  V30 12286 O 1152.29 -1.73512 -0.878853 0
M  V30 12287 C 1152.58 -2.56213 2.53036 0
M  V30 12288 C 1152.43 -2.07164 3.99253 0
M  V30 12289 C 1153.75 -3.58403 2.55412 0
M  V30 12290 H 1150.87 -0.505936 0.535908 0
M  V30 12291 H 1153.51 -0.716445 1.75975 0
M  V30 12292 H 1151.66 -3.14111 2.28619 0
M  V30 12293 H 1153.33 -1.54115 4.34795 0
M  V30 12294 H 1151.57 -1.38367 4.11141 0
M  V30 12295 H 1152.25 -2.91172 4.6896 0
M  V30 12296 H 1154.72 -3.103 2.77224 0
M  V30 12297 H 1153.6 -4.37581 3.31382 0
M  V30 12298 H 1153.86 -4.12316 1.59523 0
M  V30 12299 N 1152.92 -1.31168 -0.873655 0
M  V30 12300 C 1153.88 -1.18471 -1.96207 0
M  V30 12301 C 1154.88 -0.112814 -1.60404 0
M  V30 12302 O 1156.07 -0.3618 -1.70401 0
M  V30 12303 C 1153.2 -0.817662 -3.30949 0
M  V30 12304 H 1154.4 -2.1518 -2.08896 0
M  V30 12305 H 1151.95 -1.14727 -1.06149 0
M  V30 12306 H 1152.68 0.148428 -3.2396 0
M  V30 12307 H 1152.47 -1.59244 -3.58307 0
M  V30 12308 H 1153.96 -0.75262 -4.10762 0
M  V30 12309 N 1154.4 1.08748 -1.14068 0
M  V30 12310 C 1155.64 1.81333 -0.908081 0
M  V30 12311 C 1155.98 1.85826 0.564112 0
M  V30 12312 O 1155.25 1.33157 1.41773 0
M  V30 12313 C 1155.53 3.27127 -1.50531 0
M  V30 12314 C 1155.39 3.30865 -3.04711 0
M  V30 12315 C 1156.71 4.24006 -1.17928 0
M  V30 12316 H 1153.82 0.658326 -0.331325 0
M  V30 12317 H 1156.47 1.27345 -1.41008 0
M  V30 12318 H 1154.62 3.73233 -1.07839 0
M  V30 12319 H 1156.29 2.93109 -3.56209 0
M  V30 12320 H 1154.53 2.70241 -3.39341 0
M  V30 12321 H 1155.2 4.33603 -3.41603 0
M  V30 12322 H 1157.68 3.86221 -1.54831 0
M  V30 12323 H 1156.55 5.2434 -1.62353 0
M  V30 12324 H 1156.82 4.42 -0.0940349 0
M  V30 12325 N 1155.87 0.935264 1.26849 0
M  V30 12326 C 1157.1 0.596249 1.98122 0
M  V30 12327 C 1157.52 -0.827452 1.69702 0
M  V30 12328 O 1156.87 -1.55095 0.961864 0
M  V30 12329 C 1156.93 0.821773 3.52036 0
M  V30 12330 O 1156.65 2.18947 3.79465 0
M  V30 12331 C 1158.15 0.492498 4.40556 0
M  V30 12332 H 1155.37 0.225242 0.632066 0
M  V30 12333 H 1157.91 1.25435 1.61512 0
M  V30 12334 H 1156.07 0.210363 3.86828 0
M  V30 12335 H 1156.48 2.24509 4.74021 0
M  V30 12336 H 1157.95 0.700953 5.47531 0
M  V30 12337 H 1158.43 -0.57228 4.35456 0
M  V30 12338 H 1159.04 1.08238 4.11296 0
M  V30 12339 N 1157.35 -1.41121 0.701616 0
M  V30 12340 C 1158.6 -2.00733 0.234682 0
M  V30 12341 C 1158.92 -1.55869 -1.17174 0
M  V30 12342 O 1158.19 -0.791965 -1.79178 0
M  V30 12343 H 1156.77 -0.742288 0.0837745 0
M  V30 12344 H 1159.43 -1.7266 0.904127 0
M  V30 12345 H 1158.53 -3.11041 0.256831 0
M  V30 12346 N 1158.83 -0.446794 -1.51134 0
M  V30 12347 C 1160.11 0.176892 -1.94798 0
M  V30 12348 C 1160.49 1.59229 -1.38598 0
M  V30 12349 O 1159.84 2.21097 -0.576905 0
M  V30 12350 C 1160.05 0.145 -3.48699 0
M  V30 12351 C 1161.39 0.345917 -4.23189 0
M  V30 12352 O 1162.42 0.222691 -3.55503 0
M  V30 12353 O 1161.28 0.592112 -5.43283 0
M  V30 12354 H 1158.37 0.12486 -0.81752 0
M  V30 12355 H 1160.92 -0.505453 -1.61998 0
M  V30 12356 H 1159.69 -0.844156 -3.82086 0
M  V30 12357 H 1159.31 0.869851 -3.87968 0
M  V30 12358 N 1160.31 1.56586 -0.178487 0
M  V30 12359 C 1161.56 1.96709 0.4637 0
M  V30 12360 C 1161.88 1.06586 1.63292 0
M  V30 12361 O 1161.15 0.133683 1.95443 0
M  V30 12362 H 1159.73 0.726381 0.174299 0
M  V30 12363 H 1162.39 1.9314 -0.261345 0
M  V30 12364 H 1161.49 3.01164 0.818934 0
M  V30 12365 N 1161.79 -0.095206 1.57312 0
M  V30 12366 C 1163.01 -0.81227 1.90289 0
M  V30 12367 C 1163.43 -1.72287 0.772178 0
M  V30 12368 O 1162.79 -1.80698 -0.255841 0
M  V30 12369 C 1162.84 -1.62572 3.22882 0
M  V30 12370 O 1162.56 -0.75175 4.31602 0
M  V30 12371 C 1164.06 -2.44585 3.6972 0
M  V30 12372 H 1161.28 -0.232256 0.629522 0
M  V30 12373 H 1163.82 -0.0724733 2.04372 0
M  V30 12374 H 1161.98 -2.31803 3.10397 0
M  V30 12375 H 1162.39 -1.31514 5.07744 0
M  V30 12376 H 1163.87 -2.97155 4.65191 0
M  V30 12377 H 1164.34 -3.23044 2.97555 0
M  V30 12378 H 1164.95 -1.80554 3.85072 0
M  V30 12379 N 1163.26 -1.53291 -0.366026 0
M  V30 12380 C 1164.21 -1.80367 -1.4687 0
M  V30 12381 C 1165.21 -0.672767 -1.55468 0
M  V30 12382 O 1166.41 -0.8557 -1.5836 0
M  V30 12383 H 1162.79 -0.571076 -0.48926 0
M  V30 12384 H 1164.76 -2.72661 -1.21237 0
M  V30 12385 C 1163.51 -2.01008 -2.8371 0
M  V30 12386 H 1162.83 -2.87468 -2.77853 0
M  V30 12387 H 1164.27 -2.2393 -3.60043 0
M  V30 12388 C 1162.73 -0.789054 -3.27529 0
M  V30 12389 O 1163.26 0.0224712 -4.01694 0
M  V30 12390 N 1161.47 -0.612621 -2.84069 0
M  V30 12391 H 1161.01 -1.27416 -2.23881 0
M  V30 12392 H 1160.97 0.202943 -3.13744 0
M  V30 12393 N 1164.74 0.6258 -1.44643 0
M  V30 12394 C 1166.02 1.38439 -1.38181 0
M  V30 12395 C 1166.4 2.11056 -0.0431928 0
M  V30 12396 O 1165.75 2.06683 0.974383 0
M  V30 12397 C 1165.96 2.34639 -2.58352 0
M  V30 12398 C 1167.31 2.97807 -3.02649 0
M  V30 12399 O 1168.33 2.44963 -2.58595 0
M  V30 12400 O 1167.19 3.93682 -3.79048 0
M  V30 12401 H 1164.28 0.619852 -0.54746 0
M  V30 12402 H 1166.83 0.650409 -1.56741 0
M  V30 12403 H 1165.6 1.80116 -3.47382 0
M  V30 12404 H 1165.22 3.15446 -2.42032 0
M  V30 12405 N 1166.22 1.31629 0.866686 0
M  V30 12406 C 1167.47 1.21263 1.61678 0
M  V30 12407 C 1167.79 -0.228562 1.93656 0
M  V30 12408 O 1167.06 -1.15014 1.58583 0
M  V30 12409 H 1165.64 0.445817 0.59938 0
M  V30 12410 H 1168.3 1.64998 1.03739 0
M  V30 12411 H 1167.4 1.78669 2.55898 0
M  V30 12412 N 1167.7 -1.08142 1.14644 0
M  V30 12413 C 1169.11 -1.62061 0.926986 0
M  V30 12414 C 1169.46 -1.88805 -0.533578 0
M  V30 12415 O 1168.59 -1.64753 -1.40305 0
M  V30 12416 C 1169.18 -2.94425 1.67629 0
M  V30 12417 C 1167.74 -3.45118 1.50235 0
M  V30 12418 C 1166.89 -2.19307 1.69705 0
M  V30 12419 H 1169.84 -0.913326 1.29785 0
M  V30 12420 H 1169.86 -3.62987 1.14107 0
M  V30 12421 H 1169.37 -2.74928 2.73927 0
M  V30 12422 H 1167.47 -3.69713 0.462967 0
M  V30 12423 H 1167.59 -4.2169 2.27408 0
M  V30 12424 H 1165.95 -2.28611 1.12291 0
M  V30 12425 H 1166.73 -2.02315 2.77351 0
M  V30 12426 N 1169.18 -0.941978 -1.26351 0
M  V30 12427 C 1170.14 -0.456768 -2.24602 0
M  V30 12428 C 1171.14 0.432574 -1.54872 0
M  V30 12429 O 1172.33 0.23164 -1.72653 0
M  V30 12430 C 1169.46 0.341583 -3.39184 0
M  V30 12431 H 1170.66 -1.32503 -2.69041 0
M  V30 12432 H 1168.21 -0.724021 -1.38519 0
M  V30 12433 H 1168.94 1.22806 -3.00149 0
M  V30 12434 H 1168.73 -0.296268 -3.90979 0
M  V30 12435 H 1170.22 0.670955 -4.12175 0
M  V30 12436 N 1170.66 1.40747 -0.709091 0
M  V30 12437 C 1171.59 2.33404 -0.0669763 0
M  V30 12438 C 1172.57 1.52546 0.752582 0
M  V30 12439 O 1173.75 1.81036 0.702823 0
M  V30 12440 C 1170.88 3.36476 0.860285 0
M  V30 12441 C 1169.84 4.27748 0.146828 0
M  V30 12442 C 1169.16 5.21304 1.18937 0
M  V30 12443 C 1170.46 5.12734 -0.995064 0
M  V30 12444 H 1172.16 2.87349 -0.840888 0
M  V30 12445 H 1169.7 1.38163 -0.405817 0
M  V30 12446 H 1171.65 4.00231 1.31883 0
M  V30 12447 H 1170.38 2.80912 1.66602 0
M  V30 12448 H 1169.04 3.65437 -0.291826 0
M  V30 12449 H 1168.69 4.62048 1.98798 0
M  V30 12450 H 1168.39 5.8321 0.716917 0
M  V30 12451 H 1169.91 5.87936 1.64815 0
M  V30 12452 H 1171.32 5.69979 -0.61618 0
M  V30 12453 H 1169.72 5.83649 -1.39547 0
M  V30 12454 H 1170.79 4.49097 -1.82867 0
M  V30 12455 N 1172.13 0.454803 1.50895 0
M  V30 12456 C 1173.08 -0.347769 2.28165 0
M  V30 12457 C 1174.05 -1.00158 1.32505 0
M  V30 12458 O 1175.24 -1.01715 1.61427 0
M  V30 12459 C 1172.38 -1.43315 3.13934 0
M  V30 12460 C 1171.49 -0.795736 4.24608 0
M  V30 12461 C 1170.62 -1.85763 4.9766 0
M  V30 12462 C 1169.66 -1.19959 6.0023 0
M  V30 12463 N 1168.8 -2.20361 6.66622 0
M  V30 12464 H 1173.64 0.317493 2.96304 0
M  V30 12465 H 1171.18 0.168418 1.46133 0
M  V30 12466 H 1173.13 -2.07391 3.62001 0
M  V30 12467 H 1171.76 -2.0678 2.47875 0
M  V30 12468 H 1170.82 -0.0428173 3.80376 0
M  V30 12469 H 1172.13 -0.275477 4.98039 0
M  V30 12470 H 1171.28 -2.5746 5.49363 0
M  V30 12471 H 1170.02 -2.41166 4.23899 0
M  V30 12472 H 1169.03 -0.46817 5.47803 0
M  V30 12473 H 1170.25 -0.652666 6.75956 0
M  V30 12474 H 1168.2 -2.74812 5.95663 0
M  V30 12475 H 1168.11 -1.73275 7.35875 0
M  V30 12476 H 1169.38 -2.91488 7.22949 0
M  V30 12477 N 1173.61 -1.56489 0.186789 0
M  V30 12478 C 1174.56 -2.18703 -0.737402 0
M  V30 12479 C 1175.53 -1.13171 -1.21579 0
M  V30 12480 O 1176.71 -1.41388 -1.28118 0
M  V30 12481 C 1173.85 -2.84394 -1.95484 0
M  V30 12482 C 1172.97 -4.04429 -1.51859 0
M  V30 12483 C 1172.1 -4.58001 -2.69089 0
M  V30 12484 C 1171.14 -5.70412 -2.22029 0
M  V30 12485 N 1170.28 -6.18425 -3.32407 0
M  V30 12486 H 1175.12 -2.97327 -0.200105 0
M  V30 12487 H 1172.65 -1.46842 -0.087032 0
M  V30 12488 H 1174.61 -3.20646 -2.66912 0
M  V30 12489 H 1173.24 -2.08347 -2.46559 0
M  V30 12490 H 1172.29 -3.73895 -0.70048 0
M  V30 12491 H 1173.61 -4.85756 -1.13327 0
M  V30 12492 H 1172.76 -4.96515 -3.48652 0
M  V30 12493 H 1171.5 -3.75764 -3.1089 0
M  V30 12494 H 1170.5 -5.31434 -1.40918 0
M  V30 12495 H 1171.73 -6.54461 -1.81268 0
M  V30 12496 H 1169.68 -5.39113 -3.73755 0
M  V30 12497 H 1169.59 -6.94782 -2.98017 0
M  V30 12498 H 1170.86 -6.61592 -4.12209 0
M  V30 12499 N 1175.09 0.086862 -1.5736 0
M  V30 12500 C 1176.05 1.08906 -2.01673 0
M  V30 12501 C 1177.05 1.32473 -0.911463 0
M  V30 12502 O 1178.24 1.28447 -1.17673 0
M  V30 12503 C 1175.37 2.43629 -2.38449 0
M  V30 12504 H 1176.57 0.707461 -2.91436 0
M  V30 12505 H 1174.12 0.332154 -1.5273 0
M  V30 12506 H 1174.86 2.8665 -1.51665 0
M  V30 12507 H 1174.64 2.2787 -3.19089 0
M  V30 12508 H 1176.13 3.15695 -2.73361 0
M  V30 12509 N 1176.57 1.53483 0.357892 0
M  V30 12510 C 1177.84 1.60649 1.11585 0
M  V30 12511 C 1178.22 0.418789 2.06904 0
M  V30 12512 O 1177.57 -0.590279 2.20744 0
M  V30 12513 C 1177.78 2.96046 1.84818 0
M  V30 12514 C 1179.13 3.50895 2.39076 0
M  V30 12515 O 1180.15 2.98126 1.94934 0
M  V30 12516 O 1179.01 4.43163 3.19794 0
M  V30 12517 H 1176.11 0.649202 0.512315 0
M  V30 12518 H 1178.65 1.65826 0.360537 0
M  V30 12519 H 1177.43 3.73929 1.15296 0
M  V30 12520 H 1177.05 2.94395 2.6724 0
M  V30 12521 N 1178.05 -0.61812 1.44973 0
M  V30 12522 C 1179.29 -1.37944 1.48658 0
M  V30 12523 C 1179.62 -1.93805 0.123749 0
M  V30 12524 O 1178.9 -1.74434 -0.860401 0
M  V30 12525 C 1179.18 -2.53515 2.55739 0
M  V30 12526 C 1179.04 -2.02918 4.01428 0
M  V30 12527 C 1180.35 -3.55674 2.59199 0
M  V30 12528 H 1177.47 -0.500223 0.541244 0
M  V30 12529 H 1180.12 -0.69774 1.76725 0
M  V30 12530 H 1178.27 -3.11669 2.31937 0
M  V30 12531 H 1179.94 -1.49494 4.36405 0
M  V30 12532 H 1178.18 -1.33999 4.12586 0
M  V30 12533 H 1178.85 -2.86181 4.72021 0
M  V30 12534 H 1181.33 -3.07343 2.80499 0
M  V30 12535 H 1180.2 -4.34042 3.36004 0
M  V30 12536 H 1180.46 -4.10601 1.63888 0
M  V30 12537 N 1179.52 -1.32087 -0.859693 0
M  V30 12538 C 1180.77 -1.22119 -1.61033 0
M  V30 12539 C 1181.09 0.218289 -1.93774 0
M  V30 12540 O 1180.36 1.14172 -1.5919 0
M  V30 12541 H 1178.94 -0.448989 -0.597008 0
M  V30 12542 H 1181.6 -1.65545 -1.02863 0
M  V30 12543 H 1180.7 -1.80023 -2.54947 0
M  V30 12544 N 1181 1.07532 -1.15215 0
M  V30 12545 C 1182.25 1.80093 -0.925891 0
M  V30 12546 C 1182.58 1.86648 0.547079 0
M  V30 12547 O 1181.83 1.34492 1.42164 0
M  V30 12548 C 1182.13 3.2518 -1.483 0
M  V30 12549 C 1181.8 3.38728 -2.97614 0
M  V30 12550 C 1180.46 3.42133 -3.38376 0
M  V30 12551 C 1182.81 3.41676 -3.93583 0
M  V30 12552 C 1180.14 3.46086 -4.73752 0
M  V30 12553 C 1182.49 3.47166 -5.28828 0
M  V30 12554 C 1181.15 3.48847 -5.69089 0
M  V30 12555 H 1180.42 0.659007 -0.338808 0
M  V30 12556 H 1183.07 1.26548 -1.43728 0
M  V30 12557 H 1181.38 3.81493 -0.892751 0
M  V30 12558 H 1183.07 3.79895 -1.28376 0
M  V30 12559 H 1179.66 3.36775 -2.65105 0
M  V30 12560 H 1183.85 3.38268 -3.63165 0
M  V30 12561 H 1179.1 3.45686 -5.04293 0
M  V30 12562 H 1183.28 3.48393 -6.02989 0
M  V30 12563 H 1180.9 3.51663 -6.73971 0
M  V30 12564 N 1182.48 0.948665 1.2585 0
M  V30 12565 C 1183.44 0.468673 2.24357 0
M  V30 12566 C 1184.44 -0.424355 1.551 0
M  V30 12567 O 1185.63 -0.222481 1.72773 0
M  V30 12568 C 1182.77 -0.32359 3.39361 0
M  V30 12569 H 1183.96 1.33928 2.68334 0
M  V30 12570 H 1181.51 0.731357 1.38133 0
M  V30 12571 H 1182.25 -1.21212 3.00796 0
M  V30 12572 H 1182.03 0.316998 3.90816 0
M  V30 12573 H 1183.52 -0.649087 4.12525 0
M  V30 12574 N 1183.96 -1.40369 0.716545 0
M  V30 12575 C 1184.89 -2.28196 0.013671 0
M  V30 12576 C 1185.87 -1.4339 -0.766685 0
M  V30 12577 O 1187.05 -1.72801 -0.753123 0
M  V30 12578 C 1184.18 -3.23969 -0.988006 0
M  V30 12579 C 1183.23 -4.25455 -0.298345 0
M  V30 12580 S 1184.06 -5.26559 0.974456 0
M  V30 12581 C 1185.22 -6.25895 -0.0250932 0
M  V30 12582 H 1185.45 -2.87461 0.758526 0
M  V30 12583 H 1182.98 -1.45817 0.507606 0
M  V30 12584 H 1184.94 -3.79674 -1.56071 0
M  V30 12585 H 1183.6 -2.63759 -1.70557 0
M  V30 12586 H 1182.79 -4.92821 -1.05561 0
M  V30 12587 H 1182.4 -3.73455 0.201828 0
M  V30 12588 H 1184.69 -6.7187 -0.871615 0
M  V30 12589 H 1185.63 -7.05422 0.615206 0
M  V30 12590 H 1186.04 -5.63156 -0.389248 0
M  V30 12591 N 1185.44 -0.462799 -1.50652 0
M  V30 12592 C 1186.68 0.0948568 -2.01877 0
M  V30 12593 C 1187.01 1.4096 -1.34741 0
M  V30 12594 O 1186.28 1.89671 -0.49006 0
M  V30 12595 H 1184.86 0.0380453 -0.746031 0
M  V30 12596 H 1187.52 -0.611327 -1.85064 0
M  V30 12597 H 1186.61 0.252378 -3.11078 0
M  V30 12598 N 1186.91 1.56388 -0.195085 0
M  V30 12599 C 1188.16 1.96755 0.443901 0
M  V30 12600 C 1188.48 1.08483 1.6276 0
M  V30 12601 O 1189.68 1.38632 2.33438 0
M  V30 12602 C 1188.14 3.49933 0.841139 0
M  V30 12603 C 1187.75 4.46868 -0.318275 0
M  V30 12604 C 1189.49 3.99069 1.44721 0
M  V30 12605 C 1187.4 5.91316 0.0999211 0
M  V30 12606 H 1186.33 0.734674 0.169616 0
M  V30 12607 H 1188.98 1.8124 -0.287101 0
M  V30 12608 H 1187.36 3.60951 1.62881 0
M  V30 12609 H 1188.53 4.47581 -1.0958 0
M  V30 12610 H 1186.85 4.07925 -0.835842 0
M  V30 12611 H 1189.45 5.04465 1.77255 0
M  V30 12612 H 1189.79 3.43376 2.35369 0
M  V30 12613 H 1190.32 3.91165 0.723513 0
M  V30 12614 H 1187.06 6.50934 -0.77237 0
M  V30 12615 H 1186.58 5.93856 0.842304 0
M  V30 12616 H 1188.26 6.44778 0.535726 0
M  V30 12617 N 1188.39 -0.0785156 1.57404 0
M  V30 12618 C 1189.36 -1.07835 2.02248 0
M  V30 12619 C 1190.36 -1.31987 0.918475 0
M  V30 12620 O 1191.55 -1.27821 1.18353 0
M  V30 12621 C 1188.68 -2.42361 2.39737 0
M  V30 12622 H 1189.87 -0.691995 2.91807 0
M  V30 12623 H 1187.42 -0.32405 1.52904 0
M  V30 12624 H 1188.16 -2.85841 1.53183 0
M  V30 12625 H 1187.94 -2.26174 3.20293 0
M  V30 12626 H 1189.43 -3.14241 2.75031 0
M  V30 12627 N 1189.87 -1.5367 -0.349747 0
M  V30 12628 C 1191.12 -1.70281 -1.08853 0
M  V30 12629 C 1191.44 -0.465438 -1.89364 0
M  V30 12630 O 1190.71 0.520615 -1.88856 0
M  V30 12631 H 1189.29 -0.627775 -0.404854 0
M  V30 12632 H 1191.95 -1.90906 -0.392523 0
M  V30 12633 H 1191.05 -2.57096 -1.76941 0
M  V30 12634 N 1191.35 0.610423 -1.45298 0
M  V30 12635 C 1192.58 1.39621 -1.52688 0
M  V30 12636 C 1192.99 1.88133 -0.158535 0
M  V30 12637 O 1192.35 1.62051 0.839396 0
M  V30 12638 C 1192.4 2.60261 -2.50891 0
M  V30 12639 O 1192.12 2.13766 -3.82408 0
M  V30 12640 C 1193.62 3.53154 -2.6795 0
M  V30 12641 H 1190.84 0.427493 -0.517195 0
M  V30 12642 H 1193.39 0.744701 -1.90459 0
M  V30 12643 H 1191.54 3.2146 -2.162 0
M  V30 12644 H 1191.95 2.92128 -4.35616 0
M  V30 12645 H 1193.43 4.34355 -3.40647 0
M  V30 12646 H 1193.91 4.03311 -1.73888 0
M  V30 12647 H 1194.51 2.9781 -3.03627 0
M  V30 12648 N 1192.83 1.32541 0.852676 0
M  V30 12649 C 1194.1 1.1383 1.59067 0
M  V30 12650 C 1194.48 -0.300584 2.08949 0
M  V30 12651 O 1193.83 -1.29751 1.88088 0
M  V30 12652 C 1194.04 2.16758 2.73527 0
M  V30 12653 C 1195.39 2.50194 3.43057 0
M  V30 12654 O 1196.41 2.15319 2.83754 0
M  V30 12655 O 1195.27 3.09985 4.50079 0
M  V30 12656 H 1192.37 0.439379 0.700625 0
M  V30 12657 H 1194.91 1.44078 0.896632 0
M  V30 12658 H 1193.68 3.13469 2.34207 0
M  V30 12659 H 1193.31 1.87515 3.50605 0
M  V30 12660 N 1194.3 -1.0692 1.15784 0
M  V30 12661 C 1195.55 -1.79866 0.936815 0
M  V30 12662 C 1195.88 -1.867 -0.534477 0
M  V30 12663 O 1195.16 -1.35395 -1.39637 0
M  V30 12664 C 1195.44 -3.24691 1.55717 0
M  V30 12665 C 1195.29 -3.25975 3.09936 0
M  V30 12666 C 1196.61 -4.22076 1.24658 0
M  V30 12667 H 1193.73 -0.652971 0.341756 0
M  V30 12668 H 1196.37 -1.25085 1.43016 0
M  V30 12669 H 1194.52 -3.7147 1.13763 0
M  V30 12670 H 1196.2 -2.87405 3.60827 0
M  V30 12671 H 1194.44 -2.64808 3.43597 0
M  V30 12672 H 1195.11 -4.28114 3.48458 0
M  V30 12673 H 1197.59 -3.83709 1.60956 0
M  V30 12674 H 1196.46 -5.21691 1.70675 0
M  V30 12675 H 1196.72 -4.41794 0.164341 0
M  V30 12676 N 1195.78 -0.955326 -1.25345 0
M  V30 12677 C 1196.75 -0.480564 -2.24105 0
M  V30 12678 C 1197.75 0.416123 -1.55322 0
M  V30 12679 O 1198.94 0.213315 -1.72889 0
M  V30 12680 C 1196.07 0.305589 -3.39528 0
M  V30 12681 H 1197.26 -1.35349 -2.6762 0
M  V30 12682 H 1194.81 -0.738673 -1.37744 0
M  V30 12683 H 1195.55 1.19615 -3.01434 0
M  V30 12684 H 1195.33 -0.337719 -3.90643 0
M  V30 12685 H 1196.82 0.627201 -4.12863 0
M  V30 12686 N 1197.26 1.39987 -0.723979 0
M  V30 12687 C 1198.21 2.30672 -0.0768286 0
M  V30 12688 C 1199.18 1.48634 0.741422 0
M  V30 12689 O 1200.36 1.77351 0.703649 0
M  V30 12690 C 1197.5 3.34902 0.832729 0
M  V30 12691 C 1196.62 4.32 0.00304942 0
M  V30 12692 C 1195.75 5.23298 0.91286 0
M  V30 12693 C 1194.79 6.12051 0.0777706 0
M  V30 12694 N 1193.93 6.9574 0.942912 0
M  V30 12695 H 1198.77 2.85446 -0.855832 0
M  V30 12696 H 1196.3 1.40561 -0.433718 0
M  V30 12697 H 1198.26 3.93911 1.37441 0
M  V30 12698 H 1196.89 2.81611 1.57782 0
M  V30 12699 H 1195.94 3.74702 -0.655916 0
M  V30 12700 H 1197.26 4.94637 -0.643124 0
M  V30 12701 H 1196.41 5.87279 1.52277 0
M  V30 12702 H 1195.15 4.60956 1.59284 0
M  V30 12703 H 1194.15 5.47092 -0.545022 0
M  V30 12704 H 1195.38 6.76455 -0.598827 0
M  V30 12705 H 1193.33 6.35977 1.60838 0
M  V30 12706 H 1193.24 7.55176 0.352968 0
M  V30 12707 H 1194.51 7.64162 1.53874 0
M  V30 12708 N 1198.74 0.470782 1.50404 0
M  V30 12709 C 1199.65 -0.328877 2.32283 0
M  V30 12710 C 1200.67 -0.99629 1.42654 0
M  V30 12711 O 1201.84 -0.984331 1.75707 0
M  V30 12712 C 1198.91 -1.39675 3.1732 0
M  V30 12713 C 1197.97 -0.745965 4.22769 0
M  V30 12714 C 1197.2 -1.76295 5.03742 0
M  V30 12715 O 1197.42 -2.98943 4.85788 0
M  V30 12716 O 1196.36 -1.33495 5.86909 0
M  V30 12717 H 1200.18 0.340491 3.01785 0
M  V30 12718 H 1197.77 0.232637 1.47578 0
M  V30 12719 H 1199.65 -2.0153 3.70086 0
M  V30 12720 H 1198.33 -2.04959 2.50546 0
M  V30 12721 H 1197.23 -0.0884647 3.73995 0
M  V30 12722 H 1198.57 -0.136074 4.92012 0
M  V30 12723 N 1200.22 -1.56282 0.203376 0
M  V30 12724 C 1201.18 -2.18233 -0.700489 0
M  V30 12725 C 1202.18 -1.13908 -1.13497 0
M  V30 12726 O 1203.37 -1.39246 -1.04672 0
M  V30 12727 C 1200.5 -2.79107 -1.95735 0
M  V30 12728 H 1201.7 -2.99469 -0.160649 0
M  V30 12729 H 1199.25 -1.56232 -0.0462475 0
M  V30 12730 H 1199.98 -2.01691 -2.53951 0
M  V30 12731 H 1199.77 -3.55486 -1.65446 0
M  V30 12732 H 1201.26 -3.2665 -2.60172 0
M  V30 12733 N 1201.7 0.070167 -1.57444 0
M  V30 12734 C 1202.92 0.785703 -1.91941 0
M  V30 12735 C 1203.35 1.70243 -0.799932 0
M  V30 12736 O 1202.7 1.79608 0.247139 0
M  V30 12737 C 1202.75 1.55398 -3.25398 0
M  V30 12738 O 1201.86 2.66475 -3.14746 0
M  V30 12739 H 1201.2 0.214245 -0.628486 0
M  V30 12740 H 1203.73 0.0379243 -2.04565 0
M  V30 12741 H 1203.74 1.93287 -3.5931 0
M  V30 12742 H 1202.41 0.881366 -4.06454 0
M  V30 12743 H 1200.99 2.3143 -2.92394 0
M  V30 12744 N 1203.17 1.53854 0.341593 0
M  V30 12745 C 1204.45 1.61823 1.09875 0
M  V30 12746 C 1204.83 0.440711 2.06448 0
M  V30 12747 O 1204.18 -0.566833 2.21358 0
M  V30 12748 C 1204.39 2.9799 1.81668 0
M  V30 12749 C 1205.74 3.53411 2.35341 0
M  V30 12750 O 1206.76 3.00177 1.91761 0
M  V30 12751 O 1205.62 4.4653 3.15076 0
M  V30 12752 H 1202.71 0.654599 0.5054 0
M  V30 12753 H 1205.26 1.66199 0.342929 0
M  V30 12754 H 1204.03 3.7513 1.11323 0
M  V30 12755 H 1203.65 2.97213 2.64103 0
M  V30 12756 N 1204.65 -0.602709 1.4562 0
M  V30 12757 C 1205.9 -1.35769 1.49163 0
M  V30 12758 C 1206.21 -1.95102 0.139485 0
M  V30 12759 O 1207.42 -2.71449 0.0525919 0
M  V30 12760 C 1205.88 -2.45959 2.62739 0
M  V30 12761 C 1205.48 -1.93017 4.04288 0
M  V30 12762 C 1207.23 -3.22926 2.75534 0
M  V30 12763 C 1205.13 -3.00718 5.09237 0
M  V30 12764 H 1204.06 -0.510317 0.555061 0
M  V30 12765 H 1206.72 -0.645434 1.71774 0
M  V30 12766 H 1205.1 -3.19892 2.3342 0
M  V30 12767 H 1206.27 -1.2576 4.43307 0
M  V30 12768 H 1204.59 -1.2878 3.95986 0
M  V30 12769 H 1207.18 -4.03267 3.51112 0
M  V30 12770 H 1207.53 -3.74243 1.82339 0
M  V30 12771 H 1208.06 -2.56095 3.04402 0
M  V30 12772 H 1204.8 -2.54312 6.04157 0
M  V30 12773 H 1204.32 -3.66526 4.74783 0
M  V30 12774 H 1206 -3.65016 5.34202 0
M  V30 12775 N 1206.13 -1.32992 -0.845635 0
M  V30 12776 C 1207.38 -1.23415 -1.59536 0
M  V30 12777 C 1207.69 0.200278 -1.94572 0
M  V30 12778 O 1208.9 0.417993 -2.68263 0
M  V30 12779 C 1207.35 -2.16207 -2.8772 0
M  V30 12780 C 1206.96 -3.64782 -2.60073 0
M  V30 12781 C 1208.71 -2.15488 -3.65739 0
M  V30 12782 C 1206.61 -4.49508 -3.84313 0
M  V30 12783 H 1205.54 -0.458366 -0.598679 0
M  V30 12784 H 1208.19 -1.58012 -0.932981 0
M  V30 12785 H 1206.58 -1.74535 -3.55462 0
M  V30 12786 H 1207.75 -4.14852 -2.00585 0
M  V30 12787 H 1206.06 -3.67723 -1.95369 0
M  V30 12788 H 1208.66 -2.76021 -4.57948 0
M  V30 12789 H 1209 -1.14818 -4.00153 0
M  V30 12790 H 1209.54 -2.55487 -3.04912 0
M  V30 12791 H 1206.28 -5.51027 -3.55035 0
M  V30 12792 H 1205.8 -4.04185 -4.43165 0
M  V30 12793 H 1207.48 -4.62969 -4.51961 0
M  V30 12794 N 1207.61 1.06304 -1.1635 0
M  V30 12795 C 1208.54 2.15745 -0.893103 0
M  V30 12796 C 1209.52 1.69341 0.160531 0
M  V30 12797 O 1210.7 1.94196 0.0126526 0
M  V30 12798 C 1207.83 3.45066 -0.393287 0
M  V30 12799 C 1206.79 4.04978 -1.38482 0
M  V30 12800 C 1206.11 5.29507 -0.743409 0
M  V30 12801 C 1207.41 4.4377 -2.75438 0
M  V30 12802 H 1209.11 2.38622 -1.80831 0
M  V30 12803 H 1206.65 1.14681 -0.870878 0
M  V30 12804 H 1208.61 4.20964 -0.191607 0
M  V30 12805 H 1207.33 3.21808 0.557426 0
M  V30 12806 H 1205.99 3.31136 -1.57304 0
M  V30 12807 H 1205.64 5.02545 0.213787 0
M  V30 12808 H 1205.34 5.7055 -1.40521 0
M  V30 12809 H 1206.86 6.08102 -0.551746 0
M  V30 12810 H 1208.28 5.1075 -2.60398 0
M  V30 12811 H 1206.67 4.95797 -3.38091 0
M  V30 12812 H 1207.74 3.54636 -3.30699 0
M  V30 12813 N 1209.09 0.96196 1.24836 0
M  V30 12814 C 1210.31 0.63814 1.96813 0
M  V30 12815 C 1210.73 -0.79127 1.71419 0
M  V30 12816 O 1210.09 -1.5302 0.994546 0
M  V30 12817 C 1210.14 0.89626 3.50213 0
M  V30 12818 O 1209.86 2.26947 3.74735 0
M  V30 12819 C 1211.36 0.585836 4.39412 0
M  V30 12820 H 1208.58 0.238598 0.627146 0
M  V30 12821 H 1211.12 1.28833 1.58815 0
M  V30 12822 H 1209.28 0.292368 3.86295 0
M  V30 12823 H 1209.69 2.34514 4.69152 0
M  V30 12824 H 1211.17 0.816935 5.45921 0
M  V30 12825 H 1211.64 -0.479784 4.36572 0
M  V30 12826 H 1212.25 1.16938 4.08908 0
M  V30 12827 N 1210.56 -1.39601 0.731392 0
M  V30 12828 C 1211.84 -1.94531 0.20422 0
M  V30 12829 C 1212.22 -1.66845 -1.29329 0
M  V30 12830 O 1211.57 -0.994706 -2.05713 0
M  V30 12831 C 1211.78 -3.44891 0.53395 0
M  V30 12832 C 1213.13 -4.21863 0.481298 0
M  V30 12833 O 1214.15 -3.53073 0.470929 0
M  V30 12834 O 1213.01 -5.44452 0.472663 0
M  V30 12835 H 1210.1 -0.826214 0.0360436 0
M  V30 12836 H 1212.65 -1.49121 0.810005 0
M  V30 12837 H 1211.42 -3.58463 1.56907 0
M  V30 12838 H 1211.04 -3.97472 -0.10099 0
M  V30 12839 N 1212.04 -0.478751 -1.50152 0
M  V30 12840 C 1213.32 0.135533 -1.9513 0
M  V30 12841 C 1213.7 1.56253 -1.41944 0
M  V30 12842 O 1213.05 2.19824 -0.623673 0
M  V30 12843 C 1213.26 0.0710037 -3.48928 0
M  V30 12844 C 1214.61 0.256075 -4.23827 0
M  V30 12845 O 1215.63 0.147234 -3.55896 0
M  V30 12846 O 1214.49 0.476741 -5.44417 0
M  V30 12847 H 1211.58 0.107491 -0.819985 0
M  V30 12848 H 1214.13 -0.539701 -1.60889 0
M  V30 12849 H 1212.9 -0.925012 -3.80209 0
M  V30 12850 H 1212.52 0.787362 -3.89726 0
M  V30 12851 N 1213.52 1.56172 -0.211661 0
M  V30 12852 C 1214.47 2.21206 0.719063 0
M  V30 12853 C 1215.46 1.18835 1.20725 0
M  V30 12854 O 1216.67 1.36939 1.16823 0
M  V30 12855 H 1213.04 0.709129 0.250279 0
M  V30 12856 H 1215.01 2.98038 0.147022 0
M  V30 12857 C 1213.76 2.89826 1.92084 0
M  V30 12858 H 1213.09 3.68351 1.55428 0
M  V30 12859 H 1214.53 3.38744 2.55006 0
M  V30 12860 C 1212.99 1.91756 2.77004 0
M  V30 12861 O 1213.52 1.42826 3.75451 0
M  V30 12862 N 1211.72 1.59622 2.42836 0
M  V30 12863 H 1211.27 1.99606 1.62835 0
M  V30 12864 H 1211.23 0.942641 2.99936 0
M  V30 12865 N 1215 -0.0618163 1.57479 0
M  V30 12866 C 1216.25 -0.759069 1.87735 0
M  V30 12867 C 1216.57 -1.77071 0.804732 0
M  V30 12868 O 1215.83 -1.94694 -0.198173 0
M  V30 12869 C 1216.13 -1.4939 3.2468 0
M  V30 12870 C 1215.79 -0.621312 4.46599 0
M  V30 12871 C 1214.46 -0.380873 4.7969 0
M  V30 12872 C 1216.81 -0.0168537 5.21197 0
M  V30 12873 C 1214.14 0.473341 5.84787 0
M  V30 12874 C 1216.49 0.824872 6.27199 0
M  V30 12875 C 1215.15 1.07509 6.58785 0
M  V30 12876 H 1214.42 -0.277763 0.686971 0
M  V30 12877 H 1217.07 -0.0195971 1.9149 0
M  V30 12878 H 1215.37 -2.30584 3.16762 0
M  V30 12879 H 1217.07 -2.03837 3.45328 0
M  V30 12880 H 1213.66 -0.818848 4.20705 0
M  V30 12881 H 1217.84 -0.189707 4.95937 0
M  V30 12882 H 1213.1 0.675842 6.07653 0
M  V30 12883 H 1217.27 1.29993 6.8416 0
M  V30 12884 H 1214.9 1.73876 7.40048 0
M  V30 12885 N 1216.48 -1.54033 -0.333429 0
M  V30 12886 C 1217.7 -1.75716 -1.09232 0
M  V30 12887 C 1218.12 -0.501076 -1.82029 0
M  V30 12888 O 1217.48 0.527772 -1.74702 0
M  V30 12889 C 1217.53 -2.9439 -2.09802 0
M  V30 12890 O 1217.25 -4.15141 -1.39963 0
M  V30 12891 C 1218.75 -3.28206 -2.97987 0
M  V30 12892 H 1215.97 -0.586859 -0.325326 0
M  V30 12893 H 1218.51 -2.0089 -0.382555 0
M  V30 12894 H 1216.67 -2.71518 -2.76327 0
M  V30 12895 H 1217.08 -4.81826 -2.0723 0
M  V30 12896 H 1218.56 -4.14568 -3.64469 0
M  V30 12897 H 1219.03 -2.44944 -3.64553 0
M  V30 12898 H 1219.64 -3.5312 -2.37036 0
M  V30 12899 N 1217.95 0.594978 -1.45938 0
M  V30 12900 C 1219.18 1.38482 -1.54394 0
M  V30 12901 C 1219.6 1.87222 -0.181563 0
M  V30 12902 O 1218.96 1.60869 0.836119 0
M  V30 12903 C 1219.01 2.55676 -2.54287 0
M  V30 12904 O 1218.11 3.5672 -2.06941 0
M  V30 12905 H 1217.46 0.412918 -0.519995 0
M  V30 12906 H 1219.99 0.722899 -1.91404 0
M  V30 12907 H 1220 3.02756 -2.73501 0
M  V30 12908 H 1218.67 2.19552 -3.53228 0
M  V30 12909 H 1217.25 3.16204 -1.97661 0
M  V30 12910 N 1219.43 1.33438 0.838571 0
M  V30 12911 C 1220.68 1.24259 1.58879 0
M  V30 12912 C 1220.99 -0.189957 1.94675 0
M  V30 12913 O 1222.2 -0.40376 2.68481 0
M  V30 12914 C 1220.66 2.1773 2.86569 0
M  V30 12915 C 1220.26 3.66156 2.58135 0
M  V30 12916 C 1222.01 2.17424 3.64591 0
M  V30 12917 C 1219.92 4.5154 3.81923 0
M  V30 12918 H 1218.85 0.461534 0.59624 0
M  V30 12919 H 1221.5 1.58504 0.924588 0
M  V30 12920 H 1219.88 1.76418 3.54532 0
M  V30 12921 H 1221.05 4.1591 1.98382 0
M  V30 12922 H 1219.37 3.68754 1.93416 0
M  V30 12923 H 1221.96 2.78446 4.56478 0
M  V30 12924 H 1222.31 1.16939 3.99539 0
M  V30 12925 H 1222.84 2.571 3.03553 0
M  V30 12926 H 1219.58 5.52902 3.52107 0
M  V30 12927 H 1219.1 4.06529 4.41015 0
M  V30 12928 H 1220.78 4.65359 4.495 0
M  V30 12929 N 1220.91 -1.05686 1.16912 0
M  V30 12930 C 1222.16 -1.78862 0.955839 0
M  V30 12931 C 1222.49 -1.87257 -0.514645 0
M  V30 12932 O 1221.76 -1.36869 -1.38193 0
M  V30 12933 C 1222.05 -3.23021 1.59152 0
M  V30 12934 C 1221.9 -3.22669 3.13376 0
M  V30 12935 C 1223.22 -4.2073 1.29128 0
M  V30 12936 H 1220.34 -0.64931 0.348663 0
M  V30 12937 H 1222.98 -1.23561 1.44335 0
M  V30 12938 H 1221.13 -3.70243 1.17697 0
M  V30 12939 H 1222.8 -2.83562 3.63855 0
M  V30 12940 H 1221.05 -2.61149 3.46386 0
M  V30 12941 H 1221.72 -4.24394 3.52979 0
M  V30 12942 H 1224.19 -3.8198 1.65017 0
M  V30 12943 H 1223.07 -5.19851 1.76198 0
M  V30 12944 H 1223.33 -4.41595 0.21119 0
M  V30 12945 N 1222.39 -0.968567 -1.24324 0
M  V30 12946 C 1223.34 -0.498817 -2.25345 0
M  V30 12947 C 1224.31 0.456082 -1.59716 0
M  V30 12948 O 1225.49 0.366254 -1.87252 0
M  V30 12949 C 1222.63 0.204027 -3.44496 0
M  V30 12950 C 1221.74 -0.789741 -4.2472 0
M  V30 12951 C 1220.88 -0.0629156 -5.31163 0
M  V30 12952 C 1219.92 -1.04669 -6.03084 0
M  V30 12953 N 1219.05 -0.349812 -7.01228 0
M  V30 12954 H 1223.89 -1.36511 -2.64894 0
M  V30 12955 H 1221.43 -0.684288 -1.30215 0
M  V30 12956 H 1223.39 0.628223 -4.12443 0
M  V30 12957 H 1222.02 1.03426 -3.05782 0
M  V30 12958 H 1221.07 -1.33237 -3.56303 0
M  V30 12959 H 1222.38 -1.53988 -4.74436 0
M  V30 12960 H 1221.54 0.419233 -6.0525 0
M  V30 12961 H 1220.28 0.719915 -4.82357 0
M  V30 12962 H 1219.28 -1.53971 -5.278 0
M  V30 12963 H 1220.51 -1.82998 -6.53979 0
M  V30 12964 H 1218.45 0.414026 -6.54692 0
M  V30 12965 H 1218.37 -1.03881 -7.48829 0
M  V30 12966 H 1219.64 0.11034 -7.79422 0
M  V30 12967 N 1223.87 1.39211 -0.738786 0
M  V30 12968 C 1224.83 2.28937 -0.109746 0
M  V30 12969 C 1225.83 1.46488 0.663157 0
M  V30 12970 O 1227.02 1.67119 0.491614 0
M  V30 12971 C 1224.15 3.30039 0.853633 0
M  V30 12972 H 1225.34 2.86068 -0.900295 0
M  V30 12973 H 1222.9 1.47922 -0.504853 0
M  V30 12974 H 1223.63 2.77971 1.6704 0
M  V30 12975 H 1223.42 3.90935 0.302007 0
M  V30 12976 H 1224.91 3.97169 1.29022 0
M  V30 12977 N 1225.34 0.486708 1.49896 0
M  V30 12978 C 1226.59 -0.0629451 2.02702 0
M  V30 12979 C 1226.92 -1.37956 1.36681 0
M  V30 12980 O 1226.2 -1.88025 0.497678 0
M  V30 12981 C 1226.48 -0.230461 3.59362 0
M  V30 12982 C 1226.33 1.10828 4.35933 0
M  V30 12983 C 1227.65 -0.977785 4.29101 0
M  V30 12984 H 1224.77 -0.0214017 0.736689 0
M  V30 12985 H 1227.41 0.635339 1.79063 0
M  V30 12986 H 1225.56 -0.825222 3.79634 0
M  V30 12987 H 1227.24 1.74082 4.27192 0
M  V30 12988 H 1225.48 1.7011 3.99055 0
M  V30 12989 H 1226.15 0.944532 5.43859 0
M  V30 12990 H 1228.63 -0.473505 4.13397 0
M  V30 12991 H 1227.5 -1.06382 5.38492 0
M  V30 12992 H 1227.76 -2.01813 3.9335 0
M  V30 12993 N 1226.82 -1.56058 0.219941 0
M  V30 12994 C 1227.76 -2.16182 -0.730796 0
M  V30 12995 C 1228.73 -1.10574 -1.19215 0
M  V30 12996 O 1229.92 -1.38821 -1.27518 0
M  V30 12997 C 1227.05 -2.7408 -1.98992 0
M  V30 12998 C 1226.09 -3.92502 -1.66867 0
M  V30 12999 S 1226.92 -5.29568 -0.794875 0
M  V30 13000 C 1228.08 -5.90903 -2.0636 0
M  V30 13001 H 1228.31 -2.96487 -0.219762 0
M  V30 13002 H 1225.85 -1.54399 0.00465254 0
M  V30 13003 H 1227.8 -3.08078 -2.7129 0
M  V30 13004 H 1226.47 -1.93771 -2.47207 0
M  V30 13005 H 1225.66 -4.31509 -2.60414 0
M  V30 13006 H 1225.26 -3.59642 -1.02633 0
M  V30 13007 H 1227.55 -6.06778 -3.01374 0
M  V30 13008 H 1228.5 -6.86957 -1.71745 0
M  V30 13009 H 1228.9 -5.19722 -2.2034 0
M  V30 13010 N 1228.3 0.053464 -1.57509 0
M  V30 13011 C 1229.55 0.744867 -1.8927 0
M  V30 13012 C 1229.9 1.74249 -0.815791 0
M  V30 13013 O 1229.2 1.9077 0.178187 0
M  V30 13014 C 1229.39 1.47666 -3.25468 0
M  V30 13015 C 1229.22 0.551427 -4.46306 0
M  V30 13016 C 1227.99 0.181517 -5.04974 0
M  V30 13017 C 1230.19 -0.159765 -5.14052 0
M  V30 13018 N 1228.17 -0.747526 -6.09332 0
M  V30 13019 C 1229.54 -0.94533 -6.12751 0
M  V30 13020 C 1231.59 -0.2293 -4.97372 0
M  V30 13021 C 1230.3 -1.794 -6.96569 0
M  V30 13022 C 1232.32 -1.065 -5.81732 0
M  V30 13023 C 1231.69 -1.83856 -6.79983 0
M  V30 13024 H 1227.78 0.247424 -0.741826 0
M  V30 13025 H 1230.37 0.00570542 -1.94699 0
M  V30 13026 H 1228.54 2.18643 -3.21014 0
M  V30 13027 H 1230.27 2.11852 -3.4482 0
M  V30 13028 H 1227.03 0.538408 -4.7053 0
M  V30 13029 H 1227.45 -1.20583 -6.66175 0
M  V30 13030 H 1232.09 0.354441 -4.21312 0
M  V30 13031 H 1229.81 -2.38864 -7.71991 0
M  V30 13032 H 1233.4 -1.12202 -5.70878 0
M  V30 13033 H 1232.28 -2.47479 -7.44126 0
M  V30 13034 N 1229.78 1.54207 0.325255 0
M  V30 13035 C 1231.03 1.71991 1.0613 0
M  V30 13036 C 1231.35 0.495505 1.88599 0
M  V30 13037 O 1230.62 -0.490504 1.8966 0
M  V30 13038 H 1229.2 0.634137 0.394816 0
M  V30 13039 H 1231.86 1.91507 0.362101 0
M  V30 13040 H 1230.96 2.59878 1.72829 0
M  V30 13041 N 1231.26 -0.58723 1.46251 0
M  V30 13042 C 1232.67 -0.910129 1.31106 0
M  V30 13043 C 1232.87 -1.99557 0.279141 0
M  V30 13044 O 1231.93 -2.50466 -0.319867 0
M  V30 13045 C 1233.24 -1.33177 2.69601 0
M  V30 13046 C 1234.79 -1.44486 2.77656 0
M  V30 13047 C 1235.27 -1.90018 4.16722 0
M  V30 13048 N 1236.76 -1.97219 4.19117 0
M  V30 13049 C 1237.49 -2.33714 5.23608 0
M  V30 13050 N 1236.99 -2.69034 6.3843 0
M  V30 13051 N 1238.78 -2.3423 5.10972 0
M  V30 13052 H 1230.93 0.12987 2.12003 0
M  V30 13053 H 1233.19 -0.00456718 0.947989 0
M  V30 13054 H 1232.9 -0.608243 3.464 0
M  V30 13055 H 1232.77 -2.29421 2.99409 0
M  V30 13056 H 1235.16 -2.15926 2.01147 0
M  V30 13057 H 1235.24 -0.465047 2.51537 0
M  V30 13058 H 1234.89 -1.19159 4.93724 0
M  V30 13059 H 1234.82 -2.88949 4.40245 0
M  V30 13060 H 1237.31 -1.72431 3.36268 0
M  V30 13061 H 1237.62 -2.95822 7.13939 0
M  V30 13062 H 1235.97 -2.66683 6.41798 0
M  V30 13063 H 1239.16 -2.06056 4.20308 0
M  V30 13064 H 1239.33 -2.62345 5.92519 0
M  V30 13065 N 1232.74 -1.33881 -0.831482 0
M  V30 13066 C 1233.68 -1.24741 -1.96322 0
M  V30 13067 C 1234.68 -0.147251 -1.68759 0
M  V30 13068 O 1235.88 -0.311684 -1.77281 0
M  V30 13069 H 1232.26 -0.387298 -0.644596 0
M  V30 13070 H 1234.23 -2.20407 -2.01155 0
M  V30 13071 C 1232.98 -1.01102 -3.32677 0
M  V30 13072 H 1232.3 -1.84986 -3.54429 0
M  V30 13073 H 1233.74 -0.987398 -4.12343 0
M  V30 13074 C 1232.2 0.285903 -3.35685 0
M  V30 13075 O 1232.73 1.29014 -3.80419 0
M  V30 13076 N 1230.94 0.316026 -2.88877 0
M  V30 13077 H 1230.48 -0.501758 -2.52666 0
M  V30 13078 H 1230.44 1.18357 -2.91271 0
M  V30 13079 N 1234.21 1.05064 -1.1747 0
M  V30 13080 C 1235.46 1.78352 -0.965311 0
M  V30 13081 C 1235.79 1.87527 0.504707 0
M  V30 13082 O 1235.07 1.376 1.37465 0
M  V30 13083 C 1235.35 3.22173 -1.60862 0
M  V30 13084 C 1235.2 3.21003 -3.15083 0
M  V30 13085 C 1236.52 4.2004 -1.31358 0
M  V30 13086 H 1233.64 0.647452 -0.352101 0
M  V30 13087 H 1236.28 1.22794 -1.44988 0
M  V30 13088 H 1234.43 3.69613 -1.19658 0
M  V30 13089 H 1236.11 2.81629 -3.65353 0
M  V30 13090 H 1234.35 2.59309 -3.47766 0
M  V30 13091 H 1235.02 4.22516 -3.55224 0
M  V30 13092 H 1237.5 3.81099 -1.6704 0
M  V30 13093 H 1236.37 5.1891 -1.78953 0
M  V30 13094 H 1236.63 4.41477 -0.234606 0
M  V30 13095 N 1235.69 0.975146 1.23809 0
M  V30 13096 C 1236.92 0.658023 1.95841 0
M  V30 13097 C 1237.33 -0.778132 1.72458 0
M  V30 13098 O 1236.67 -1.53462 1.00971 0
M  V30 13099 C 1236.73 0.862038 3.49012 0
M  V30 13100 C 1236.4 2.27925 3.96105 0
M  V30 13101 C 1237.4 3.25755 4.05191 0
M  V30 13102 C 1235.08 2.60894 4.29231 0
M  V30 13103 C 1237.07 4.54636 4.46749 0
M  V30 13104 C 1234.76 3.89999 4.70472 0
M  V30 13105 C 1235.76 4.86682 4.79197 0
M  V30 13106 O 1235.45 6.13483 5.19513 0
M  V30 13107 H 1235.18 0.243915 0.630461 0
M  V30 13108 H 1237.73 1.30768 1.58395 0
M  V30 13109 H 1235.96 0.155209 3.86388 0
M  V30 13110 H 1237.65 0.542873 4.02253 0
M  V30 13111 H 1238.42 3.01614 3.79808 0
M  V30 13112 H 1234.3 1.86355 4.21655 0
M  V30 13113 H 1237.84 5.30101 4.53474 0
M  V30 13114 H 1233.74 4.13937 4.95304 0
M  V30 13115 H 1234.51 6.17158 5.37641 0
M  V30 13116 N 1237.17 -1.38817 0.746158 0
M  V30 13117 C 1238.45 -1.94303 0.224841 0
M  V30 13118 C 1238.83 -1.68207 -1.27552 0
M  V30 13119 O 1238.17 -1.01647 -2.04646 0
M  V30 13120 C 1238.38 -3.44306 0.5705 0
M  V30 13121 C 1239.73 -4.21329 0.526015 0
M  V30 13122 O 1240.76 -3.52554 0.508351 0
M  V30 13123 O 1239.62 -5.4392 0.530383 0
M  V30 13124 H 1236.71 -0.825785 0.0448047 0
M  V30 13125 H 1239.26 -1.48253 0.825775 0
M  V30 13126 H 1238.03 -3.56779 1.60701 0
M  V30 13127 H 1237.65 -3.97556 -0.0588271 0
M  V30 13128 N 1238.65 -0.49465 -1.49636 0
M  V30 13129 C 1239.87 0.051305 -2.07337 0
M  V30 13130 C 1240.3 1.30637 -1.35335 0
M  V30 13131 O 1239.66 1.76647 -0.408126 0
M  V30 13132 C 1239.7 0.294425 -3.59396 0
M  V30 13133 O 1238.81 1.3704 -3.88965 0
M  V30 13134 H 1238.15 -0.023408 -0.663587 0
M  V30 13135 H 1240.68 -0.692451 -1.92526 0
M  V30 13136 H 1240.69 0.527854 -4.04571 0
M  V30 13137 H 1239.36 -0.622583 -4.11214 0
M  V30 13138 H 1237.94 1.12242 -3.55607 0
M  V30 13139 N 1240.13 1.55939 -0.228214 0
M  V30 13140 C 1241.37 1.97652 0.402067 0
M  V30 13141 C 1241.69 1.11911 1.60422 0
M  V30 13142 O 1242.89 1.43552 2.30445 0
M  V30 13143 C 1241.35 3.51638 0.766724 0
M  V30 13144 C 1240.96 4.46092 -0.412991 0
M  V30 13145 C 1242.7 4.02049 1.36224 0
M  V30 13146 C 1240.61 5.91394 -0.0255281 0
M  V30 13147 H 1239.54 0.738107 0.153994 0
M  V30 13148 H 1242.19 1.8059 -0.32548 0
M  V30 13149 H 1240.57 3.64325 1.55188 0
M  V30 13150 H 1241.75 4.45156 -1.19049 0
M  V30 13151 H 1240.06 4.0606 -0.92218 0
M  V30 13152 H 1242.66 5.08111 1.66514 0
M  V30 13153 H 1243 3.48292 2.28032 0
M  V30 13154 H 1243.53 3.92612 0.640378 0
M  V30 13155 H 1240.27 6.49149 -0.910269 0
M  V30 13156 H 1239.79 5.95509 0.716149 0
M  V30 13157 H 1241.47 6.4577 0.398839 0
M  V30 13158 N 1241.6 -0.0451101 1.57535 0
M  V30 13159 C 1242.83 -0.755068 1.93167 0
M  V30 13160 C 1243.25 -1.68949 0.826915 0
M  V30 13161 O 1242.61 -1.79978 -0.218534 0
M  V30 13162 C 1242.66 -1.50201 3.27829 0
M  V30 13163 O 1241.76 -2.61434 3.18945 0
M  V30 13164 H 1241.11 -0.204219 0.631815 0
M  V30 13165 H 1243.64 -0.00537504 2.04599 0
M  V30 13166 H 1243.65 -1.87547 3.6234 0
M  V30 13167 H 1242.32 -0.816591 4.07805 0
M  V30 13168 H 1240.9 -2.26749 2.96039 0
M  V30 13169 N 1243.08 -1.54377 -0.317073 0
M  V30 13170 C 1244.03 -1.84214 -1.39046 0
M  V30 13171 C 1245 -0.689742 -1.51102 0
M  V30 13172 O 1246.18 -0.936809 -1.66218 0
M  V30 13173 C 1243.32 -2.08087 -2.75307 0
M  V30 13174 C 1242.44 -3.35756 -2.7183 0
M  V30 13175 C 1241.57 -3.49556 -3.9998 0
M  V30 13176 C 1240.61 -4.71076 -3.90837 0
M  V30 13177 N 1239.75 -4.81767 -5.10729 0
M  V30 13178 H 1244.59 -2.75785 -1.12902 0
M  V30 13179 H 1242.13 -1.36575 -0.546404 0
M  V30 13180 H 1244.08 -2.19921 -3.54529 0
M  V30 13181 H 1242.71 -1.19801 -2.99746 0
M  V30 13182 H 1241.77 -3.32627 -1.84563 0
M  V30 13183 H 1243.08 -4.2509 -2.60959 0
M  V30 13184 H 1242.23 -3.60967 -4.87635 0
M  V30 13185 H 1240.97 -2.58326 -4.13665 0
M  V30 13186 H 1239.98 -4.59715 -3.01566 0
M  V30 13187 H 1241.2 -5.63698 -3.78711 0
M  V30 13188 H 1239.15 -3.93455 -5.24908 0
M  V30 13189 H 1239.06 -5.65077 -5.02219 0
M  V30 13190 H 1240.33 -4.97517 -6.00081 0
M  V30 13191 N 1244.56 0.579466 -1.4656 0
M  V30 13192 C 1245.81 1.33756 -1.52038 0
M  V30 13193 C 1246.14 1.93725 -0.173423 0
M  V30 13194 O 1245.39 1.77167 0.831293 0
M  V30 13195 C 1245.69 2.48417 -2.56951 0
M  V30 13196 C 1245.36 2.0642 -4.00876 0
M  V30 13197 C 1244.02 1.94682 -4.4006 0
M  V30 13198 C 1246.37 1.74066 -4.91274 0
M  V30 13199 C 1243.7 1.48852 -5.67503 0
M  V30 13200 C 1246.05 1.29714 -6.19158 0
M  V30 13201 C 1244.71 1.16555 -6.57245 0
M  V30 13202 H 1243.98 0.489447 -0.556347 0
M  V30 13203 H 1246.63 0.652176 -1.80053 0
M  V30 13204 H 1244.94 3.22416 -2.2261 0
M  V30 13205 H 1246.63 3.06629 -2.58418 0
M  V30 13206 H 1243.22 2.16492 -3.69904 0
M  V30 13207 H 1247.41 1.82019 -4.61717 0
M  V30 13208 H 1242.66 1.3731 -5.95782 0
M  V30 13209 H 1246.84 1.03734 -6.88631 0
M  V30 13210 H 1244.46 0.808193 -7.55892 0
M  V30 13211 N 1246.04 1.3432 0.824371 0
M  V30 13212 C 1246.97 1.2842 1.95014 0
M  V30 13213 C 1247.95 0.161925 1.69328 0
M  V30 13214 O 1249.13 0.354052 1.90945 0
M  V30 13215 C 1246.26 1.03741 3.31444 0
M  V30 13216 C 1245.22 2.12419 3.71567 0
M  V30 13217 C 1244.54 1.72931 5.05963 0
M  V30 13218 C 1245.84 3.54235 3.83817 0
M  V30 13219 H 1247.54 2.22614 2.00209 0
M  V30 13220 H 1245.08 1.07165 0.961856 0
M  V30 13221 H 1247.04 0.982586 4.09784 0
M  V30 13222 H 1245.76 0.0598892 3.26545 0
M  V30 13223 H 1244.42 2.16968 2.955 0
M  V30 13224 H 1244.07 0.738433 4.9755 0
M  V30 13225 H 1243.77 2.45668 5.3378 0
M  V30 13226 H 1245.29 1.68941 5.86763 0
M  V30 13227 H 1246.71 3.52106 4.52432 0
M  V30 13228 H 1245.1 4.25581 4.23085 0
M  V30 13229 H 1246.17 3.91682 2.85856 0
M  V30 13230 N 1247.52 -1.0444 1.18026 0
M  V30 13231 C 1248.45 -2.12388 0.86162 0
M  V30 13232 C 1249.46 -1.62204 -0.139196 0
M  V30 13233 O 1250.65 -1.78282 0.0881334 0
M  V30 13234 C 1247.75 -3.37859 0.265407 0
M  V30 13235 C 1246.92 -4.17292 1.31096 0
M  V30 13236 C 1245.98 -5.21096 0.731121 0
M  V30 13237 O 1245.01 -5.5159 1.40488 0
M  V30 13238 N 1246.21 -5.78568 -0.473194 0
M  V30 13239 H 1248.98 -2.40317 1.79074 0
M  V30 13240 H 1246.54 -1.20601 1.08014 0
M  V30 13241 H 1248.53 -4.04472 -0.135976 0
M  V30 13242 H 1247.1 -3.07403 -0.567658 0
M  V30 13243 H 1246.32 -3.46057 1.8878 0
M  V30 13244 H 1247.61 -4.67158 2.01596 0
M  V30 13245 H 1247 -5.56088 -1.03839 0
M  V30 13246 H 1245.56 -6.46665 -0.816545 0
M  V30 13247 N 1248.99 -0.981699 -1.2329 0
M  V30 13248 C 1250.24 -0.651302 -1.9174 0
M  V30 13249 C 1250.57 0.815318 -1.76587 0
M  V30 13250 O 1249.82 1.60377 -1.1215 0
M  V30 13251 C 1250.12 -0.989244 -3.43437 0
M  V30 13252 C 1249.79 -2.44629 -3.78771 0
M  V30 13253 C 1248.45 -2.84449 -3.88127 0
M  V30 13254 C 1250.8 -3.39123 -3.95784 0
M  V30 13255 C 1248.13 -4.17775 -4.11923 0
M  V30 13256 C 1250.48 -4.72095 -4.21081 0
M  V30 13257 C 1249.15 -5.11672 -4.28659 0
M  V30 13258 H 1248.42 -0.238328 -0.701627 0
M  V30 13259 H 1251.06 -1.2358 -1.46288 0
M  V30 13260 H 1249.37 -0.322677 -3.90469 0
M  V30 13261 H 1251.07 -0.711796 -3.94632 0
M  V30 13262 H 1247.66 -2.12759 -3.72064 0
M  V30 13263 H 1251.84 -3.09536 -3.87945 0
M  V30 13264 H 1247.1 -4.48043 -4.16013 0
M  V30 13265 H 1251.27 -5.45271 -4.33189 0
M  V30 13266 H 1248.9 -6.15003 -4.46851 0
M  V30 13267 N 1250.47 1.3842 -0.753509 0
M  V30 13268 C 1251.4 2.29039 -0.0859463 0
M  V30 13269 C 1252.42 1.47742 0.68383 0
M  V30 13270 O 1253.61 1.70607 0.524933 0
M  V30 13271 C 1250.71 3.26668 0.902296 0
M  V30 13272 C 1249.88 4.36986 0.190178 0
M  V30 13273 C 1248.94 5.14805 1.08916 0
M  V30 13274 O 1247.96 5.66441 0.559715 0
M  V30 13275 N 1249.17 5.27777 2.41726 0
M  V30 13276 H 1251.93 2.8697 -0.864196 0
M  V30 13277 H 1249.49 1.502 -0.604288 0
M  V30 13278 H 1251.48 3.75606 1.50672 0
M  V30 13279 H 1250.05 2.69636 1.58163 0
M  V30 13280 H 1249.27 3.89684 -0.594959 0
M  V30 13281 H 1250.56 5.07899 -0.302594 0
M  V30 13282 H 1249.96 4.87376 2.87196 0
M  V30 13283 H 1248.52 5.8009 2.97219 0
M  V30 13284 N 1251.95 0.502579 1.49372 0
M  V30 13285 C 1252.88 -0.264307 2.31999 0
M  V30 13286 C 1253.86 -0.96107 1.40348 0
M  V30 13287 O 1255.05 -0.952167 1.69255 0
M  V30 13288 C 1252.18 -1.32822 3.20898 0
M  V30 13289 C 1251.13 -0.751236 4.21355 0
M  V30 13290 C 1250.46 -1.91578 4.99201 0
M  V30 13291 C 1251.76 0.258764 5.21659 0
M  V30 13292 H 1253.45 0.425391 2.96363 0
M  V30 13293 H 1251 0.206022 1.42519 0
M  V30 13294 H 1252.95 -1.87245 3.77515 0
M  V30 13295 H 1251.67 -2.04712 2.54481 0
M  V30 13296 H 1250.33 -0.228743 3.65886 0
M  V30 13297 H 1249.98 -2.62241 4.2923 0
M  V30 13298 H 1249.68 -1.53578 5.67175 0
M  V30 13299 H 1251.2 -2.46432 5.58663 0
M  V30 13300 H 1252.62 -0.197385 5.7296 0
M  V30 13301 H 1251.02 0.554681 5.97531 0
M  V30 13302 H 1252.09 1.1741 4.70471 0
M  V30 13303 N 1253.43 -1.55816 0.23648 0
M  V30 13304 C 1254.66 -2.03083 -0.395584 0
M  V30 13305 C 1255.07 -1.11599 -1.52286 0
M  V30 13306 O 1254.43 -0.128403 -1.82048 0
M  V30 13307 C 1254.48 -3.49776 -0.913197 0
M  V30 13308 O 1254.2 -4.37773 0.169151 0
M  V30 13309 C 1255.7 -4.12756 -1.617 0
M  V30 13310 H 1252.92 -0.66421 -0.0952146 0
M  V30 13311 H 1255.47 -2.01354 0.357299 0
M  V30 13312 H 1253.62 -3.52072 -1.6163 0
M  V30 13313 H 1254.03 -5.24029 -0.222217 0
M  V30 13314 H 1255.51 -5.17123 -1.93101 0
M  V30 13315 H 1255.99 -3.58631 -2.53537 0
M  V30 13316 H 1256.59 -4.14353 -0.958736 0
M  V30 13317 N 1254.91 0.036755 -1.57557 0
M  V30 13318 C 1256.15 0.730186 -1.89199 0
M  V30 13319 C 1256.49 1.75414 -0.833271 0
M  V30 13320 O 1255.76 1.93901 0.152579 0
M  V30 13321 C 1256.04 1.40669 -3.31488 0
M  V30 13322 C 1255.9 0.396764 -4.48047 0
M  V30 13323 C 1257.22 2.34268 -3.72567 0
M  V30 13324 H 1254.33 0.263983 -0.6881 0
M  V30 13325 H 1256.98 -0.0069847 -1.89999 0
M  V30 13326 H 1255.13 2.03502 -3.30937 0
M  V30 13327 H 1256.8 -0.229062 -4.60731 0
M  V30 13328 H 1255.04 -0.284698 -4.32865 0
M  V30 13329 H 1255.71 0.908436 -5.44474 0
M  V30 13330 H 1258.19 1.81485 -3.74436 0
M  V30 13331 H 1257.06 2.78587 -4.72949 0
M  V30 13332 H 1257.33 3.20611 -3.04403 0
M  V30 13333 N 1256.39 1.54543 0.308881 0
M  V30 13334 C 1257.33 1.85693 1.40074 0
M  V30 13335 C 1258.33 0.730004 1.52864 0
M  V30 13336 O 1259.53 0.913884 1.55075 0
M  V30 13337 H 1255.91 0.588842 0.467728 0
M  V30 13338 H 1257.88 2.76973 1.11034 0
M  V30 13339 C 1256.63 2.11399 2.76054 0
M  V30 13340 H 1255.95 2.97583 2.66992 0
M  V30 13341 H 1257.39 2.37139 3.51484 0
M  V30 13342 C 1255.85 0.91007 3.24375 0
M  V30 13343 O 1256.38 0.12663 4.015 0
M  V30 13344 N 1254.59 0.717629 2.816 0
M  V30 13345 H 1254.13 1.35637 2.18998 0
M  V30 13346 H 1254.09 -0.0863585 3.14281 0
M  V30 13347 N 1257.86 -0.571685 1.46866 0
M  V30 13348 C 1259.11 -1.33145 1.52972 0
M  V30 13349 C 1259.44 -1.93314 0.185344 0
M  V30 13350 O 1258.72 -1.77083 -0.80447 0
M  V30 13351 C 1259 -2.4525 2.63675 0
M  V30 13352 C 1258.85 -1.90044 4.0768 0
M  V30 13353 C 1260.17 -3.47247 2.70384 0
M  V30 13354 H 1257.29 -0.482751 0.556885 0
M  V30 13355 H 1259.93 -0.641163 1.78855 0
M  V30 13356 H 1258.08 -3.04132 2.41735 0
M  V30 13357 H 1259.76 -1.35535 4.4094 0
M  V30 13358 H 1258 -1.20805 4.1664 0
M  V30 13359 H 1258.67 -2.71019 4.80887 0
M  V30 13360 H 1261.15 -2.98263 2.90135 0
M  V30 13361 H 1260.02 -4.23132 3.49643 0
M  V30 13362 H 1260.28 -4.05179 1.76868 0
M  V30 13363 N 1259.34 -1.34755 -0.817236 0
M  V30 13364 C 1260.59 -1.2762 -1.5761 0
M  V30 13365 C 1260.92 0.152017 -1.93604 0
M  V30 13366 O 1260.2 1.09881 -1.60488 0
M  V30 13367 C 1260.48 -2.17251 -2.87183 0
M  V30 13368 C 1260.33 -3.68638 -2.57733 0
M  V30 13369 C 1261.65 -2.06206 -3.88802 0
M  V30 13370 H 1258.77 -0.464933 -0.571845 0
M  V30 13371 H 1261.41 -1.6506 -0.941028 0
M  V30 13372 H 1259.56 -1.85452 -3.41379 0
M  V30 13373 H 1261.23 -4.10829 -2.09802 0
M  V30 13374 H 1259.48 -3.89445 -1.91089 0
M  V30 13375 H 1260.15 -4.26726 -3.50156 0
M  V30 13376 H 1262.62 -2.34137 -3.43975 0
M  V30 13377 H 1261.5 -2.71136 -4.77259 0
M  V30 13378 H 1261.76 -1.04075 -4.29675 0
M  V30 13379 N 1260.82 1.03812 -1.18578 0
M  V30 13380 C 1261.78 2.10049 -0.91718 0
M  V30 13381 C 1262.78 1.60498 0.0985122 0
M  V30 13382 O 1263.97 1.73674 -0.135213 0
M  V30 13383 C 1261.1 3.38813 -0.376599 0
M  V30 13384 H 1262.3 2.3531 -1.85927 0
M  V30 13385 H 1259.85 1.20277 -0.998156 0
M  V30 13386 H 1260.59 3.19216 0.571983 0
M  V30 13387 H 1260.37 3.76096 -1.10881 0
M  V30 13388 H 1261.86 4.17084 -0.207453 0
M  V30 13389 N 1262.3 0.988223 1.22768 0
M  V30 13390 C 1263.54 0.662441 1.91676 0
M  V30 13391 C 1263.88 -0.802931 1.76824 0
M  V30 13392 O 1263.15 -1.58011 1.13415 0
M  V30 13393 C 1263.43 1.06332 3.44043 0
M  V30 13394 C 1263.29 2.5869 3.67967 0
M  V30 13395 C 1264.61 0.613058 4.35809 0
M  V30 13396 H 1261.73 0.242132 0.69609 0
M  V30 13397 H 1264.37 1.23091 1.44736 0
M  V30 13398 H 1262.52 0.579623 3.84152 0
M  V30 13399 H 1264.19 3.14694 3.37291 0
M  V30 13400 H 1262.43 3.00971 3.12408 0
M  V30 13401 H 1263.1 2.8179 4.74656 0
M  V30 13402 H 1265.58 1.02846 4.0319 0
M  V30 13403 H 1264.46 0.921901 5.41103 0
M  V30 13404 H 1264.72 -0.48641 4.39416 0
M  V30 13405 N 1263.78 -1.38018 0.760839 0
M  V30 13406 C 1265.02 -1.99194 0.316984 0
M  V30 13407 C 1265.34 -1.61083 -1.10958 0
M  V30 13408 O 1266.54 -2.15281 -1.65428 0
M  V30 13409 C 1265 -3.56185 0.515792 0
M  V30 13410 C 1264.61 -4.03242 1.95191 0
M  V30 13411 C 1266.35 -4.24285 0.135013 0
M  V30 13412 C 1264.26 -5.52902 2.0989 0
M  V30 13413 H 1263.19 -0.745214 0.114771 0
M  V30 13414 H 1265.84 -1.5769 0.938415 0
M  V30 13415 H 1264.22 -3.95613 -0.174934 0
M  V30 13416 H 1265.4 -3.75086 2.6767 0
M  V30 13417 H 1263.71 -3.47889 2.28827 0
M  V30 13418 H 1266.31 -5.34233 0.223495 0
M  V30 13419 H 1266.65 -4.06158 -0.913322 0
M  V30 13420 H 1267.18 -3.90121 0.777868 0
M  V30 13421 H 1263.92 -5.75942 3.13003 0
M  V30 13422 H 1263.44 -5.82778 1.41881 0
M  V30 13423 H 1265.12 -6.18709 1.89229 0
M  V30 13424 N 1265.25 -0.510493 -1.49103 0
M  V30 13425 C 1266.5 0.030689 -2.02777 0
M  V30 13426 C 1266.83 1.35765 -1.38858 0
M  V30 13427 O 1266.11 1.87209 -0.527528 0
M  V30 13428 C 1266.39 0.173261 -3.59683 0
M  V30 13429 C 1266.24 -1.17749 -4.34114 0
M  V30 13430 C 1267.56 0.909395 -4.30602 0
M  V30 13431 H 1264.68 0.0096789 -0.736936 0
M  V30 13432 H 1267.32 -0.663746 -1.78029 0
M  V30 13433 H 1265.47 0.764721 -3.80899 0
M  V30 13434 H 1267.15 -1.80856 -4.24369 0
M  V30 13435 H 1265.39 -1.76438 -3.96298 0
M  V30 13436 H 1266.06 -1.03094 -5.42287 0
M  V30 13437 H 1268.54 0.407677 -4.14098 0
M  V30 13438 H 1267.41 0.978012 -5.40117 0
M  V30 13439 H 1267.67 1.9553 -3.96511 0
M  V30 13440 N 1266.73 1.55688 -0.24474 0
M  V30 13441 C 1267.69 2.20014 0.642382 0
M  V30 13442 C 1268.69 1.16877 1.10437 0
M  V30 13443 O 1269.88 1.41972 1.00943 0
M  V30 13444 C 1267.02 2.84198 1.88267 0
M  V30 13445 H 1268.21 2.9979 0.0811937 0
M  V30 13446 H 1265.76 1.56299 0.00480917 0
M  V30 13447 H 1266.5 2.08354 2.48514 0
M  V30 13448 H 1266.28 3.59747 1.55963 0
M  V30 13449 H 1267.77 3.33434 2.5142 0
M  V30 13450 N 1268.21 -0.0283989 1.57574 0
M  V30 13451 C 1269.46 -0.719077 1.89303 0
M  V30 13452 C 1269.78 -1.75325 0.84211 0
M  V30 13453 O 1269.04 -1.95071 -0.15683 0
M  V30 13454 C 1269.34 -1.4247 3.27776 0
M  V30 13455 C 1269 -0.526442 4.47816 0
M  V30 13456 C 1267.67 -0.279038 4.8039 0
M  V30 13457 C 1270.02 0.0937038 5.21116 0
M  V30 13458 C 1267.35 0.597277 5.83652 0
M  V30 13459 C 1269.7 0.957725 6.25308 0
M  V30 13460 C 1268.36 1.21458 6.56357 0
M  V30 13461 H 1267.63 -0.263129 0.692708 0
M  V30 13462 H 1270.28 0.0210252 1.91488 0
M  V30 13463 H 1268.58 -2.23813 3.21582 0
M  V30 13464 H 1270.28 -1.96466 3.49574 0
M  V30 13465 H 1266.87 -0.729426 4.22347 0
M  V30 13466 H 1271.06 -0.084469 4.96228 0
M  V30 13467 H 1266.31 0.804582 6.06083 0
M  V30 13468 H 1270.49 1.44476 6.81249 0
M  V30 13469 H 1268.11 1.89534 7.36193 0
M  V30 13470 N 1269.69 -1.54705 -0.300681 0
M  V30 13471 C 1270.92 -1.77993 -1.0548 0
M  V30 13472 C 1271.33 -0.539574 -1.80926 0
M  V30 13473 O 1270.69 0.490597 -1.75782 0
M  V30 13474 C 1270.74 -2.98774 -2.0351 0
M  V30 13475 O 1270.46 -4.18016 -1.31126 0
M  V30 13476 C 1271.96 -3.34452 -2.90958 0
M  V30 13477 H 1269.18 -0.593628 -0.312805 0
M  V30 13478 H 1271.72 -2.01656 -0.339858 0
M  V30 13479 H 1269.88 -2.77318 -2.70506 0
M  V30 13480 H 1270.29 -4.86113 -1.96963 0
M  V30 13481 H 1271.77 -4.22206 -3.55593 0
M  V30 13482 H 1272.24 -2.52622 -3.59275 0
M  V30 13483 H 1272.85 -3.58069 -2.29493 0
M  V30 13484 N 1271.17 0.563888 -1.47167 0
M  V30 13485 C 1272.41 1.31875 -1.53145 0
M  V30 13486 C 1272.74 1.94047 -0.192518 0
M  V30 13487 O 1272.01 1.79577 0.782872 0
M  V30 13488 H 1270.59 0.489694 -0.5641 0
M  V30 13489 H 1273.25 0.658976 -1.83422 0
M  V30 13490 H 1272.34 2.11574 -2.2944 0
M  V30 13491 N 1272.64 1.35187 0.810078 0
M  V30 13492 C 1273.61 1.27698 1.90331 0
M  V30 13493 C 1274.61 0.189216 1.59683 0
M  V30 13494 O 1275.8 0.442689 1.68481 0
M  V30 13495 C 1272.93 0.974631 3.26671 0
M  V30 13496 H 1274.12 2.24902 1.98392 0
M  V30 13497 H 1271.68 1.1966 1.00554 0
M  V30 13498 H 1272.41 0.0063068 3.24299 0
M  V30 13499 H 1272.2 1.76158 3.50301 0
M  V30 13500 H 1273.69 0.947743 4.06703 0
M  V30 13501 N 1274.12 -1.03182 1.19127 0
M  V30 13502 C 1275.36 -1.78089 1.00318 0
M  V30 13503 C 1275.73 -1.86451 -0.458252 0
M  V30 13504 O 1276.93 -2.57653 -0.766061 0
M  V30 13505 C 1275.2 -3.17012 1.6504 0
M  V30 13506 S 1276.76 -4.08146 1.61129 0
M  V30 13507 H 1273.58 -0.613096 0.360048 0
M  V30 13508 H 1276.18 -1.23657 1.51424 0
M  V30 13509 H 1274.88 -3.08541 2.70612 0
M  V30 13510 H 1274.41 -3.7652 1.14001 0
M  V30 13511 H 1276.43 -4.92141 0.633408 0
M  V30 13512 N 1275.6 -0.99472 -1.22242 0
M  V30 13513 C 1276.85 -0.667045 -1.90351 0
M  V30 13514 C 1277.16 0.804615 -1.78284 0
M  V30 13515 O 1278.37 1.24395 -2.41326 0
M  V30 13516 C 1276.82 -1.14256 -3.41282 0
M  V30 13517 C 1276.43 -2.63958 -3.61981 0
M  V30 13518 C 1278.18 -0.889302 -4.1508 0
M  V30 13519 C 1276.08 -3.05103 -5.06622 0
M  V30 13520 H 1275.01 -0.245795 -0.712812 0
M  V30 13521 H 1277.66 -1.20452 -1.38432 0
M  V30 13522 H 1276.05 -0.533203 -3.92394 0
M  V30 13523 H 1277.22 -3.30255 -3.21354 0
M  V30 13524 H 1275.54 -2.87186 -3.01518 0
M  V30 13525 H 1278.13 -1.17239 -5.21689 0
M  V30 13526 H 1278.48 0.174556 -4.15934 0
M  V30 13527 H 1279.01 -1.46095 -3.70002 0
M  V30 13528 H 1275.75 -4.10672 -5.1091 0
M  V30 13529 H 1275.27 -2.4351 -5.48145 0
M  V30 13530 H 1276.95 -2.96506 -5.75059 0
M  V30 13531 N 1277.08 1.37613 -0.768148 0
M  V30 13532 C 1278.31 2.04052 -0.342111 0
M  V30 13533 C 1278.72 1.57936 1.03449 0
M  V30 13534 O 1278.08 0.758981 1.65969 0
M  V30 13535 C 1278.13 3.5958 -0.372096 0
M  V30 13536 O 1277.85 4.04008 -1.69439 0
M  V30 13537 C 1279.35 4.43251 0.0659884 0
M  V30 13538 H 1276.57 0.655391 -0.143886 0
M  V30 13539 H 1279.12 1.76017 -1.04107 0
M  V30 13540 H 1277.27 3.86399 0.278248 0
M  V30 13541 H 1277.68 4.98511 -1.63054 0
M  V30 13542 H 1279.16 5.52 -0.00614775 0
M  V30 13543 H 1279.64 4.24788 1.11588 0
M  V30 13544 H 1280.24 4.2165 -0.55603 0
M  V30 13545 N 1278.56 0.518393 1.4883 0
M  V30 13546 C 1279.49 -0.287642 2.27388 0
M  V30 13547 C 1280.5 -0.914974 1.34655 0
M  V30 13548 O 1281.69 -0.795373 1.598 0
M  V30 13549 C 1278.79 -1.42149 3.07647 0
M  V30 13550 C 1277.96 -0.898238 4.28078 0
M  V30 13551 C 1277.02 -1.91179 4.90242 0
M  V30 13552 O 1276.05 -1.47337 5.498 0
M  V30 13553 N 1277.25 -3.24331 4.81445 0
M  V30 13554 H 1280.02 0.386047 2.97203 0
M  V30 13555 H 1277.58 0.352002 1.58027 0
M  V30 13556 H 1279.57 -2.09745 3.46106 0
M  V30 13557 H 1278.14 -1.99903 2.40328 0
M  V30 13558 H 1277.36 -0.0466326 3.94172 0
M  V30 13559 H 1278.65 -0.527338 5.0606 0
M  V30 13560 H 1278.04 -3.62627 4.34187 0
M  V30 13561 H 1276.6 -3.87593 5.24037 0
M  V30 13562 N 1280.03 -1.55556 0.252993 0
M  V30 13563 C 1281.31 -1.91022 -0.420696 0
M  V30 13564 C 1281.69 -1.17452 -1.75409 0
M  V30 13565 O 1281.04 -0.294 -2.26601 0
M  V30 13566 C 1281.25 -3.441 -0.582787 0
M  V30 13567 C 1282.6 -4.15468 -0.875873 0
M  V30 13568 O 1283.62 -3.49872 -0.668425 0
M  V30 13569 O 1282.48 -5.31508 -1.27128 0
M  V30 13570 H 1279.57 -0.7953 -0.226776 0
M  V30 13571 H 1282.12 -1.67072 0.297511 0
M  V30 13572 H 1280.89 -3.89673 0.356474 0
M  V30 13573 H 1280.52 -3.73933 -1.3513 0
M  V30 13574 N 1281.51 0.0200419 -1.57587 0
M  V30 13575 C 1282.74 0.724241 -1.94344 0
M  V30 13576 C 1283.16 1.67612 -0.853688 0
M  V30 13577 O 1282.52 1.80303 0.189873 0
M  V30 13578 C 1282.57 1.44967 -3.30177 0
M  V30 13579 O 1281.67 2.56326 -3.23064 0
M  V30 13580 H 1281.01 0.194142 -0.634984 0
M  V30 13581 H 1283.54 -0.0271756 -2.04582 0
M  V30 13582 H 1283.55 1.81758 -3.65278 0
M  V30 13583 H 1282.23 0.75161 -4.09052 0
M  V30 13584 H 1280.81 2.22011 -2.99609 0
M  V30 13585 N 1282.99 1.54862 0.292472 0
M  V30 13586 C 1284.4 1.65459 0.864891 0
M  V30 13587 C 1284.75 0.568808 1.87774 0
M  V30 13588 O 1283.88 -0.293107 2.14406 0
M  V30 13589 C 1284.47 2.99939 1.5755 0
M  V30 13590 C 1283.03 3.12628 2.09621 0
M  V30 13591 C 1282.18 2.61179 0.931713 0
M  V30 13592 H 1285.13 1.58549 0.0692679 0
M  V30 13593 H 1285.15 2.91839 2.44152 0
M  V30 13594 H 1284.66 3.78943 0.838088 0
M  V30 13595 H 1282.76 2.3836 2.86383 0
M  V30 13596 H 1282.88 4.18911 2.32488 0
M  V30 13597 H 1281.24 2.17846 1.31967 0
M  V30 13598 H 1282.02 3.42669 0.208121 0
M  V30 13599 N 1284.47 -0.556076 1.47464 0
M  V30 13600 C 1285.4 -1.67275 1.62915 0
M  V30 13601 C 1286.38 -1.63229 0.478562 0
M  V30 13602 O 1287.56 -1.80833 0.708032 0
M  V30 13603 C 1284.69 -3.05911 1.64426 0
M  V30 13604 C 1283.65 -3.24804 2.78722 0
M  V30 13605 C 1282.97 -4.64238 2.65307 0
M  V30 13606 C 1284.27 -3.10071 4.20302 0
M  V30 13607 H 1285.97 -1.54601 2.56396 0
M  V30 13608 H 1283.51 -0.742337 1.23391 0
M  V30 13609 H 1285.47 -3.83878 1.73826 0
M  V30 13610 H 1284.19 -3.19547 0.675053 0
M  V30 13611 H 1282.85 -2.49246 2.68835 0
M  V30 13612 H 1282.5 -4.74675 1.66412 0
M  V30 13613 H 1282.2 -4.77828 3.41986 0
M  V30 13614 H 1283.72 -5.44339 2.76637 0
M  V30 13615 H 1285.14 -3.77855 4.3116 0
M  V30 13616 H 1283.53 -3.3517 4.97776 0
M  V30 13617 H 1284.6 -2.06803 4.38589 0
M  V30 13618 N 1285.95 -1.35615 -0.802897 0
M  V30 13619 C 1286.89 -1.28839 -1.91492 0
M  V30 13620 C 1287.86 -0.159621 -1.65331 0
M  V30 13621 O 1289.05 -0.343931 -1.87675 0
M  V30 13622 C 1286.19 -1.06999 -3.28093 0
M  V30 13623 C 1285.3 -2.28831 -3.66416 0
M  V30 13624 C 1284.44 -2.00111 -4.92066 0
M  V30 13625 C 1283.48 -3.17977 -5.23027 0
M  V30 13626 N 1282.61 -2.89009 -6.39858 0
M  V30 13627 H 1287.45 -2.2393 -1.96619 0
M  V30 13628 H 1284.99 -1.1131 -0.961687 0
M  V30 13629 H 1286.95 -0.923673 -4.06847 0
M  V30 13630 H 1285.58 -0.155684 -3.22424 0
M  V30 13631 H 1284.63 -2.54314 -2.82893 0
M  V30 13632 H 1285.94 -3.1683 -3.85253 0
M  V30 13633 H 1285.1 -1.82331 -5.78654 0
M  V30 13634 H 1283.84 -1.09402 -4.75271 0
M  V30 13635 H 1282.84 -3.3633 -4.34928 0
M  V30 13636 H 1284.07 -4.09493 -5.41749 0
M  V30 13637 H 1282.01 -2.00898 -6.24481 0
M  V30 13638 H 1281.93 -3.70544 -6.58964 0
M  V30 13639 H 1283.2 -2.74779 -7.29463 0
M  V30 13640 N 1287.43 1.02549 -1.19673 0
M  V30 13641 C 1288.39 2.09064 -0.939407 0
M  V30 13642 C 1289.39 1.60593 0.0814837 0
M  V30 13643 O 1290.58 1.73521 -0.153626 0
M  V30 13644 C 1287.71 3.38395 -0.412513 0
M  V30 13645 H 1288.9 2.33325 -1.88413 0
M  V30 13646 H 1286.46 1.19211 -1.01086 0
M  V30 13647 H 1287.19 3.19805 0.538094 0
M  V30 13648 H 1286.98 3.74898 -1.14863 0
M  V30 13649 H 1288.47 4.16841 -0.251678 0
M  V30 13650 N 1288.9 1.00119 1.21713 0
M  V30 13651 C 1290.15 0.682733 1.90962 0
M  V30 13652 C 1290.48 -0.784131 1.77665 0
M  V30 13653 O 1289.76 -1.56799 1.15084 0
M  V30 13654 C 1290.04 1.09975 3.42896 0
M  V30 13655 C 1289.89 2.62578 3.65202 0
M  V30 13656 C 1291.21 0.659247 4.35134 0
M  V30 13657 H 1288.33 0.249501 0.693483 0
M  V30 13658 H 1290.97 1.24619 1.43423 0
M  V30 13659 H 1289.12 0.620334 3.83515 0
M  V30 13660 H 1290.8 3.18254 3.33934 0
M  V30 13661 H 1289.04 3.04268 3.09198 0
M  V30 13662 H 1289.71 2.86809 4.7164 0
M  V30 13663 H 1292.19 1.07116 4.02076 0
M  V30 13664 H 1291.06 0.979241 5.40095 0
M  V30 13665 H 1291.32 -0.439777 4.39907 0
M  V30 13666 N 1290.38 -1.37203 0.775435 0
M  V30 13667 C 1291.31 -2.28873 0.122374 0
M  V30 13668 C 1292.33 -1.48811 -0.660239 0
M  V30 13669 O 1293.52 -1.7142 -0.497724 0
M  V30 13670 C 1290.62 -3.28062 -0.850212 0
M  V30 13671 C 1289.79 -4.37234 -0.120633 0
M  V30 13672 C 1288.85 -5.16472 -1.00712 0
M  V30 13673 O 1287.87 -5.6726 -0.469528 0
M  V30 13674 N 1289.08 -5.31556 -2.33299 0
M  V30 13675 H 1291.84 -2.85559 0.909741 0
M  V30 13676 H 1289.4 -1.49219 0.628107 0
M  V30 13677 H 1291.39 -3.77956 -1.44678 0
M  V30 13678 H 1289.96 -2.72118 -1.53853 0
M  V30 13679 H 1289.18 -3.88688 0.656879 0
M  V30 13680 H 1290.47 -5.07354 0.383358 0
M  V30 13681 H 1289.87 -4.91883 -2.79406 0
M  V30 13682 H 1288.43 -5.84745 -2.87953 0
M  V30 13683 N 1291.86 -0.526279 -1.48553 0
M  V30 13684 C 1292.79 0.2857 -2.26404 0
M  V30 13685 C 1293.77 0.948104 -1.32098 0
M  V30 13686 O 1294.95 0.973228 -1.61433 0
M  V30 13687 C 1292.08 1.40432 -3.08215 0
M  V30 13688 C 1291.13 0.853705 -4.17869 0
M  V30 13689 S 1291.96 -0.275518 -5.34791 0
M  V30 13690 C 1293.12 0.845667 -6.20161 0
M  V30 13691 H 1293.35 -0.375004 -2.94925 0
M  V30 13692 H 1290.88 -0.311999 -1.51215 0
M  V30 13693 H 1292.84 2.04513 -3.55928 0
M  V30 13694 H 1291.5 2.03673 -2.39115 0
M  V30 13695 H 1290.69 1.69278 -4.74722 0
M  V30 13696 H 1290.3 0.289659 -3.72877 0
M  V30 13697 H 1292.59 1.74517 -6.54637 0
M  V30 13698 H 1293.53 0.315189 -7.07398 0
M  V30 13699 H 1293.94 1.1244 -5.53188 0
M  V30 13700 N 1293.34 1.5542 -0.261239 0
M  V30 13701 C 1294.27 2.24949 0.626126 0
M  V30 13702 C 1295.25 1.23474 1.16997 0
M  V30 13703 O 1296.43 1.52161 1.20667 0
M  V30 13704 C 1293.56 2.95996 1.81669 0
M  V30 13705 C 1292.52 4.04282 1.40499 0
M  V30 13706 C 1291.84 4.62831 2.67753 0
M  V30 13707 C 1293.14 5.1923 0.56543 0
M  V30 13708 H 1294.84 2.99364 0.0463164 0
M  V30 13709 H 1292.38 1.43985 0.0208366 0
M  V30 13710 H 1294.34 3.43343 2.44323 0
M  V30 13711 H 1293.06 2.19093 2.42211 0
M  V30 13712 H 1291.72 3.57726 0.801712 0
M  V30 13713 H 1291.37 3.82611 3.26524 0
M  V30 13714 H 1291.07 5.35938 2.40925 0
M  V30 13715 H 1292.59 5.12918 3.31281 0
M  V30 13716 H 1294.01 5.62714 1.09663 0
M  V30 13717 H 1292.4 5.98814 0.392607 0
M  V30 13718 H 1293.47 4.83086 -0.419059 0
M  V30 13719 N 1294.82 -0.0116844 1.57596 0
M  V30 13720 C 1296.06 -0.694423 1.91179 0
M  V30 13721 C 1296.42 -1.72025 0.861703 0
M  V30 13722 O 1295.71 -1.91175 -0.127545 0
M  V30 13723 C 1295.9 -1.38985 3.29269 0
M  V30 13724 C 1295.73 -0.432902 4.47611 0
M  V30 13725 C 1294.5 -0.0475684 5.05278 0
M  V30 13726 C 1296.7 0.296001 5.13447 0
M  V30 13727 N 1294.68 0.908817 6.07136 0
M  V30 13728 C 1296.05 1.10746 6.10029 0
M  V30 13729 C 1298.11 0.361088 4.96589 0
M  V30 13730 C 1296.81 1.97805 6.91568 0
M  V30 13731 C 1298.84 1.21887 5.78703 0
M  V30 13732 C 1298.2 2.0182 6.74869 0
M  V30 13733 H 1294.3 -0.227668 0.748125 0
M  V30 13734 H 1296.88 0.0459176 1.94646 0
M  V30 13735 H 1295.05 -2.10055 3.26698 0
M  V30 13736 H 1296.79 -2.02636 3.50315 0
M  V30 13737 H 1293.54 -0.413466 4.71792 0
M  V30 13738 H 1293.96 1.38203 6.62743 0
M  V30 13739 H 1298.61 -0.242613 4.22103 0
M  V30 13740 H 1296.32 2.59248 7.65386 0
M  V30 13741 H 1299.91 1.27299 5.67703 0
M  V30 13742 H 1298.79 2.67121 7.37303 0
M  V30 13743 N 1296.29 -1.55015 -0.284256 0
M  V30 13744 C 1297.54 -1.7535 -1.01884 0
M  V30 13745 C 1297.87 -0.546825 -1.86342 0
M  V30 13746 O 1297.15 0.455832 -1.89083 0
M  V30 13747 C 1297.43 -3.05219 -1.91084 0
M  V30 13748 C 1297.28 -4.36219 -1.09694 0
M  V30 13749 C 1298.6 -3.31056 -2.89983 0
M  V30 13750 H 1295.72 -0.637981 -0.368984 0
M  V30 13751 H 1298.36 -1.87741 -0.292116 0
M  V30 13752 H 1296.51 -2.94786 -2.53048 0
M  V30 13753 H 1298.19 -4.58594 -0.498876 0
M  V30 13754 H 1296.43 -4.31951 -0.400078 0
M  V30 13755 H 1297.1 -5.23392 -1.75399 0
M  V30 13756 H 1299.58 -3.41209 -2.38151 0
M  V30 13757 H 1298.45 -4.23212 -3.49547 0
M  V30 13758 H 1298.71 -2.50153 -3.64521 0
M  V30 13759 N 1297.77 0.548248 -1.47757 0
M  V30 13760 C 1298.72 1.67553 -1.61335 0
M  V30 13761 C 1299.71 1.62447 -0.480335 0
M  V30 13762 O 1300.92 1.67525 -0.658445 0
M  V30 13763 H 1297.29 0.55457 -0.507894 0
M  V30 13764 H 1299.27 1.53239 -2.56047 0
M  V30 13765 C 1298.01 3.05883 -1.6532 0
M  V30 13766 H 1297.34 3.10497 -2.51856 0
M  V30 13767 H 1298.78 3.84424 -1.78868 0
M  V30 13768 C 1297.24 3.34656 -0.388238 0
M  V30 13769 O 1297.77 3.9849 0.506816 0
M  V30 13770 N 1295.97 2.89384 -0.265514 0
M  V30 13771 H 1295.52 2.37615 -0.994819 0
M  V30 13772 H 1295.48 3.09006 0.579889 0
M  V30 13773 N 1299.25 1.36039 0.795694 0
M  V30 13774 C 1300.18 1.32528 1.92246 0
M  V30 13775 C 1301.16 0.197805 1.68946 0
M  V30 13776 O 1302.35 0.394474 1.90151 0
M  V30 13777 C 1299.48 1.10748 3.29169 0
M  V30 13778 C 1298.43 2.20253 3.66978 0
M  V30 13779 C 1297.76 1.83624 5.02181 0
M  V30 13780 C 1299.06 3.62296 3.76216 0
M  V30 13781 H 1300.75 2.2681 1.95442 0
M  V30 13782 H 1298.3 1.09181 0.938908 0
M  V30 13783 H 1300.25 1.06929 4.07608 0
M  V30 13784 H 1298.97 0.129141 3.26345 0
M  V30 13785 H 1297.63 2.23187 2.90832 0
M  V30 13786 H 1297.28 0.843804 4.95872 0
M  V30 13787 H 1296.98 2.56935 5.28449 0
M  V30 13788 H 1298.5 1.81349 5.83048 0
M  V30 13789 H 1299.92 3.61623 4.44861 0
M  V30 13790 H 1298.31 4.34459 4.13963 0
M  V30 13791 H 1299.38 3.97657 2.77483 0
M  V30 13792 N 1300.73 -1.01913 1.20215 0
M  V30 13793 C 1301.98 -1.74878 1.00502 0
M  V30 13794 C 1302.29 -1.90022 -0.463792 0
M  V30 13795 O 1303.5 -2.60055 -0.779982 0
M  V30 13796 C 1301.95 -3.1452 1.74943 0
M  V30 13797 C 1301.56 -3.07397 3.259 0
M  V30 13798 C 1303.3 -3.91713 1.63589 0
M  V30 13799 C 1301.21 -4.42032 3.92889 0
M  V30 13800 H 1300.14 -0.655603 0.372426 0
M  V30 13801 H 1302.79 -1.13978 1.4381 0
M  V30 13802 H 1301.17 -3.75946 1.24421 0
M  V30 13803 H 1302.35 -2.55294 3.83617 0
M  V30 13804 H 1300.66 -2.43698 3.37639 0
M  V30 13805 H 1303.26 -4.91316 2.1098 0
M  V30 13806 H 1303.6 -4.12074 0.591665 0
M  V30 13807 H 1304.14 -3.3691 2.11511 0
M  V30 13808 H 1300.88 -4.26874 4.97453 0
M  V30 13809 H 1300.4 -4.94151 3.39962 0
M  V30 13810 H 1302.07 -5.10884 3.96997 0
M  V30 13811 N 1302.21 -1.00763 -1.2118 0
M  V30 13812 C 1303.14 -0.515053 -2.22312 0
M  V30 13813 C 1304.12 0.432665 -1.56738 0
M  V30 13814 O 1305.3 0.35477 -1.85131 0
M  V30 13815 C 1302.43 0.251544 -3.37765 0
M  V30 13816 C 1301.47 -0.64437 -4.21604 0
M  V30 13817 S 1302.31 -2.10832 -4.9225 0
M  V30 13818 C 1303.46 -1.35163 -6.11132 0
M  V30 13819 H 1303.7 -1.37198 -2.6375 0
M  V30 13820 H 1301.23 -0.815783 -1.31089 0
M  V30 13821 H 1303.19 0.687761 -4.04698 0
M  V30 13822 H 1301.85 1.08393 -2.94805 0
M  V30 13823 H 1301.04 -0.0537452 -5.03971 0
M  V30 13824 H 1300.64 -1.01798 -3.5988 0
M  V30 13825 H 1302.94 -0.6269 -6.74593 0
M  V30 13826 H 1303.88 -2.15111 -6.74635 0
M  V30 13827 H 1304.29 -0.858444 -5.57935 0
M  V30 13828 N 1303.68 1.3679 -0.7827 0
M  V30 13829 C 1304.96 1.93639 -0.276278 0
M  V30 13830 C 1305.34 1.7153 1.23048 0
M  V30 13831 O 1304.69 1.07037 2.01879 0
M  V30 13832 C 1304.9 3.42672 -0.661586 0
M  V30 13833 C 1306.25 4.19786 -0.637538 0
M  V30 13834 O 1307.27 3.51082 -0.601645 0
M  V30 13835 O 1306.13 5.42323 -0.674408 0
M  V30 13836 H 1303.22 0.824307 -0.0666832 0
M  V30 13837 H 1305.77 1.46012 -0.864792 0
M  V30 13838 H 1304.54 3.52393 -1.70103 0
M  V30 13839 H 1304.17 3.97573 -0.0465987 0
M  V30 13840 N 1305.16 0.53415 1.48272 0
M  V30 13841 C 1306.39 0.00574475 2.06899 0
M  V30 13842 C 1306.81 -1.27754 1.39012 0
M  V30 13843 O 1306.16 -1.76102 0.478993 0
M  V30 13844 C 1306.21 -0.217576 3.60845 0
M  V30 13845 O 1305.93 1.01487 4.26183 0
M  V30 13846 C 1307.44 -0.785888 4.36278 0
M  V30 13847 H 1304.66 0.0353967 0.670066 0
M  V30 13848 H 1307.2 0.740984 1.90603 0
M  V30 13849 H 1305.35 -0.902875 3.76732 0
M  V30 13850 H 1305.77 0.7982 5.18391 0
M  V30 13851 H 1307.24 -0.891551 5.44753 0
M  V30 13852 H 1307.72 -1.79178 4.00989 0
M  V30 13853 H 1308.33 -0.137022 4.25079 0
M  V30 13854 N 1306.64 -1.55279 0.269478 0
M  V30 13855 C 1307.89 -1.99471 -0.348913 0
M  V30 13856 C 1308.22 -1.15784 -1.56283 0
M  V30 13857 O 1307.47 -0.214115 -1.94525 0
M  V30 13858 C 1307.77 -3.48773 -0.780535 0
M  V30 13859 C 1307.44 -4.49705 0.328113 0
M  V30 13860 C 1306.1 -4.77024 0.632544 0
M  V30 13861 C 1308.45 -5.09984 1.07544 0
M  V30 13862 C 1305.78 -5.61893 1.68798 0
M  V30 13863 C 1308.13 -5.95999 2.12057 0
M  V30 13864 C 1306.79 -6.21642 2.4314 0
M  V30 13865 H 1306.06 -0.729918 -0.127676 0
M  V30 13866 H 1308.71 -1.87651 0.382015 0
M  V30 13867 H 1307.02 -3.5804 -1.59105 0
M  V30 13868 H 1308.71 -3.80369 -1.26966 0
M  V30 13869 H 1305.3 -4.28524 0.0807131 0
M  V30 13870 H 1309.49 -4.88906 0.853506 0
M  V30 13871 H 1304.74 -5.80009 1.93389 0
M  V30 13872 H 1308.92 -6.41743 2.70442 0
M  V30 13873 H 1306.54 -6.87198 3.25059 0
M  V30 13874 N 1308.12 0.00332656 -1.576 0
M  V30 13875 C 1309.08 0.980628 -2.07163 0
M  V30 13876 C 1310.08 1.27455 -0.980402 0
M  V30 13877 O 1311.27 1.22029 -1.24317 0
M  V30 13878 C 1308.4 2.30647 -2.51028 0
M  V30 13879 H 1309.6 0.551982 -2.94776 0
M  V30 13880 H 1307.15 0.250728 -1.54276 0
M  V30 13881 H 1307.88 2.78207 -1.66647 0
M  V30 13882 H 1307.67 2.10635 -3.30719 0
M  V30 13883 H 1309.16 3.00761 -2.89711 0
M  V30 13884 N 1309.6 1.55164 0.276031 0
M  V30 13885 C 1310.82 1.7998 1.03063 0
M  V30 13886 C 1311.25 0.569769 1.79263 0
M  V30 13887 O 1310.6 -0.48054 1.74816 0
M  V30 13888 C 1310.65 3.02209 1.96728 0
M  V30 13889 O 1309.76 2.77083 3.05449 0
M  V30 13890 H 1309.1 0.594963 0.294814 0
M  V30 13891 H 1311.63 2.02301 0.305861 0
M  V30 13892 H 1311.64 3.3086 2.38738 0
M  V30 13893 H 1310.31 3.91386 1.40677 0
M  V30 13894 H 1308.89 2.5952 2.67776 0
M  V30 13895 N 1311.07 -0.540404 1.48045 0
M  V30 13896 C 1312 -1.65538 1.6468 0
M  V30 13897 C 1312.99 -1.62713 0.495847 0
M  V30 13898 O 1314.17 -1.80072 0.727172 0
M  V30 13899 C 1311.3 -3.0415 1.67661 0
M  V30 13900 C 1310.25 -3.2183 2.82152 0
M  V30 13901 C 1309.58 -4.61397 2.70216 0
M  V30 13902 C 1310.88 -3.05596 4.23567 0
M  V30 13903 H 1312.57 -1.51873 2.58021 0
M  V30 13904 H 1310.12 -0.729208 1.24171 0
M  V30 13905 H 1312.07 -3.82013 1.77887 0
M  V30 13906 H 1310.8 -3.18814 0.708907 0
M  V30 13907 H 1309.46 -2.4638 2.71463 0
M  V30 13908 H 1309.1 -4.72883 1.71437 0
M  V30 13909 H 1308.8 -4.74174 3.47035 0
M  V30 13910 H 1310.33 -5.41374 2.82395 0
M  V30 13911 H 1311.74 -3.73261 4.35143 0
M  V30 13912 H 1310.14 -3.29871 5.01303 0
M  V30 13913 H 1311.21 -2.0214 4.40758 0
M  V30 13914 N 1312.55 -1.36459 -0.788468 0
M  V30 13915 C 1313.52 -1.3071 -1.88275 0
M  V30 13916 C 1314.52 -0.214596 -1.59362 0
M  V30 13917 O 1315.71 -0.469437 -1.67756 0
M  V30 13918 C 1312.84 -1.02648 -3.25079 0
M  V30 13919 H 1314.03 -2.28029 -1.94788 0
M  V30 13920 H 1311.58 -1.21245 -0.986375 0
M  V30 13921 H 1312.32 -0.0578992 -3.24248 0
M  V30 13922 H 1312.1 -1.81708 -3.47454 0
M  V30 13923 H 1313.59 -1.01233 -4.05144 0
M  V30 13924 N 1314.03 1.01274 -1.20754 0
M  V30 13925 C 1314.96 2.11763 -0.983805 0
M  V30 13926 C 1315.94 1.69869 0.0885635 0
M  V30 13927 O 1317.13 1.94075 -0.0697239 0
M  V30 13928 C 1314.26 3.43087 -0.539287 0
M  V30 13929 C 1313.21 3.9874 -1.55534 0
M  V30 13930 C 1312.54 5.25877 -0.967322 0
M  V30 13931 C 1313.84 4.31688 -2.94012 0
M  V30 13932 H 1315.53 2.30737 -1.90789 0
M  V30 13933 H 1313.08 1.10884 -0.918734 0
M  V30 13934 H 1315.03 4.19773 -0.369979 0
M  V30 13935 H 1313.75 3.23883 0.420435 0
M  V30 13936 H 1312.41 3.24166 -1.71207 0
M  V30 13937 H 1312.06 5.03 0.000448307 0
M  V30 13938 H 1311.76 5.64077 -1.64594 0
M  V30 13939 H 1313.28 6.05215 -0.809167 0
M  V30 13940 H 1314.7 4.99246 -2.81827 0
M  V30 13941 H 1313.1 4.81011 -3.58815 0
M  V30 13942 H 1314.17 3.4029 -3.45442 0
M  V30 13943 N 1315.51 1.01404 1.20644 0
M  V30 13944 C 1316.47 0.586941 2.21557 0
M  V30 13945 C 1317.47 -0.341543 1.57131 0
M  V30 13946 O 1318.66 -0.130585 1.7371 0
M  V30 13947 C 1315.79 -0.143248 3.40599 0
M  V30 13948 H 1316.99 1.47964 2.60858 0
M  V30 13949 H 1314.54 0.803551 1.34063 0
M  V30 13950 H 1315.28 -1.05097 3.06798 0
M  V30 13951 H 1315.06 0.523716 3.88587 0
M  V30 13952 H 1316.55 -0.429504 4.15385 0
M  V30 13953 N 1316.99 -1.36373 0.789944 0
M  V30 13954 C 1318.22 -2.03482 0.37453 0
M  V30 13955 C 1318.63 -1.59562 -1.00923 0
M  V30 13956 O 1317.99 -0.785289 -1.64741 0
M  V30 13957 C 1318.04 -3.58942 0.429255 0
M  V30 13958 O 1317.76 -4.01261 1.75845 0
M  V30 13959 C 1319.26 -4.433 0.00453729 0
M  V30 13960 H 1316.48 -0.653019 0.154295 0
M  V30 13961 H 1319.02 -1.74339 1.06894 0
M  V30 13962 H 1317.18 -3.86793 -0.21674 0
M  V30 13963 H 1317.59 -4.95854 1.70964 0
M  V30 13964 H 1319.07 -5.5192 0.0939653 0
M  V30 13965 H 1319.54 -4.26509 -1.04816 0
M  V30 13966 H 1320.15 -4.20712 0.623041 0
M  V30 13967 N 1318.47 -0.542005 -1.47987 0
M  V30 13968 C 1319.38 0.217677 -2.33588 0
M  V30 13969 C 1320.39 0.927093 -1.47245 0
M  V30 13970 O 1321.57 0.899378 -1.80203 0
M  V30 13971 C 1318.63 1.24376 -3.23622 0
M  V30 13972 C 1317.69 0.543407 -4.25847 0
M  V30 13973 C 1316.93 1.5206 -5.11579 0
M  V30 13974 O 1317.15 2.75425 -4.99497 0
M  V30 13975 O 1316.08 1.05341 -5.9261 0
M  V30 13976 H 1319.91 -0.484089 -2.99817 0
M  V30 13977 H 1317.49 -0.302783 -1.463 0
M  V30 13978 H 1319.38 1.83644 -3.7928 0
M  V30 13979 H 1318.05 1.92772 -2.6004 0
M  V30 13980 H 1316.96 -0.090074 -3.73992 0
M  V30 13981 H 1318.29 -0.0988264 -4.92101 0
M  V30 13982 N 1319.94 1.55134 -0.277709 0
M  V30 13983 C 1321.35 1.85405 0.219543 0
M  V30 13984 C 1321.71 1.19973 1.55245 0
M  V30 13985 O 1320.83 0.488986 2.10803 0
M  V30 13986 C 1321.43 3.36369 0.405127 0
M  V30 13987 C 1319.98 3.66755 0.846609 0
M  V30 13988 C 1319.13 2.77238 -0.0586063 0
M  V30 13989 H 1322.08 1.50637 -0.499422 0
M  V30 13990 H 1322.1 3.59615 1.24329 0
M  V30 13991 H 1321.62 3.83963 -0.565138 0
M  V30 13992 H 1319.72 3.24662 1.82825 0
M  V30 13993 H 1319.83 4.74219 0.682135 0
M  V30 13994 H 1318.19 2.50546 0.458153 0
M  V30 13995 H 1318.98 3.27647 -1.0248 0
M  V30 13996 N 1321.42 0.00503138 1.57599 0
M  V30 13997 C 1322.83 -0.537106 1.78807 0
M  V30 13998 C 1323.18 -1.73666 0.912945 0
M  V30 13999 O 1322.31 -2.16085 0.116775 0
M  V30 14000 C 1322.9 -0.98116 3.24282 0
M  V30 14001 C 1321.46 -1.46857 3.46569 0
M  V30 14002 C 1320.61 -0.422088 2.74069 0
M  V30 14003 H 1323.56 0.231182 1.57007 0
M  V30 14004 H 1323.58 -1.8469 3.32671 0
M  V30 14005 H 1323.09 -0.107907 3.8795 0
M  V30 14006 H 1321.19 -2.36255 2.88122 0
M  V30 14007 H 1321.31 -1.49256 4.55258 0
M  V30 14008 H 1319.67 -0.884853 2.38836 0
M  V30 14009 H 1320.45 0.442285 3.40439 0
M  V30 14010 N 1322.9 -1.55308 -0.267798 0
M  V30 14011 C 1324.13 -1.80191 -1.01681 0
M  V30 14012 C 1324.54 -0.57783 -1.7974 0
M  V30 14013 O 1323.9 0.4532 -1.76783 0
M  V30 14014 C 1323.95 -3.03023 -1.97127 0
M  V30 14015 O 1323.67 -4.20704 -1.22229 0
M  V30 14016 C 1325.17 -3.40549 -2.83798 0
M  V30 14017 H 1322.39 -0.60013 -0.300142 0
M  V30 14018 H 1324.94 -2.02332 -0.297007 0
M  V30 14019 H 1323.09 -2.82993 -2.64563 0
M  V30 14020 H 1323.51 -4.90181 -1.86608 0
M  V30 14021 H 1324.98 -4.29653 -3.46557 0
M  V30 14022 H 1325.46 -2.60186 -3.53836 0
M  V30 14023 H 1326.06 -3.62856 -2.21846 0
M  V30 14024 N 1324.38 0.532545 -1.4833 0
M  V30 14025 C 1325.29 1.66433 -1.65339 0
M  V30 14026 C 1326.3 1.65541 -0.535939 0
M  V30 14027 O 1327.48 1.84539 -0.806679 0
M  V30 14028 C 1324.54 3.02901 -1.68676 0
M  V30 14029 C 1323.61 3.14669 -2.92031 0
M  V30 14030 C 1322.84 4.44627 -2.95199 0
M  V30 14031 O 1323.06 5.31572 -2.06851 0
M  V30 14032 O 1322 4.60707 -3.87341 0
M  V30 14033 H 1325.82 1.5502 -2.61156 0
M  V30 14034 H 1323.41 0.705348 -1.31701 0
M  V30 14035 H 1325.29 3.84068 -1.73407 0
M  V30 14036 H 1323.96 3.14644 -0.760327 0
M  V30 14037 H 1322.87 2.32807 -2.92834 0
M  V30 14038 H 1324.2 3.07841 -3.8405 0
M  V30 14039 N 1325.86 1.36875 0.78122 0
M  V30 14040 C 1327.08 1.349 1.57533 0
M  V30 14041 C 1327.51 -0.0655249 1.87986 0
M  V30 14042 O 1326.86 -1.03986 1.48515 0
M  V30 14043 C 1326.91 2.18562 2.86815 0
M  V30 14044 O 1326.02 1.58374 3.80777 0
M  V30 14045 H 1325.36 0.461355 0.477543 0
M  V30 14046 H 1327.89 1.80271 0.96766 0
M  V30 14047 H 1327.9 2.31436 3.36008 0
M  V30 14048 H 1326.57 3.21385 2.63978 0
M  V30 14049 H 1325.15 1.54487 3.39394 0
M  V30 14050 N 1327.33 -1.00632 1.21289 0
M  V30 14051 C 1328.26 -2.11238 0.995021 0
M  V30 14052 C 1329.24 -1.69914 -0.0795537 0
M  V30 14053 O 1330.43 -1.94035 0.0800152 0
M  V30 14054 C 1327.56 -3.42797 0.557475 0
M  V30 14055 C 1326.51 -3.97909 1.57646 0
M  V30 14056 C 1325.84 -5.25357 0.995197 0
M  V30 14057 C 1327.14 -4.30123 2.96297 0
M  V30 14058 H 1328.83 -2.29722 1.9201 0
M  V30 14059 H 1326.38 -1.10395 0.924602 0
M  V30 14060 H 1328.33 -4.19571 0.392236 0
M  V30 14061 H 1327.06 -3.24101 -0.403253 0
M  V30 14062 H 1325.72 -3.23254 1.72924 0
M  V30 14063 H 1325.36 -5.02993 0.026227 0
M  V30 14064 H 1325.06 -5.63196 1.67583 0
M  V30 14065 H 1326.59 -6.04777 0.841251 0
M  V30 14066 H 1328 -4.97744 2.8447 0
M  V30 14067 H 1326.4 -4.79101 3.61361 0
M  V30 14068 H 1327.47 -3.38454 3.47242 0
M  V30 14069 N 1328.81 -1.02043 -1.20104 0
M  V30 14070 C 1329.74 -0.614421 -2.25271 0
M  V30 14071 C 1330.72 0.37242 -1.65973 0
M  V30 14072 O 1331.91 0.257005 -1.92492 0
M  V30 14073 C 1329.04 0.0442085 -3.47272 0
M  V30 14074 C 1327.99 -0.864019 -4.19188 0
M  V30 14075 C 1327.32 -0.0709551 -5.34653 0
M  V30 14076 C 1328.62 -2.17385 -4.74912 0
M  V30 14077 H 1330.31 -1.49355 -2.59487 0
M  V30 14078 H 1327.86 -0.719591 -1.24731 0
M  V30 14079 H 1329.81 0.339825 -4.20028 0
M  V30 14080 H 1328.53 0.958082 -3.12231 0
M  V30 14081 H 1327.19 -1.1437 -3.48303 0
M  V30 14082 H 1326.84 0.844688 -4.95857 0
M  V30 14083 H 1326.54 -0.67583 -5.83701 0
M  V30 14084 H 1328.07 0.218118 -6.1021 0
M  V30 14085 H 1329.48 -1.94034 -5.39466 0
M  V30 14086 H 1327.88 -2.72991 -5.34412 0
M  V30 14087 H 1328.95 -2.83427 -3.93443 0
M  V30 14088 N 1330.29 1.35952 -0.797165 0
M  V30 14089 C 1331.24 2.29941 -0.198995 0
M  V30 14090 C 1332.21 1.52355 0.661592 0
M  V30 14091 O 1333.39 1.80832 0.60865 0
M  V30 14092 C 1330.53 3.38846 0.654033 0
M  V30 14093 C 1329.65 4.31409 -0.225949 0
M  V30 14094 C 1328.78 5.27401 0.634188 0
M  V30 14095 C 1327.82 6.11602 -0.246773 0
M  V30 14096 N 1326.96 6.9976 0.57279 0
M  V30 14097 H 1331.8 2.80508 -1.00594 0
M  V30 14098 H 1329.33 1.38064 -0.507617 0
M  V30 14099 H 1331.29 4.00643 1.16367 0
M  V30 14100 H 1329.92 2.89578 1.42633 0
M  V30 14101 H 1328.97 3.70699 -0.853616 0
M  V30 14102 H 1330.29 4.90532 -0.904416 0
M  V30 14103 H 1329.44 5.94525 1.20933 0
M  V30 14104 H 1328.18 4.68751 1.34625 0
M  V30 14105 H 1327.18 5.43434 -0.834258 0
M  V30 14106 H 1328.41 6.72329 -0.956559 0
M  V30 14107 H 1326.35 6.43609 1.26901 0
M  V30 14108 H 1326.27 7.55985 -0.0478303 0
M  V30 14109 H 1327.54 7.71244 1.13151 0
M  V30 14110 N 1331.77 0.549846 1.47697 0
M  V30 14111 C 1333.18 0.209085 1.58225 0
M  V30 14112 C 1333.38 -1.28823 1.54941 0
M  V30 14113 O 1332.44 -2.0679 1.44893 0
M  V30 14114 C 1333.75 0.829219 2.89041 0
M  V30 14115 C 1335.3 0.79977 3.0261 0
M  V30 14116 C 1335.78 1.39884 4.36115 0
M  V30 14117 N 1337.27 1.36169 4.42733 0
M  V30 14118 C 1338 1.79492 5.44583 0
M  V30 14119 N 1337.5 2.30637 6.53283 0
M  V30 14120 N 1339.29 1.70608 5.35583 0
M  V30 14121 H 1331.44 1.52275 1.48074 0
M  V30 14122 H 1333.71 0.634579 0.704283 0
M  V30 14123 H 1333.41 1.88122 2.97158 0
M  V30 14124 H 1333.29 0.317916 3.75858 0
M  V30 14125 H 1335.67 -0.243525 2.94093 0
M  V30 14126 H 1335.75 1.34875 2.17353 0
M  V30 14127 H 1335.4 2.44116 4.45387 0
M  V30 14128 H 1335.33 0.825362 5.20092 0
M  V30 14129 H 1337.82 0.987505 3.64769 0
M  V30 14130 H 1338.13 2.61637 7.27163 0
M  V30 14131 H 1336.48 2.34643 6.54192 0
M  V30 14132 H 1339.67 1.30434 4.4956 0
M  V30 14133 H 1339.84 2.0469 6.14822 0
M  V30 14134 N 1333.25 -1.54984 0.285932 0
M  V30 14135 C 1334.66 -1.59455 -0.0679061 0
M  V30 14136 C 1334.86 -1.30308 -1.53695 0
M  V30 14137 O 1333.92 -1.06918 -2.28746 0
M  V30 14138 C 1335.23 -2.9903 0.316469 0
M  V30 14139 C 1336.78 -3.11885 0.263982 0
M  V30 14140 C 1337.25 -4.53744 0.622956 0
M  V30 14141 N 1338.75 -4.59618 0.574917 0
M  V30 14142 C 1339.48 -5.67429 0.825339 0
M  V30 14143 N 1338.98 -6.83341 1.14094 0
M  V30 14144 N 1340.77 -5.57028 0.75341 0
M  V30 14145 H 1332.92 -1.72194 1.2435 0
M  V30 14146 H 1335.18 -0.80348 0.503114 0
M  V30 14147 H 1334.89 -3.25232 1.33855 0
M  V30 14148 H 1334.76 -3.75688 -0.337371 0
M  V30 14149 H 1337.15 -2.85441 -0.748832 0
M  V30 14150 H 1337.23 -2.37416 0.952233 0
M  V30 14151 H 1336.88 -4.80915 1.63351 0
M  V30 14152 H 1336.81 -5.26528 -0.0872039 0
M  V30 14153 H 1339.3 -3.76356 0.341305 0
M  V30 14154 H 1339.61 -7.61471 1.3184 0
M  V30 14155 H 1337.95 -6.8493 1.17883 0
M  V30 14156 H 1341.15 -4.6535 0.506611 0
M  V30 14157 H 1341.32 -6.4097 0.95195 0
M  V30 14158 N 1334.72 -0.0133892 -1.57594 0
M  V30 14159 C 1336.14 0.527615 -1.7909 0
M  V30 14160 C 1336.49 1.73179 -0.922142 0
M  V30 14161 O 1335.61 2.1602 -0.128233 0
M  V30 14162 C 1336.21 0.963949 -3.24798 0
M  V30 14163 C 1334.77 1.45017 -3.47343 0
M  V30 14164 C 1333.91 0.407548 -2.74289 0
M  V30 14165 H 1336.86 -0.239505 -1.56882 0
M  V30 14166 H 1336.88 1.82924 -3.33645 0
M  V30 14167 H 1336.4 0.0873315 -3.88002 0
M  V30 14168 H 1334.5 2.34724 -2.89371 0
M  V30 14169 H 1334.61 1.4684 -4.56043 0
M  V30 14170 H 1332.97 0.872174 -2.39301 0
M  V30 14171 H 1333.76 -0.460333 -3.402 0
M  V30 14172 N 1336.2 1.55448 0.259558 0
M  V30 14173 C 1337.43 1.80465 1.00577 0
M  V30 14174 C 1337.84 0.585001 1.79929 0
M  V30 14175 O 1337.18 -0.455641 1.7796 0
M  V30 14176 C 1337.25 2.98634 2.00146 0
M  V30 14177 C 1336.91 4.35154 1.39607 0
M  V30 14178 C 1337.91 5.13631 0.804923 0
M  V30 14179 C 1335.59 4.81833 1.41923 0
M  V30 14180 C 1337.59 6.36929 0.245007 0
M  V30 14181 C 1335.27 6.05083 0.855458 0
M  V30 14182 C 1336.27 6.82469 0.269359 0
M  V30 14183 O 1335.96 8.03392 -0.285743 0
M  V30 14184 H 1335.69 0.604693 0.302196 0
M  V30 14185 H 1338.24 2.0332 0.291599 0
M  V30 14186 H 1336.47 2.71504 2.75359 0
M  V30 14187 H 1338.16 3.10855 2.61006 0
M  V30 14188 H 1338.93 4.78693 0.779625 0
M  V30 14189 H 1334.81 4.21599 1.86481 0
M  V30 14190 H 1338.35 6.97274 -0.213098 0
M  V30 14191 H 1334.25 6.395 0.878041 0
M  V30 14192 H 1335.02 8.1831 -0.17639 0
M  V30 14193 N 1337.68 -0.524672 1.4861 0
M  V30 14194 C 1338.93 -1.27768 1.56588 0
M  V30 14195 C 1339.25 -1.93469 0.243899 0
M  V30 14196 O 1338.52 -1.8159 -0.734985 0
M  V30 14197 H 1337.1 -0.474566 0.576885 0
M  V30 14198 H 1339.76 -0.610114 1.85104 0
M  V30 14199 H 1338.86 -2.05416 2.34969 0
M  V30 14200 N 1339.16 -1.37287 -0.77395 0
M  V30 14201 C 1340.57 -1.18039 -1.0742 0
M  V30 14202 C 1340.77 -0.0150339 -2.01494 0
M  V30 14203 O 1339.83 0.645562 -2.44108 0
M  V30 14204 C 1341.14 -2.49808 -1.67382 0
M  V30 14205 C 1342.69 -2.5631 -1.7965 0
M  V30 14206 C 1343.17 -3.88204 -2.43025 0
M  V30 14207 N 1344.66 -3.89634 -2.50478 0
M  V30 14208 C 1345.39 -4.88437 -3.00361 0
M  V30 14209 N 1344.89 -5.97635 -3.50434 0
M  V30 14210 N 1346.68 -4.75843 -2.99215 0
M  V30 14211 H 1338.83 -2.11875 -0.149269 0
M  V30 14212 H 1341.1 -0.939203 -0.128846 0
M  V30 14213 H 1340.8 -3.35433 -1.05726 0
M  V30 14214 H 1340.68 -2.66737 -2.66704 0
M  V30 14215 H 1343.06 -1.71094 -2.40439 0
M  V30 14216 H 1343.14 -2.43266 -0.790894 0
M  V30 14217 H 1342.79 -4.73834 -1.82876 0
M  V30 14218 H 1342.72 -3.98551 -3.44187 0
M  V30 14219 H 1345.21 -3.10751 -2.15039 0
M  V30 14220 H 1345.52 -6.6898 -3.86893 0
M  V30 14221 H 1343.87 -6.01283 -3.48545 0
M  V30 14222 H 1347.06 -3.89656 -2.59395 0
M  V30 14223 H 1347.23 -5.52999 -3.37781 0
M  V30 14224 N 1340.64 0.999871 -1.21821 0
M  V30 14225 C 1341.58 2.10985 -0.979183 0
M  V30 14226 C 1342.58 1.69232 0.0753287 0
M  V30 14227 O 1343.78 1.79837 -0.0765083 0
M  V30 14228 H 1340.16 0.689819 -0.299421 0
M  V30 14229 H 1342.13 2.28322 -1.92124 0
M  V30 14230 C 1340.88 3.43062 -0.56602 0
M  V30 14231 H 1340.2 3.75627 -1.36909 0
M  V30 14232 H 1341.64 4.2173 -0.43813 0
M  V30 14233 C 1340.1 3.29036 0.723647 0
M  V30 14234 O 1340.63 3.60214 1.77788 0
M  V30 14235 N 1338.84 2.82237 0.692126 0
M  V30 14236 H 1338.38 2.57064 -0.166082 0
M  V30 14237 H 1338.34 2.73235 1.55532 0
M  V30 14238 N 1342.11 1.02678 1.19562 0
M  V30 14239 C 1343.06 0.605764 2.22709 0
M  V30 14240 C 1344.03 -0.37936 1.6171 0
M  V30 14241 O 1345.22 -0.276496 1.88786 0
M  V30 14242 C 1342.36 -0.0394312 3.45077 0
M  V30 14243 C 1341.47 0.991481 4.20468 0
M  V30 14244 C 1340.6 0.316269 5.30258 0
M  V30 14245 C 1339.64 1.33324 5.97404 0
M  V30 14246 N 1338.78 0.683979 6.9876 0
M  V30 14247 H 1343.62 1.48994 2.58079 0
M  V30 14248 H 1341.16 0.745636 1.26802 0
M  V30 14249 H 1343.12 -0.430726 4.14971 0
M  V30 14250 H 1341.75 -0.887193 3.10369 0
M  V30 14251 H 1340.8 1.50085 3.49541 0
M  V30 14252 H 1342.11 1.76449 4.66548 0
M  V30 14253 H 1341.26 -0.129983 6.06561 0
M  V30 14254 H 1340 -0.488956 4.85243 0
M  V30 14255 H 1339.01 1.78977 5.19853 0
M  V30 14256 H 1340.23 2.13992 6.44503 0
M  V30 14257 H 1338.18 -0.101192 6.55922 0
M  V30 14258 H 1338.1 1.3949 7.4302 0
M  V30 14259 H 1339.36 0.261658 7.79061 0
M  V30 14260 N 1343.59 -1.35528 0.804364 0
M  V30 14261 C 1345 -1.81321 0.444933 0
M  V30 14262 C 1345.35 -1.66816 -1.03281 0
M  V30 14263 O 1344.48 -1.19753 -1.80245 0
M  V30 14264 C 1345.07 -3.29199 0.800827 0
M  V30 14265 C 1343.63 -3.73144 0.494026 0
M  V30 14266 C 1342.78 -2.57557 1.02761 0
M  V30 14267 H 1345.73 -1.23537 0.996203 0
M  V30 14268 H 1345.75 -3.80375 0.0975117 0
M  V30 14269 H 1345.26 -3.39725 1.8764 0
M  V30 14270 H 1343.37 -3.68169 -0.572901 0
M  V30 14271 H 1343.48 -4.68005 1.0251 0
M  V30 14272 H 1341.84 -2.50692 0.450048 0
M  V30 14273 H 1342.63 -2.70861 2.10925 0
M  V30 14274 N 1345.07 -0.557671 -1.47404 0
M  V30 14275 C 1346 0.178019 -2.3282 0
M  V30 14276 C 1346.98 0.908318 -1.43818 0
M  V30 14277 O 1348.17 0.888693 -1.72673 0
M  V30 14278 C 1345.3 1.2082 -3.25607 0
M  V30 14279 C 1344.25 0.594335 -4.23853 0
M  V30 14280 C 1343.58 1.72919 -5.05968 0
M  V30 14281 C 1344.88 -0.452196 -5.20339 0
M  V30 14282 H 1346.57 -0.535091 -2.9458 0
M  V30 14283 H 1344.12 -0.258775 -1.41656 0
M  V30 14284 H 1346.07 1.73104 -3.84204 0
M  V30 14285 H 1344.79 1.95126 -2.61903 0
M  V30 14286 H 1343.45 0.0927898 -3.66483 0
M  V30 14287 H 1343.1 2.4613 -4.38668 0
M  V30 14288 H 1342.8 1.32422 -5.72484 0
M  V30 14289 H 1344.33 2.25527 -5.67424 0
M  V30 14290 H 1345.74 -0.0154011 -5.73298 0
M  V30 14291 H 1344.14 -0.776068 -5.95061 0
M  V30 14292 H 1345.21 -1.34791 -4.65789 0
M  V30 14293 N 1346.55 1.54831 -0.294147 0
M  V30 14294 C 1347.8 1.99179 0.317874 0
M  V30 14295 C 1348.11 1.18614 1.55532 0
M  V30 14296 O 1349.32 1.53197 2.24149 0
M  V30 14297 C 1347.77 3.54574 0.616893 0
M  V30 14298 C 1347.38 4.43939 -0.601822 0
M  V30 14299 C 1349.13 4.07465 1.19049 0
M  V30 14300 C 1347.03 5.90754 -0.276336 0
M  V30 14301 H 1345.96 0.743974 0.12255 0
M  V30 14302 H 1348.61 1.79047 -0.401781 0
M  V30 14303 H 1347 3.70579 1.39596 0
M  V30 14304 H 1348.17 4.39706 -1.37822 0
M  V30 14305 H 1346.48 4.01783 -1.09357 0
M  V30 14306 H 1349.08 5.14716 1.44814 0
M  V30 14307 H 1349.42 3.5765 2.13055 0
M  V30 14308 H 1349.96 3.94975 0.473282 0
M  V30 14309 H 1346.7 6.44704 -1.18478 0
M  V30 14310 H 1346.22 5.98011 0.462928 0
M  V30 14311 H 1347.9 6.4688 0.124587 0
M  V30 14312 N 1348.03 0.0217466 1.57585 0
M  V30 14313 C 1349.25 -0.67246 1.96196 0
M  V30 14314 C 1349.68 -1.6529 0.897827 0
M  V30 14315 O 1349.04 -1.80743 -0.142002 0
M  V30 14316 C 1349.08 -1.36162 3.33905 0
M  V30 14317 O 1348.19 -2.47671 3.29747 0
M  V30 14318 H 1347.53 -0.177238 0.639908 0
M  V30 14319 H 1350.06 0.0814073 2.04438 0
M  V30 14320 H 1350.07 -1.7201 3.69968 0
M  V30 14321 H 1348.74 -0.642893 4.10901 0
M  V30 14322 H 1347.32 -2.13989 3.0539 0
M  V30 14323 N 1349.51 -1.55583 -0.251311 0
M  V30 14324 C 1350.92 -1.47908 -0.599606 0
M  V30 14325 C 1351.12 -0.711061 -1.88537 0
M  V30 14326 O 1350.18 -0.238639 -2.5137 0
M  V30 14327 C 1351.49 -2.92284 -0.706429 0
M  V30 14328 C 1353.04 -3.02629 -0.799049 0
M  V30 14329 C 1353.51 -4.48303 -0.93747 0
M  V30 14330 N 1355 -4.52222 -1.00245 0
M  V30 14331 C 1355.74 -5.62181 -1.12874 0
M  V30 14332 N 1355.24 -6.81958 -1.22085 0
M  V30 14333 N 1357.03 -5.49968 -1.16155 0
M  V30 14334 H 1349.18 -2.0396 0.592806 0
M  V30 14335 H 1351.44 -0.925797 0.203971 0
M  V30 14336 H 1351.15 -3.51297 0.168243 0
M  V30 14337 H 1351.02 -3.42524 -1.57979 0
M  V30 14338 H 1353.41 -2.43699 -1.66418 0
M  V30 14339 H 1353.49 -2.55607 0.099367 0
M  V30 14340 H 1353.13 -5.07842 -0.0769166 0
M  V30 14341 H 1353.06 -4.93002 -1.85086 0
M  V30 14342 H 1355.56 -3.65951 -0.94279 0
M  V30 14343 H 1355.87 -7.6151 -1.31616 0
M  V30 14344 H 1354.21 -6.84728 -1.1905 0
M  V30 14345 H 1357.4 -4.55327 -1.08604 0
M  V30 14346 H 1357.58 -6.35701 -1.25653 0
M  V30 14347 N 1350.98 0.516783 -1.48886 0
M  V30 14348 C 1352.21 1.29628 -1.61258 0
M  V30 14349 C 1352.63 1.86744 -0.27786 0
M  V30 14350 O 1351.98 1.67061 0.734639 0
M  V30 14351 C 1352.03 2.43779 -2.66935 0
M  V30 14352 O 1351.76 1.89014 -3.95228 0
M  V30 14353 C 1353.26 3.35398 -2.89867 0
M  V30 14354 H 1350.48 0.393736 -0.543335 0
M  V30 14355 H 1353.02 0.622069 -1.94809 0
M  V30 14356 H 1351.18 3.0706 -2.36206 0
M  V30 14357 H 1351.59 2.63833 -4.53312 0
M  V30 14358 H 1353.06 4.11812 -3.6758 0
M  V30 14359 H 1353.54 3.91436 -1.99185 0
M  V30 14360 H 1354.15 2.77898 -3.21952 0
M  V30 14361 N 1352.46 1.37696 0.766659 0
M  V30 14362 C 1353.39 1.28241 1.88758 0
M  V30 14363 C 1354.37 0.161948 1.61791 0
M  V30 14364 O 1355.56 0.337034 1.85462 0
M  V30 14365 C 1352.68 0.983972 3.24092 0
M  V30 14366 C 1351.73 2.12202 3.69963 0
M  V30 14367 S 1352.56 3.74225 3.83035 0
M  V30 14368 C 1353.72 3.46542 5.2121 0
M  V30 14369 H 1353.95 2.23113 1.96489 0
M  V30 14370 H 1351.48 1.23378 0.92829 0
M  V30 14371 H 1353.44 0.818612 4.02255 0
M  V30 14372 H 1352.1 0.0526544 3.14056 0
M  V30 14373 H 1351.3 1.86834 4.68091 0
M  V30 14374 H 1350.9 2.24778 2.98916 0
M  V30 14375 H 1353.19 3.01845 6.06544 0
M  V30 14376 H 1354.13 4.44016 5.51593 0
M  V30 14377 H 1354.54 2.81353 4.89388 0
M  V30 14378 N 1353.94 -0.993397 1.22349 0
M  V30 14379 C 1354.87 -2.08104 0.936383 0
M  V30 14380 C 1355.85 -1.62153 -0.120505 0
M  V30 14381 O 1357.03 -1.88497 0.0109719 0
M  V30 14382 C 1354.16 -3.36231 0.408225 0
M  V30 14383 C 1353.21 -4.01105 1.44971 0
M  V30 14384 S 1354.04 -4.42021 3.02287 0
M  V30 14385 C 1355.2 -5.7332 2.51108 0
M  V30 14386 H 1355.43 -2.32137 1.8574 0
M  V30 14387 H 1352.96 -1.12781 1.05451 0
M  V30 14388 H 1354.92 -4.10352 0.110086 0
M  V30 14389 H 1353.58 -3.10228 -0.49167 0
M  V30 14390 H 1352.77 -4.93362 1.03003 0
M  V30 14391 H 1352.38 -3.33307 1.69653 0
M  V30 14392 H 1354.67 -6.49631 1.92317 0
M  V30 14393 H 1355.61 -6.20115 3.41853 0
M  V30 14394 H 1356.02 -5.30696 1.9241 0
M  V30 14395 N 1355.42 -1.03311 -1.19015 0
M  V30 14396 C 1356.36 -0.617567 -2.22384 0
M  V30 14397 C 1357.33 0.370779 -1.61909 0
M  V30 14398 O 1358.52 0.266481 -1.8893 0
M  V30 14399 C 1355.66 0.0211303 -3.45094 0
M  V30 14400 C 1354.77 -1.01377 -4.19937 0
M  V30 14401 C 1353.91 -0.344385 -5.30082 0
M  V30 14402 C 1352.95 -1.3649 -5.96688 0
M  V30 14403 N 1352.08 -0.721026 -6.98388 0
M  V30 14404 H 1356.92 -1.5036 -2.57286 0
M  V30 14405 H 1354.46 -0.75235 -1.26405 0
M  V30 14406 H 1356.42 0.408713 -4.15193 0
M  V30 14407 H 1355.05 0.870721 -3.10835 0
M  V30 14408 H 1354.1 -1.51937 -3.4874 0
M  V30 14409 H 1355.41 -1.78921 -4.65606 0
M  V30 14410 H 1354.57 0.097814 -6.06621 0
M  V30 14411 H 1353.31 0.463216 -4.85495 0
M  V30 14412 H 1352.31 -1.81732 -5.18897 0
M  V30 14413 H 1353.54 -2.17407 -6.43359 0
M  V30 14414 H 1351.48 0.0664057 -6.55966 0
M  V30 14415 H 1351.4 -1.43428 -7.4227 0
M  V30 14416 H 1352.67 -0.30297 -7.78911 0
M  V30 14417 N 1356.9 1.35099 -0.81154 0
M  V30 14418 C 1357.84 2.31618 -0.213536 0
M  V30 14419 C 1358.84 1.56868 0.63944 0
M  V30 14420 O 1360.04 1.71957 0.532051 0
M  V30 14421 H 1356.42 0.750316 -0.0502963 0
M  V30 14422 H 1358.39 2.79593 -1.04262 0
M  V30 14423 C 1357.14 3.4214 0.619293 0
M  V30 14424 H 1356.46 3.9979 -0.0277192 0
M  V30 14425 H 1357.9 4.11941 1.00401 0
M  V30 14426 C 1356.36 2.85607 1.7869 0
M  V30 14427 O 1356.89 2.7956 2.8846 0
M  V30 14428 N 1355.1 2.42587 1.6 0
M  V30 14429 H 1354.64 2.47705 0.707105 0
M  V30 14430 H 1354.6 2.0511 2.38279 0
M  V30 14431 N 1358.37 0.56548 1.47106 0
M  V30 14432 C 1359.62 0.042333 2.01656 0
M  V30 14433 C 1359.94 -1.31892 1.44443 0
M  V30 14434 O 1361.14 -1.93245 1.90706 0
M  V30 14435 C 1359.6 0.0251556 3.59891 0
M  V30 14436 C 1359.21 1.38367 4.26097 0
M  V30 14437 C 1360.95 -0.44495 4.22162 0
M  V30 14438 C 1358.86 1.32516 5.76362 0
M  V30 14439 H 1357.79 0.0120557 0.753904 0
M  V30 14440 H 1360.44 0.714565 1.69015 0
M  V30 14441 H 1358.82 -0.712893 3.8953 0
M  V30 14442 H 1359.99 2.14009 4.08089 0
M  V30 14443 H 1358.31 1.79239 3.75849 0
M  V30 14444 H 1360.91 -0.507256 5.32288 0
M  V30 14445 H 1361.25 -1.45876 3.89905 0
M  V30 14446 H 1361.78 0.238496 3.97084 0
M  V30 14447 H 1358.52 2.31523 6.13252 0
M  V30 14448 H 1358.04 0.610674 5.96683 0
M  V30 14449 H 1359.72 1.03072 6.38737 0
M  V30 14450 N 1359.85 -1.54672 0.302354 0
M  V30 14451 C 1360.78 -2.2653 -0.566265 0
M  V30 14452 C 1361.76 -1.26532 -1.13682 0
M  V30 14453 O 1362.95 -1.55307 -1.1659 0
M  V30 14454 C 1360.08 -3.00709 -1.73757 0
M  V30 14455 C 1359.03 -4.07865 -1.29731 0
M  V30 14456 C 1358.36 -4.69767 -2.55388 0
M  V30 14457 C 1359.66 -5.20547 -0.427567 0
M  V30 14458 H 1361.35 -2.99382 0.033071 0
M  V30 14459 H 1358.9 -1.4399 0.0173458 0
M  V30 14460 H 1360.85 -3.497 -2.35134 0
M  V30 14461 H 1359.58 -2.25437 -2.36317 0
M  V30 14462 H 1358.23 -3.59726 -0.706586 0
M  V30 14463 H 1357.88 -3.91134 -3.16265 0
M  V30 14464 H 1357.58 -5.42137 -2.26631 0
M  V30 14465 H 1359.11 -5.21521 -3.17566 0
M  V30 14466 H 1360.52 -5.65424 -0.947053 0
M  V30 14467 H 1358.92 -5.99645 -0.233704 0
M  V30 14468 H 1359.99 -4.81805 0.546993 0
M  V30 14469 N 1361.33 -0.0301034 -1.57571 0
M  V30 14470 C 1362.58 0.647042 -1.91462 0
M  V30 14471 C 1362.9 1.72612 -0.907206 0
M  V30 14472 O 1362.17 1.95833 0.0511268 0
M  V30 14473 H 1360.75 0.241988 -0.706718 0
M  V30 14474 H 1363.41 -0.0781385 -1.94743 0
M  V30 14475 H 1362.51 1.09915 -2.92105 0
M  V30 14476 N 1362.81 1.55714 0.243056 0
M  V30 14477 C 1363.76 1.87031 1.30397 0
M  V30 14478 C 1364.74 0.731497 1.43311 0
M  V30 14479 O 1365.93 0.9935 1.46487 0
M  V30 14480 C 1363.06 2.17185 2.65868 0
M  V30 14481 C 1362.15 3.37403 2.56944 0
M  V30 14482 N 1362.54 4.56575 2.17653 0
M  V30 14483 C 1360.84 3.4059 2.87949 0
M  V30 14484 C 1361.54 5.38715 2.19455 0
M  V30 14485 N 1360.52 4.77875 2.59108 0
M  V30 14486 H 1364.32 2.76697 0.990755 0
M  V30 14487 H 1361.83 1.55992 0.451675 0
M  V30 14488 H 1363.83 2.37787 3.42437 0
M  V30 14489 H 1362.49 1.28819 2.98053 0
M  V30 14490 H 1363.5 4.82129 1.89134 0
M  V30 14491 H 1360.18 2.62506 3.24648 0
M  V30 14492 H 1361.57 6.44066 1.91385 0
M  V30 14493 N 1364.29 -0.50888 1.49158 0
M  V30 14494 C 1365.25 -1.59354 1.64739 0
M  V30 14495 C 1366.25 -1.52175 0.519557 0
M  V30 14496 O 1367.44 -1.55468 0.785838 0
M  V30 14497 C 1364.57 -2.99002 1.63739 0
M  V30 14498 H 1365.76 -1.46871 2.61474 0
M  V30 14499 H 1363.32 -0.732532 1.38071 0
M  V30 14500 H 1364.05 -3.1697 0.685583 0
M  V30 14501 H 1363.84 -3.05622 2.45637 0
M  V30 14502 H 1365.33 -3.77822 1.77877 0
M  V30 14503 N 1365.76 -1.381 -0.759346 0
M  V30 14504 C 1367.01 -1.33992 -1.5183 0
M  V30 14505 C 1367.34 0.0718172 -1.94367 0
M  V30 14506 O 1366.59 1.0477 -1.65293 0
M  V30 14507 C 1366.89 -2.23636 -2.78786 0
M  V30 14508 C 1366.56 -3.71703 -2.5524 0
M  V30 14509 C 1365.22 -4.12053 -2.48528 0
M  V30 14510 C 1367.57 -4.65455 -2.34523 0
M  V30 14511 C 1364.9 -5.44252 -2.19105 0
M  V30 14512 C 1367.25 -5.97905 -2.06622 0
M  V30 14513 C 1365.92 -6.37345 -1.98362 0
M  V30 14514 H 1365.19 -0.490311 -0.555587 0
M  V30 14515 H 1367.83 -1.70411 -0.873637 0
M  V30 14516 H 1366.14 -1.80253 -3.47874 0
M  V30 14517 H 1367.84 -2.17764 -3.36719 0
M  V30 14518 H 1364.43 -3.3971 -2.61333 0
M  V30 14519 H 1368.61 -4.35132 -2.38691 0
M  V30 14520 H 1363.87 -5.73758 -2.11214 0
M  V30 14521 H 1368.04 -6.70095 -1.89594 0
M  V30 14522 H 1365.67 -7.39706 -1.75328 0
M  V30 14523 N 1367.24 0.986894 -1.22875 0
M  V30 14524 C 1368.47 1.7601 -1.08185 0
M  V30 14525 C 1368.88 1.85545 0.370088 0
M  V30 14526 O 1368.22 1.32915 1.26804 0
M  V30 14527 C 1368.29 3.20661 -1.62532 0
M  V30 14528 C 1367.95 3.34655 -3.11216 0
M  V30 14529 C 1368.95 3.21493 -4.08581 0
M  V30 14530 C 1366.63 3.59512 -3.50794 0
M  V30 14531 C 1368.63 3.32983 -5.43508 0
M  V30 14532 C 1366.31 3.70642 -4.85868 0
M  V30 14533 C 1367.31 3.57387 -5.82034 0
M  V30 14534 O 1367 3.68135 -7.14655 0
M  V30 14535 H 1366.73 0.559402 -0.379533 0
M  V30 14536 H 1369.28 1.24905 -1.63058 0
M  V30 14537 H 1367.51 3.72985 -1.02073 0
M  V30 14538 H 1369.2 3.7972 -1.43415 0
M  V30 14539 H 1369.97 3.02193 -3.79347 0
M  V30 14540 H 1365.85 3.68904 -2.76461 0
M  V30 14541 H 1369.39 3.22553 -6.18551 0
M  V30 14542 H 1365.29 3.89451 -5.1478 0
M  V30 14543 H 1366.06 3.84971 -7.22316 0
M  V30 14544 N 1368.72 1.0394 1.18466 0
M  V30 14545 C 1369.65 0.587413 2.21545 0
M  V30 14546 C 1370.67 -0.34227 1.59161 0
M  V30 14547 O 1371.85 -0.136988 1.77974 0
M  V30 14548 C 1368.95 -0.161999 3.38513 0
M  V30 14549 C 1368.13 0.775243 4.30475 0
M  V30 14550 C 1367.19 0.0693526 5.26154 0
M  V30 14551 O 1366.21 0.69937 5.64887 0
M  V30 14552 N 1367.41 -1.19773 5.68009 0
M  V30 14553 H 1370.18 1.47399 2.60948 0
M  V30 14554 H 1367.74 0.919734 1.33239 0
M  V30 14555 H 1369.73 -0.644041 3.99542 0
M  V30 14556 H 1368.3 -0.950099 2.97812 0
M  V30 14557 H 1367.52 1.43717 3.67068 0
M  V30 14558 H 1368.81 1.41187 4.88819 0
M  V30 14559 H 1368.21 -1.73013 5.38593 0
M  V30 14560 H 1366.77 -1.62407 6.31243 0
M  V30 14561 N 1370.2 -1.34667 0.818693 0
M  V30 14562 C 1371.13 -2.32134 0.252239 0
M  V30 14563 C 1372.11 -1.58044 -0.628982 0
M  V30 14564 O 1373.29 -1.86049 -0.55674 0
M  V30 14565 C 1370.42 -3.42249 -0.590183 0
M  V30 14566 C 1369.38 -4.27562 0.193547 0
M  V30 14567 C 1368.7 -5.29107 -0.771349 0
M  V30 14568 C 1370 -5.03205 1.39936 0
M  V30 14569 H 1371.7 -2.79758 1.06657 0
M  V30 14570 H 1369.24 -1.34502 0.514325 0
M  V30 14571 H 1371.2 -4.09445 -0.996616 0
M  V30 14572 H 1369.92 -2.93262 -1.43752 0
M  V30 14573 H 1368.58 -3.61962 0.581297 0
M  V30 14574 H 1368.23 -4.76384 -1.61453 0
M  V30 14575 H 1367.93 -5.87063 -0.251201 0
M  V30 14576 H 1369.45 -5.99174 -1.17573 0
M  V30 14577 H 1370.87 -5.6328 1.06717 0
M  V30 14578 H 1369.26 -5.70715 1.85485 0
M  V30 14579 H 1370.33 -4.33145 2.17976 0
M  V30 14580 N 1371.68 -0.573274 -1.46804 0
M  V30 14581 C 1372.93 -0.0530267 -2.0163 0
M  V30 14582 C 1373.24 1.31124 -1.45141 0
M  V30 14583 O 1374.44 1.92231 -1.91728 0
M  V30 14584 C 1372.9 -0.0442411 -3.59873 0
M  V30 14585 C 1372.51 -1.40625 -4.25357 0
M  V30 14586 C 1374.25 0.422556 -4.22392 0
M  V30 14587 C 1372.16 -1.3557 -5.75652 0
M  V30 14588 H 1371.09 -0.0160537 -0.753829 0
M  V30 14589 H 1373.74 -0.723518 -1.68634 0
M  V30 14590 H 1372.12 0.692225 -3.89903 0
M  V30 14591 H 1373.3 -2.1617 -4.06949 0
M  V30 14592 H 1371.61 -1.81229 -3.74893 0
M  V30 14593 H 1374.21 0.479021 -5.3255 0
M  V30 14594 H 1374.55 1.43806 -3.90673 0
M  V30 14595 H 1375.08 -0.259551 -3.96952 0
M  V30 14596 H 1371.82 -2.34772 -6.12015 0
M  V30 14597 H 1371.34 -0.642309 -5.96351 0
M  V30 14598 H 1373.02 -1.06458 -6.38182 0
M  V30 14599 N 1373.15 1.5451 -0.310553 0
M  V30 14600 C 1374.4 2.00623 0.296343 0
M  V30 14601 C 1374.73 1.19855 1.52802 0
M  V30 14602 O 1374.01 0.277468 1.92511 0
M  V30 14603 C 1374.29 3.54305 0.643448 0
M  V30 14604 C 1374.14 4.45807 -0.598029 0
M  V30 14605 C 1375.46 4.14958 1.46623 0
M  V30 14606 H 1372.58 0.729303 0.106236 0
M  V30 14607 H 1375.22 1.85196 -0.424549 0
M  V30 14608 H 1373.37 3.67581 1.25762 0
M  V30 14609 H 1375.05 4.44421 -1.23643 0
M  V30 14610 H 1373.29 4.16014 -1.22944 0
M  V30 14611 H 1373.96 5.51124 -0.310883 0
M  V30 14612 H 1376.44 4.05176 0.947199 0
M  V30 14613 H 1375.31 5.22627 1.67787 0
M  V30 14614 H 1375.57 3.67445 2.45839 0
M  V30 14615 N 1374.63 0.0384594 1.57553 0
M  V30 14616 C 1375.88 -0.637533 1.91359 0
M  V30 14617 C 1376.2 -1.7275 0.91744 0
M  V30 14618 O 1377.4 -2.46078 1.14709 0
M  V30 14619 C 1375.86 -1.18526 3.39823 0
M  V30 14620 C 1375.47 -0.128086 4.47817 0
M  V30 14621 C 1377.21 -1.83723 3.82683 0
M  V30 14622 C 1375.12 -0.687978 5.87385 0
M  V30 14623 H 1374.05 -0.241898 0.714144 0
M  V30 14624 H 1376.7 0.105281 1.83198 0
M  V30 14625 H 1375.08 -1.97999 3.42947 0
M  V30 14626 H 1376.25 0.644865 4.56265 0
M  V30 14627 H 1374.57 0.425672 4.14219 0
M  V30 14628 H 1377.17 -2.26585 4.84317 0
M  V30 14629 H 1377.51 -2.68377 3.18244 0
M  V30 14630 H 1378.04 -1.10926 3.82021 0
M  V30 14631 H 1374.78 0.120642 6.55389 0
M  V30 14632 H 1374.3 -1.4292 5.82524 0
M  V30 14633 H 1375.98 -1.17483 6.36244 0
M  V30 14634 N 1376.11 -1.55841 -0.234795 0
M  V30 14635 C 1377.36 -1.78238 -0.961116 0
M  V30 14636 C 1377.69 -0.604919 -1.84854 0
M  V30 14637 O 1376.94 0.411289 -1.91329 0
M  V30 14638 C 1377.24 -3.06262 -1.84223 0
M  V30 14639 C 1376.91 -4.37045 -1.10916 0
M  V30 14640 C 1375.57 -4.72582 -0.906606 0
M  V30 14641 C 1377.92 -5.17844 -0.59049 0
M  V30 14642 C 1375.25 -5.86444 -0.173275 0
M  V30 14643 C 1377.6 -6.32468 0.129433 0
M  V30 14644 C 1376.26 -6.66616 0.343357 0
M  V30 14645 H 1375.53 -0.652219 -0.351697 0
M  V30 14646 H 1378.18 -1.9011 -0.230272 0
M  V30 14647 H 1376.49 -2.89454 -2.64052 0
M  V30 14648 H 1378.18 -3.20791 -2.40612 0
M  V30 14649 H 1374.77 -4.09134 -1.27699 0
M  V30 14650 H 1378.96 -4.90835 -0.734487 0
M  V30 14651 H 1374.21 -6.114 0.00282409 0
M  V30 14652 H 1378.39 -6.94312 0.538905 0
M  V30 14653 H 1376.01 -7.54691 0.913538 0
M  V30 14654 N 1377.59 0.500963 -1.49426 0
M  V30 14655 C 1378.84 1.25171 -1.58162 0
M  V30 14656 C 1379.15 1.93678 -0.273556 0
M  V30 14657 O 1380.36 2.70442 -0.239462 0
M  V30 14658 C 1378.81 2.27276 -2.79059 0
M  V30 14659 C 1378.42 1.64708 -4.16624 0
M  V30 14660 C 1380.17 3.03178 -2.97125 0
M  V30 14661 C 1378.07 2.64923 -5.28743 0
M  V30 14662 H 1377 0.470867 -0.588897 0
M  V30 14663 H 1379.65 0.525569 -1.75812 0
M  V30 14664 H 1378.04 3.03052 -2.54903 0
M  V30 14665 H 1379.21 0.949231 -4.50917 0
M  V30 14666 H 1377.52 1.01195 -4.03916 0
M  V30 14667 H 1380.12 3.78122 -3.78058 0
M  V30 14668 H 1380.46 3.60793 -2.07687 0
M  V30 14669 H 1381 2.34517 -3.2132 0
M  V30 14670 H 1377.74 2.12089 -6.20241 0
M  V30 14671 H 1377.26 3.32948 -4.98904 0
M  V30 14672 H 1378.94 3.27349 -5.58079 0
M  V30 14673 N 1379.07 1.38501 0.752011 0
M  V30 14674 C 1380 1.38577 1.87933 0
M  V30 14675 C 1380.98 0.251454 1.68231 0
M  V30 14676 O 1382.16 0.45477 1.888 0
M  V30 14677 C 1379.29 1.21164 3.25479 0
M  V30 14678 C 1378.25 2.31816 3.59785 0
M  V30 14679 C 1377.57 1.99508 4.96085 0
M  V30 14680 C 1378.87 3.74082 3.645 0
M  V30 14681 H 1380.57 2.32913 1.88127 0
M  V30 14682 H 1378.11 1.12113 0.903698 0
M  V30 14683 H 1380.07 1.19842 4.04 0
M  V30 14684 H 1378.79 0.232899 3.25769 0
M  V30 14685 H 1377.45 2.32327 2.83584 0
M  V30 14686 H 1377.1 1.00114 4.92936 0
M  V30 14687 H 1376.8 2.73617 5.20007 0
M  V30 14688 H 1378.32 1.99807 5.76983 0
M  V30 14689 H 1379.74 3.75593 4.33131 0
M  V30 14690 H 1378.13 4.47409 3.99931 0
M  V30 14691 H 1379.2 4.06284 2.64692 0
M  V30 14692 N 1380.55 -0.980364 1.23396 0
M  V30 14693 C 1381.79 -1.72421 1.06765 0
M  V30 14694 C 1382.12 -1.90151 -0.394515 0
M  V30 14695 O 1381.4 -1.4538 -1.29209 0
M  V30 14696 C 1381.68 -3.12246 1.79372 0
M  V30 14697 C 1381.54 -3.02087 3.33262 0
M  V30 14698 C 1382.85 -4.11667 1.55624 0
M  V30 14699 H 1379.97 -0.625822 0.389251 0
M  V30 14700 H 1382.62 -1.14132 1.51901 0
M  V30 14701 H 1380.77 -3.62008 1.41004 0
M  V30 14702 H 1382.44 -2.59848 3.81152 0
M  V30 14703 H 1380.68 -2.38592 3.62293 0
M  V30 14704 H 1381.35 -4.01087 3.79254 0
M  V30 14705 H 1383.83 -3.70712 1.88975 0
M  V30 14706 H 1382.7 -5.07593 2.08902 0
M  V30 14707 H 1382.96 -4.39358 0.491601 0
M  V30 14708 N 1382.02 -1.04567 -1.17913 0
M  V30 14709 C 1383.27 -0.752023 -1.88018 0
M  V30 14710 C 1383.6 0.720567 -1.8066 0
M  V30 14711 O 1382.85 1.54207 -1.20493 0
M  V30 14712 C 1383.15 -1.1699 -3.3771 0
M  V30 14713 C 1382.82 -2.64363 -3.65271 0
M  V30 14714 C 1381.48 -3.04622 -3.72503 0
M  V30 14715 C 1383.83 -3.59626 -3.77251 0
M  V30 14716 C 1381.16 -4.39023 -3.89199 0
M  V30 14717 C 1383.51 -4.93752 -3.95465 0
M  V30 14718 C 1382.18 -5.33675 -4.00933 0
M  V30 14719 H 1381.45 -0.275185 -0.688008 0
M  V30 14720 H 1384.09 -1.31161 -1.39532 0
M  V30 14721 H 1382.4 -0.529202 -3.8821 0
M  V30 14722 H 1384.1 -0.919981 -3.90304 0
M  V30 14723 H 1380.69 -2.32182 -3.60263 0
M  V30 14724 H 1384.87 -3.29665 -3.70992 0
M  V30 14725 H 1380.13 -4.69466 -3.91679 0
M  V30 14726 H 1384.3 -5.67467 -4.03676 0
M  V30 14727 H 1381.93 -6.37825 -4.13623 0
M  V30 14728 N 1383.5 1.34231 -0.825823 0
M  V30 14729 C 1384.46 2.27776 -0.25512 0
M  V30 14730 C 1385.46 1.50409 0.568654 0
M  V30 14731 O 1386.65 1.69907 0.384337 0
M  V30 14732 C 1383.79 3.348 0.642013 0
M  V30 14733 H 1384.98 2.79763 -1.0804 0
M  V30 14734 H 1382.53 1.44412 -0.597904 0
M  V30 14735 H 1383.27 2.88032 1.49024 0
M  V30 14736 H 1383.05 3.92064 0.0527756 0
M  V30 14737 H 1384.54 4.0457 1.03502 0
M  V30 14738 N 1384.98 0.581051 1.46498 0
M  V30 14739 C 1386.23 0.0658652 2.01993 0
M  V30 14740 C 1386.55 -1.29807 1.45516 0
M  V30 14741 O 1385.82 -1.85177 0.639233 0
M  V30 14742 H 1384.4 0.0213584 0.746695 0
M  V30 14743 H 1387.06 0.756456 1.79621 0
M  V30 14744 H 1386.16 -0.00438128 3.121 0
M  V30 14745 N 1386.46 -1.54343 0.318742 0
M  V30 14746 C 1387.37 -2.27856 -0.558442 0
M  V30 14747 C 1388.38 -1.32029 -1.13333 0
M  V30 14748 O 1389.56 -1.65037 -1.15433 0
M  V30 14749 C 1386.62 -3.01842 -1.70565 0
M  V30 14750 C 1385.69 -4.13245 -1.16305 0
M  V30 14751 C 1384.92 -4.83693 -2.25559 0
M  V30 14752 O 1385.14 -4.53621 -3.4581 0
M  V30 14753 O 1384.08 -5.70708 -1.91249 0
M  V30 14754 H 1387.9 -3.03676 0.0384247 0
M  V30 14755 H 1385.49 -1.4916 0.0845936 0
M  V30 14756 H 1387.37 -3.48189 -2.37365 0
M  V30 14757 H 1386.04 -2.28902 -2.28879 0
M  V30 14758 H 1384.95 -3.71258 -0.460274 0
M  V30 14759 H 1386.28 -4.88214 -0.625111 0
M  V30 14760 N 1387.94 -0.0468143 -1.5753 0
M  V30 14761 C 1388.88 0.929065 -2.11275 0
M  V30 14762 C 1389.85 1.31166 -1.01905 0
M  V30 14763 O 1391.04 1.40189 -1.29428 0
M  V30 14764 C 1388.18 2.20012 -2.65873 0
M  V30 14765 C 1387.29 1.8724 -3.89314 0
M  V30 14766 C 1386.43 3.08772 -4.32242 0
M  V30 14767 C 1385.46 2.719 -5.48395 0
M  V30 14768 N 1384.6 3.86112 -5.86397 0
M  V30 14769 H 1389.44 0.463854 -2.94368 0
M  V30 14770 H 1386.98 0.217338 -1.45486 0
M  V30 14771 H 1388.94 2.94383 -2.95626 0
M  V30 14772 H 1387.57 2.64118 -1.85584 0
M  V30 14773 H 1386.62 1.03037 -3.6618 0
M  V30 14774 H 1387.93 1.56096 -4.73746 0
M  V30 14775 H 1387.08 3.91446 -4.63525 0
M  V30 14776 H 1385.82 3.4309 -3.46613 0
M  V30 14777 H 1384.83 1.87642 -5.16789 0
M  V30 14778 H 1386.05 2.38779 -6.35737 0
M  V30 14779 H 1384 4.2024 -5.03721 0
M  V30 14780 H 1383.92 3.58652 -6.65511 0
M  V30 14781 H 1385.18 4.69438 -6.22293 0
M  V30 14782 N 1389.41 1.55964 0.226527 0
M  V30 14783 C 1390.66 1.78745 0.95165 0
M  V30 14784 C 1390.99 0.614714 1.84531 0
M  V30 14785 O 1390.24 -0.401137 1.91545 0
M  V30 14786 C 1390.54 3.07235 1.82597 0
M  V30 14787 C 1390.21 4.37627 1.08596 0
M  V30 14788 C 1388.87 4.73057 0.881531 0
M  V30 14789 C 1391.22 5.1815 0.563019 0
M  V30 14790 C 1388.55 5.86528 0.142172 0
M  V30 14791 C 1390.9 6.3239 -0.162972 0
M  V30 14792 C 1389.57 6.66425 -0.378704 0
M  V30 14793 H 1388.84 0.654075 0.348233 0
M  V30 14794 H 1391.48 1.9023 0.220187 0
M  V30 14795 H 1389.79 2.9085 2.62514 0
M  V30 14796 H 1391.49 3.22063 2.38907 0
M  V30 14797 H 1388.08 4.09806 1.25527 0
M  V30 14798 H 1392.26 4.91218 0.708446 0
M  V30 14799 H 1387.52 6.1139 -0.0352481 0
M  V30 14800 H 1391.69 6.94016 -0.575719 0
M  V30 14801 H 1389.32 7.54196 -0.953549 0
M  V30 14802 N 1390.89 -0.493031 1.4969 0
M  V30 14803 C 1392.14 -1.24664 1.59578 0
M  V30 14804 C 1392.47 -1.92385 0.286075 0
M  V30 14805 O 1391.72 -1.81712 -0.726586 0
M  V30 14806 C 1392.02 -2.33014 2.70997 0
M  V30 14807 C 1391.69 -1.82697 4.12229 0
M  V30 14808 C 1390.35 -1.68694 4.50662 0
M  V30 14809 C 1392.7 -1.45127 5.00587 0
M  V30 14810 C 1390.03 -1.15512 5.75216 0
M  V30 14811 C 1392.38 -0.933951 6.25668 0
M  V30 14812 C 1391.05 -0.780378 6.62923 0
M  V30 14813 H 1390.32 -0.456178 0.583937 0
M  V30 14814 H 1392.96 -0.546091 1.83549 0
M  V30 14815 H 1391.27 -3.08889 2.41029 0
M  V30 14816 H 1392.96 -2.91041 2.75855 0
M  V30 14817 H 1389.55 -1.94557 3.81897 0
M  V30 14818 H 1393.74 -1.5479 4.71544 0
M  V30 14819 H 1388.99 -1.0234 6.02774 0
M  V30 14820 H 1393.17 -0.634088 6.93507 0
M  V30 14821 H 1390.8 -0.366111 7.59318 0
M  V30 14822 N 1392.37 -1.38898 -0.744656 0
M  V30 14823 C 1393.65 -1.2611 -1.49518 0
M  V30 14824 C 1394.03 0.133592 -2.10677 0
M  V30 14825 O 1393.38 1.14394 -1.97804 0
M  V30 14826 C 1393.59 -2.37809 -2.55437 0
M  V30 14827 C 1394.93 -2.76664 -3.22091 0
M  V30 14828 O 1395.96 -2.37187 -2.65746 0
M  V30 14829 O 1394.82 -3.44771 -4.24023 0
M  V30 14830 H 1391.91 -0.493664 -0.663494 0
M  V30 14831 H 1394.46 -1.50748 -0.779304 0
M  V30 14832 H 1393.23 -3.31089 -2.08556 0
M  V30 14833 H 1392.85 -2.14783 -3.34595 0
M  V30 14834 N 1393.85 0.973806 -1.23914 0
M  V30 14835 C 1395.1 1.71027 -1.06923 0
M  V30 14836 C 1395.41 1.91612 0.392947 0
M  V30 14837 O 1396.62 2.62771 0.682927 0
M  V30 14838 C 1395.07 3.07811 -1.86496 0
M  V30 14839 C 1394.68 2.9509 -3.37085 0
M  V30 14840 C 1396.42 3.85371 -1.78015 0
M  V30 14841 C 1394.33 4.27145 -4.09024 0
M  V30 14842 H 1393.26 0.641329 -0.396501 0
M  V30 14843 H 1395.91 1.08562 -1.47941 0
M  V30 14844 H 1394.29 3.71069 -1.38288 0
M  V30 14845 H 1395.47 2.4088 -3.92827 0
M  V30 14846 H 1393.78 2.30999 -3.46451 0
M  V30 14847 H 1396.38 4.83147 -2.2907 0
M  V30 14848 H 1396.72 4.09594 -0.744196 0
M  V30 14849 H 1397.26 3.28827 -2.23869 0
M  V30 14850 H 1394 4.08117 -5.12953 0
M  V30 14851 H 1393.52 4.81194 -3.58068 0
M  V30 14852 H 1395.19 4.95798 -4.15685 0
M  V30 14853 N 1395.33 1.05191 1.17357 0
M  V30 14854 C 1396.6 0.675826 1.83554 0
M  V30 14855 C 1396.98 -0.843812 1.93502 0
M  V30 14856 O 1396.33 -1.74975 1.46956 0
M  V30 14857 C 1396.54 1.36481 3.21207 0
M  V30 14858 C 1397.89 1.50285 3.97114 0
M  V30 14859 O 1398.91 1.32382 3.30686 0
M  V30 14860 O 1397.77 1.79562 5.16159 0
M  V30 14861 H 1394.87 0.237898 0.792044 0
M  V30 14862 H 1397.41 1.1515 1.24654 0
M  V30 14863 H 1396.18 2.40156 3.08935 0
M  V30 14864 H 1395.81 0.878491 3.87774 0
M  V30 14865 N 1396.8 -1.33791 0.83293 0
M  V30 14866 C 1398.03 -2.0272 0.438111 0
M  V30 14867 C 1398.45 -1.62279 -0.951163 0
M  V30 14868 O 1397.81 -0.812406 -1.62079 0
M  V30 14869 C 1397.86 -3.5623 0.559698 0
M  V30 14870 O 1396.96 -4.10292 -0.41646 0
M  V30 14871 H 1396.31 -0.639438 0.178928 0
M  V30 14872 H 1398.84 -1.70821 1.12612 0
M  V30 14873 H 1398.85 -4.0563 0.439148 0
M  V30 14874 H 1397.52 -3.8501 1.5729 0
M  V30 14875 H 1396.1 -3.72034 -0.25396 0
M  V30 14876 N 1398.28 -0.588812 -1.46187 0
M  V30 14877 C 1399.53 -0.0765765 -2.01955 0
M  V30 14878 C 1399.85 1.29034 -1.46203 0
M  V30 14879 O 1399.12 1.84836 -0.649044 0
M  V30 14880 H 1397.7 -0.025318 -0.746571 0
M  V30 14881 H 1400.36 -0.765971 -1.79217 0
M  V30 14882 H 1399.46 -0.0121702 -3.12098 0
M  V30 14883 N 1399.76 1.54172 -0.326923 0
M  V30 14884 C 1401.18 1.59579 0.0256055 0
M  V30 14885 C 1401.38 1.34337 1.50186 0
M  V30 14886 O 1400.43 1.12945 2.25831 0
M  V30 14887 C 1401.75 2.98086 -0.395641 0
M  V30 14888 C 1403.29 3.11075 -0.346579 0
M  V30 14889 C 1403.77 4.51932 -0.743039 0
M  V30 14890 N 1405.26 4.57932 -0.696575 0
M  V30 14891 C 1405.99 5.65041 -0.975493 0
M  V30 14892 N 1405.49 6.80075 -1.32172 0
M  V30 14893 N 1407.28 5.54835 -0.900831 0
M  V30 14894 H 1399.43 1.68836 -1.28872 0
M  V30 14895 H 1401.7 0.789858 -0.52424 0
M  V30 14896 H 1401.4 3.21568 -1.42431 0
M  V30 14897 H 1401.28 3.76451 0.237645 0
M  V30 14898 H 1403.66 2.87326 0.672889 0
M  V30 14899 H 1403.75 2.34807 -1.01484 0
M  V30 14900 H 1403.39 4.76415 -1.76044 0
M  V30 14901 H 1403.32 5.26574 -0.0524263 0
M  V30 14902 H 1405.81 3.75318 -0.440969 0
M  V30 14903 H 1406.12 7.57708 -1.51983 0
M  V30 14904 H 1404.47 6.81563 -1.36001 0
M  V30 14905 H 1407.66 4.63844 -0.629812 0
M  V30 14906 H 1407.83 6.3822 -1.12156 0
M  V30 14907 N 1401.24 0.0551678 1.57503 0
M  V30 14908 C 1402.19 -0.917847 2.11764 0
M  V30 14909 C 1403.16 -1.30624 1.02599 0
M  V30 14910 O 1404.34 -1.39501 1.30169 0
M  V30 14911 C 1401.48 -2.18599 2.67036 0
M  V30 14912 C 1400.59 -1.85173 3.90301 0
M  V30 14913 C 1399.73 -3.06475 4.33874 0
M  V30 14914 C 1398.77 -2.68988 5.49829 0
M  V30 14915 N 1397.9 -3.82997 5.88437 0
M  V30 14916 H 1402.74 -0.448236 2.9461 0
M  V30 14917 H 1400.28 -0.209619 1.45599 0
M  V30 14918 H 1402.24 -2.92811 2.97183 0
M  V30 14919 H 1400.87 -2.6313 1.86982 0
M  V30 14920 H 1399.92 -1.01094 3.66721 0
M  V30 14921 H 1401.23 -1.53582 4.74567 0
M  V30 14922 H 1400.39 -3.88982 4.65594 0
M  V30 14923 H 1399.13 -3.41247 3.48427 0
M  V30 14924 H 1398.13 -1.84899 5.17776 0
M  V30 14925 H 1399.36 -2.35404 6.36994 0
M  V30 14926 H 1397.3 -4.17562 5.05942 0
M  V30 14927 H 1397.22 -3.55118 6.67403 0
M  V30 14928 H 1398.49 -4.66131 6.24773 0
M  V30 14929 N 1402.72 -1.56081 -0.218252 0
M  V30 14930 C 1403.68 -1.91851 -1.25402 0
M  V30 14931 C 1404.68 -0.797399 -1.39636 0
M  V30 14932 O 1405.87 -1.06511 -1.37844 0
M  V30 14933 C 1403 -2.17223 -2.6273 0
M  V30 14934 H 1404.19 -2.84493 -0.948882 0
M  V30 14935 H 1401.75 -1.49414 -0.458809 0
M  V30 14936 H 1402.48 -1.27144 -2.98337 0
M  V30 14937 H 1402.27 -2.98899 -2.53775 0
M  V30 14938 H 1403.76 -2.45981 -3.37466 0
M  V30 14939 N 1404.2 0.485086 -1.49949 0
M  V30 14940 C 1405.61 1.06629 -1.53255 0
M  V30 14941 C 1405.96 1.9344 -0.327915 0
M  V30 14942 O 1405.08 2.09011 0.560669 0
M  V30 14943 C 1405.68 1.94053 -2.77721 0
M  V30 14944 C 1404.24 2.47307 -2.83754 0
M  V30 14945 C 1403.38 1.25307 -2.47373 0
M  V30 14946 H 1406.33 0.268297 -1.56416 0
M  V30 14947 H 1406.36 2.78946 -2.58784 0
M  V30 14948 H 1405.87 1.30843 -3.65379 0
M  V30 14949 H 1403.97 3.1411 -2.00414 0
M  V30 14950 H 1404.08 2.83371 -3.86313 0
M  V30 14951 H 1402.45 1.5834 -1.99501 0
M  V30 14952 H 1403.23 0.637815 -3.37323 0
M  V30 14953 N 1405.67 1.39291 0.737279 0
M  V30 14954 C 1406.6 1.40562 1.86452 0
M  V30 14955 C 1407.58 0.269283 1.67955 0
M  V30 14956 O 1408.77 0.474769 1.88307 0
M  V30 14957 C 1405.9 1.2461 3.24175 0
M  V30 14958 C 1404.85 2.35619 3.57306 0
M  V30 14959 C 1404.18 2.04758 4.93941 0
M  V30 14960 C 1405.48 3.77927 3.60512 0
M  V30 14961 H 1407.17 2.34896 1.85646 0
M  V30 14962 H 1404.72 1.13065 0.891756 0
M  V30 14963 H 1406.67 1.2412 4.02706 0
M  V30 14964 H 1405.4 0.267438 3.25503 0
M  V30 14965 H 1404.06 2.35322 2.81104 0
M  V30 14966 H 1403.7 1.05336 4.91847 0
M  V30 14967 H 1403.4 2.79117 5.17076 0
M  V30 14968 H 1404.93 2.05915 5.74832 0
M  V30 14969 H 1406.34 3.80166 4.29123 0
M  V30 14970 H 1404.74 4.51626 3.95164 0
M  V30 14971 H 1405.81 4.09068 2.60368 0
M  V30 14972 N 1407.15 -0.967221 1.24429 0
M  V30 14973 C 1408.1 -2.047 1.00409 0
M  V30 14974 C 1409.09 -1.60807 -0.0546412 0
M  V30 14975 O 1410.28 -1.76283 0.159145 0
M  V30 14976 C 1407.41 -3.37813 0.611345 0
M  V30 14977 C 1406.49 -3.88266 1.70618 0
M  V30 14978 N 1406.88 -4.1165 2.93901 0
M  V30 14979 C 1405.18 -4.16931 1.5838 0
M  V30 14980 C 1405.88 -4.53032 3.64879 0
M  V30 14981 N 1404.86 -4.58233 2.92444 0
M  V30 14982 H 1408.66 -2.20755 1.94021 0
M  V30 14983 H 1406.17 -1.15105 1.14562 0
M  V30 14984 H 1408.17 -4.14774 0.420493 0
M  V30 14985 H 1406.83 -3.23143 -0.317588 0
M  V30 14986 H 1407.84 -3.99087 3.30075 0
M  V30 14987 H 1404.52 -4.11193 0.722929 0
M  V30 14988 H 1405.91 -4.79533 4.70635 0
M  V30 14989 N 1408.63 -1.05812 -1.16797 0
M  V30 14990 C 1409.85 -0.792518 -1.91661 0
M  V30 14991 C 1410.28 0.646598 -1.76637 0
M  V30 14992 O 1409.64 1.44998 -1.08836 0
M  V30 14993 C 1409.69 -1.18585 -3.40544 0
M  V30 14994 O 1408.79 -0.321716 -4.11143 0
M  V30 14995 H 1408.13 -0.290066 -0.597292 0
M  V30 14996 H 1410.66 -1.41263 -1.48007 0
M  V30 14997 H 1410.67 -1.1553 -3.91301 0
M  V30 14998 H 1409.35 -2.23413 -3.50798 0
M  V30 14999 H 1407.92 -0.413403 -3.70601 0
M  V30 15000 N 1410.11 1.33347 -0.840014 0
M  V30 15001 C 1411.52 1.80077 -0.492851 0
M  V30 15002 C 1411.87 1.69495 0.988221 0
M  V30 15003 O 1410.99 1.2449 1.77006 0
M  V30 15004 C 1411.59 3.2696 -0.887827 0
M  V30 15005 C 1410.15 3.71703 -0.592785 0
M  V30 15006 C 1409.3 2.54742 -1.09554 0
M  V30 15007 H 1412.25 1.20853 -1.02861 0
M  V30 15008 H 1412.27 3.79983 -0.198327 0
M  V30 15009 H 1411.78 3.3463 -1.96581 0
M  V30 15010 H 1409.88 3.69559 0.475086 0
M  V30 15011 H 1409.99 4.65123 -1.14882 0
M  V30 15012 H 1408.36 2.49411 -0.516357 0
M  V30 15013 H 1409.14 2.65173 -2.18032 0
M  V30 15014 N 1411.59 0.596556 1.45873 0
M  V30 15015 C 1413 0.173758 1.8589 0
M  V30 15016 C 1413.35 -1.26665 1.49835 0
M  V30 15017 O 1412.47 -1.9588 0.919773 0
M  V30 15018 C 1413.07 0.308567 3.37392 0
M  V30 15019 C 1411.63 -0.0594585 3.76353 0
M  V30 15020 C 1410.77 0.638127 2.69858 0
M  V30 15021 H 1413.72 0.803928 1.36831 0
M  V30 15022 H 1413.75 -0.462294 3.77681 0
M  V30 15023 H 1413.26 1.35701 3.63603 0
M  V30 15024 H 1411.36 -1.1075 3.5576 0
M  V30 15025 H 1411.47 0.326506 4.77986 0
M  V30 15026 H 1409.84 0.0769147 2.54584 0
M  V30 15027 H 1410.62 1.68849 2.98906 0
M  V30 15028 N 1413.06 -1.53996 0.335095 0
M  V30 15029 C 1414.29 -2.05657 -0.268328 0
M  V30 15030 C 1414.71 -1.20897 -1.44102 0
M  V30 15031 O 1414.07 -0.220737 -1.79951 0
M  V30 15032 C 1414.12 -3.54331 -0.669481 0
M  V30 15033 O 1413.22 -3.7246 -1.77052 0
M  V30 15034 H 1412.56 -0.662386 -0.0462705 0
M  V30 15035 H 1415.09 -1.98723 0.486854 0
M  V30 15036 H 1415.1 -3.9681 -0.948971 0
M  V30 15037 H 1413.78 -4.15474 0.188168 0
M  V30 15038 H 1412.36 -3.41884 -1.48895 0
M  V30 15039 N 1414.54 -0.0635198 -1.57472 0
M  V30 15040 C 1415.47 0.93602 -2.09216 0
M  V30 15041 C 1416.49 1.2668 -1.02255 0
M  V30 15042 O 1417.68 1.22543 -1.2979 0
M  V30 15043 C 1414.78 2.25417 -2.53062 0
M  V30 15044 C 1413.95 2.10347 -3.83501 0
M  V30 15045 C 1413.01 3.25394 -4.13528 0
M  V30 15046 O 1412.03 3.00751 -4.83257 0
M  V30 15047 N 1413.24 4.50243 -3.66417 0
M  V30 15048 H 1416 0.494288 -2.95596 0
M  V30 15049 H 1413.56 0.122416 -1.61437 0
M  V30 15050 H 1415.55 3.01272 -2.70217 0
M  V30 15051 H 1414.12 2.61116 -1.71864 0
M  V30 15052 H 1413.34 1.19009 -3.75807 0
M  V30 15053 H 1414.63 1.97519 -4.68896 0
M  V30 15054 H 1414.03 4.73152 -3.1007 0
M  V30 15055 H 1412.59 5.23152 -3.88787 0
M  V30 15056 N 1416.02 1.56195 0.209972 0
M  V30 15057 C 1416.97 1.89755 1.26401 0
M  V30 15058 C 1417.95 0.761731 1.41727 0
M  V30 15059 O 1419.15 1.02435 1.44347 0
M  V30 15060 C 1416.27 2.22775 2.61201 0
M  V30 15061 C 1415.36 3.42777 2.49729 0
M  V30 15062 N 1415.75 4.61089 2.0792 0
M  V30 15063 C 1414.05 3.46621 2.8066 0
M  V30 15064 C 1414.75 5.43249 2.07979 0
M  V30 15065 N 1413.73 4.83263 2.48913 0
M  V30 15066 H 1417.53 2.78736 0.93184 0
M  V30 15067 H 1415.04 1.56915 0.418485 0
M  V30 15068 H 1417.04 2.44997 3.37316 0
M  V30 15069 H 1415.7 1.35112 2.95254 0
M  V30 15070 H 1416.71 4.86033 1.78865 0
M  V30 15071 H 1413.39 2.69334 3.19007 0
M  V30 15072 H 1414.78 6.47981 1.77681 0
M  V30 15073 N 1417.5 -0.477127 1.50204 0
M  V30 15074 C 1418.73 -1.25126 1.64399 0
M  V30 15075 C 1419.14 -1.86401 0.32424 0
M  V30 15076 O 1418.48 -1.69711 -0.703119 0
M  V30 15077 C 1418.54 -2.40428 2.67273 0
M  V30 15078 C 1418.2 -1.99837 4.10992 0
M  V30 15079 C 1419.2 -1.52435 4.97051 0
M  V30 15080 C 1416.89 -2.08742 4.56872 0
M  V30 15081 C 1418.88 -1.14472 6.27037 0
M  V30 15082 C 1416.57 -1.70391 5.86865 0
M  V30 15083 C 1417.57 -1.23333 6.71772 0
M  V30 15084 O 1417.25 -0.855111 7.99339 0
M  V30 15085 H 1416.99 -0.384801 0.555791 0
M  V30 15086 H 1419.54 -0.576654 1.97139 0
M  V30 15087 H 1417.77 -3.1104 2.29763 0
M  V30 15088 H 1419.46 -3.02406 2.7075 0
M  V30 15089 H 1420.22 -1.44981 4.62823 0
M  V30 15090 H 1416.1 -2.44319 3.90934 0
M  V30 15091 H 1419.65 -0.776712 6.93263 0
M  V30 15092 H 1415.54 -1.77501 6.20615 0
M  V30 15093 H 1416.31 -0.984492 8.12558 0
M  V30 15094 N 1418.98 -1.3968 -0.729882 0
M  V30 15095 C 1420.2 -1.40467 -1.5191 0
M  V30 15096 C 1420.62 -0.000529943 -1.888 0
M  V30 15097 O 1419.98 0.972072 -1.54457 0
M  V30 15098 C 1420.03 -2.2823 -2.80345 0
M  V30 15099 O 1419.75 -3.63176 -2.4502 0
M  V30 15100 C 1421.25 -2.37455 -3.74339 0
M  V30 15101 H 1418.47 -0.479604 -0.469277 0
M  V30 15102 H 1421.01 -1.83558 -0.901484 0
M  V30 15103 H 1419.17 -1.88538 -3.38426 0
M  V30 15104 H 1419.58 -4.0964 -3.2756 0
M  V30 15105 H 1421.06 -3.031 -4.6134 0
M  V30 15106 H 1421.53 -1.39525 -4.16449 0
M  V30 15107 H 1422.14 -2.77638 -3.22176 0
M  V30 15108 N 1420.45 0.960609 -1.2494 0
M  V30 15109 C 1421.7 1.69884 -1.08731 0
M  V30 15110 C 1422.02 1.92018 0.372602 0
M  V30 15111 O 1423.22 2.6348 0.655018 0
M  V30 15112 C 1421.68 3.05815 -1.8975 0
M  V30 15113 C 1421.29 2.91498 -3.40196 0
M  V30 15114 C 1423.03 3.83462 -1.82092 0
M  V30 15115 C 1420.94 4.22783 -4.13532 0
M  V30 15116 H 1419.87 0.637087 -0.403281 0
M  V30 15117 H 1422.52 1.06987 -1.49084 0
M  V30 15118 H 1420.9 3.69582 -1.42216 0
M  V30 15119 H 1422.07 2.367 -3.9536 0
M  V30 15120 H 1420.39 2.27312 -3.48882 0
M  V30 15121 H 1422.99 4.8069 -2.34181 0
M  V30 15122 H 1423.33 4.08782 -0.787597 0
M  V30 15123 H 1423.86 3.26435 -2.27344 0
M  V30 15124 H 1420.6 4.02653 -5.17253 0
M  V30 15125 H 1420.12 4.77369 -3.63152 0
M  V30 15126 H 1421.8 4.91361 -4.2092 0
M  V30 15127 N 1421.93 1.0643 1.16234 0
M  V30 15128 C 1423.18 0.782998 1.87075 0
M  V30 15129 C 1423.51 -0.688852 1.81572 0
M  V30 15130 O 1422.79 -1.50478 1.23234 0
M  V30 15131 C 1423.07 1.27997 3.36584 0
M  V30 15132 C 1422.92 2.81568 3.5077 0
M  V30 15133 C 1424.24 0.888975 4.31028 0
M  V30 15134 H 1421.36 0.28591 0.679282 0
M  V30 15135 H 1424 1.32046 1.36615 0
M  V30 15136 H 1422.15 0.822756 3.79688 0
M  V30 15137 H 1423.82 3.35508 3.16595 0
M  V30 15138 H 1422.07 3.2023 2.92635 0
M  V30 15139 H 1422.74 3.11406 4.55774 0
M  V30 15140 H 1425.21 1.28279 3.95833 0
M  V30 15141 H 1424.09 1.26416 5.34144 0
M  V30 15142 H 1424.35 -0.205973 4.4162 0
M  V30 15143 N 1423.41 -1.329 0.847073 0
M  V30 15144 C 1424.66 -1.9751 0.446755 0
M  V30 15145 C 1424.99 -1.67069 -0.995905 0
M  V30 15146 O 1424.24 -0.947232 -1.71248 0
M  V30 15147 C 1424.54 -3.51913 0.623845 0
M  V30 15148 C 1424.21 -4.02324 2.03583 0
M  V30 15149 C 1422.87 -4.15802 2.42203 0
M  V30 15150 C 1425.22 -4.29147 2.95774 0
M  V30 15151 C 1422.55 -4.53441 3.72301 0
M  V30 15152 C 1424.9 -4.68242 4.25362 0
M  V30 15153 C 1423.56 -4.79925 4.63927 0
M  V30 15154 H 1422.83 -0.722742 0.163479 0
M  V30 15155 H 1425.48 -1.58435 1.07567 0
M  V30 15156 H 1423.79 -3.917 -0.0883447 0
M  V30 15157 H 1425.48 -3.99919 0.294268 0
M  V30 15158 H 1422.07 -3.92314 1.72591 0
M  V30 15159 H 1426.26 -4.1825 2.67171 0
M  V30 15160 H 1421.51 -4.60681 4.01974 0
M  V30 15161 H 1425.69 -4.87952 4.96866 0
M  V30 15162 H 1423.31 -5.08847 5.64782 0
M  V30 15163 N 1424.89 -0.604284 -1.45555 0
M  V30 15164 C 1425.84 0.129013 -2.32242 0
M  V30 15165 C 1426.83 0.862933 -1.45773 0
M  V30 15166 O 1428.04 0.778874 -1.62276 0
M  V30 15167 H 1424.41 0.0604661 -0.749565 0
M  V30 15168 H 1426.38 -0.620603 -2.91875 0
M  V30 15169 C 1425.13 1.11516 -3.29332 0
M  V30 15170 H 1424.45 0.559849 -3.95861 0
M  V30 15171 H 1425.89 1.59824 -3.92724 0
M  V30 15172 C 1424.35 2.18706 -2.5626 0
M  V30 15173 O 1424.88 3.26397 -2.34154 0
M  V30 15174 N 1423.09 1.93899 -2.16452 0
M  V30 15175 H 1422.64 1.0633 -2.34631 0
M  V30 15176 H 1422.59 2.65824 -1.67884 0
M  V30 15177 N 1426.37 1.53816 -0.343257 0
M  V30 15178 C 1427.59 2.05326 0.254744 0
M  V30 15179 C 1428.01 1.21824 1.44237 0
M  V30 15180 O 1427.37 0.253507 1.80731 0
M  V30 15181 C 1427.42 3.55235 0.670075 0
M  V30 15182 O 1427.14 4.35568 -0.470322 0
M  V30 15183 C 1428.64 4.22915 1.32882 0
M  V30 15184 H 1425.86 0.669191 0.0492324 0
M  V30 15185 H 1428.4 1.98415 -0.495159 0
M  V30 15186 H 1426.56 3.6237 1.36992 0
M  V30 15187 H 1426.97 5.24315 -0.139303 0
M  V30 15188 H 1428.45 5.29197 1.57019 0
M  V30 15189 H 1428.92 3.75244 2.28229 0
M  V30 15190 H 1429.53 4.19973 0.67102 0
M  V30 15191 N 1427.84 0.0718701 1.57436 0
M  V30 15192 C 1429.09 -0.597231 1.93493 0
M  V30 15193 C 1429.42 -1.69614 0.951906 0
M  V30 15194 O 1428.67 -1.95673 -0.0324554 0
M  V30 15195 C 1428.97 -1.21336 3.36173 0
M  V30 15196 C 1428.64 -0.240582 4.50258 0
M  V30 15197 C 1427.3 0.0270368 4.81192 0
M  V30 15198 C 1429.65 0.424924 5.19465 0
M  V30 15199 C 1426.98 0.967249 5.78672 0
M  V30 15200 C 1429.33 1.35346 6.17952 0
M  V30 15201 C 1428 1.62954 6.47304 0
M  V30 15202 H 1427.27 -0.218542 0.70804 0
M  V30 15203 H 1429.91 0.142762 1.90967 0
M  V30 15204 H 1428.22 -2.02909 3.35164 0
M  V30 15205 H 1429.92 -1.73836 3.61361 0
M  V30 15206 H 1426.51 -0.459352 4.26131 0
M  V30 15207 H 1430.69 0.231285 4.95761 0
M  V30 15208 H 1425.95 1.1884 5.99739 0
M  V30 15209 H 1430.12 1.87509 6.70681 0
M  V30 15210 H 1427.75 2.3597 7.2265 0
M  V30 15211 N 1429.32 -1.56304 -0.201686 0
M  V30 15212 C 1430.57 -1.80504 -0.92446 0
M  V30 15213 C 1430.9 -0.644832 -1.83182 0
M  V30 15214 O 1430.18 0.354963 -1.91234 0
M  V30 15215 C 1430.46 -3.14919 -1.74636 0
M  V30 15216 C 1430.31 -4.41421 -0.864169 0
M  V30 15217 C 1431.63 -3.45962 -2.72026 0
M  V30 15218 H 1428.75 -0.656643 -0.334648 0
M  V30 15219 H 1431.39 -1.89025 -0.192188 0
M  V30 15220 H 1429.54 -3.07785 -2.37066 0
M  V30 15221 H 1431.21 -4.60594 -0.255084 0
M  V30 15222 H 1429.46 -4.33465 -0.170548 0
M  V30 15223 H 1430.13 -5.31954 -1.47409 0
M  V30 15224 H 1432.6 -3.53353 -2.1973 0
M  V30 15225 H 1431.48 -4.41146 -3.26622 0
M  V30 15226 H 1431.74 -2.69124 -3.50749 0
M  V30 15227 N 1430.8 0.469154 -1.50455 0
M  V30 15228 C 1431.73 1.57493 -1.7239 0
M  V30 15229 C 1432.71 1.60161 -0.572915 0
M  V30 15230 O 1433.9 1.76397 -0.812259 0
M  V30 15231 C 1431.03 2.95804 -1.81981 0
M  V30 15232 C 1429.98 3.08001 -2.97185 0
M  V30 15233 C 1429.31 4.4798 -2.91922 0
M  V30 15234 C 1430.61 2.85039 -4.37665 0
M  V30 15235 H 1432.3 1.39389 -2.64974 0
M  V30 15236 H 1429.85 0.669133 -1.27509 0
M  V30 15237 H 1431.8 3.73091 -1.95911 0
M  V30 15238 H 1430.52 3.15068 -0.86021 0
M  V30 15239 H 1429.18 2.33148 -2.82909 0
M  V30 15240 H 1428.83 4.64165 -1.93803 0
M  V30 15241 H 1428.53 4.57076 -3.69263 0
M  V30 15242 H 1430.05 5.27284 -3.07903 0
M  V30 15243 H 1431.47 3.52074 -4.52456 0
M  V30 15244 H 1429.87 3.05578 -5.16471 0
M  V30 15245 H 1430.94 1.8088 -4.499 0
M  V30 15246 N 1432.28 1.40065 0.722464 0
M  V30 15247 C 1433.21 1.34182 1.84582 0
M  V30 15248 C 1434.19 0.213339 1.61194 0
M  V30 15249 O 1435.37 0.395867 1.84296 0
M  V30 15250 C 1432.5 1.08658 3.20798 0
M  V30 15251 C 1431.55 2.23865 3.63024 0
M  V30 15252 S 1432.38 3.86221 3.70936 0
M  V30 15253 C 1433.54 3.62948 5.09921 0
M  V30 15254 H 1433.77 2.29251 1.89291 0
M  V30 15255 H 1431.3 1.26269 0.888568 0
M  V30 15256 H 1433.26 0.946172 3.99447 0
M  V30 15257 H 1431.92 0.152542 3.13729 0
M  V30 15258 H 1431.11 2.01631 4.6191 0
M  V30 15259 H 1430.72 2.34174 2.91614 0
M  V30 15260 H 1433.01 3.20989 5.96634 0
M  V30 15261 H 1433.95 4.6134 5.37188 0
M  V30 15262 H 1434.36 2.9678 4.8019 0
M  V30 15263 N 1433.76 -0.95397 1.25448 0
M  V30 15264 C 1434.69 -2.05412 1.01679 0
M  V30 15265 C 1435.7 -1.62789 -0.0184932 0
M  V30 15266 O 1436.89 -1.77137 0.220136 0
M  V30 15267 C 1433.99 -3.3496 0.515292 0
M  V30 15268 C 1433.16 -4.06418 1.61688 0
M  V30 15269 C 1432.22 -5.14237 1.11564 0
M  V30 15270 O 1431.25 -5.39649 1.81017 0
M  V30 15271 N 1432.45 -5.80484 -0.0427228 0
M  V30 15272 H 1435.22 -2.26372 1.96407 0
M  V30 15273 H 1432.78 -1.12257 1.16662 0
M  V30 15274 H 1434.77 -4.04366 0.164426 0
M  V30 15275 H 1433.34 -3.10767 -0.33807 0
M  V30 15276 H 1432.56 -3.31101 2.1393 0
M  V30 15277 H 1433.85 -4.50917 2.35693 0
M  V30 15278 H 1433.25 -5.62259 -0.623038 0
M  V30 15279 H 1431.8 -6.50941 -0.334615 0
M  V30 15280 N 1435.24 -1.07045 -1.15668 0
M  V30 15281 C 1436.17 -0.709413 -2.22463 0
M  V30 15282 C 1437.15 0.30169 -1.67403 0
M  V30 15283 O 1438.33 0.175131 -1.93409 0
M  V30 15284 C 1435.46 -0.103121 -3.47147 0
M  V30 15285 C 1434.42 -1.04103 -4.15146 0
M  V30 15286 C 1433.74 -0.297656 -5.33871 0
M  V30 15287 C 1435.04 -2.37332 -4.65264 0
M  V30 15288 H 1436.74 -1.60227 -2.52918 0
M  V30 15289 H 1434.28 -0.771846 -1.21567 0
M  V30 15290 H 1436.23 0.161371 -4.21091 0
M  V30 15291 H 1434.96 0.824792 -3.16014 0
M  V30 15292 H 1433.62 -1.2904 -3.43139 0
M  V30 15293 H 1433.27 0.633618 -4.98993 0
M  V30 15294 H 1432.97 -0.922789 -5.80309 0
M  V30 15295 H 1434.49 -0.0408892 -6.10586 0
M  V30 15296 H 1435.9 -2.1674 -5.30751 0
M  V30 15297 H 1434.3 -2.95412 -5.22352 0
M  V30 15298 H 1435.37 -2.99859 -3.81068 0
M  V30 15299 N 1436.71 1.32449 -0.85411 0
M  V30 15300 C 1437.96 1.97271 -0.457223 0
M  V30 15301 C 1438.29 1.67595 0.987031 0
M  V30 15302 O 1437.54 0.956301 1.70744 0
M  V30 15303 C 1437.84 3.51577 -0.642499 0
M  V30 15304 C 1437.51 4.01239 -2.05714 0
M  V30 15305 C 1436.17 4.14512 -2.44405 0
M  V30 15306 C 1438.52 4.27573 -2.98046 0
M  V30 15307 C 1435.85 4.5146 -3.74701 0
M  V30 15308 C 1438.2 4.65979 -4.27839 0
M  V30 15309 C 1436.87 4.77458 -4.66465 0
M  V30 15310 H 1436.14 0.721865 -0.16731 0
M  V30 15311 H 1438.78 1.57862 -1.08406 0
M  V30 15312 H 1437.09 3.91742 0.0675706 0
M  V30 15313 H 1438.79 3.99757 -0.315473 0
M  V30 15314 H 1435.38 3.91393 -1.74669 0
M  V30 15315 H 1439.56 4.16827 -2.69386 0
M  V30 15316 H 1434.82 4.58542 -4.04412 0
M  V30 15317 H 1438.99 4.8531 -4.99447 0
M  V30 15318 H 1436.62 5.05845 -5.67472 0
M  V30 15319 N 1438.19 0.611994 1.45232 0
M  V30 15320 C 1439.14 -0.116695 2.32307 0
M  V30 15321 C 1440.13 -0.85519 1.46229 0
M  V30 15322 O 1441.34 -0.770257 1.62687 0
M  V30 15323 H 1437.71 -0.0564902 0.749875 0
M  V30 15324 H 1439.69 0.636073 2.91542 0
M  V30 15325 C 1438.43 -1.09768 3.29919 0
M  V30 15326 H 1437.76 -0.538848 3.96152 0
M  V30 15327 H 1439.2 -1.57739 3.93566 0
M  V30 15328 C 1437.66 -2.17344 2.57417 0
M  V30 15329 O 1438.19 -3.2515 2.35882 0
M  V30 15330 N 1436.39 -1.92749 2.17477 0
M  V30 15331 H 1435.94 -1.05084 2.35192 0
M  V30 15332 H 1435.9 -2.6493 1.69291 0
M  V30 15333 N 1439.67 -1.53632 0.351409 0
M  V30 15334 C 1440.58 -2.2899 -0.509985 0
M  V30 15335 C 1441.6 -1.34403 -1.10507 0
M  V30 15336 O 1442.77 -1.67448 -1.11906 0
M  V30 15337 C 1439.84 -3.05392 -1.64124 0
M  V30 15338 C 1438.9 -4.15619 -1.07514 0
M  V30 15339 C 1438.13 -4.88369 -2.15248 0
M  V30 15340 O 1438.35 -4.60854 -3.3611 0
M  V30 15341 O 1437.29 -5.74636 -1.79101 0
M  V30 15342 H 1441.11 -3.03526 0.10283 0
M  V30 15343 H 1438.7 -1.48947 0.116214 0
M  V30 15344 H 1440.58 -3.53146 -2.29926 0
M  V30 15345 H 1439.26 -2.33705 -2.23972 0
M  V30 15346 H 1438.16 -3.7215 -0.381421 0
M  V30 15347 H 1439.5 -4.8943 -0.521413 0
M  V30 15348 N 1441.15 -0.0802183 -1.57396 0
M  V30 15349 C 1442.4 0.586573 -1.92982 0
M  V30 15350 C 1442.71 1.70256 -0.962918 0
M  V30 15351 O 1443.92 2.4295 -1.21193 0
M  V30 15352 C 1442.37 1.09475 -3.42846 0
M  V30 15353 C 1441.98 0.0093098 -4.47999 0
M  V30 15354 C 1443.72 1.73512 -3.87419 0
M  V30 15355 C 1441.63 0.532002 -5.89002 0
M  V30 15356 H 1440.56 0.222878 -0.720306 0
M  V30 15357 H 1443.21 -0.153816 -1.82854 0
M  V30 15358 H 1441.59 1.88836 -3.48076 0
M  V30 15359 H 1442.77 -0.765609 -4.54395 0
M  V30 15360 H 1441.08 -0.535345 -4.12944 0
M  V30 15361 H 1443.68 2.13665 -4.90154 0
M  V30 15362 H 1444.02 2.59845 -3.25248 0
M  V30 15363 H 1444.56 1.00758 -3.84828 0
M  V30 15364 H 1441.29 -0.294364 -6.54839 0
M  V30 15365 H 1440.81 1.27425 -5.86108 0
M  V30 15366 H 1442.49 1.00573 -6.39135 0
M  V30 15367 N 1442.63 1.56409 0.193394 0
M  V30 15368 C 1443.57 1.95572 1.25914 0
M  V30 15369 C 1444.57 0.841384 1.47028 0
M  V30 15370 O 1445.77 1.0264 1.47868 0
M  V30 15371 H 1442.15 0.621914 0.422761 0
M  V30 15372 H 1444.12 2.84446 0.901827 0
M  V30 15373 C 1442.87 2.31293 2.59613 0
M  V30 15374 H 1442.19 3.16568 2.44182 0
M  V30 15375 H 1443.63 2.62558 3.32926 0
M  V30 15376 C 1442.09 1.14818 3.16731 0
M  V30 15377 O 1442.62 0.424105 3.99455 0
M  V30 15378 N 1440.83 0.924536 2.75501 0
M  V30 15379 H 1440.37 1.51509 2.08334 0
M  V30 15380 H 1440.33 0.147006 3.14056 0
M  V30 15381 N 1444.1 -0.461169 1.50702 0
M  V30 15382 C 1445.33 -1.24019 1.66235 0
M  V30 15383 C 1445.75 -1.84827 0.349388 0
M  V30 15384 O 1445.11 -1.67743 -0.687888 0
M  V30 15385 C 1445.16 -2.31743 2.76274 0
M  V30 15386 O 1444.26 -3.3664 2.38217 0
M  V30 15387 H 1443.6 -0.364424 0.55506 0
M  V30 15388 H 1446.13 -0.547636 1.97135 0
M  V30 15389 H 1446.14 -2.76902 2.99649 0
M  V30 15390 H 1444.82 -1.86858 3.7156 0
M  V30 15391 H 1443.4 -2.97123 2.25327 0
M  V30 15392 N 1445.58 -1.40446 -0.715026 0
M  V30 15393 C 1447 -1.22488 -1.02317 0
M  V30 15394 C 1447.2 -0.100481 -2.01249 0
M  V30 15395 O 1446.25 0.541447 -2.46626 0
M  V30 15396 C 1447.57 -2.56682 -1.56636 0
M  V30 15397 C 1449.11 -2.63699 -1.68617 0
M  V30 15398 C 1449.59 -3.98163 -2.26342 0
M  V30 15399 N 1451.08 -3.99907 -2.33727 0
M  V30 15400 C 1451.82 -5.00737 -2.79375 0
M  V30 15401 N 1451.31 -6.11961 -3.24771 0
M  V30 15402 N 1453.1 -4.88106 -2.78764 0
M  V30 15403 H 1445.26 -2.12317 -0.0592712 0
M  V30 15404 H 1447.52 -0.943823 -0.088895 0
M  V30 15405 H 1447.22 -3.39615 -0.914036 0
M  V30 15406 H 1447.1 -2.77809 -2.55151 0
M  V30 15407 H 1449.49 -1.81138 -2.32966 0
M  V30 15408 H 1449.57 -2.46402 -0.687004 0
M  V30 15409 H 1449.21 -4.81164 -1.62614 0
M  V30 15410 H 1449.14 -4.1279 -3.26974 0
M  V30 15411 H 1451.63 -3.19592 -2.01666 0
M  V30 15412 H 1451.94 -6.84787 -3.58171 0
M  V30 15413 H 1450.29 -6.15525 -3.22729 0
M  V30 15414 H 1453.48 -4.00307 -2.42635 0
M  V30 15415 H 1453.65 -5.66828 -3.14023 0
M  V30 15416 N 1447.06 0.947303 -1.25952 0
M  V30 15417 C 1448.01 2.04511 -1.06976 0
M  V30 15418 C 1448.98 1.66084 0.023347 0
M  V30 15419 O 1450.16 1.9032 -0.135247 0
M  V30 15420 C 1447.3 3.37878 -0.70232 0
M  V30 15421 C 1446.41 3.89379 -1.87105 0
M  V30 15422 C 1445.55 5.11104 -1.44728 0
M  V30 15423 C 1444.59 5.54852 -2.58469 0
M  V30 15424 N 1443.73 6.67784 -2.16817 0
M  V30 15425 H 1448.57 2.20075 -2.00925 0
M  V30 15426 H 1446.1 1.07837 -1.00048 0
M  V30 15427 H 1448.06 4.14542 -0.470199 0
M  V30 15428 H 1446.69 3.22179 0.20019 0
M  V30 15429 H 1445.74 3.09169 -2.21627 0
M  V30 15430 H 1447.05 4.17789 -2.72496 0
M  V30 15431 H 1446.21 5.95208 -1.17525 0
M  V30 15432 H 1444.95 4.84426 -0.564191 0
M  V30 15433 H 1443.95 4.69308 -2.86409 0
M  V30 15434 H 1445.18 5.83534 -3.47368 0
M  V30 15435 H 1443.12 6.428 -1.30934 0
M  V30 15436 H 1443.04 6.95749 -2.95753 0
M  V30 15437 H 1444.31 7.55278 -1.92809 0
M  V30 15438 N 1448.54 1.07657 1.15099 0
M  V30 15439 C 1449.79 0.796589 1.85303 0
M  V30 15440 C 1450.1 -0.679887 1.83404 0
M  V30 15441 O 1451.31 -1.07475 2.49322 0
M  V30 15442 C 1449.76 1.37495 3.326 0
M  V30 15443 C 1449.37 2.88267 3.42938 0
M  V30 15444 C 1451.11 1.17313 4.07968 0
M  V30 15445 C 1449.02 3.39278 4.84401 0
M  V30 15446 H 1447.95 0.294316 0.694186 0
M  V30 15447 H 1450.6 1.29702 1.29806 0
M  V30 15448 H 1448.98 0.802248 3.87789 0
M  V30 15449 H 1450.16 3.51608 2.9784 0
M  V30 15450 H 1448.47 3.07275 2.81018 0
M  V30 15451 H 1451.07 1.52899 5.12373 0
M  V30 15452 H 1451.41 0.112387 4.16148 0
M  V30 15453 H 1451.95 1.71236 3.59059 0
M  V30 15454 H 1448.69 4.44892 4.81406 0
M  V30 15455 H 1448.21 2.80692 5.30068 0
M  V30 15456 H 1449.88 3.35416 5.53267 0
M  V30 15457 N 1450.02 -1.31994 0.861122 0
M  V30 15458 C 1450.97 -2.26248 0.282123 0
M  V30 15459 C 1451.95 -1.50246 -0.57575 0
M  V30 15460 O 1453.14 -1.71845 -0.424075 0
M  V30 15461 C 1450.27 -3.39293 -0.523011 0
M  V30 15462 C 1449.36 -4.22673 0.34761 0
M  V30 15463 N 1449.75 -4.8496 1.43692 0
M  V30 15464 C 1448.05 -4.45785 0.138488 0
M  V30 15465 C 1448.75 -5.47215 1.97307 0
M  V30 15466 N 1447.72 -5.28525 1.27132 0
M  V30 15467 H 1451.53 -2.71936 1.11481 0
M  V30 15468 H 1449.04 -1.46158 0.707928 0
M  V30 15469 H 1451.04 -4.05832 -0.954269 0
M  V30 15470 H 1449.7 -2.95149 -1.35341 0
M  V30 15471 H 1450.71 -4.84873 1.81985 0
M  V30 15472 H 1447.38 -4.12303 -0.656677 0
M  V30 15473 H 1448.77 -6.06737 2.88652 0
M  V30 15474 N 1451.49 -0.619688 -1.44906 0
M  V30 15475 C 1452.74 -0.119397 -2.01747 0
M  V30 15476 C 1453.06 1.25904 -1.48907 0
M  V30 15477 O 1452.33 1.83417 -0.688104 0
M  V30 15478 H 1450.91 -0.0411482 -0.745866 0
M  V30 15479 H 1453.58 -0.803813 -1.77552 0
M  V30 15480 H 1452.67 -0.078368 -3.12002 0
M  V30 15481 N 1452.97 1.53444 -0.359552 0
M  V30 15482 C 1453.88 2.29257 0.497834 0
M  V30 15483 C 1454.9 1.34987 1.09793 0
M  V30 15484 O 1456.07 1.68039 1.11017 0
M  V30 15485 C 1453.14 3.06258 1.62502 0
M  V30 15486 C 1452.2 4.16183 1.05308 0
M  V30 15487 C 1451.43 4.89503 2.12655 0
M  V30 15488 O 1451.66 4.6263 3.33661 0
M  V30 15489 O 1450.59 5.75578 1.76051 0
M  V30 15490 H 1454.42 3.03467 -0.118925 0
M  V30 15491 H 1452 1.48884 -0.124111 0
M  V30 15492 H 1453.88 3.5436 2.2805 0
M  V30 15493 H 1452.56 2.3489 2.22729 0
M  V30 15494 H 1451.47 3.72348 0.361679 0
M  V30 15495 H 1452.8 4.897 0.49545 0
M  V30 15496 N 1454.45 0.0885642 1.57351 0
M  V30 15497 C 1455.4 -0.872723 2.13664 0
M  V30 15498 C 1456.37 -1.28418 1.05347 0
M  V30 15499 O 1457.55 -1.36709 1.33099 0
M  V30 15500 C 1454.69 -2.12886 2.71613 0
M  V30 15501 C 1453.81 -1.76852 3.94141 0
M  V30 15502 C 1452.94 -2.97203 4.40277 0
M  V30 15503 C 1451.98 -2.57265 5.55411 0
M  V30 15504 N 1451.12 -3.70429 5.96428 0
M  V30 15505 H 1455.96 -0.385644 2.95494 0
M  V30 15506 H 1453.49 -0.178688 1.46011 0
M  V30 15507 H 1455.45 -2.86441 3.03327 0
M  V30 15508 H 1454.08 -2.59105 1.92521 0
M  V30 15509 H 1453.13 -0.932921 3.68783 0
M  V30 15510 H 1454.45 -1.43481 4.77718 0
M  V30 15511 H 1453.6 -3.79019 4.7374 0
M  V30 15512 H 1452.34 -3.3378 3.55587 0
M  V30 15513 H 1451.34 -1.73875 5.21582 0
M  V30 15514 H 1452.57 -2.21839 6.41844 0
M  V30 15515 H 1450.51 -4.06737 5.14686 0
M  V30 15516 H 1450.43 -3.40881 6.74786 0
M  V30 15517 H 1451.7 -4.52774 6.3452 0
M  V30 15518 N 1455.93 -1.56509 -0.185096 0
M  V30 15519 C 1456.88 -1.96237 -1.24875 0
M  V30 15520 C 1457.87 -0.849169 -1.46579 0
M  V30 15521 O 1459.08 -1.03422 -1.47322 0
M  V30 15522 H 1455.45 -0.624147 -0.419457 0
M  V30 15523 H 1457.42 -2.8492 -0.88673 0
M  V30 15524 C 1456.17 -2.32667 -2.58382 0
M  V30 15525 H 1455.49 -3.17858 -2.425 0
M  V30 15526 H 1456.93 -2.6432 -3.31528 0
M  V30 15527 C 1455.39 -1.16496 -3.16118 0
M  V30 15528 O 1455.92 -0.445283 -3.99224 0
M  V30 15529 N 1454.13 -0.939133 -2.75007 0
M  V30 15530 H 1453.68 -1.52611 -2.07527 0
M  V30 15531 H 1453.63 -0.163659 -3.13974 0
M  V30 15532 N 1457.41 0.45317 -1.50944 0
M  V30 15533 C 1458.65 1.20568 -1.63068 0
M  V30 15534 C 1458.99 1.91229 -0.338375 0
M  V30 15535 O 1458.26 1.82916 0.661207 0
M  V30 15536 C 1458.54 2.23522 -2.8233 0
M  V30 15537 C 1458.4 1.57047 -4.21493 0
M  V30 15538 C 1459.72 3.24663 -2.97123 0
M  V30 15539 H 1456.83 0.436971 -0.593486 0
M  V30 15540 H 1459.48 0.497008 -1.83384 0
M  V30 15541 H 1457.63 2.83961 -2.65139 0
M  V30 15542 H 1459.3 1.00067 -4.50316 0
M  V30 15543 H 1457.54 0.873143 -4.24922 0
M  V30 15544 H 1458.21 2.31949 -5.00903 0
M  V30 15545 H 1460.69 2.74264 -3.12919 0
M  V30 15546 H 1459.56 3.9401 -3.82161 0
M  V30 15547 H 1459.83 3.89843 -2.08506 0
M  V30 15548 N 1458.88 1.40823 0.707568 0
M  V30 15549 C 1460.13 1.39535 1.46753 0
M  V30 15550 C 1460.46 0.000370511 1.945 0
M  V30 15551 O 1459.71 -0.985628 1.69068 0
M  V30 15552 C 1460.01 2.33829 2.70294 0
M  V30 15553 C 1459.68 3.8092 2.41269 0
M  V30 15554 C 1458.34 4.20993 2.33063 0
M  V30 15555 C 1460.69 4.73839 2.17086 0
M  V30 15556 C 1458.02 5.52009 1.98754 0
M  V30 15557 C 1460.37 6.05161 1.84289 0
M  V30 15558 C 1459.04 6.44268 1.74571 0
M  V30 15559 H 1458.31 0.510593 0.537006 0
M  V30 15560 H 1460.95 1.73536 0.809789 0
M  V30 15561 H 1459.26 1.9304 3.40944 0
M  V30 15562 H 1460.96 2.30111 3.28405 0
M  V30 15563 H 1457.55 3.49175 2.48545 0
M  V30 15564 H 1461.73 4.43691 2.22377 0
M  V30 15565 H 1456.99 5.81202 1.89774 0
M  V30 15566 H 1461.16 6.7667 1.64593 0
M  V30 15567 H 1458.79 7.45703 1.47753 0
M  V30 15568 N 1460.36 -0.94061 1.26453 0
M  V30 15569 C 1461.59 -1.72654 1.14914 0
M  V30 15570 C 1462.01 -1.85823 -0.291789 0
M  V30 15571 O 1461.37 -1.34888 -1.2114 0
M  V30 15572 C 1461.42 -3.11083 1.82372 0
M  V30 15573 O 1460.52 -3.971 1.1129 0
M  V30 15574 H 1459.86 -0.529704 0.400387 0
M  V30 15575 H 1462.39 -1.17803 1.67283 0
M  V30 15576 H 1462.4 -3.6147 1.89219 0
M  V30 15577 H 1461.08 -3.00815 2.87199 0
M  V30 15578 H 1459.66 -3.5555 1.12423 0
M  V30 15579 N 1461.84 -1.08266 -1.14527 0
M  V30 15580 C 1463.09 -0.809856 -1.85164 0
M  V30 15581 C 1463.41 0.666263 -1.83265 0
M  V30 15582 O 1462.68 1.48295 -1.28006 0
M  V30 15583 H 1461.26 -0.296598 -0.685594 0
M  V30 15584 H 1463.92 -1.36834 -1.38789 0
M  V30 15585 H 1463.02 -1.15272 -2.90032 0
M  V30 15586 N 1463.32 1.31536 -0.86811 0
M  V30 15587 C 1464.57 1.96045 -0.474271 0
M  V30 15588 C 1464.88 1.6939 0.978071 0
M  V30 15589 O 1466.09 2.27746 1.47797 0
M  V30 15590 C 1464.54 3.5096 -0.797203 0
M  V30 15591 C 1464.15 3.86456 -2.26618 0
M  V30 15592 C 1465.9 4.21871 -0.471745 0
M  V30 15593 C 1463.8 5.34474 -2.53162 0
M  V30 15594 H 1462.73 0.733737 -0.173627 0
M  V30 15595 H 1465.38 1.49734 -1.06076 0
M  V30 15596 H 1463.77 3.95752 -0.139994 0
M  V30 15597 H 1464.94 3.52629 -2.9663 0
M  V30 15598 H 1463.25 3.28605 -2.55749 0
M  V30 15599 H 1465.85 5.30767 -0.647317 0
M  V30 15600 H 1466.19 4.12131 0.58768 0
M  V30 15601 H 1466.73 3.82706 -1.08542 0
M  V30 15602 H 1463.47 5.49248 -3.57781 0
M  V30 15603 H 1462.99 5.6966 -1.87743 0
M  V30 15604 H 1464.67 6.01716 -2.37797 0
M  V30 15605 N 1464.8 0.627364 1.44575 0
M  V30 15606 C 1466.03 0.137114 2.06145 0
M  V30 15607 C 1466.44 -1.19201 1.46928 0
M  V30 15608 O 1465.78 -1.7413 0.585199 0
M  V30 15609 C 1465.84 -0.0560229 3.59456 0
M  V30 15610 C 1465.5 1.19435 4.41117 0
M  V30 15611 C 1466.5 2.11717 4.74839 0
M  V30 15612 C 1464.19 1.42871 4.81553 0
M  V30 15613 C 1466.18 3.25749 5.47875 0
M  V30 15614 C 1463.87 2.572 5.54339 0
M  V30 15615 C 1464.87 3.48466 5.87419 0
M  V30 15616 O 1464.55 4.60802 6.58723 0
M  V30 15617 H 1464.29 0.0751614 0.671809 0
M  V30 15618 H 1466.84 0.86076 1.86494 0
M  V30 15619 H 1465.07 -0.834775 3.77582 0
M  V30 15620 H 1466.76 -0.500352 4.02804 0
M  V30 15621 H 1467.52 1.94844 4.44141 0
M  V30 15622 H 1463.4 0.727246 4.55228 0
M  V30 15623 H 1466.95 3.97007 5.73612 0
M  V30 15624 H 1462.84 2.74018 5.84452 0
M  V30 15625 H 1463.61 4.59736 6.77189 0
M  V30 15626 N 1466.28 -1.53251 0.367684 0
M  V30 15627 C 1467.69 -1.59591 0.0167132 0
M  V30 15628 C 1467.89 -1.38272 -1.46571 0
M  V30 15629 O 1466.95 -1.18893 -2.22757 0
M  V30 15630 C 1468.26 -2.96932 0.474534 0
M  V30 15631 C 1469.81 -3.10047 0.428934 0
M  V30 15632 C 1470.28 -4.49804 0.862599 0
M  V30 15633 N 1471.77 -4.55925 0.817742 0
M  V30 15634 C 1472.51 -5.62256 1.12496 0
M  V30 15635 N 1472.01 -6.76332 1.50156 0
M  V30 15636 N 1473.8 -5.52251 1.04762 0
M  V30 15637 H 1465.95 -1.6536 1.33303 0
M  V30 15638 H 1468.21 -0.775681 0.544998 0
M  V30 15639 H 1467.92 -3.17679 1.50907 0
M  V30 15640 H 1467.79 -3.76948 -0.137752 0
M  V30 15641 H 1470.18 -2.89009 -0.596473 0
M  V30 15642 H 1470.26 -2.32034 1.07674 0
M  V30 15643 H 1469.9 -4.7158 1.88613 0
M  V30 15644 H 1469.83 -5.2625 0.19202 0
M  V30 15645 H 1472.33 -3.74017 0.540323 0
M  V30 15646 H 1472.64 -7.53412 1.72019 0
M  V30 15647 H 1470.98 -6.77718 1.54024 0
M  V30 15648 H 1474.17 -4.62011 0.752571 0
M  V30 15649 H 1474.35 -6.35022 1.29038 0
M  V30 15650 N 1467.75 -0.0969077 -1.57302 0
M  V30 15651 C 1468.7 0.878876 -2.15357 0
M  V30 15652 C 1469.7 1.29091 -1.0969 0
M  V30 15653 O 1470.9 1.26523 -1.28031 0
M  V30 15654 H 1467.28 0.301458 -0.688932 0
M  V30 15655 H 1469.25 0.364542 -2.96165 0
M  V30 15656 C 1468 2.12761 -2.75006 0
M  V30 15657 H 1467.32 1.81944 -3.56 0
M  V30 15658 H 1468.76 2.79092 -3.19193 0
M  V30 15659 C 1467.22 2.90283 -1.70989 0
M  V30 15660 O 1467.75 3.84889 -1.14992 0
M  V30 15661 N 1465.95 2.53857 -1.41439 0
M  V30 15662 H 1465.5 1.76993 -1.87166 0
M  V30 15663 H 1465.46 3.06025 -0.720816 0
M  V30 15664 N 1469.23 1.56605 0.176793 0
M  V30 15665 C 1470.48 1.80875 0.892578 0
M  V30 15666 C 1470.79 0.673245 1.83648 0
M  V30 15667 O 1472 0.800732 2.59423 0
M  V30 15668 C 1470.46 3.20481 1.63768 0
M  V30 15669 C 1470.06 4.41885 0.737685 0
M  V30 15670 C 1471.81 3.54048 2.34202 0
M  V30 15671 C 1469.71 5.72512 1.48271 0
M  V30 15672 H 1468.64 0.674476 0.337042 0
M  V30 15673 H 1471.3 1.82922 0.145574 0
M  V30 15674 H 1469.68 3.12736 2.42924 0
M  V30 15675 H 1470.85 4.60797 -0.0165186 0
M  V30 15676 H 1469.17 4.16153 0.143277 0
M  V30 15677 H 1471.76 4.48886 2.90526 0
M  V30 15678 H 1472.11 2.78665 3.09276 0
M  V30 15679 H 1472.64 3.63322 1.61995 0
M  V30 15680 H 1469.38 6.5091 0.774399 0
M  V30 15681 H 1468.9 5.57586 2.21038 0
M  V30 15682 H 1470.58 6.14274 2.03165 0
M  V30 15683 N 1470.71 -0.445159 1.51182 0
M  V30 15684 C 1471.96 -1.19215 1.62698 0
M  V30 15685 C 1472.27 -1.92529 0.345249 0
M  V30 15686 O 1473.48 -2.69367 0.33967 0
M  V30 15687 C 1471.93 -2.16762 2.87302 0
M  V30 15688 C 1471.54 -1.49131 4.2245 0
M  V30 15689 C 1473.29 -2.91942 3.08172 0
M  V30 15690 C 1471.19 -2.45117 5.38212 0
M  V30 15691 H 1470.12 -0.448687 0.605967 0
M  V30 15692 H 1472.77 -0.459956 1.77642 0
M  V30 15693 H 1471.16 -2.93383 2.65975 0
M  V30 15694 H 1472.33 -0.781222 4.54129 0
M  V30 15695 H 1470.64 -0.861342 4.07394 0
M  V30 15696 H 1473.24 -3.6383 3.91832 0
M  V30 15697 H 1473.58 -3.52837 2.20934 0
M  V30 15698 H 1474.12 -2.22429 3.29803 0
M  V30 15699 H 1470.86 -1.88923 6.27685 0
M  V30 15700 H 1470.38 -3.14202 5.10918 0
M  V30 15701 H 1472.06 -3.06411 5.69843 0
M  V30 15702 N 1472.19 -1.41197 -0.700089 0
M  V30 15703 C 1473.43 -1.40311 -1.46011 0
M  V30 15704 C 1473.76 -0.0106853 -1.94497 0
M  V30 15705 O 1473.02 0.976648 -1.69588 0
M  V30 15706 C 1473.32 -2.35259 -2.6905 0
M  V30 15707 C 1472.98 -3.82194 -2.39245 0
M  V30 15708 C 1471.64 -4.22223 -2.30827 0
M  V30 15709 C 1474 -4.74983 -2.1457 0
M  V30 15710 C 1471.32 -5.53055 -1.95824 0
M  V30 15711 C 1473.68 -6.0613 -1.81077 0
M  V30 15712 C 1472.34 -6.45185 -1.71151 0
M  V30 15713 H 1471.61 -0.513434 -0.534291 0
M  V30 15714 H 1474.26 -1.73963 -0.800574 0
M  V30 15715 H 1472.56 -1.94845 -3.39915 0
M  V30 15716 H 1474.26 -2.31849 -3.2718 0
M  V30 15717 H 1470.85 -3.50488 -2.4669 0
M  V30 15718 H 1475.03 -4.44864 -2.20021 0
M  V30 15719 H 1470.29 -5.822 -1.86689 0
M  V30 15720 H 1474.46 -6.77533 -1.61002 0
M  V30 15721 H 1472.09 -7.46476 -1.43796 0
M  V30 15722 N 1473.67 0.933891 -1.2695 0
M  V30 15723 C 1474.91 1.69554 -1.14153 0
M  V30 15724 C 1475.27 1.89503 0.308639 0
M  V30 15725 O 1476.47 2.62925 0.558894 0
M  V30 15726 C 1474.74 3.02894 -1.8971 0
M  V30 15727 S 1476.3 3.94051 -1.93053 0
M  V30 15728 H 1473.12 0.582546 -0.407629 0
M  V30 15729 H 1475.72 1.11233 -1.60772 0
M  V30 15730 H 1474.42 2.86061 -2.94274 0
M  V30 15731 H 1473.96 3.6627 -1.43561 0
M  V30 15732 H 1475.97 4.85551 -1.02249 0
M  V30 15733 N 1475.14 1.08871 1.13951 0
M  V30 15734 C 1476.37 0.843055 1.89492 0
M  V30 15735 C 1476.79 -0.599539 1.78289 0
M  V30 15736 O 1476.15 -1.42062 1.12642 0
M  V30 15737 C 1476.2 1.27572 3.3728 0
M  V30 15738 O 1475.3 0.430611 4.10146 0
M  V30 15739 H 1474.64 0.3058 0.589391 0
M  V30 15740 H 1477.17 1.45137 1.44209 0
M  V30 15741 H 1477.18 1.25864 3.88101 0
M  V30 15742 H 1475.86 2.32635 3.44751 0
M  V30 15743 H 1474.44 0.511516 3.69375 0
M  V30 15744 N 1476.62 -1.31073 0.875073 0
M  V30 15745 C 1477.87 -1.96809 0.489273 0
M  V30 15746 C 1478.2 -1.68979 -0.957073 0
M  V30 15747 O 1477.48 -0.989061 -1.67475 0
M  V30 15748 C 1477.76 -3.52139 0.752998 0
M  V30 15749 C 1477.61 -3.89524 2.24925 0
M  V30 15750 C 1478.93 -4.39535 0.222871 0
M  V30 15751 H 1476.05 -0.714873 0.179238 0
M  V30 15752 H 1478.69 -1.55114 1.09725 0
M  V30 15753 H 1476.84 -3.87785 0.23553 0
M  V30 15754 H 1478.51 -3.63953 2.83436 0
M  V30 15755 H 1476.76 -3.37948 2.71981 0
M  V30 15756 H 1477.43 -4.97845 2.38441 0
M  V30 15757 H 1479.9 -4.10741 0.665645 0
M  V30 15758 H 1478.78 -5.47159 0.436806 0
M  V30 15759 H 1479.04 -4.33346 -0.875445 0
M  V30 15760 N 1478.1 -0.635022 -1.4424 0
M  V30 15761 C 1479.35 -0.141276 -2.02307 0
M  V30 15762 C 1479.68 1.23508 -1.49865 0
M  V30 15763 O 1478.95 1.82065 -0.684291 0
M  V30 15764 C 1479.24 -0.132196 -3.59857 0
M  V30 15765 C 1479.09 -1.54117 -4.22573 0
M  V30 15766 C 1480.41 0.541186 -4.3676 0
M  V30 15767 H 1477.53 -0.0528117 -0.735105 0
M  V30 15768 H 1480.17 -0.812239 -1.71763 0
M  V30 15769 H 1478.32 0.439156 -3.8601 0
M  V30 15770 H 1479.99 -2.16171 -4.07514 0
M  V30 15771 H 1478.24 -2.09389 -3.79919 0
M  V30 15772 H 1478.91 -1.48682 -5.31599 0
M  V30 15773 H 1481.38 0.0552603 -4.16063 0
M  V30 15774 H 1480.26 0.516742 -5.46462 0
M  V30 15775 H 1480.52 1.61222 -4.11655 0
M  V30 15776 N 1479.58 1.53054 -0.375806 0
M  V30 15777 C 1480.51 2.28973 0.45754 0
M  V30 15778 C 1481.49 1.31812 1.07516 0
M  V30 15779 O 1482.67 1.60693 1.09048 0
M  V30 15780 C 1479.8 3.08657 1.59212 0
M  V30 15781 C 1478.76 4.1359 1.10123 0
M  V30 15782 C 1478.08 4.81417 2.32684 0
M  V30 15783 C 1479.38 5.21994 0.17872 0
M  V30 15784 H 1481.08 2.98883 -0.175872 0
M  V30 15785 H 1478.62 1.43743 -0.0860253 0
M  V30 15786 H 1480.58 3.6052 2.18182 0
M  V30 15787 H 1479.3 2.36456 2.25291 0
M  V30 15788 H 1477.96 3.62688 0.534151 0
M  V30 15789 H 1477.61 4.05778 2.97243 0
M  V30 15790 H 1477.31 5.52332 2.00506 0
M  V30 15791 H 1478.83 5.36079 2.92322 0
M  V30 15792 H 1480.25 5.69298 0.676204 0
M  V30 15793 H 1478.64 6.00077 -0.0526605 0
M  V30 15794 H 1479.71 4.78646 -0.776246 0
M  V30 15795 N 1481.06 0.105248 1.57248 0
M  V30 15796 C 1482.3 -0.554956 1.94331 0
M  V30 15797 C 1482.63 -1.68087 0.988528 0
M  V30 15798 O 1481.9 -1.95854 0.042366 0
M  V30 15799 H 1480.48 -0.207994 0.717459 0
M  V30 15800 H 1483.14 0.170964 1.94149 0
M  V30 15801 H 1482.23 -0.95853 2.97016 0
M  V30 15802 N 1482.53 -1.56697 -0.168486 0
M  V30 15803 C 1483.76 -1.86292 -0.900152 0
M  V30 15804 C 1484.18 -0.690968 -1.75702 0
M  V30 15805 O 1483.53 0.339855 -1.79308 0
M  V30 15806 C 1483.59 -3.14946 -1.77457 0
M  V30 15807 O 1483.31 -4.27625 -0.952267 0
M  V30 15808 C 1484.81 -3.57908 -2.61566 0
M  V30 15809 H 1482.03 -0.618003 -0.261369 0
M  V30 15810 H 1484.57 -2.03811 -0.16773 0
M  V30 15811 H 1482.73 -2.99246 -2.4603 0
M  V30 15812 H 1483.14 -5.01057 -1.55056 0
M  V30 15813 H 1484.61 -4.50823 -3.18532 0
M  V30 15814 H 1485.09 -2.82162 -3.36573 0
M  V30 15815 H 1485.7 -3.7623 -1.98321 0
M  V30 15816 N 1484.01 0.437135 -1.51416 0
M  V30 15817 C 1485.26 1.18655 -1.64095 0
M  V30 15818 C 1485.59 1.9119 -0.35728 0
M  V30 15819 O 1484.84 1.84283 0.658644 0
M  V30 15820 C 1485.14 2.22795 -2.79458 0
M  V30 15821 C 1484.81 1.67271 -4.18726 0
M  V30 15822 C 1483.47 1.51852 -4.56612 0
M  V30 15823 C 1485.82 1.26448 -5.05629 0
M  V30 15824 C 1483.15 0.940834 -5.79107 0
M  V30 15825 C 1485.5 0.701095 -6.28703 0
M  V30 15826 C 1484.17 0.533801 -6.65362 0
M  V30 15827 H 1483.44 0.434191 -0.600466 0
M  V30 15828 H 1486.08 0.477592 -1.85449 0
M  V30 15829 H 1484.39 2.99731 -2.52327 0
M  V30 15830 H 1486.08 2.80602 -2.86467 0
M  V30 15831 H 1482.67 1.80249 -3.88855 0
M  V30 15832 H 1486.86 1.37182 -4.76964 0
M  V30 15833 H 1482.11 0.798982 -6.06157 0
M  V30 15834 H 1486.29 0.37626 -6.95383 0
M  V30 15835 H 1483.92 0.0840431 -7.60154 0
M  V30 15836 N 1485.49 1.41566 0.692592 0
M  V30 15837 C 1486.74 1.40381 1.44831 0
M  V30 15838 C 1487.05 0.0172068 1.95592 0
M  V30 15839 O 1488.26 -0.11726 2.71247 0
M  V30 15840 C 1486.71 2.46844 2.61908 0
M  V30 15841 C 1486.32 3.91426 2.17921 0
M  V30 15842 C 1488.07 2.548 3.39525 0
M  V30 15843 C 1485.97 4.89436 3.31974 0
M  V30 15844 H 1484.9 0.522062 0.544028 0
M  V30 15845 H 1487.55 1.67402 0.751589 0
M  V30 15846 H 1485.94 2.12959 3.33863 0
M  V30 15847 H 1487.11 4.34575 1.53236 0
M  V30 15848 H 1485.43 3.87158 1.5329 0
M  V30 15849 H 1488.02 3.25207 4.24434 0
M  V30 15850 H 1488.37 1.58579 3.84913 0
M  V30 15851 H 1488.9 2.87791 2.74629 0
M  V30 15852 H 1485.64 5.87071 2.91595 0
M  V30 15853 H 1485.16 4.50933 3.95499 0
M  V30 15854 H 1486.84 5.10331 3.97708 0
M  V30 15855 N 1486.97 -0.927146 1.27443 0
M  V30 15856 C 1488.21 -1.68946 1.15051 0
M  V30 15857 C 1488.57 -1.89664 -0.298585 0
M  V30 15858 O 1489.77 -2.63218 -0.544943 0
M  V30 15859 C 1488.04 -3.01884 1.91313 0
M  V30 15860 S 1489.6 -3.93021 1.9514 0
M  V30 15861 H 1486.42 -0.580376 0.410713 0
M  V30 15862 H 1489.02 -1.10378 1.61359 0
M  V30 15863 H 1487.73 -2.84496 2.95787 0
M  V30 15864 H 1487.26 -3.65504 1.45501 0
M  V30 15865 H 1489.27 -4.85002 1.04822 0
M  V30 15866 N 1488.45 -1.09474 -1.13372 0
M  V30 15867 C 1489.38 -0.692446 -2.1849 0
M  V30 15868 C 1490.39 0.265942 -1.60613 0
M  V30 15869 O 1491.58 0.0519189 -1.78424 0
M  V30 15870 C 1488.68 0.000306083 -3.389 0
M  V30 15871 C 1487.85 -0.979745 -4.26286 0
M  V30 15872 C 1486.91 -0.320309 -5.25224 0
M  V30 15873 O 1485.94 -0.968089 -5.60907 0
M  V30 15874 N 1487.14 0.92536 -5.73077 0
M  V30 15875 H 1489.91 -1.59681 -2.53618 0
M  V30 15876 H 1487.47 -0.982256 -1.28699 0
M  V30 15877 H 1489.46 0.45268 -4.0216 0
M  V30 15878 H 1488.03 0.806927 -3.02006 0
M  V30 15879 H 1487.25 -1.61067 -3.59793 0
M  V30 15880 H 1488.54 -1.64348 -4.81526 0
M  V30 15881 H 1487.93 1.47119 -5.46235 0
M  V30 15882 H 1486.49 1.32105 -6.38272 0
M  V30 15883 N 1489.92 1.30607 -0.882012 0
M  V30 15884 C 1491.17 1.95531 -0.495038 0
M  V30 15885 C 1491.49 1.70418 0.96005 0
M  V30 15886 O 1492.69 2.29301 1.45373 0
M  V30 15887 C 1491.15 3.50094 -0.834382 0
M  V30 15888 C 1490.76 3.84031 -2.30704 0
M  V30 15889 C 1492.5 4.21347 -0.516463 0
M  V30 15890 C 1490.41 5.31759 -2.58817 0
M  V30 15891 H 1489.34 0.731854 -0.181399 0
M  V30 15892 H 1491.99 1.486 -1.07658 0
M  V30 15893 H 1490.37 3.95582 -0.181961 0
M  V30 15894 H 1491.54 3.49463 -3.00353 0
M  V30 15895 H 1489.86 3.25874 -2.5922 0
M  V30 15896 H 1492.46 5.30051 -0.703576 0
M  V30 15897 H 1492.8 4.12731 0.543935 0
M  V30 15898 H 1493.33 3.81533 -1.12595 0
M  V30 15899 H 1490.07 5.45422 -3.63586 0
M  V30 15900 H 1489.59 5.67637 -1.93774 0
M  V30 15901 H 1491.27 5.9916 -2.44165 0
M  V30 15902 N 1491.4 0.642663 1.43901 0
M  V30 15903 C 1492.65 0.151778 2.0193 0
M  V30 15904 C 1492.98 -1.23052 1.50627 0
M  V30 15905 O 1492.23 -1.83305 0.685404 0
M  V30 15906 C 1492.53 0.100139 3.5726 0
M  V30 15907 C 1492.2 1.42276 4.27865 0
M  V30 15908 C 1490.86 1.78497 4.46869 0
M  V30 15909 C 1493.21 2.29526 4.67939 0
M  V30 15910 C 1490.54 3.01655 5.03211 0
M  V30 15911 C 1492.89 3.51966 5.25645 0
M  V30 15912 C 1491.56 3.88396 5.42867 0
M  V30 15913 H 1490.83 0.0555394 0.738916 0
M  V30 15914 H 1493.47 0.831273 1.72517 0
M  V30 15915 H 1491.78 -0.66277 3.86154 0
M  V30 15916 H 1493.47 -0.29638 3.99903 0
M  V30 15917 H 1490.06 1.13091 4.13411 0
M  V30 15918 H 1494.25 2.02835 4.52959 0
M  V30 15919 H 1489.5 3.29943 5.14731 0
M  V30 15920 H 1493.68 4.19799 5.55645 0
M  V30 15921 H 1491.31 4.83909 5.8629 0
M  V30 15922 N 1492.88 -1.52852 0.383918 0
M  V30 15923 C 1494.13 -2.00694 -0.201206 0
M  V30 15924 C 1494.44 -1.2748 -1.48352 0
M  V30 15925 O 1495.65 -1.66005 -2.14836 0
M  V30 15926 C 1494.11 -3.57567 -0.409117 0
M  V30 15927 C 1493.71 -4.39675 0.859628 0
M  V30 15928 C 1495.46 -4.13713 -0.950899 0
M  V30 15929 C 1493.36 -5.88138 0.620292 0
M  V30 15930 H 1492.29 -0.749854 -0.0789656 0
M  V30 15931 H 1494.95 -1.764 0.505488 0
M  V30 15932 H 1493.33 -3.78088 -1.17753 0
M  V30 15933 H 1494.5 -4.30923 1.63224 0
M  V30 15934 H 1492.82 -3.94724 1.32597 0
M  V30 15935 H 1495.41 -5.22284 -1.14558 0
M  V30 15936 H 1495.76 -3.69463 -1.9184 0
M  V30 15937 H 1496.29 -3.97062 -0.242195 0
M  V30 15938 H 1493.03 -6.367 1.55864 0
M  V30 15939 H 1492.55 -5.99693 -0.113483 0
M  V30 15940 H 1494.23 -6.46506 0.252775 0
M  V30 15941 N 1494.36 -0.113586 -1.5719 0
M  V30 15942 C 1495.61 0.546529 -1.95297 0
M  V30 15943 C 1495.94 1.66674 -0.996671 0
M  V30 15944 O 1495.21 1.94472 -0.0329298 0
M  V30 15945 C 1495.5 1.08433 -3.43387 0
M  V30 15946 C 1495.35 -0.0320929 -4.49789 0
M  V30 15947 C 1496.67 1.97691 -3.932 0
M  V30 15948 H 1493.79 0.197195 -0.710129 0
M  V30 15949 H 1496.43 -0.188048 -1.89067 0
M  V30 15950 H 1494.58 1.71033 -3.48827 0
M  V30 15951 H 1496.25 -0.66716 -4.5645 0
M  V30 15952 H 1494.49 -0.695983 -4.2818 0
M  V30 15953 H 1495.17 0.385341 -5.50653 0
M  V30 15954 H 1497.64 1.4497 -3.90029 0
M  V30 15955 H 1496.52 2.3224 -4.97349 0
M  V30 15956 H 1496.78 2.90137 -3.33576 0
M  V30 15957 N 1495.84 1.56784 0.160173 0
M  V30 15958 C 1496.75 2.00514 1.21783 0
M  V30 15959 C 1497.76 0.918341 1.47792 0
M  V30 15960 O 1498.94 1.22683 1.59721 0
M  V30 15961 C 1496 2.36575 2.53443 0
M  V30 15962 C 1495.07 3.59138 2.35198 0
M  V30 15963 C 1494.3 3.93469 3.6058 0
M  V30 15964 O 1494.52 3.28625 4.6622 0
M  V30 15965 O 1493.46 4.86774 3.54027 0
M  V30 15966 H 1497.28 2.90774 0.876607 0
M  V30 15967 H 1494.87 1.44799 0.367897 0
M  V30 15968 H 1496.75 2.60687 3.31089 0
M  V30 15969 H 1495.42 1.49474 2.87122 0
M  V30 15970 H 1494.33 3.4023 1.55546 0
M  V30 15971 H 1495.66 4.46815 2.0644 0
M  V30 15972 N 1497.32 -0.429099 1.51646 0
M  V30 15973 C 1498.56 -1.17784 1.64722 0
M  V30 15974 C 1498.89 -1.90998 0.367415 0
M  V30 15975 O 1498.15 -1.8463 -0.648862 0
M  V30 15976 C 1498.44 -2.2131 2.80636 0
M  V30 15977 C 1498.11 -1.65048 4.19607 0
M  V30 15978 C 1496.77 -1.49428 4.57411 0
M  V30 15979 C 1499.12 -1.23765 5.06292 0
M  V30 15980 C 1496.45 -0.910109 5.79598 0
M  V30 15981 C 1498.8 -0.667743 6.29066 0
M  V30 15982 C 1497.47 -0.498507 6.65636 0
M  V30 15983 H 1496.74 -0.431001 0.60276 0
M  V30 15984 H 1499.39 -0.46775 1.857 0
M  V30 15985 H 1497.69 -2.98388 2.53913 0
M  V30 15986 H 1499.39 -2.79079 2.87951 0
M  V30 15987 H 1495.98 -1.78185 3.89805 0
M  V30 15988 H 1500.16 -1.3465 4.77685 0
M  V30 15989 H 1495.42 -0.766825 6.06572 0
M  V30 15990 H 1499.59 -0.339377 6.95573 0
M  V30 15991 H 1497.22 -0.0437292 7.60187 0
M  V30 15992 N 1498.79 -1.41931 -0.685074 0
M  V30 15993 C 1500.04 -1.41571 -1.44229 0
M  V30 15994 C 1500.36 -0.0294445 -1.94978 0
M  V30 15995 O 1499.63 0.930414 -1.72395 0
M  V30 15996 H 1498.21 -0.521138 -0.535186 0
M  V30 15997 H 1500.87 -1.77263 -0.81017 0
M  V30 15998 H 1499.97 -2.10929 -2.30034 0
M  V30 15999 N 1500.27 0.920374 -1.27933 0
M  V30 16000 C 1501.52 1.66554 -1.14474 0
M  V30 16001 C 1501.84 1.92545 0.308444 0
M  V30 16002 O 1501.11 1.53691 1.21473 0
M  V30 16003 H 1499.69 0.617302 -0.420651 0
M  V30 16004 H 1502.35 1.10473 -1.60567 0
M  V30 16005 H 1501.45 2.63067 -1.67935 0
M  V30 16006 N 1501.75 1.10074 1.1279 0
M  V30 16007 C 1502.7 0.746173 2.18405 0
M  V30 16008 C 1503.67 -0.275751 1.63795 0
M  V30 16009 O 1504.85 -0.155876 1.90162 0
M  V30 16010 C 1501.99 0.180105 3.4463 0
M  V30 16011 C 1501.1 1.25688 4.13312 0
M  V30 16012 C 1500.24 0.652852 5.27173 0
M  V30 16013 C 1499.28 1.71046 5.87716 0
M  V30 16014 N 1498.42 1.12698 6.92996 0
M  V30 16015 H 1503.26 1.65105 2.48081 0
M  V30 16016 H 1500.79 0.824768 1.21803 0
M  V30 16017 H 1502.75 -0.165948 4.1687 0
M  V30 16018 H 1501.38 -0.688014 3.15383 0
M  V30 16019 H 1500.43 1.72011 3.39288 0
M  V30 16020 H 1501.74 2.05762 4.54382 0
M  V30 16021 H 1500.9 0.25603 6.0616 0
M  V30 16022 H 1499.64 -0.17937 4.8737 0
M  V30 16023 H 1498.64 2.11676 5.07418 0
M  V30 16024 H 1499.87 2.54547 6.29589 0
M  V30 16025 H 1497.81 0.316154 6.55238 0
M  V30 16026 H 1497.73 1.86461 7.32645 0
M  V30 16027 H 1499 0.756582 7.7582 0
M  V30 16028 N 1503.23 -1.30138 0.888926 0
M  V30 16029 C 1504.64 -1.78124 0.559346 0
M  V30 16030 C 1504.99 -1.73046 -0.924633 0
M  V30 16031 O 1504.11 -1.30974 -1.72264 0
M  V30 16032 C 1504.71 -3.2344 1.00856 0
M  V30 16033 C 1503.27 -3.69247 0.730332 0
M  V30 16034 C 1502.42 -2.505 1.18933 0
M  V30 16035 H 1505.37 -1.16952 1.07275 0
M  V30 16036 H 1505.39 -3.78985 0.339219 0
M  V30 16037 H 1504.9 -3.27104 2.08865 0
M  V30 16038 H 1503 -3.71067 -0.337599 0
M  V30 16039 H 1503.11 -4.60538 1.32066 0
M  V30 16040 H 1501.48 -2.47323 0.608568 0
M  V30 16041 H 1502.26 -2.56899 2.27724 0
M  V30 16042 N 1504.71 -0.650285 -1.43559 0
M  V30 16043 C 1505.95 -0.162484 -2.01847 0
M  V30 16044 C 1506.28 1.22251 -1.51278 0
M  V30 16045 O 1505.54 1.82939 -0.695115 0
M  V30 16046 C 1505.83 -0.119084 -3.57202 0
M  V30 16047 C 1505.5 -1.44543 -4.27104 0
M  V30 16048 C 1504.16 -1.80864 -4.45917 0
M  V30 16049 C 1506.51 -2.32005 -4.66715 0
M  V30 16050 C 1503.84 -3.04319 -5.01604 0
M  V30 16051 C 1506.19 -3.54748 -5.23771 0
M  V30 16052 C 1504.86 -3.9127 -5.408 0
M  V30 16053 H 1504.13 -0.0594573 -0.738611 0
M  V30 16054 H 1506.78 -0.84041 -1.72074 0
M  V30 16055 H 1505.08 0.642282 -3.865 0
M  V30 16056 H 1506.78 0.275168 -4.00055 0
M  V30 16057 H 1503.37 -1.15281 -4.12805 0
M  V30 16058 H 1507.55 -2.05234 -4.51877 0
M  V30 16059 H 1502.81 -3.32668 -5.12974 0
M  V30 16060 H 1506.98 -4.2274 -5.53411 0
M  V30 16061 H 1504.61 -4.87011 -5.83716 0
M  V30 16062 N 1506.18 1.52647 -0.392018 0
M  V30 16063 C 1507.41 2.06511 0.191815 0
M  V30 16064 C 1507.83 1.26162 1.39516 0
M  V30 16065 O 1507.19 0.287373 1.79008 0
M  V30 16066 C 1507.24 3.56571 0.537512 0
M  V30 16067 O 1506.34 3.78774 1.63106 0
M  V30 16068 H 1505.68 0.663647 0.0216546 0
M  V30 16069 H 1508.21 1.96779 -0.560274 0
M  V30 16070 H 1508.22 4.00059 0.801044 0
M  V30 16071 H 1506.9 4.14489 -0.342239 0
M  V30 16072 H 1505.48 3.47175 1.36103 0
M  V30 16073 N 1507.66 0.121921 1.57128 0
M  V30 16074 C 1508.9 -0.538423 1.97181 0
M  V30 16075 C 1509.27 -1.63661 1.00394 0
M  V30 16076 O 1510.47 -2.35606 1.29396 0
M  V30 16077 C 1508.74 -1.05469 3.41484 0
M  V30 16078 S 1510.3 -1.72315 4.0355 0
M  V30 16079 H 1507.12 -0.174913 0.689149 0
M  V30 16080 H 1509.72 0.207694 1.94394 0
M  V30 16081 H 1508.42 -0.244297 4.09672 0
M  V30 16082 H 1507.95 -1.83602 3.47928 0
M  V30 16083 H 1509.97 -3.0091 3.94547 0
M  V30 16084 N 1509.14 -1.56867 -0.151857 0
M  V30 16085 C 1510.37 -1.87237 -0.880343 0
M  V30 16086 C 1510.78 -0.709565 -1.74959 0
M  V30 16087 O 1510.14 0.320818 -1.79658 0
M  V30 16088 C 1510.19 -3.16811 -1.74107 0
M  V30 16089 O 1509.91 -4.28611 -0.906858 0
M  V30 16090 C 1511.41 -3.60662 -2.57755 0
M  V30 16091 H 1508.63 -0.62074 -0.254799 0
M  V30 16092 H 1511.18 -2.03977 -0.146104 0
M  V30 16093 H 1509.33 -3.01838 -2.42842 0
M  V30 16094 H 1509.75 -5.02673 -1.49733 0
M  V30 16095 H 1511.22 -4.54176 -3.13732 0
M  V30 16096 H 1511.7 -2.85716 -3.33561 0
M  V30 16097 H 1512.3 -3.78312 -1.94319 0
M  V30 16098 N 1510.62 0.421051 -1.51871 0
M  V30 16099 C 1511.84 1.19568 -1.69465 0
M  V30 16100 C 1512.27 1.83835 -0.398269 0
M  V30 16101 O 1511.63 1.69508 0.643172 0
M  V30 16102 C 1511.67 2.24337 -2.82321 0
M  V30 16103 O 1510.78 3.30205 -2.47059 0
M  V30 16104 H 1510.12 0.349579 -0.564527 0
M  V30 16105 H 1512.65 0.495177 -1.98517 0
M  V30 16106 H 1512.66 2.6886 -3.06885 0
M  V30 16107 H 1511.33 1.76941 -3.76384 0
M  V30 16108 H 1509.91 2.91045 -2.33125 0
M  V30 16109 N 1512.1 1.42293 0.677538 0
M  V30 16110 C 1513.03 1.48344 1.80323 0
M  V30 16111 C 1514.01 0.340276 1.66662 0
M  V30 16112 O 1515.19 0.554209 1.86124 0
M  V30 16113 C 1512.32 1.38247 3.18599 0
M  V30 16114 C 1511.28 2.50562 3.46991 0
M  V30 16115 C 1510.6 2.25524 4.84812 0
M  V30 16116 C 1511.9 3.92877 3.44158 0
M  V30 16117 H 1513.6 2.42558 1.75516 0
M  V30 16118 H 1511.14 1.16746 0.842999 0
M  V30 16119 H 1513.1 1.41089 3.97079 0
M  V30 16120 H 1511.82 0.405255 3.24076 0
M  V30 16121 H 1510.48 2.47032 2.7087 0
M  V30 16122 H 1510.13 1.26102 4.86937 0
M  V30 16123 H 1509.83 3.00797 5.04772 0
M  V30 16124 H 1511.35 2.3011 5.65581 0
M  V30 16125 H 1512.76 3.98024 4.12613 0
M  V30 16126 H 1511.16 4.6798 3.75653 0
M  V30 16127 H 1512.23 4.19743 2.42783 0
M  V30 16128 N 1513.57 -0.913576 1.28419 0
M  V30 16129 C 1514.8 -1.70178 1.18551 0
M  V30 16130 C 1515.22 -1.864 -0.252307 0
M  V30 16131 O 1514.58 -1.37427 -1.18252 0
M  V30 16132 C 1514.63 -3.07145 1.8893 0
M  V30 16133 O 1513.73 -3.9465 1.19688 0
M  V30 16134 H 1513.08 -0.521092 0.411533 0
M  V30 16135 H 1515.61 -1.14228 1.69744 0
M  V30 16136 H 1515.62 -3.57375 1.96843 0
M  V30 16137 H 1514.29 -2.94655 2.93515 0
M  V30 16138 H 1512.87 -3.53085 1.19939 0
M  V30 16139 N 1515.05 -1.1067 -1.12204 0
M  V30 16140 C 1515.98 -0.779829 -2.20093 0
M  V30 16141 C 1516.96 0.248279 -1.68278 0
M  V30 16142 O 1518.15 0.113511 -1.93868 0
M  V30 16143 C 1515.28 -0.213511 -3.46643 0
M  V30 16144 C 1514.23 -1.17258 -4.11624 0
M  V30 16145 C 1513.56 -0.467352 -5.32654 0
M  V30 16146 C 1514.86 -2.52014 -4.57478 0
M  V30 16147 H 1516.55 -1.68192 -2.47693 0
M  V30 16148 H 1514.1 -0.810131 -1.1905 0
M  V30 16149 H 1516.05 0.0273225 -4.21391 0
M  V30 16150 H 1514.78 0.723837 -3.18478 0
M  V30 16151 H 1513.43 -1.39891 -3.3886 0
M  V30 16152 H 1513.08 0.474547 -5.00756 0
M  V30 16153 H 1512.78 -1.10694 -5.77079 0
M  V30 16154 H 1514.31 -0.235122 -6.10147 0
M  V30 16155 H 1515.72 -2.33516 -5.23587 0
M  V30 16156 H 1514.12 -3.1188 -5.1269 0
M  V30 16157 H 1515.19 -3.11831 -3.71335 0
M  V30 16158 N 1516.53 1.29665 -0.895815 0
M  V30 16159 C 1517.76 2.00399 -0.534333 0
M  V30 16160 C 1518.18 1.66632 0.872654 0
M  V30 16161 O 1517.54 0.888811 1.58018 0
M  V30 16162 C 1517.59 3.53154 -0.729023 0
M  V30 16163 O 1516.69 4.11812 0.22023 0
M  V30 16164 H 1516.03 0.630173 -0.209233 0
M  V30 16165 H 1518.56 1.65253 -1.20634 0
M  V30 16166 H 1518.57 4.03073 -0.632179 0
M  V30 16167 H 1517.25 3.77067 -1.75481 0
M  V30 16168 H 1515.82 3.72822 0.0761687 0
M  V30 16169 N 1518.01 0.657889 1.43212 0
M  V30 16170 C 1518.94 -0.0695999 2.29094 0
M  V30 16171 C 1519.95 -0.782463 1.42763 0
M  V30 16172 O 1521.14 -0.63944 1.66654 0
M  V30 16173 C 1518.24 -1.12178 3.19796 0
M  V30 16174 C 1517.42 -0.486131 4.3469 0
M  V30 16175 C 1516.47 -1.43582 5.06232 0
M  V30 16176 O 1515.5 -0.942622 5.61341 0
M  V30 16177 N 1516.7 -2.76966 5.10167 0
M  V30 16178 H 1519.47 0.667565 2.92171 0
M  V30 16179 H 1517.03 0.501022 1.53953 0
M  V30 16180 H 1519.02 -1.75801 3.64522 0
M  V30 16181 H 1517.59 -1.76087 2.58287 0
M  V30 16182 H 1516.81 0.329281 3.92822 0
M  V30 16183 H 1518.1 -0.0425918 5.08782 0
M  V30 16184 H 1517.5 -3.19592 4.66774 0
M  V30 16185 H 1516.05 -3.3588 5.58595 0
M  V30 16186 N 1519.49 -1.52437 0.400108 0
M  V30 16187 C 1520.73 -2.02677 -0.171293 0
M  V30 16188 C 1521.09 -1.28088 -1.43566 0
M  V30 16189 O 1520.38 -0.37592 -1.87876 0
M  V30 16190 C 1520.57 -3.54133 -0.482141 0
M  V30 16191 C 1520.4 -4.43392 0.750551 0
M  V30 16192 C 1519.17 -4.89 1.27306 0
M  V30 16193 C 1521.37 -4.87918 1.62604 0
M  V30 16194 N 1519.35 -5.62361 2.46217 0
M  V30 16195 C 1520.72 -5.59969 2.66148 0
M  V30 16196 C 1522.78 -4.69945 1.64486 0
M  V30 16197 C 1521.48 -6.15955 3.71473 0
M  V30 16198 C 1523.51 -5.26821 2.68725 0
M  V30 16199 C 1522.87 -5.98787 3.7099 0
M  V30 16200 H 1518.97 -0.781617 -0.0244842 0
M  V30 16201 H 1521.55 -1.86698 0.552429 0
M  V30 16202 H 1519.72 -3.70203 -1.17491 0
M  V30 16203 H 1521.46 -3.91065 -1.04164 0
M  V30 16204 H 1518.21 -4.66227 0.832434 0
M  V30 16205 H 1518.64 -6.03688 3.06414 0
M  V30 16206 H 1523.28 -4.13801 0.867657 0
M  V30 16207 H 1521 -6.71175 4.50055 0
M  V30 16208 H 1524.58 -5.14789 2.71078 0
M  V30 16209 H 1523.46 -6.4201 4.50325 0
M  V30 16210 N 1520.96 -0.130252 -1.57061 0
M  V30 16211 C 1521.89 0.812189 -2.18919 0
M  V30 16212 C 1522.88 1.2692 -1.13249 0
M  V30 16213 O 1524.06 1.32978 -1.41529 0
M  V30 16214 C 1521.19 2.05803 -2.79754 0
M  V30 16215 C 1520.14 1.73841 -3.91105 0
M  V30 16216 C 1519.47 3.05549 -4.38799 0
M  V30 16217 C 1520.77 0.997991 -5.12677 0
M  V30 16218 H 1522.46 0.296692 -2.97926 0
M  V30 16219 H 1520.01 0.141265 -1.43305 0
M  V30 16220 H 1521.96 2.72201 -3.21691 0
M  V30 16221 H 1520.69 2.59697 -1.98053 0
M  V30 16222 H 1519.35 1.09828 -3.49762 0
M  V30 16223 H 1518.99 3.57399 -3.53942 0
M  V30 16224 H 1518.69 2.84932 -5.13894 0
M  V30 16225 H 1520.22 3.73045 -4.83394 0
M  V30 16226 H 1521.63 1.56372 -5.51562 0
M  V30 16227 H 1520.03 0.892378 -5.93428 0
M  V30 16228 H 1521.1 -0.0132936 -4.84898 0
M  V30 16229 N 1522.44 1.56945 0.143535 0
M  V30 16230 C 1523.69 1.84696 0.851985 0
M  V30 16231 C 1524.04 0.714713 1.78633 0
M  V30 16232 O 1523.34 -0.287092 1.89437 0
M  V30 16233 C 1523.53 3.16482 1.66054 0
M  V30 16234 C 1523.36 4.42418 0.80599 0
M  V30 16235 C 1522.13 5.03107 0.470269 0
M  V30 16236 C 1524.33 5.14123 0.134742 0
M  V30 16237 N 1522.31 6.12612 -0.397516 0
M  V30 16238 C 1523.68 6.17157 -0.593039 0
M  V30 16239 C 1525.74 4.97869 0.0557743 0
M  V30 16240 C 1524.44 7.05696 -1.39234 0
M  V30 16241 C 1526.47 5.86874 -0.730272 0
M  V30 16242 C 1525.83 6.89392 -1.44632 0
M  V30 16243 H 1521.93 0.726447 0.28948 0
M  V30 16244 H 1524.51 1.94347 0.117143 0
M  V30 16245 H 1522.68 3.07972 2.3666 0
M  V30 16246 H 1524.41 3.32128 2.31243 0
M  V30 16247 H 1521.17 4.66676 0.806858 0
M  V30 16248 H 1521.59 6.71985 -0.822534 0
M  V30 16249 H 1526.23 4.18592 0.595021 0
M  V30 16250 H 1523.95 7.84398 -1.94283 0
M  V30 16251 H 1527.54 5.76365 -0.79341 0
M  V30 16252 H 1526.42 7.57072 -2.04479 0
M  V30 16253 N 1523.92 -0.412991 1.52093 0
M  V30 16254 C 1525.16 -1.16951 1.67636 0
M  V30 16255 C 1525.53 -1.87875 0.39583 0
M  V30 16256 O 1526.73 -2.65382 0.42732 0
M  V30 16257 C 1525 -2.14052 2.8621 0
M  V30 16258 S 1526.56 -2.97863 3.22215 0
M  V30 16259 H 1523.37 -0.396249 0.590345 0
M  V30 16260 H 1525.98 -0.457386 1.90074 0
M  V30 16261 H 1524.68 -1.60628 3.7766 0
M  V30 16262 H 1524.21 -2.89809 2.66034 0
M  V30 16263 H 1526.23 -4.15961 2.70538 0
M  V30 16264 N 1525.4 -1.4265 -0.669982 0
M  V30 16265 C 1526.33 -1.49298 -1.79534 0
M  V30 16266 C 1527.31 -0.34911 -1.66479 0
M  V30 16267 O 1528.5 -0.564072 -1.85828 0
M  V30 16268 C 1525.63 -1.39935 -3.17861 0
M  V30 16269 C 1524.58 -2.52398 -3.45657 0
M  V30 16270 C 1523.91 -2.28092 -4.8361 0
M  V30 16271 C 1525.21 -3.94697 -3.4207 0
M  V30 16272 H 1526.9 -2.43486 -1.74227 0
M  V30 16273 H 1524.45 -1.17191 -0.836796 0
M  V30 16274 H 1526.4 -1.43193 -3.96325 0
M  V30 16275 H 1525.12 -0.422436 -3.23857 0
M  V30 16276 H 1523.78 -2.48465 -2.69556 0
M  V30 16277 H 1523.43 -1.28683 -4.86261 0
M  V30 16278 H 1523.13 -3.03469 -5.0317 0
M  V30 16279 H 1524.65 -2.33107 -5.64352 0
M  V30 16280 H 1526.07 -4.00207 -4.10496 0
M  V30 16281 H 1524.46 -4.69965 -3.73166 0
M  V30 16282 H 1525.53 -4.21025 -2.40554 0
M  V30 16283 N 1526.88 0.906753 -1.28902 0
M  V30 16284 C 1528.12 1.65658 -1.16464 0
M  V30 16285 C 1528.45 1.92396 0.285342 0
M  V30 16286 O 1527.71 1.52755 1.22329 0
M  V30 16287 C 1528.01 3.0171 -1.91588 0
M  V30 16288 C 1527.67 2.94606 -3.41347 0
M  V30 16289 C 1526.33 2.92376 -3.8219 0
M  V30 16290 C 1528.69 2.84335 -4.3681 0
M  V30 16291 C 1526.01 2.77685 -5.16825 0
M  V30 16292 C 1528.37 2.71184 -5.71526 0
M  V30 16293 C 1527.03 2.67316 -6.11636 0
M  V30 16294 H 1526.3 0.606184 -0.426171 0
M  V30 16295 H 1528.95 1.05592 -1.59758 0
M  V30 16296 H 1527.25 3.65602 -1.40863 0
M  V30 16297 H 1528.95 3.58645 -1.79374 0
M  V30 16298 H 1525.54 2.97141 -3.08878 0
M  V30 16299 H 1529.72 2.85141 -4.06212 0
M  V30 16300 H 1524.98 2.7309 -5.47021 0
M  V30 16301 H 1529.15 2.62206 -6.45152 0
M  V30 16302 H 1526.78 2.5569 -7.1591 0
M  V30 16303 N 1528.36 1.11264 1.11616 0
M  V30 16304 C 1529.6 0.855139 1.82675 0
M  V30 16305 C 1529.92 -0.621194 1.85474 0
M  V30 16306 O 1531.12 -0.994886 2.52615 0
M  V30 16307 C 1529.58 1.48007 3.28058 0
M  V30 16308 C 1529.19 2.99031 3.33593 0
M  V30 16309 C 1530.93 1.30233 4.04029 0
M  V30 16310 C 1528.84 3.54517 4.73362 0
M  V30 16311 H 1527.77 0.316252 0.684471 0
M  V30 16312 H 1530.42 1.33766 1.25614 0
M  V30 16313 H 1528.8 0.925214 3.8504 0
M  V30 16314 H 1529.98 3.60905 2.86503 0
M  V30 16315 H 1528.29 3.16059 2.711 0
M  V30 16316 H 1530.89 1.69122 5.07249 0
M  V30 16317 H 1531.23 0.244724 4.1558 0
M  V30 16318 H 1531.76 1.82573 3.53429 0
M  V30 16319 H 1528.5 4.59982 4.67008 0
M  V30 16320 H 1528.02 2.97414 5.20869 0
M  V30 16321 H 1529.7 3.52848 5.42316 0
M  V30 16322 N 1529.83 -1.29188 0.902679 0
M  V30 16323 C 1531.08 -1.95052 0.529076 0
M  V30 16324 C 1531.4 -1.7149 -0.92824 0
M  V30 16325 O 1530.67 -1.04834 -1.65489 0
M  V30 16326 H 1529.25 -0.721725 0.192671 0
M  V30 16327 H 1531.91 -1.57384 1.14962 0
M  V30 16328 H 1531.01 -3.03819 0.714179 0
M  V30 16329 N 1531.31 -0.665475 -1.42861 0
M  V30 16330 C 1532.56 -0.181149 -2.00885 0
M  V30 16331 C 1532.87 1.21629 -1.53186 0
M  V30 16332 O 1534.08 1.79648 -2.03565 0
M  V30 16333 C 1532.54 -0.273017 -3.58863 0
M  V30 16334 C 1532.14 -1.67392 -4.15553 0
M  V30 16335 C 1533.89 0.153075 -4.24224 0
M  V30 16336 C 1531.79 -1.71905 -5.65864 0
M  V30 16337 H 1530.72 -0.0639619 -0.751282 0
M  V30 16338 H 1533.38 -0.829299 -1.63691 0
M  V30 16339 H 1531.76 0.44286 -3.93516 0
M  V30 16340 H 1532.93 -2.41613 -3.92377 0
M  V30 16341 H 1531.25 -2.04704 -3.62609 0
M  V30 16342 H 1533.84 0.139369 -5.34518 0
M  V30 16343 H 1534.19 1.1867 -3.99028 0
M  V30 16344 H 1534.72 -0.511472 -3.94498 0
M  V30 16345 H 1531.46 -2.73218 -5.95846 0
M  V30 16346 H 1530.98 -1.02027 -5.91059 0
M  V30 16347 H 1532.66 -1.46829 -6.30119 0
M  V30 16348 N 1532.79 1.52222 -0.408187 0
M  V30 16349 C 1534.04 2.01404 0.167574 0
M  V30 16350 C 1534.36 1.29572 1.45726 0
M  V30 16351 O 1533.63 0.421363 1.91315 0
M  V30 16352 H 1532.21 0.744174 0.0649156 0
M  V30 16353 H 1534.87 1.87148 -0.544212 0
M  V30 16354 H 1533.97 3.09966 0.36436 0
M  V30 16355 N 1534.27 0.138579 1.5699 0
M  V30 16356 C 1535.18 -0.817548 2.19894 0
M  V30 16357 C 1536.19 -1.27806 1.18075 0
M  V30 16358 O 1537.37 -1.33699 1.5062 0
M  V30 16359 C 1534.43 -2.04244 2.80152 0
M  V30 16360 C 1533.5 -1.63197 3.97071 0
M  V30 16361 C 1532.73 -2.79847 4.54446 0
M  V30 16362 O 1532.95 -3.95827 4.10703 0
M  V30 16363 O 1531.89 -2.55804 5.44838 0
M  V30 16364 H 1535.71 -0.312123 3.02092 0
M  V30 16365 H 1533.3 -0.0880281 1.4914 0
M  V30 16366 H 1535.18 -2.75945 3.18485 0
M  V30 16367 H 1533.85 -2.53755 2.00973 0
M  V30 16368 H 1532.76 -0.885448 3.6347 0
M  V30 16369 H 1534.09 -1.1841 4.77745 0
M  V30 16370 N 1535.75 -1.57019 -0.13521 0
M  V30 16371 C 1536.68 -2.02182 -1.16811 0
M  V30 16372 C 1537.66 -0.9034 -1.44127 0
M  V30 16373 O 1538.84 -1.17202 -1.54846 0
M  V30 16374 C 1535.97 -2.41243 -2.49838 0
M  V30 16375 C 1534.93 -3.56379 -2.37018 0
M  V30 16376 C 1534.25 -3.8129 -3.74863 0
M  V30 16377 C 1535.55 -4.88653 -1.84432 0
M  V30 16378 H 1537.25 -2.8872 -0.792529 0
M  V30 16379 H 1534.79 -1.38901 -0.379788 0
M  V30 16380 H 1536.74 -2.7144 -3.22332 0
M  V30 16381 H 1535.47 -1.51656 -2.89254 0
M  V30 16382 H 1534.13 -3.26366 -1.66975 0
M  V30 16383 H 1533.78 -2.88934 -4.11735 0
M  V30 16384 H 1533.48 -4.58781 -3.67143 0
M  V30 16385 H 1535 -4.13924 -4.48887 0
M  V30 16386 H 1536.41 -5.17492 -2.46729 0
M  V30 16387 H 1534.81 -5.70032 -1.87574 0
M  V30 16388 H 1535.88 -4.78242 -0.800759 0
M  V30 16389 N 1537.22 0.404919 -1.52309 0
M  V30 16390 C 1538.15 1.50039 -1.78915 0
M  V30 16391 C 1539.14 1.57587 -0.640329 0
M  V30 16392 O 1540.32 1.72793 -0.886344 0
M  V30 16393 C 1537.45 2.87819 -1.94364 0
M  V30 16394 C 1536.4 2.9512 -3.09981 0
M  V30 16395 C 1535.73 4.35195 -3.10659 0
M  V30 16396 C 1537.03 2.66219 -4.4936 0
M  V30 16397 H 1538.72 1.28025 -2.70647 0
M  V30 16398 H 1536.27 0.61445 -1.30233 0
M  V30 16399 H 1538.22 3.64446 -2.11559 0
M  V30 16400 H 1536.95 3.11136 -0.993067 0
M  V30 16401 H 1535.61 2.20939 -2.92543 0
M  V30 16402 H 1535.25 4.55528 -2.13316 0
M  V30 16403 H 1534.95 4.41003 -3.88317 0
M  V30 16404 H 1536.48 5.1375 -3.29989 0
M  V30 16405 H 1537.89 3.32567 -4.66982 0
M  V30 16406 H 1536.29 2.83398 -5.28967 0
M  V30 16407 H 1537.36 1.61636 -4.57167 0
M  V30 16408 N 1538.7 1.43003 0.662408 0
M  V30 16409 C 1539.95 1.45344 1.42291 0
M  V30 16410 C 1540.3 0.0731138 1.92261 0
M  V30 16411 O 1539.6 -0.90677 1.68785 0
M  V30 16412 C 1539.79 2.4231 2.62718 0
M  V30 16413 C 1539.62 3.89634 2.24533 0
M  V30 16414 C 1538.39 4.58074 2.13299 0
M  V30 16415 C 1540.59 4.79721 1.85397 0
M  V30 16416 N 1538.57 5.90366 1.68348 0
M  V30 16417 C 1539.94 6.01216 1.51459 0
M  V30 16418 C 1542 4.67064 1.72498 0
M  V30 16419 C 1540.7 7.11459 1.05916 0
M  V30 16420 C 1542.72 5.77302 1.2836 0
M  V30 16421 C 1542.09 6.97916 0.953542 0
M  V30 16422 H 1538.19 0.58699 0.516688 0
M  V30 16423 H 1540.77 1.79119 0.763191 0
M  V30 16424 H 1538.94 2.10576 3.26362 0
M  V30 16425 H 1540.67 2.35148 3.29374 0
M  V30 16426 H 1537.43 4.12453 2.32764 0
M  V30 16427 H 1537.85 6.60566 1.48261 0
M  V30 16428 H 1542.49 3.7428 1.96659 0
M  V30 16429 H 1540.21 8.0408 0.805035 0
M  V30 16430 H 1543.8 5.69524 1.18883 0
M  V30 16431 H 1542.68 7.81767 0.617203 0
M  V30 16432 N 1540.18 -0.899904 1.29381 0
M  V30 16433 C 1541.43 -1.64712 1.17109 0
M  V30 16434 C 1541.75 -1.93011 -0.277772 0
M  V30 16435 O 1541.02 -1.55604 -1.19013 0
M  V30 16436 H 1539.6 -0.610532 0.430418 0
M  V30 16437 H 1542.26 -1.07905 1.62304 0
M  V30 16438 H 1541.36 -2.60362 1.72098 0
M  V30 16439 N 1541.66 -1.11854 -1.11024 0
M  V30 16440 C 1542.59 -0.738635 -2.16972 0
M  V30 16441 C 1543.6 0.231814 -1.61141 0
M  V30 16442 O 1544.79 0.0140607 -1.78494 0
M  V30 16443 C 1541.89 -0.0715797 -3.38824 0
M  V30 16444 C 1541.07 -1.06995 -4.24112 0
M  V30 16445 C 1540.12 -0.431644 -5.24427 0
M  V30 16446 O 1539.15 -1.08685 -5.58727 0
M  V30 16447 N 1540.35 0.803593 -5.74911 0
M  V30 16448 H 1543.12 -1.65025 -2.50174 0
M  V30 16449 H 1540.68 -1.00933 -1.26586 0
M  V30 16450 H 1542.67 0.367274 -4.0303 0
M  V30 16451 H 1541.24 0.742686 -3.03649 0
M  V30 16452 H 1540.46 -1.68662 -3.56296 0
M  V30 16453 H 1541.75 -1.74525 -4.77931 0
M  V30 16454 H 1541.15 1.355 -5.49232 0
M  V30 16455 H 1539.7 1.18536 -6.40931 0
M  V30 16456 N 1543.14 1.28707 -0.909517 0
M  V30 16457 C 1544.38 1.95154 -0.540481 0
M  V30 16458 C 1544.71 1.7163 0.91506 0
M  V30 16459 O 1543.97 1.02786 1.66534 0
M  V30 16460 C 1544.27 3.48536 -0.791037 0
M  V30 16461 C 1543.93 3.92153 -2.22546 0
M  V30 16462 C 1542.59 4.03772 -2.61766 0
M  V30 16463 C 1544.95 4.14547 -3.15912 0
M  V30 16464 C 1542.27 4.35162 -3.93511 0
M  V30 16465 C 1544.63 4.47414 -4.47218 0
M  V30 16466 C 1543.29 4.57244 -4.86296 0
M  V30 16467 H 1542.56 0.714119 -0.197776 0
M  V30 16468 H 1545.21 1.53122 -1.15004 0
M  V30 16469 H 1543.51 3.91676 -0.0986412 0
M  V30 16470 H 1545.21 3.98059 -0.48474 0
M  V30 16471 H 1541.8 3.83633 -1.91113 0
M  V30 16472 H 1545.98 4.05027 -2.86822 0
M  V30 16473 H 1541.24 4.40977 -4.23496 0
M  V30 16474 H 1545.41 4.6369 -5.19581 0
M  V30 16475 H 1543.04 4.81321 -5.88416 0
M  V30 16476 N 1544.61 0.673042 1.42506 0
M  V30 16477 C 1545.86 0.1918 2.00786 0
M  V30 16478 C 1546.18 -1.20814 1.53829 0
M  V30 16479 O 1547.38 -1.78566 2.04515 0
M  V30 16480 C 1545.84 0.292045 3.58713 0
M  V30 16481 C 1545.45 1.69593 4.14659 0
M  V30 16482 C 1547.19 -0.130575 4.24299 0
M  V30 16483 C 1545.1 1.74904 5.64945 0
M  V30 16484 H 1544.03 0.0679452 0.750932 0
M  V30 16485 H 1546.68 0.837968 1.63249 0
M  V30 16486 H 1545.06 -0.421985 3.93745 0
M  V30 16487 H 1546.23 2.4369 3.9109 0
M  V30 16488 H 1544.55 2.06625 3.61518 0
M  V30 16489 H 1547.15 -0.11102 5.34585 0
M  V30 16490 H 1547.49 -1.16552 3.99651 0
M  V30 16491 H 1548.02 0.532386 3.94221 0
M  V30 16492 H 1544.76 2.76374 5.94388 0
M  V30 16493 H 1544.28 1.0516 5.9051 0
M  V30 16494 H 1545.96 1.50168 6.29332 0
M  V30 16495 N 1546.09 -1.52004 0.416254 0
M  V30 16496 C 1547.32 -2.0679 -0.158937 0
M  V30 16497 C 1547.74 -1.28366 -1.37491 0
M  V30 16498 O 1547.1 -0.315815 -1.78528 0
M  V30 16499 C 1547.15 -3.57381 -0.480717 0
M  V30 16500 O 1546.25 -3.81321 -1.5706 0
M  V30 16501 H 1545.59 -0.663907 -0.0110938 0
M  V30 16502 H 1548.12 -1.95863 0.591509 0
M  V30 16503 H 1548.13 -4.01283 -0.737297 0
M  V30 16504 H 1546.81 -4.13893 0.408137 0
M  V30 16505 H 1545.39 -3.49296 -1.30563 0
M  V30 16506 N 1547.57 -0.146903 -1.56914 0
M  V30 16507 C 1548.53 0.778709 -2.15566 0
M  V30 16508 C 1549.53 1.1753 -1.09742 0
M  V30 16509 O 1550.72 1.09624 -1.35382 0
M  V30 16510 C 1547.86 2.0567 -2.71869 0
M  V30 16511 H 1549.05 0.268506 -2.98696 0
M  V30 16512 H 1546.6 0.10254 -1.55963 0
M  V30 16513 H 1547.34 2.61057 -1.92405 0
M  V30 16514 H 1547.12 1.78154 -3.4929 0
M  V30 16515 H 1548.61 2.71779 -3.17059 0
M  V30 16516 N 1549.05 1.57088 0.126881 0
M  V30 16517 C 1550.3 1.83624 0.834582 0
M  V30 16518 C 1550.61 0.731331 1.81414 0
M  V30 16519 O 1551.82 0.88286 2.56745 0
M  V30 16520 C 1550.27 3.25529 1.5349 0
M  V30 16521 C 1549.88 4.44008 0.59673 0
M  V30 16522 C 1551.62 3.6132 2.22819 0
M  V30 16523 C 1549.53 5.76939 1.29982 0
M  V30 16524 H 1548.46 0.684858 0.315414 0
M  V30 16525 H 1551.11 1.83292 0.087305 0
M  V30 16526 H 1549.49 3.20306 2.32852 0
M  V30 16527 H 1550.67 4.60511 -0.163109 0
M  V30 16528 H 1548.98 4.16399 0.0108081 0
M  V30 16529 H 1551.58 4.57902 2.76098 0
M  V30 16530 H 1551.92 2.88363 3.00254 0
M  V30 16531 H 1552.46 3.68291 1.50354 0
M  V30 16532 H 1549.2 6.53044 0.566925 0
M  V30 16533 H 1548.72 5.64336 2.03187 0
M  V30 16534 H 1550.39 6.20427 1.8352 0
M  V30 16535 N 1550.53 -0.396836 1.52522 0
M  V30 16536 C 1551.94 -0.975124 1.59211 0
M  V30 16537 C 1552.29 -1.91199 0.440138 0
M  V30 16538 O 1551.41 -2.11924 -0.437856 0
M  V30 16539 C 1552.01 -1.77531 2.88562 0
M  V30 16540 C 1550.57 -2.30343 2.9769 0
M  V30 16541 C 1549.71 -1.10671 2.54258 0
M  V30 16542 H 1552.67 -0.176646 1.57714 0
M  V30 16543 H 1552.69 -2.63384 2.74607 0
M  V30 16544 H 1552.2 -1.09318 3.72386 0
M  V30 16545 H 1550.3 -3.01891 2.18387 0
M  V30 16546 H 1550.41 -2.60366 4.02177 0
M  V30 16547 H 1548.78 -1.46439 2.08393 0
M  V30 16548 H 1549.56 -0.440061 3.40468 0
M  V30 16549 N 1552.01 -1.43353 -0.654814 0
M  V30 16550 C 1553.23 -1.48322 -1.4425 0
M  V30 16551 C 1553.65 -0.100608 -1.88532 0
M  V30 16552 O 1553.01 0.888831 -1.59393 0
M  V30 16553 C 1553.06 -2.42769 -2.67853 0
M  V30 16554 O 1552.78 -3.75653 -2.25424 0
M  V30 16555 C 1554.28 -2.56964 -3.61226 0
M  V30 16556 H 1551.5 -0.503805 -0.443195 0
M  V30 16557 H 1554.04 -1.88078 -0.802916 0
M  V30 16558 H 1552.2 -2.06212 -3.27956 0
M  V30 16559 H 1552.61 -4.26427 -3.05386 0
M  V30 16560 H 1554.09 -3.27129 -4.44624 0
M  V30 16561 H 1554.56 -1.61404 -4.08467 0
M  V30 16562 H 1555.17 -2.94325 -3.07006 0
M  V30 16563 N 1553.48 0.89303 -1.29857 0
M  V30 16564 C 1554.9 1.17496 -1.08013 0
M  V30 16565 C 1555.1 2.00829 0.164302 0
M  V30 16566 O 1554.16 2.37396 0.860194 0
M  V30 16567 C 1555.47 1.88944 -2.33924 0
M  V30 16568 C 1557.02 2.01742 -2.3931 0
M  V30 16569 C 1557.49 2.76601 -3.65042 0
M  V30 16570 N 1558.98 2.84152 -3.65803 0
M  V30 16571 C 1559.72 3.42628 -4.59776 0
M  V30 16572 N 1559.21 4.02218 -5.64086 0
M  V30 16573 N 1561.01 3.40366 -4.47334 0
M  V30 16574 H 1553.16 0.33719 -2.09706 0
M  V30 16575 H 1555.42 0.211899 -0.924014 0
M  V30 16576 H 1555.13 1.35151 -3.24695 0
M  V30 16577 H 1555 2.89379 -2.4195 0
M  V30 16578 H 1557.39 2.54708 -1.49022 0
M  V30 16579 H 1557.47 1.0042 -2.35265 0
M  V30 16580 H 1557.11 2.24309 -4.55684 0
M  V30 16581 H 1557.04 3.78283 -3.66346 0
M  V30 16582 H 1559.53 2.41835 -2.90386 0
M  V30 16583 H 1559.85 4.4488 -6.31903 0
M  V30 16584 H 1558.19 4.00661 -5.67887 0
M  V30 16585 H 1561.38 2.93035 -3.65031 0
M  V30 16586 H 1561.56 3.85644 -5.20752 0
M  V30 16587 N 1554.96 1.12442 1.10429 0
M  V30 16588 C 1556.19 0.902914 1.86714 0
M  V30 16589 C 1556.61 -0.542514 1.80107 0
M  V30 16590 O 1555.97 -1.38406 1.17105 0
M  V30 16591 C 1556.02 1.38238 3.33051 0
M  V30 16592 O 1555.12 0.560877 4.08568 0
M  V30 16593 H 1554.46 0.324397 0.579364 0
M  V30 16594 H 1556.99 1.49652 1.39519 0
M  V30 16595 H 1557 1.38148 3.839 0
M  V30 16596 H 1555.68 2.43486 3.37176 0
M  V30 16597 H 1554.25 0.628771 3.67561 0
M  V30 16598 N 1556.44 -1.28223 0.91633 0
M  V30 16599 C 1557.37 -2.29623 0.423735 0
M  V30 16600 C 1558.35 -1.62274 -0.510016 0
M  V30 16601 O 1559.54 -1.89666 -0.4172 0
M  V30 16602 C 1556.67 -3.45684 -0.334686 0
M  V30 16603 C 1555.62 -4.24949 0.510169 0
M  V30 16604 C 1554.95 -5.33371 -0.376745 0
M  V30 16605 C 1556.25 -4.91438 1.76877 0
M  V30 16606 H 1557.94 -2.71076 1.27115 0
M  V30 16607 H 1555.49 -1.30316 0.612678 0
M  V30 16608 H 1557.44 -4.1571 -0.690154 0
M  V30 16609 H 1556.16 -3.03118 -1.21603 0
M  V30 16610 H 1554.82 -3.56653 0.848191 0
M  V30 16611 H 1554.47 -4.87048 -1.25671 0
M  V30 16612 H 1554.17 -5.87309 0.18496 0
M  V30 16613 H 1555.69 -6.06244 -0.728039 0
M  V30 16614 H 1557.11 -5.53812 1.48205 0
M  V30 16615 H 1555.5 -5.55384 2.27308 0
M  V30 16616 H 1556.57 -4.15783 2.49505 0
M  V30 16617 N 1557.92 -0.68059 -1.42147 0
M  V30 16618 C 1558.86 -0.00585926 -2.30799 0
M  V30 16619 C 1559.83 0.786778 -1.46284 0
M  V30 16620 O 1561.02 0.757853 -1.75103 0
M  V30 16621 C 1558.16 0.935319 -3.32183 0
M  V30 16622 C 1557.27 0.13589 -4.31786 0
M  V30 16623 C 1556.41 1.07335 -5.20243 0
M  V30 16624 C 1555.45 0.265943 -6.11522 0
M  V30 16625 N 1554.58 1.15641 -6.92511 0
M  V30 16626 H 1559.42 -0.767651 -2.87943 0
M  V30 16627 H 1556.96 -0.39029 -1.41828 0
M  V30 16628 H 1558.92 1.49489 -3.89498 0
M  V30 16629 H 1557.55 1.66368 -2.76626 0
M  V30 16630 H 1556.6 -0.540383 -3.76542 0
M  V30 16631 H 1557.91 -0.490716 -4.9638 0
M  V30 16632 H 1557.07 1.70265 -5.82319 0
M  V30 16633 H 1555.81 1.73383 -4.55839 0
M  V30 16634 H 1554.81 -0.376531 -5.48509 0
M  V30 16635 H 1556.04 -0.39053 -6.77976 0
M  V30 16636 H 1553.98 1.80319 -6.30731 0
M  V30 16637 H 1553.9 0.585022 -7.53733 0
M  V30 16638 H 1555.17 1.773 -7.59069 0
M  V30 16639 N 1559.4 1.51781 -0.424309 0
M  V30 16640 C 1560.64 2.01969 0.146492 0
M  V30 16641 C 1560.97 1.30918 1.43843 0
M  V30 16642 O 1560.23 0.408705 1.91385 0
M  V30 16643 C 1560.52 3.54855 0.42574 0
M  V30 16644 C 1560.19 4.44123 -0.778814 0
M  V30 16645 C 1558.85 4.68242 -1.10918 0
M  V30 16646 C 1561.2 4.96579 -1.58299 0
M  V30 16647 C 1558.53 5.42063 -2.24464 0
M  V30 16648 C 1560.88 5.71645 -2.70934 0
M  V30 16649 C 1559.55 5.94031 -3.04439 0
M  V30 16650 H 1558.82 0.739059 0.0536052 0
M  V30 16651 H 1561.47 1.82856 -0.568838 0
M  V30 16652 H 1559.77 3.72229 1.22282 0
M  V30 16653 H 1561.47 3.91212 0.880598 0
M  V30 16654 H 1558.06 4.25539 -0.511363 0
M  V30 16655 H 1562.24 4.77841 -1.34098 0
M  V30 16656 H 1557.5 5.57614 -2.50753 0
M  V30 16657 H 1561.67 6.11284 -3.33624 0
M  V30 16658 H 1559.3 6.51014 -3.92537 0
M  V30 16659 N 1560.87 0.155222 1.56834 0
M  V30 16660 C 1561.8 -0.777258 2.20184 0
M  V30 16661 C 1562.78 -1.25102 1.15254 0
M  V30 16662 O 1563.97 -1.3071 1.43627 0
M  V30 16663 C 1561.1 -2.01326 2.82993 0
M  V30 16664 C 1560.05 -1.67596 3.93822 0
M  V30 16665 C 1559.38 -2.98529 4.43604 0
M  V30 16666 C 1560.68 -0.916302 5.142 0
M  V30 16667 H 1562.37 -0.249257 2.98361 0
M  V30 16668 H 1559.92 -0.118448 1.43512 0
M  V30 16669 H 1561.87 -2.67048 3.2598 0
M  V30 16670 H 1560.6 -2.56513 2.0216 0
M  V30 16671 H 1559.26 -1.0425 3.51465 0
M  V30 16672 H 1558.9 -3.51723 3.59583 0
M  V30 16673 H 1558.6 -2.76721 5.18362 0
M  V30 16674 H 1560.13 -3.65308 4.89267 0
M  V30 16675 H 1561.54 -1.47577 5.5398 0
M  V30 16676 H 1559.94 -0.797856 5.94772 0
M  V30 16677 H 1561.01 0.0904351 4.84816 0
M  V30 16678 N 1562.35 -1.57153 -0.118549 0
M  V30 16679 C 1563.3 -2.00374 -1.14538 0
M  V30 16680 C 1564.27 -0.875964 -1.41124 0
M  V30 16681 O 1565.45 -1.14022 -1.52982 0
M  V30 16682 C 1562.59 -2.4135 -2.46666 0
M  V30 16683 C 1561.71 -3.67545 -2.27012 0
M  V30 16684 C 1560.84 -3.975 -3.52374 0
M  V30 16685 C 1559.88 -5.16877 -3.27879 0
M  V30 16686 N 1559.02 -5.427 -4.45445 0
M  V30 16687 H 1563.86 -2.87885 -0.769821 0
M  V30 16688 H 1561.39 -1.42406 -0.368622 0
M  V30 16689 H 1563.35 -2.63144 -3.23745 0
M  V30 16690 H 1561.98 -1.5688 -2.82114 0
M  V30 16691 H 1561.03 -3.53364 -1.40848 0
M  V30 16692 H 1562.35 -4.54777 -2.04889 0
M  V30 16693 H 1561.5 -4.19945 -4.37871 0
M  V30 16694 H 1560.24 -3.08745 -3.77529 0
M  V30 16695 H 1559.24 -4.94276 -2.40773 0
M  V30 16696 H 1560.47 -6.0721 -3.04094 0
M  V30 16697 H 1558.42 -4.56902 -4.70719 0
M  V30 16698 H 1558.33 -6.24256 -4.26428 0
M  V30 16699 H 1559.6 -5.69664 -5.32074 0
M  V30 16700 N 1563.83 0.388742 -1.5273 0
M  V30 16701 C 1564.74 1.49916 -1.8045 0
M  V30 16702 C 1565.76 1.59679 -0.691282 0
M  V30 16703 O 1566.93 1.7601 -0.978898 0
M  V30 16704 C 1564 2.85445 -1.96779 0
M  V30 16705 C 1563.06 2.85402 -3.20693 0
M  V30 16706 C 1562.29 4.14466 -3.36234 0
M  V30 16707 O 1562.51 5.09436 -2.56576 0
M  V30 16708 O 1561.45 4.2169 -4.29489 0
M  V30 16709 H 1565.27 1.29423 -2.74743 0
M  V30 16710 H 1562.86 0.576607 -1.37825 0
M  V30 16711 H 1564.74 3.65791 -2.09224 0
M  V30 16712 H 1563.42 3.05964 -1.05676 0
M  V30 16713 H 1562.32 2.03836 -3.1369 0
M  V30 16714 H 1563.66 2.69835 -4.11643 0
M  V30 16715 N 1565.31 1.43698 0.647203 0
M  V30 16716 C 1566.27 1.48986 1.74172 0
M  V30 16717 C 1567.27 0.373812 1.56395 0
M  V30 16718 O 1568.46 0.635804 1.62183 0
M  V30 16719 C 1565.59 1.34827 3.13104 0
M  V30 16720 H 1566.79 2.46467 1.70863 0
M  V30 16721 H 1564.34 1.30552 0.859409 0
M  V30 16722 H 1565.07 0.383772 3.22021 0
M  V30 16723 H 1564.86 2.15738 3.27414 0
M  V30 16724 H 1566.35 1.41473 3.92906 0
M  V30 16725 N 1566.79 -0.886131 1.30328 0
M  V30 16726 C 1568.03 -1.6346 1.18849 0
M  V30 16727 C 1568.36 -1.93295 -0.257285 0
M  V30 16728 O 1567.63 -1.56858 -1.17356 0
M  V30 16729 H 1566.21 -0.605932 0.43687 0
M  V30 16730 H 1568.87 -1.06177 1.63439 0
M  V30 16731 H 1567.96 -2.58522 1.7485 0
M  V30 16732 N 1568.26 -1.13026 -1.09832 0
M  V30 16733 C 1569.21 -0.772653 -2.14509 0
M  V30 16734 C 1570.2 0.231327 -1.59228 0
M  V30 16735 O 1571.39 0.0358767 -1.76964 0
M  V30 16736 C 1568.52 -0.235762 -3.42489 0
M  V30 16737 C 1567.61 -1.2684 -4.04688 0
M  V30 16738 N 1568 -2.46801 -4.41501 0
M  V30 16739 C 1566.29 -1.11521 -4.31832 0
M  V30 16740 C 1567 -3.12791 -4.90445 0
M  V30 16741 N 1565.97 -2.40224 -4.87641 0
M  V30 16742 H 1569.77 -1.68541 -2.40772 0
M  V30 16743 H 1567.29 -1.01195 -1.27017 0
M  V30 16744 H 1569.28 0.038649 -4.16882 0
M  V30 16745 H 1567.94 0.671377 -3.17683 0
M  V30 16746 H 1568.96 -2.84137 -4.32997 0
M  V30 16747 H 1565.63 -0.26589 -4.16652 0
M  V30 16748 H 1567.02 -4.14988 -5.28427 0
M  V30 16749 N 1569.74 1.27735 -0.923117 0
M  V30 16750 C 1570.99 1.94185 -0.56004 0
M  V30 16751 C 1571.31 1.72945 0.90084 0
M  V30 16752 O 1570.58 1.07453 1.63801 0
M  V30 16753 H 1569.16 0.718568 -0.204129 0
M  V30 16754 H 1571.82 1.55535 -1.17451 0
M  V30 16755 H 1570.92 3.02644 -0.762424 0
M  V30 16756 N 1571.22 0.688118 1.41784 0
M  V30 16757 C 1572.45 0.22475 2.05676 0
M  V30 16758 C 1572.86 -1.1232 1.51755 0
M  V30 16759 O 1572.22 -1.70041 0.662735 0
M  V30 16760 C 1572.27 0.165661 3.6112 0
M  V30 16761 O 1571.99 1.46035 4.13044 0
M  V30 16762 C 1573.49 -0.319599 4.42146 0
M  V30 16763 H 1570.71 0.106135 0.662553 0
M  V30 16764 H 1573.26 0.938605 1.81688 0
M  V30 16765 H 1571.41 -0.498968 3.84173 0
M  V30 16766 H 1571.83 1.34252 5.07027 0
M  V30 16767 H 1573.3 -0.30983 5.5113 0
M  V30 16768 H 1573.78 -1.3572 4.17704 0
M  V30 16769 H 1574.38 0.313764 4.24141 0
M  V30 16770 N 1572.7 -1.51554 0.432352 0
M  V30 16771 C 1573.93 -2.06462 -0.1346 0
M  V30 16772 C 1574.34 -1.30027 -1.36889 0
M  V30 16773 O 1573.7 -0.358447 -1.78945 0
M  V30 16774 C 1573.75 -3.58538 -0.461822 0
M  V30 16775 O 1573.47 -4.32085 0.723471 0
M  V30 16776 C 1574.97 -4.29943 -1.07999 0
M  V30 16777 H 1572.19 -0.670923 -0.0101329 0
M  V30 16778 H 1574.74 -1.9519 0.609999 0
M  V30 16779 H 1572.89 -3.6974 -1.15632 0
M  V30 16780 H 1573.3 -5.22611 0.444757 0
M  V30 16781 H 1574.78 -5.37451 -1.25898 0
M  V30 16782 H 1575.26 -3.87912 -2.05963 0
M  V30 16783 H 1575.86 -4.23171 -0.425022 0
M  V30 16784 N 1574.18 -0.163538 -1.56749 0
M  V30 16785 C 1575.12 0.769787 -2.17584 0
M  V30 16786 C 1576.09 1.23246 -1.11354 0
M  V30 16787 O 1577.28 1.30203 -1.3947 0
M  V30 16788 C 1574.42 1.99685 -2.81461 0
M  V30 16789 C 1573.53 1.57846 -4.0213 0
M  V30 16790 C 1572.67 2.75858 -4.53955 0
M  V30 16791 C 1571.71 2.30473 -5.67053 0
M  V30 16792 N 1570.84 3.41551 -6.13423 0
M  V30 16793 H 1575.68 0.244221 -2.96998 0
M  V30 16794 H 1573.22 0.108821 -1.46697 0
M  V30 16795 H 1575.18 2.71643 -3.16648 0
M  V30 16796 H 1573.81 2.49624 -2.04664 0
M  V30 16797 H 1572.86 0.755907 -3.72814 0
M  V30 16798 H 1574.17 1.20525 -4.8402 0
M  V30 16799 H 1573.33 3.55984 -4.91284 0
M  V30 16800 H 1572.06 3.16434 -3.71107 0
M  V30 16801 H 1571.07 1.48791 -5.29284 0
M  V30 16802 H 1572.29 1.90964 -6.51698 0
M  V30 16803 H 1570.24 3.81717 -5.33506 0
M  V30 16804 H 1570.16 3.08298 -6.90281 0
M  V30 16805 H 1571.43 4.21985 -6.554 0
M  V30 16806 N 1575.65 1.57214 0.110213 0
M  V30 16807 C 1576.56 2.04287 1.15342 0
M  V30 16808 C 1577.58 0.964895 1.44796 0
M  V30 16809 O 1578.76 1.27702 1.55737 0
M  V30 16810 C 1575.82 2.44518 2.45788 0
M  V30 16811 C 1574.88 3.66439 2.23653 0
M  V30 16812 C 1574.12 4.04742 3.47879 0
M  V30 16813 O 1574.34 3.43291 4.5553 0
M  V30 16814 O 1573.27 4.97791 3.38361 0
M  V30 16815 H 1577.1 2.93415 0.783656 0
M  V30 16816 H 1574.68 1.45897 0.321644 0
M  V30 16817 H 1576.57 2.71089 3.22628 0
M  V30 16818 H 1575.24 1.58533 2.82221 0
M  V30 16819 H 1574.15 3.45006 1.44643 0
M  V30 16820 H 1575.48 4.53156 1.9212 0
M  V30 16821 N 1577.13 -0.380637 1.52934 0
M  V30 16822 C 1578.04 -1.48957 1.81243 0
M  V30 16823 C 1579.06 -1.5931 0.69974 0
M  V30 16824 O 1580.23 -1.75488 0.988218 0
M  V30 16825 C 1577.3 -2.84397 1.9829 0
M  V30 16826 C 1576.36 -2.83697 3.22202 0
M  V30 16827 C 1575.59 -4.12677 3.38427 0
M  V30 16828 O 1575.82 -5.08068 2.59274 0
M  V30 16829 O 1574.75 -4.19407 4.31719 0
M  V30 16830 H 1578.58 -1.27964 2.75425 0
M  V30 16831 H 1576.16 -0.56929 1.38128 0
M  V30 16832 H 1578.04 -3.64676 2.11161 0
M  V30 16833 H 1576.72 -3.054 1.07298 0
M  V30 16834 H 1575.63 -2.0217 3.14767 0
M  V30 16835 H 1576.96 -2.67648 4.13068 0
M  V30 16836 N 1578.61 -1.44039 -0.639573 0
M  V30 16837 C 1579.86 -1.4566 -1.39521 0
M  V30 16838 C 1580.17 -0.0897878 -1.95394 0
M  V30 16839 O 1581.38 0.0165074 -2.71495 0
M  V30 16840 C 1579.83 -2.56395 -2.52566 0
M  V30 16841 C 1579.44 -3.99245 -2.03243 0
M  V30 16842 C 1581.19 -2.67226 -3.29834 0
M  V30 16843 C 1579.09 -5.01419 -3.1358 0
M  V30 16844 H 1578.02 -0.541894 -0.524277 0
M  V30 16845 H 1580.67 -1.70076 -0.688941 0
M  V30 16846 H 1579.06 -2.25204 -3.25729 0
M  V30 16847 H 1580.23 -4.39963 -1.37002 0
M  V30 16848 H 1578.55 -3.9258 -1.38816 0
M  V30 16849 H 1581.14 -3.40736 -4.12072 0
M  V30 16850 H 1581.49 -1.72756 -3.78763 0
M  V30 16851 H 1582.02 -2.97786 -2.63758 0
M  V30 16852 H 1578.76 -5.97489 -2.69605 0
M  V30 16853 H 1578.28 -4.65301 -3.7849 0
M  V30 16854 H 1579.96 -5.2474 -3.78493 0
M  V30 16855 N 1580.09 0.879207 -1.30796 0
M  V30 16856 C 1581.32 1.66449 -1.22891 0
M  V30 16857 C 1581.73 1.87658 0.207306 0
M  V30 16858 O 1581.09 1.42818 1.13619 0
M  V30 16859 C 1581.14 3.03765 -1.95982 0
M  V30 16860 O 1580.86 2.8351 -3.33997 0
M  V30 16861 C 1582.36 3.98204 -1.94804 0
M  V30 16862 H 1579.58 0.51922 -0.425031 0
M  V30 16863 H 1582.13 1.09807 -1.72519 0
M  V30 16864 H 1580.28 3.57124 -1.50138 0
M  V30 16865 H 1580.69 3.70663 -3.71092 0
M  V30 16866 H 1582.17 4.91901 -2.50474 0
M  V30 16867 H 1582.65 4.29277 -0.928336 0
M  V30 16868 H 1583.25 3.50781 -2.40485 0
M  V30 16869 N 1581.57 1.13606 1.09231 0
M  V30 16870 C 1582.51 0.815279 2.15921 0
M  V30 16871 C 1583.48 -0.223501 1.64589 0
M  V30 16872 O 1584.67 -0.0952982 1.90562 0
M  V30 16873 C 1581.81 0.289655 3.43882 0
M  V30 16874 C 1580.92 1.38773 4.09104 0
M  V30 16875 C 1580.06 0.820238 5.24829 0
M  V30 16876 C 1579.1 1.89658 5.81976 0
M  V30 16877 N 1578.23 1.34688 6.8906 0
M  V30 16878 H 1583.07 1.72914 2.42703 0
M  V30 16879 H 1580.61 0.863101 1.19117 0
M  V30 16880 H 1582.57 -0.0332398 4.17187 0
M  V30 16881 H 1581.2 -0.587329 3.17412 0
M  V30 16882 H 1580.25 1.82718 3.33644 0
M  V30 16883 H 1581.56 2.20114 4.47606 0
M  V30 16884 H 1580.72 0.448745 6.05038 0
M  V30 16885 H 1579.46 -0.0242261 4.87694 0
M  V30 16886 H 1578.46 2.27712 5.00427 0
M  V30 16887 H 1579.69 2.74448 6.21172 0
M  V30 16888 H 1577.63 0.524453 6.539 0
M  V30 16889 H 1577.55 2.09675 7.26342 0
M  V30 16890 H 1578.82 1.00302 7.7302 0
M  V30 16891 N 1583.05 -1.27244 0.929878 0
M  V30 16892 C 1584.32 -1.89369 0.489774 0
M  V30 16893 C 1584.7 -1.84142 -1.03222 0
M  V30 16894 O 1584.05 -1.2881 -1.88733 0
M  V30 16895 C 1584.26 -3.33196 1.03833 0
M  V30 16896 C 1585.61 -4.101 1.10013 0
M  V30 16897 O 1586.63 -3.42221 0.988106 0
M  V30 16898 O 1585.49 -5.31468 1.27296 0
M  V30 16899 H 1582.59 -0.811789 0.157882 0
M  V30 16900 H 1585.13 -1.35496 1.02171 0
M  V30 16901 H 1583.9 -3.31304 2.08214 0
M  V30 16902 H 1583.53 -3.94592 0.488167 0
M  V30 16903 N 1584.52 -0.695628 -1.41417 0
M  V30 16904 C 1585.49 -0.0392949 -2.29166 0
M  V30 16905 C 1586.49 0.70789 -1.4438 0
M  V30 16906 O 1587.68 0.542771 -1.65528 0
M  V30 16907 C 1584.81 0.954719 -3.27258 0
M  V30 16908 H 1586 -0.811902 -2.88701 0
M  V30 16909 H 1583.55 -0.459128 -1.49405 0
M  V30 16910 H 1584.29 1.75509 -2.72703 0
M  V30 16911 H 1584.07 0.422079 -3.89822 0
M  V30 16912 H 1585.56 1.41174 -3.93014 0
M  V30 16913 N 1586 1.51322 -0.440383 0
M  V30 16914 C 1586.91 2.31574 0.37561 0
M  V30 16915 C 1587.93 1.40617 1.02483 0
M  V30 16916 O 1589.1 1.73688 1.01953 0
M  V30 16917 C 1586.17 3.14441 1.4604 0
M  V30 16918 C 1585.23 4.21181 0.830991 0
M  V30 16919 C 1584.46 5.00087 1.86409 0
M  V30 16920 O 1584.69 4.79666 3.08669 0
M  V30 16921 O 1583.62 5.84101 1.45293 0
M  V30 16922 H 1587.45 3.0241 -0.27962 0
M  V30 16923 H 1585.03 1.48016 -0.202857 0
M  V30 16924 H 1586.91 3.6595 2.08946 0
M  V30 16925 H 1585.59 2.46366 2.09965 0
M  V30 16926 H 1584.49 3.73741 0.163798 0
M  V30 16927 H 1585.83 4.91638 0.235174 0
M  V30 16928 N 1587.48 0.171848 1.5666 0
M  V30 16929 C 1588.73 -0.472034 1.9651 0
M  V30 16930 C 1589.05 -1.63743 1.05893 0
M  V30 16931 O 1588.32 -1.95498 0.125396 0
M  V30 16932 H 1586.9 -0.177377 0.725635 0
M  V30 16933 H 1589.56 0.253155 1.93249 0
M  V30 16934 H 1588.66 -0.831693 3.00814 0
M  V30 16935 N 1588.96 -1.5727 -0.101874 0
M  V30 16936 C 1589.89 -2.04614 -1.12496 0
M  V30 16937 C 1590.87 -0.933768 -1.42179 0
M  V30 16938 O 1592.05 -1.2046 -1.52325 0
M  V30 16939 C 1589.18 -2.46488 -2.44665 0
M  V30 16940 C 1588.14 -3.61327 -2.29406 0
M  V30 16941 C 1587.46 -3.89155 -3.66691 0
M  V30 16942 C 1588.76 -4.92455 -1.74026 0
M  V30 16943 H 1590.46 -2.90336 -0.731109 0
M  V30 16944 H 1588 -1.39676 -0.350239 0
M  V30 16945 H 1589.96 -2.78216 -3.16502 0
M  V30 16946 H 1588.68 -1.57757 -2.85972 0
M  V30 16947 H 1587.34 -3.29835 -1.60015 0
M  V30 16948 H 1586.99 -2.97603 -4.05514 0
M  V30 16949 H 1586.69 -4.66465 -3.57329 0
M  V30 16950 H 1588.21 -4.23352 -4.40006 0
M  V30 16951 H 1589.63 -5.22609 -2.35697 0
M  V30 16952 H 1588.02 -5.73882 -1.75441 0
M  V30 16953 H 1589.09 -4.79833 -0.699136 0
M  V30 16954 N 1590.44 0.372521 -1.53134 0
M  V30 16955 C 1591.71 1.13113 -1.59577 0
M  V30 16956 C 1592.09 2.07294 -0.399027 0
M  V30 16957 O 1591.44 2.20171 0.611316 0
M  V30 16958 C 1591.65 1.87635 -2.94269 0
M  V30 16959 C 1593 2.42414 -3.48598 0
M  V30 16960 O 1594.02 1.9777 -2.96252 0
M  V30 16961 O 1592.88 3.24008 -4.40092 0
M  V30 16962 H 1589.98 0.518486 -0.644284 0
M  V30 16963 H 1592.52 0.376344 -1.65474 0
M  V30 16964 H 1591.29 1.18859 -3.72811 0
M  V30 16965 H 1590.92 2.70037 -2.91831 0
M  V30 16966 N 1591.91 1.44376 0.631925 0
M  V30 16967 C 1592.82 1.5367 1.77264 0
M  V30 16968 C 1593.84 0.422425 1.68794 0
M  V30 16969 O 1595.02 0.679656 1.89585 0
M  V30 16970 C 1592.08 1.47743 3.13644 0
M  V30 16971 C 1591.14 2.70015 3.33752 0
M  V30 16972 C 1590.37 2.64362 4.63626 0
M  V30 16973 O 1590.6 1.7032 5.44378 0
M  V30 16974 O 1589.53 3.55201 4.85918 0
M  V30 16975 H 1593.36 2.5004 1.72376 0
M  V30 16976 H 1590.94 1.26614 0.793052 0
M  V30 16977 H 1592.82 1.46958 3.94945 0
M  V30 16978 H 1591.5 0.545165 3.19076 0
M  V30 16979 H 1590.41 2.76369 2.52133 0
M  V30 16980 H 1591.74 3.62286 3.33181 0
M  V30 16981 N 1593.39 -0.872258 1.31261 0
M  V30 16982 C 1594.64 -1.6199 1.20176 0
M  V30 16983 C 1594.95 -1.94129 -0.239439 0
M  V30 16984 O 1596.16 -2.67366 -0.471956 0
M  V30 16985 C 1594.62 -2.92017 2.10366 0
M  V30 16986 C 1594.22 -2.6737 3.59468 0
M  V30 16987 C 1595.97 -3.70007 2.08075 0
M  V30 16988 C 1593.87 -3.93291 4.41674 0
M  V30 16989 H 1592.8 -0.607793 0.446211 0
M  V30 16990 H 1595.46 -0.964627 1.561 0
M  V30 16991 H 1593.84 -3.58907 1.67338 0
M  V30 16992 H 1595.01 -2.08902 4.10727 0
M  V30 16993 H 1593.33 -2.02738 3.63712 0
M  V30 16994 H 1595.92 -4.63416 2.66739 0
M  V30 16995 H 1596.27 -4.02385 1.06733 0
M  V30 16996 H 1596.8 -3.09998 2.49291 0
M  V30 16997 H 1593.54 -3.66064 5.43762 0
M  V30 16998 H 1593.06 -4.51218 3.95174 0
M  V30 16999 H 1594.74 -4.61197 4.53769 0
M  V30 17000 N 1594.87 -1.14184 -1.08627 0
M  V30 17001 C 1596.15 -0.81955 -1.77603 0
M  V30 17002 C 1596.53 0.687377 -1.99595 0
M  V30 17003 O 1595.87 1.62744 -1.60396 0
M  V30 17004 C 1596.08 -1.61574 -3.09346 0
M  V30 17005 C 1597.43 -1.81367 -3.83916 0
M  V30 17006 O 1598.46 -1.58241 -3.19121 0
M  V30 17007 O 1597.32 -2.20011 -5.00257 0
M  V30 17008 H 1594.41 -0.300086 -0.770635 0
M  V30 17009 H 1596.96 -1.24691 -1.15109 0
M  V30 17010 H 1595.73 -2.63946 -2.88874 0
M  V30 17011 H 1595.35 -1.18386 -3.79566 0
M  V30 17012 N 1596.35 1.26749 -0.936613 0
M  V30 17013 C 1597.3 2.24218 -0.413552 0
M  V30 17014 C 1598.28 1.53347 0.487172 0
M  V30 17015 O 1599.47 1.74025 0.323163 0
M  V30 17016 C 1596.6 3.41765 0.324304 0
M  V30 17017 C 1595.69 4.19927 -0.593449 0
M  V30 17018 N 1596.08 4.75757 -1.71722 0
M  V30 17019 C 1594.38 4.44219 -0.398158 0
M  V30 17020 C 1595.08 5.34781 -2.28876 0
M  V30 17021 N 1594.06 5.20214 -1.5773 0
M  V30 17022 H 1597.86 2.64974 -1.27146 0
M  V30 17023 H 1595.37 1.41782 -0.791938 0
M  V30 17024 H 1597.37 4.10705 0.716034 0
M  V30 17025 H 1596.03 3.02538 1.17903 0
M  V30 17026 H 1597.04 4.73438 -2.09945 0
M  V30 17027 H 1593.72 4.15431 0.415175 0
M  V30 17028 H 1595.11 5.88875 -3.23536 0
M  V30 17029 N 1597.83 0.703118 1.41046 0
M  V30 17030 C 1598.79 0.0514476 2.29142 0
M  V30 17031 C 1599.79 -0.700223 1.44753 0
M  V30 17032 O 1600.98 -0.533985 1.65814 0
M  V30 17033 C 1598.11 -0.93735 3.2776 0
M  V30 17034 H 1599.3 0.827201 2.88266 0
M  V30 17035 H 1596.86 0.467045 1.49159 0
M  V30 17036 H 1597.59 -1.7406 2.7363 0
M  V30 17037 H 1597.38 -0.4014 3.9004 0
M  V30 17038 H 1598.87 -1.39088 3.93757 0
M  V30 17039 N 1599.3 -1.51086 0.448402 0
M  V30 17040 C 1600.21 -2.3177 -0.363323 0
M  V30 17041 C 1601.23 -1.41159 -1.01736 0
M  V30 17042 O 1602.41 -1.74226 -1.01031 0
M  V30 17043 C 1599.47 -3.15211 -1.4437 0
M  V30 17044 C 1598.53 -4.21615 -0.808643 0
M  V30 17045 C 1597.77 -5.01069 -1.83754 0
M  V30 17046 O 1597.99 -4.81296 -3.06121 0
M  V30 17047 O 1596.92 -5.84863 -1.42193 0
M  V30 17048 H 1600.75 -3.02257 0.295653 0
M  V30 17049 H 1598.33 -1.47907 0.210703 0
M  V30 17050 H 1600.22 -3.67053 -2.07002 0
M  V30 17051 H 1598.89 -2.47476 -2.08656 0
M  V30 17052 H 1597.8 -3.73823 -0.143975 0
M  V30 17053 H 1599.13 -4.91756 -0.209098 0
M  V30 17054 N 1600.78 -0.180154 -1.56567 0
M  V30 17055 C 1601.72 0.785576 -2.14252 0
M  V30 17056 C 1602.69 1.21991 -1.07504 0
M  V30 17057 O 1603.88 1.3101 -1.35531 0
M  V30 17058 C 1601 2.05903 -2.68927 0
M  V30 17059 C 1600.05 1.76802 -3.88128 0
M  V30 17060 S 1600.88 0.92939 -5.27373 0
M  V30 17061 C 1602.04 2.21331 -5.8546 0
M  V30 17062 H 1602.27 0.295145 -2.95831 0
M  V30 17063 H 1599.81 0.0346427 -1.54361 0
M  V30 17064 H 1601.76 2.79043 -3.01074 0
M  V30 17065 H 1600.42 2.52059 -1.87417 0
M  V30 17066 H 1599.62 2.71312 -4.24742 0
M  V30 17067 H 1599.22 1.11753 -3.56914 0
M  V30 17068 H 1601.51 3.16718 -5.98912 0
M  V30 17069 H 1602.45 1.89172 -6.82363 0
M  V30 17070 H 1602.86 2.33495 -5.13946 0
M  V30 17071 N 1602.26 1.57322 0.0935319 0
M  V30 17072 C 1603.17 2.05499 1.13169 0
M  V30 17073 C 1604.19 0.980199 1.43764 0
M  V30 17074 O 1605.36 1.29347 1.54374 0
M  V30 17075 C 1602.43 2.47111 2.43181 0
M  V30 17076 C 1601.49 3.68791 2.19754 0
M  V30 17077 C 1600.72 4.08408 3.43567 0
M  V30 17078 O 1600.94 3.48104 4.51863 0
M  V30 17079 O 1599.88 5.01351 3.33062 0
M  V30 17080 H 1603.7 2.9423 0.752491 0
M  V30 17081 H 1601.29 1.4623 0.306151 0
M  V30 17082 H 1603.17 2.74495 3.19735 0
M  V30 17083 H 1601.85 1.61518 2.80524 0
M  V30 17084 H 1600.75 3.46521 1.40976 0
M  V30 17085 H 1602.09 4.55169 1.87303 0
M  V30 17086 N 1603.74 -0.364395 1.53329 0
M  V30 17087 C 1604.67 -1.45243 1.8283 0
M  V30 17088 C 1605.65 -1.55834 0.681886 0
M  V30 17089 O 1606.83 -1.70383 0.931845 0
M  V30 17090 C 1603.96 -2.82565 2.01926 0
M  V30 17091 C 1602.92 -2.86797 3.17697 0
M  V30 17092 C 1602.24 -4.26806 3.22089 0
M  V30 17093 C 1603.54 -2.54212 4.56261 0
M  V30 17094 H 1605.24 -1.20804 2.73946 0
M  V30 17095 H 1602.78 -0.579705 1.31816 0
M  V30 17096 H 1604.74 -3.58709 2.21147 0
M  V30 17097 H 1603.46 -3.08394 1.07521 0
M  V30 17098 H 1602.12 -2.13105 2.98298 0
M  V30 17099 H 1601.77 -4.49712 2.25318 0
M  V30 17100 H 1601.47 -4.30553 3.99873 0
M  V30 17101 H 1602.99 -5.04821 3.43495 0
M  V30 17102 H 1604.41 -3.20069 4.75635 0
M  V30 17103 H 1602.8 -2.69273 5.36295 0
M  V30 17104 H 1603.87 -1.49458 4.61292 0
M  V30 17105 N 1605.22 -1.44709 -0.62426 0
M  V30 17106 C 1606.63 -1.28747 -0.9432 0
M  V30 17107 C 1606.83 -0.228265 -2.00203 0
M  V30 17108 O 1605.89 0.383506 -2.49571 0
M  V30 17109 C 1607.2 -2.66124 -1.39995 0
M  V30 17110 C 1608.75 -2.73889 -1.51506 0
M  V30 17111 C 1609.22 -4.11751 -2.00562 0
M  V30 17112 N 1610.72 -4.13962 -2.07821 0
M  V30 17113 C 1611.45 -5.1749 -2.46964 0
M  V30 17114 N 1610.95 -6.31376 -2.85195 0
M  V30 17115 N 1612.74 -5.04846 -2.47158 0
M  V30 17116 H 1604.89 -2.12264 0.0758746 0
M  V30 17117 H 1607.15 -0.947566 -0.0286915 0
M  V30 17118 H 1606.86 -3.4474 -0.696203 0
M  V30 17119 H 1606.73 -2.93474 -2.36967 0
M  V30 17120 H 1609.12 -1.95587 -2.20975 0
M  V30 17121 H 1609.2 -2.50272 -0.528911 0
M  V30 17122 H 1608.85 -4.90532 -1.31685 0
M  V30 17123 H 1608.78 -4.32749 -3.0006 0
M  V30 17124 H 1611.27 -3.31771 -1.80933 0
M  V30 17125 H 1611.58 -7.06179 -3.13896 0
M  V30 17126 H 1609.92 -6.34804 -2.8293 0
M  V30 17127 H 1613.12 -4.14927 -2.16686 0
M  V30 17128 H 1613.29 -5.85651 -2.77339 0
M  V30 17129 N 1606.69 0.865285 -1.31722 0
M  V30 17130 C 1608.11 1.15179 -1.10481 0
M  V30 17131 C 1608.31 2.01132 0.121667 0
M  V30 17132 O 1607.37 2.39167 0.809645 0
M  V30 17133 C 1608.68 1.8394 -2.3788 0
M  V30 17134 C 1610.23 1.96621 -2.43535 0
M  V30 17135 C 1610.7 2.68796 -3.70827 0
M  V30 17136 N 1612.19 2.76329 -3.71748 0
M  V30 17137 C 1612.93 3.32798 -4.6694 0
M  V30 17138 N 1612.42 3.90162 -5.7249 0
M  V30 17139 N 1614.22 3.30801 -4.54453 0
M  V30 17140 H 1606.37 0.292632 -2.10374 0
M  V30 17141 H 1608.63 0.192252 -0.928301 0
M  V30 17142 H 1608.34 1.28233 -3.27489 0
M  V30 17143 H 1608.21 2.84182 -2.48034 0
M  V30 17144 H 1610.6 2.5149 -1.54392 0
M  V30 17145 H 1610.68 0.954071 -2.37342 0
M  V30 17146 H 1610.32 2.14593 -4.60339 0
M  V30 17147 H 1610.25 3.70427 -3.74288 0
M  V30 17148 H 1612.74 2.35621 -2.95451 0
M  V30 17149 H 1613.06 4.31376 -6.41198 0
M  V30 17150 H 1611.4 3.88525 -5.76258 0
M  V30 17151 H 1614.59 2.85227 -3.71165 0
M  V30 17152 H 1614.77 3.74511 -5.28815 0
M  V30 17153 N 1608.17 1.14759 1.0802 0
M  V30 17154 C 1609.42 0.916435 1.80127 0
M  V30 17155 C 1609.74 -0.558281 1.86837 0
M  V30 17156 O 1609.01 -1.40579 1.36434 0
M  V30 17157 H 1607.59 0.336066 0.667135 0
M  V30 17158 H 1610.25 1.44693 1.30576 0
M  V30 17159 H 1609.35 1.31986 2.82818 0
M  V30 17160 N 1609.65 -1.26251 0.943322 0
M  V30 17161 C 1610.58 -2.25468 0.411904 0
M  V30 17162 C 1611.6 -1.55988 -0.466005 0
M  V30 17163 O 1612.78 -1.76352 -0.276106 0
M  V30 17164 C 1609.88 -3.362 -0.426909 0
M  V30 17165 C 1609.06 -4.35228 0.435346 0
M  V30 17166 C 1608.12 -5.25078 -0.343388 0
M  V30 17167 O 1607.14 -5.68632 0.254322 0
M  V30 17168 N 1608.34 -5.5687 -1.63939 0
M  V30 17169 H 1611.11 -2.71701 1.26486 0
M  V30 17170 H 1608.67 -1.40039 0.812438 0
M  V30 17171 H 1610.66 -3.93263 -0.955316 0
M  V30 17172 H 1609.23 -2.89446 -1.18067 0
M  V30 17173 H 1608.45 -3.77206 1.14495 0
M  V30 17174 H 1609.74 -4.98384 1.02427 0
M  V30 17175 H 1609.14 -5.2337 -2.14709 0
M  V30 17176 H 1607.7 -6.16566 -2.11399 0
M  V30 17177 N 1611.13 -0.710588 -1.40671 0
M  V30 17178 C 1612.38 -0.244967 -2.00207 0
M  V30 17179 C 1612.69 1.16693 -1.56978 0
M  V30 17180 O 1613.9 1.73081 -2.09177 0
M  V30 17181 C 1612.35 -0.387049 -3.57813 0
M  V30 17182 C 1611.96 -1.80527 -4.10017 0
M  V30 17183 C 1613.71 0.0180338 -4.24496 0
M  V30 17184 C 1611.61 -1.89821 -5.60109 0
M  V30 17185 H 1610.54 -0.087831 -0.748867 0
M  V30 17186 H 1613.19 -0.880956 -1.6097 0
M  V30 17187 H 1611.58 0.317442 -3.94726 0
M  V30 17188 H 1612.75 -2.53974 -3.84492 0
M  V30 17189 H 1611.06 -2.16137 -3.55913 0
M  V30 17190 H 1613.66 -0.0307544 -5.34691 0
M  V30 17191 H 1614 1.05915 -4.02601 0
M  V30 17192 H 1614.54 -0.63672 -3.92671 0
M  V30 17193 H 1611.28 -2.92036 -5.86852 0
M  V30 17194 H 1610.8 -1.20779 -5.87514 0
M  V30 17195 H 1612.48 -1.66801 -6.25129 0
M  V30 17196 N 1612.61 1.50847 -0.456408 0
M  V30 17197 C 1613.54 2.31077 0.335523 0
M  V30 17198 C 1614.52 1.37326 1.00377 0
M  V30 17199 O 1615.7 1.66247 1.00376 0
M  V30 17200 C 1612.83 3.16662 1.42627 0
M  V30 17201 C 1611.79 4.18846 0.88045 0
M  V30 17202 C 1611.11 4.93074 2.06838 0
M  V30 17203 C 1612.41 5.22208 -0.0982288 0
M  V30 17204 H 1614.11 2.97531 -0.334056 0
M  V30 17205 H 1611.65 1.43085 -0.162099 0
M  V30 17206 H 1613.61 3.71578 1.98765 0
M  V30 17207 H 1612.33 2.48066 2.12441 0
M  V30 17208 H 1610.99 3.65009 0.341147 0
M  V30 17209 H 1610.64 4.20963 2.75316 0
M  V30 17210 H 1610.34 5.62184 1.70947 0
M  V30 17211 H 1611.86 5.5082 2.63494 0
M  V30 17212 H 1613.28 5.72082 0.373481 0
M  V30 17213 H 1611.67 5.98954 -0.370674 0
M  V30 17214 H 1612.74 4.73859 -1.02887 0
M  V30 17215 N 1614.09 0.188454 1.56469 0
M  V30 17216 C 1615.33 -0.446133 1.98447 0
M  V30 17217 C 1615.69 -1.59695 1.07309 0
M  V30 17218 O 1614.98 -1.91248 0.116155 0
M  V30 17219 C 1615.17 -0.960652 3.44247 0
M  V30 17220 C 1615 0.138775 4.49486 0
M  V30 17221 C 1613.77 0.594191 5.01794 0
M  V30 17222 C 1615.97 0.945352 5.05537 0
M  V30 17223 N 1613.95 1.67213 5.90689 0
M  V30 17224 C 1615.32 1.87284 5.91037 0
M  V30 17225 C 1617.38 0.988513 4.87989 0
M  V30 17226 C 1616.08 2.83989 6.60865 0
M  V30 17227 C 1618.11 1.94358 5.58551 0
M  V30 17228 C 1617.47 2.85852 6.43792 0
M  V30 17229 H 1613.57 -0.130863 0.770973 0
M  V30 17230 H 1616.15 0.29262 1.92489 0
M  V30 17231 H 1614.32 -1.66887 3.50718 0
M  V30 17232 H 1616.06 -1.56529 3.73203 0
M  V30 17233 H 1612.81 0.188748 4.73224 0
M  V30 17234 H 1613.23 2.21211 6.3984 0
M  V30 17235 H 1617.88 0.295146 4.21769 0
M  V30 17236 H 1615.59 3.54305 7.26288 0
M  V30 17237 H 1619.18 1.9833 5.46952 0
M  V30 17238 H 1618.06 3.5855 6.97432 0
M  V30 17239 N 1615.56 -1.5737 -0.0851874 0
M  V30 17240 C 1616.81 -1.86587 -0.786855 0
M  V30 17241 C 1617.14 -0.778357 -1.78247 0
M  V30 17242 O 1616.39 0.227053 -1.94378 0
M  V30 17243 C 1616.69 -3.22427 -1.54194 0
M  V30 17244 C 1616.36 -4.45627 -0.687542 0
M  V30 17245 C 1615.02 -4.79072 -0.452042 0
M  V30 17246 C 1617.37 -5.21115 -0.094224 0
M  V30 17247 C 1614.7 -5.85426 0.386477 0
M  V30 17248 C 1617.05 -6.28354 0.731673 0
M  V30 17249 C 1615.72 -6.60309 0.977172 0
M  V30 17250 H 1614.99 -0.682772 -0.28793 0
M  V30 17251 H 1617.63 -1.9144 -0.0480218 0
M  V30 17252 H 1615.94 -3.13304 -2.35261 0
M  V30 17253 H 1617.64 -3.42264 -2.08941 0
M  V30 17254 H 1614.23 -4.19443 -0.881212 0
M  V30 17255 H 1618.41 -4.95601 -0.263309 0
M  V30 17256 H 1613.67 -6.08589 0.58556 0
M  V30 17257 H 1617.84 -6.86014 1.19823 0
M  V30 17258 H 1615.47 -7.42548 1.6287 0
M  V30 17259 N 1617.04 0.356258 -1.53521 0
M  V30 17260 C 1618.46 0.698546 -1.43501 0
M  V30 17261 C 1618.66 1.92926 -0.581547 0
M  V30 17262 O 1617.71 2.5241 -0.0675947 0
M  V30 17263 C 1619.03 0.903047 -2.8682 0
M  V30 17264 C 1620.57 1.00247 -2.96512 0
M  V30 17265 C 1621.05 1.23938 -4.40912 0
M  V30 17266 N 1622.54 1.30687 -4.44382 0
M  V30 17267 C 1623.28 1.50745 -5.5323 0
M  V30 17268 N 1622.77 1.68058 -6.72107 0
M  V30 17269 N 1624.56 1.5319 -5.40823 0
M  V30 17270 H 1616.72 -0.453102 -2.07511 0
M  V30 17271 H 1618.98 -0.140708 -0.937499 0
M  V30 17272 H 1618.68 0.070416 -3.5163 0
M  V30 17273 H 1618.56 1.80847 -3.3102 0
M  V30 17274 H 1620.95 1.82564 -2.3185 0
M  V30 17275 H 1621.03 0.0742303 -2.55692 0
M  V30 17276 H 1620.67 0.421189 -5.06151 0
M  V30 17277 H 1620.6 2.18098 -4.79313 0
M  V30 17278 H 1623.09 1.18883 -3.58713 0
M  V30 17279 H 1623.4 1.82963 -7.50829 0
M  V30 17280 H 1621.75 1.65219 -6.75076 0
M  V30 17281 H 1624.94 1.39237 -4.46912 0
M  V30 17282 H 1625.11 1.6848 -6.25714 0
M  V30 17283 N 1618.52 1.45038 0.616577 0
M  V30 17284 C 1619.77 1.48292 1.3731 0
M  V30 17285 C 1620.09 0.122437 1.94615 0
M  V30 17286 O 1619.36 -0.847103 1.76638 0
M  V30 17287 H 1617.94 0.546079 0.509712 0
M  V30 17288 H 1620.6 1.80927 0.724673 0
M  V30 17289 H 1619.7 2.21664 2.19708 0
M  V30 17290 N 1620 -0.858287 1.32179 0
M  V30 17291 C 1620.93 -1.98219 1.23415 0
M  V30 17292 C 1621.91 -1.69685 0.118779 0
M  V30 17293 O 1623.09 -1.91785 0.305342 0
M  V30 17294 C 1620.22 -3.33977 0.952725 0
M  V30 17295 C 1619.18 -3.76853 2.02894 0
M  V30 17296 C 1618.5 -5.10201 1.59999 0
M  V30 17297 C 1619.8 -3.92707 3.44352 0
M  V30 17298 H 1621.5 -2.05809 2.17446 0
M  V30 17299 H 1619.04 -0.988817 1.04682 0
M  V30 17300 H 1621 -4.12152 0.87798 0
M  V30 17301 H 1619.72 -3.26592 -0.023234 0
M  V30 17302 H 1618.38 -3.00926 2.09378 0
M  V30 17303 H 1618.03 -4.99268 0.61157 0
M  V30 17304 H 1617.73 -5.39859 2.32004 0
M  V30 17305 H 1619.25 -5.90873 1.53954 0
M  V30 17306 H 1620.67 -4.61246 3.40477 0
M  V30 17307 H 1619.06 -4.33779 4.14675 0
M  V30 17308 H 1620.13 -2.95731 3.8428 0
M  V30 17309 N 1621.48 -1.1533 -1.07409 0
M  V30 17310 C 1622.42 -0.845328 -2.16696 0
M  V30 17311 C 1623.42 0.181009 -1.6843 0
M  V30 17312 O 1624.62 0.0361013 -1.79964 0
M  V30 17313 H 1621 -0.255698 -0.707193 0
M  V30 17314 H 1622.97 -1.7747 -2.39889 0
M  V30 17315 C 1621.72 -0.350381 -3.4593 0
M  V30 17316 H 1621.04 -1.13152 -3.83454 0
M  V30 17317 H 1622.48 -0.173547 -4.23645 0
M  V30 17318 C 1620.94 0.927991 -3.23867 0
M  V30 17319 O 1621.47 1.99965 -3.48392 0
M  V30 17320 N 1619.68 0.867266 -2.77357 0
M  V30 17321 H 1619.22 -0.00500352 -2.576 0
M  V30 17322 H 1619.18 1.72314 -2.62974 0
M  V30 17323 N 1622.95 1.25748 -0.950004 0
M  V30 17324 C 1624.37 1.45599 -0.653697 0
M  V30 17325 C 1624.57 1.85357 0.790245 0
M  V30 17326 O 1623.63 1.98071 1.56601 0
M  V30 17327 C 1624.94 2.5316 -1.62267 0
M  V30 17328 C 1626.49 2.67004 -1.63334 0
M  V30 17329 C 1626.96 3.77745 -2.58984 0
M  V30 17330 N 1628.45 3.8515 -2.57321 0
M  V30 17331 C 1629.19 4.70315 -3.28011 0
M  V30 17332 N 1628.68 5.59802 -4.08159 0
M  V30 17333 N 1630.48 4.64239 -3.16921 0
M  V30 17334 H 1622.63 0.982321 -1.88319 0
M  V30 17335 H 1624.89 0.492917 -0.809776 0
M  V30 17336 H 1624.6 2.30792 -2.65382 0
M  V30 17337 H 1624.47 3.50988 -1.38158 0
M  V30 17338 H 1626.86 2.88739 -0.609388 0
M  V30 17339 H 1626.94 1.69591 -1.915 0
M  V30 17340 H 1626.58 3.56761 -3.61502 0
M  V30 17341 H 1626.51 4.74633 -2.28103 0
M  V30 17342 H 1629 3.21178 -1.99131 0
M  V30 17343 H 1629.32 6.21701 -4.59029 0
M  V30 17344 H 1627.66 5.59525 -4.12258 0
M  V30 17345 H 1630.85 3.93335 -2.53782 0
M  V30 17346 H 1631.03 5.30389 -3.72279 0
M  V30 17347 N 1624.43 0.718038 1.40292 0
M  V30 17348 C 1625.68 0.255581 2.00074 0
M  V30 17349 C 1625.99 -1.15859 1.57594 0
M  V30 17350 O 1627.2 -1.71969 2.10092 0
M  V30 17351 C 1625.66 0.406019 3.57602 0
M  V30 17352 C 1625.26 1.82699 4.09054 0
M  V30 17353 C 1627.01 0.00447854 4.245 0
M  V30 17354 C 1624.91 1.92788 5.59094 0
M  V30 17355 H 1623.84 0.0918012 0.748391 0
M  V30 17356 H 1626.5 0.88948 1.60501 0
M  V30 17357 H 1624.88 -0.296504 3.94888 0
M  V30 17358 H 1626.05 2.56009 3.8314 0
M  V30 17359 H 1624.37 2.18021 3.54761 0
M  V30 17360 H 1626.96 0.05911 5.34667 0
M  V30 17361 H 1627.31 -1.03779 4.03157 0
M  V30 17362 H 1627.84 0.657535 3.92328 0
M  V30 17363 H 1624.58 2.95145 5.85295 0
M  V30 17364 H 1624.1 1.23893 5.86865 0
M  V30 17365 H 1625.78 1.70114 6.24236 0
M  V30 17366 N 1625.91 -1.50602 0.464402 0
M  V30 17367 C 1626.84 -2.26203 -0.36943 0
M  V30 17368 C 1627.86 -1.31269 -0.962924 0
M  V30 17369 O 1629.04 -1.56829 -0.852465 0
M  V30 17370 C 1626.14 -3.02323 -1.53147 0
M  V30 17371 C 1625.32 -4.24561 -1.05198 0
M  V30 17372 C 1624.38 -4.83031 -2.08729 0
M  V30 17373 O 1623.4 -5.44131 -1.67062 0
M  V30 17374 N 1624.6 -4.6944 -3.41477 0
M  V30 17375 H 1627.37 -2.98402 0.278652 0
M  V30 17376 H 1624.93 -1.59193 0.294803 0
M  V30 17377 H 1626.92 -3.38319 -2.22086 0
M  V30 17378 H 1625.49 -2.32965 -2.08438 0
M  V30 17379 H 1624.71 -3.93748 -0.188705 0
M  V30 17380 H 1626 -5.0383 -0.709434 0
M  V30 17381 H 1625.4 -4.20832 -3.78044 0
M  V30 17382 H 1623.96 -5.09724 -4.06233 0
M  V30 17383 N 1627.39 -0.19675 -1.56367 0
M  V30 17384 C 1628.62 0.447139 -2.02011 0
M  V30 17385 C 1629.03 1.55077 -1.07687 0
M  V30 17386 O 1628.39 1.82316 -0.0820316 0
M  V30 17387 C 1628.44 1.00192 -3.47338 0
M  V30 17388 O 1628.16 -0.0576859 -4.38062 0
M  V30 17389 C 1629.66 1.72152 -4.08508 0
M  V30 17390 H 1626.88 0.112088 -0.661572 0
M  V30 17391 H 1629.43 -0.30594 -2.02199 0
M  V30 17392 H 1627.58 1.70537 -3.47844 0
M  V30 17393 H 1627.99 0.355508 -5.23294 0
M  V30 17394 H 1629.47 2.06199 -5.12041 0
M  V30 17395 H 1629.95 2.62581 -3.52062 0
M  V30 17396 H 1630.55 1.06388 -4.11779 0
M  V30 17397 N 1628.87 1.57413 0.0768405 0
M  V30 17398 C 1629.8 2.00058 1.11845 0
M  V30 17399 C 1630.81 0.905783 1.35275 0
M  V30 17400 O 1632 1.18372 1.33605 0
M  V30 17401 C 1629.1 2.32002 2.47039 0
M  V30 17402 C 1628.27 3.63265 2.43634 0
M  V30 17403 C 1627.33 3.82937 3.60896 0
M  V30 17404 O 1626.36 4.54582 3.42555 0
M  V30 17405 N 1627.56 3.24904 4.81059 0
M  V30 17406 H 1630.33 2.90026 0.75533 0
M  V30 17407 H 1627.89 1.59707 0.265567 0
M  V30 17408 H 1629.88 2.4234 3.24119 0
M  V30 17409 H 1628.45 1.4795 2.75372 0
M  V30 17410 H 1627.67 3.63727 1.51974 0
M  V30 17411 H 1628.96 4.49462 2.38455 0
M  V30 17412 H 1628.35 2.66742 4.98864 0
M  V30 17413 H 1626.91 3.40699 5.55669 0
M  V30 17414 N 1630.34 -0.348112 1.53707 0
M  V30 17415 C 1631.59 -1.08626 1.69951 0
M  V30 17416 C 1631.91 -1.89944 0.466992 0
M  V30 17417 O 1633.11 -2.66661 0.51029 0
M  V30 17418 C 1631.57 -1.98052 3.00505 0
M  V30 17419 C 1631.18 -1.21963 4.31079 0
M  V30 17420 C 1632.92 -2.71752 3.26115 0
M  V30 17421 C 1630.83 -2.10392 5.52711 0
M  V30 17422 H 1629.76 -0.409241 0.633275 0
M  V30 17423 H 1632.41 -0.346051 1.80207 0
M  V30 17424 H 1630.79 -2.75874 2.84094 0
M  V30 17425 H 1631.96 -0.490831 4.58178 0
M  V30 17426 H 1630.28 -0.600511 4.12047 0
M  V30 17427 H 1632.88 -3.38174 4.14177 0
M  V30 17428 H 1633.22 -3.38072 2.42926 0
M  V30 17429 H 1633.75 -2.01005 3.43281 0
M  V30 17430 H 1630.49 -1.48622 6.38429 0
M  V30 17431 H 1630.01 -2.81074 5.29866 0
M  V30 17432 H 1631.69 -2.69551 5.88176 0
M  V30 17433 N 1631.82 -1.45363 -0.608876 0
M  V30 17434 C 1633.1 -1.39787 -1.36817 0
M  V30 17435 C 1633.48 -0.067821 -2.10991 0
M  V30 17436 O 1632.83 0.950196 -2.07806 0
M  V30 17437 C 1633.04 -2.61073 -2.31608 0
M  V30 17438 C 1634.39 -3.06104 -2.94254 0
M  V30 17439 O 1635.41 -2.61436 -2.41929 0
M  V30 17440 O 1634.27 -3.83616 -3.89231 0
M  V30 17441 H 1631.36 -0.554657 -0.61342 0
M  V30 17442 H 1633.91 -1.57489 -0.632073 0
M  V30 17443 H 1632.68 -3.4946 -1.76049 0
M  V30 17444 H 1632.3 -2.45697 -3.126 0
M  V30 17445 N 1633.3 0.851265 -1.32632 0
M  V30 17446 C 1634.55 1.60807 -1.23568 0
M  V30 17447 C 1634.88 1.93155 0.201238 0
M  V30 17448 O 1634.15 1.5764 1.13929 0
M  V30 17449 C 1634.44 2.92619 -2.09872 0
M  V30 17450 C 1634.29 2.67031 -3.61959 0
M  V30 17451 C 1635.61 3.93924 -1.96244 0
M  V30 17452 H 1632.73 0.583492 -0.450229 0
M  V30 17453 H 1635.37 0.98273 -1.62611 0
M  V30 17454 H 1633.52 3.45988 -1.76704 0
M  V30 17455 H 1635.19 2.2019 -4.05357 0
M  V30 17456 H 1633.44 2.00938 -3.84456 0
M  V30 17457 H 1634.11 3.60902 -4.17676 0
M  V30 17458 H 1636.58 3.49823 -2.25307 0
M  V30 17459 H 1635.46 4.84005 -2.58902 0
M  V30 17460 H 1635.72 4.32185 -0.931065 0
M  V30 17461 N 1634.78 1.15898 1.06796 0
M  V30 17462 C 1636.03 0.931848 1.78884 0
M  V30 17463 C 1636.34 -0.54197 1.87942 0
M  V30 17464 O 1637.55 -0.886848 2.56607 0
M  V30 17465 C 1636 1.61788 3.21485 0
M  V30 17466 C 1635.61 3.12911 3.2061 0
M  V30 17467 C 1637.35 1.47252 3.98142 0
M  V30 17468 C 1635.26 3.74275 4.579 0
M  V30 17469 H 1634.19 0.344998 0.670442 0
M  V30 17470 H 1636.84 1.38974 1.19827 0
M  V30 17471 H 1635.22 1.08769 3.80769 0
M  V30 17472 H 1636.4 3.72732 2.70938 0
M  V30 17473 H 1634.71 3.27273 2.57451 0
M  V30 17474 H 1637.31 1.90484 4.9962 0
M  V30 17475 H 1637.65 0.420766 4.14168 0
M  V30 17476 H 1638.19 1.97398 3.45367 0
M  V30 17477 H 1634.93 4.79376 4.47078 0
M  V30 17478 H 1634.45 3.19238 5.07786 0
M  V30 17479 H 1636.12 3.75532 5.26863 0
M  V30 17480 N 1636.26 -1.25243 0.956659 0
M  V30 17481 C 1637.2 -2.2781 0.46963 0
M  V30 17482 C 1638.2 -1.63003 -0.461138 0
M  V30 17483 O 1639.4 -1.76805 -0.337644 0
M  V30 17484 H 1635.78 -0.740078 0.133374 0
M  V30 17485 H 1637.75 -2.66273 1.34689 0
M  V30 17486 C 1636.5 -3.46904 -0.235206 0
M  V30 17487 H 1635.82 -3.97006 0.471869 0
M  V30 17488 H 1637.26 -4.20548 -0.539969 0
M  V30 17489 C 1635.72 -3.03697 -1.45841 0
M  V30 17490 O 1636.25 -3.09887 -2.55603 0
M  V30 17491 N 1634.46 -2.58866 -1.32049 0
M  V30 17492 H 1634 -2.54029 -0.427428 0
M  V30 17493 H 1633.96 -2.30322 -2.14008 0
M  V30 17494 N 1637.73 -0.725468 -1.3991 0
M  V30 17495 C 1638.96 -0.279202 -2.05007 0
M  V30 17496 C 1639.38 1.08257 -1.5468 0
M  V30 17497 O 1638.73 1.68224 -0.707585 0
M  V30 17498 C 1638.79 -0.261347 -3.60554 0
M  V30 17499 O 1638.51 -1.56935 -4.09027 0
M  V30 17500 C 1640.01 0.202259 -4.42838 0
M  V30 17501 H 1637.23 -0.123664 -0.659506 0
M  V30 17502 H 1639.77 -0.986447 -1.79135 0
M  V30 17503 H 1637.93 0.396936 -3.85361 0
M  V30 17504 H 1638.34 -1.47647 -5.0329 0
M  V30 17505 H 1639.81 0.163598 -5.51758 0
M  V30 17506 H 1640.29 1.24597 -4.21156 0
M  V30 17507 H 1640.9 -0.426108 -4.2316 0
M  V30 17508 N 1639.21 1.50354 -0.472382 0
M  V30 17509 C 1640.46 2.02333 0.0821629 0
M  V30 17510 C 1640.79 1.35428 1.39605 0
M  V30 17511 O 1640.04 0.469386 1.89988 0
M  V30 17512 C 1640.34 3.5603 0.31263 0
M  V30 17513 C 1640.01 4.41421 -0.919715 0
M  V30 17514 C 1638.67 4.64476 -1.25759 0
M  V30 17515 C 1641.02 4.91292 -1.74017 0
M  V30 17516 C 1638.35 5.34648 -2.41596 0
M  V30 17517 C 1640.7 5.62736 -2.88983 0
M  V30 17518 C 1639.37 5.84045 -3.23184 0
M  V30 17519 H 1638.64 0.74039 0.0300655 0
M  V30 17520 H 1641.28 1.80954 -0.626725 0
M  V30 17521 H 1639.59 3.75931 1.10378 0
M  V30 17522 H 1641.28 3.93815 0.755691 0
M  V30 17523 H 1637.87 4.23696 -0.646486 0
M  V30 17524 H 1642.06 4.73332 -1.49232 0
M  V30 17525 H 1637.31 5.49354 -2.68366 0
M  V30 17526 H 1641.49 6.0036 -3.52903 0
M  V30 17527 H 1639.12 6.38196 -4.1305 0
M  V30 17528 N 1640.69 0.205039 1.56261 0
M  V30 17529 C 1641.62 -0.743854 2.16794 0
M  V30 17530 C 1642.64 -1.16959 1.13245 0
M  V30 17531 O 1643.83 -1.1036 1.40296 0
M  V30 17532 C 1640.93 -2.01717 2.7233 0
M  V30 17533 C 1640.1 -1.74965 4.00882 0
M  V30 17534 C 1639.16 -2.86841 4.41145 0
M  V30 17535 O 1638.18 -2.5602 5.08372 0
M  V30 17536 N 1639.39 -4.15425 4.05466 0
M  V30 17537 H 1642.15 -0.226145 2.98846 0
M  V30 17538 H 1639.71 0.0234276 1.61883 0
M  V30 17539 H 1641.7 -2.7572 2.96244 0
M  V30 17540 H 1640.27 -2.44582 1.94675 0
M  V30 17541 H 1639.49 -0.846903 3.84995 0
M  V30 17542 H 1640.78 -1.54501 4.84775 0
M  V30 17543 H 1640.18 -4.43314 3.5141 0
M  V30 17544 H 1638.74 -4.86023 4.3431 0
M  V30 17545 N 1642.17 -1.57451 -0.0684915 0
M  V30 17546 C 1643.4 -1.9164 -0.779855 0
M  V30 17547 C 1643.81 -0.801309 -1.70952 0
M  V30 17548 O 1643.17 0.225134 -1.81106 0
M  V30 17549 C 1643.22 -3.25594 -1.57068 0
M  V30 17550 O 1642.94 -4.32816 -0.678385 0
M  V30 17551 C 1644.44 -3.73818 -2.38275 0
M  V30 17552 H 1641.66 -0.633374 -0.221537 0
M  V30 17553 H 1644.21 -2.04465 -0.0377746 0
M  V30 17554 H 1642.36 -3.14287 -2.26501 0
M  V30 17555 H 1642.78 -5.09903 -1.22877 0
M  V30 17556 H 1644.25 -4.70168 -2.89216 0
M  V30 17557 H 1644.73 -3.02995 -3.17947 0
M  V30 17558 H 1645.33 -3.88081 -1.73992 0
M  V30 17559 N 1643.65 0.339955 -1.5389 0
M  V30 17560 C 1644.9 1.07766 -1.7097 0
M  V30 17561 C 1645.22 1.89064 -0.477486 0
M  V30 17562 O 1644.49 1.89183 0.508579 0
M  V30 17563 H 1643.07 0.400849 -0.630341 0
M  V30 17564 H 1645.73 0.380359 -1.91153 0
M  V30 17565 H 1644.82 1.75301 -2.58217 0
M  V30 17566 N 1645.13 1.45684 0.601159 0
M  V30 17567 C 1646.09 1.54451 1.69344 0
M  V30 17568 C 1647.09 0.423379 1.55126 0
M  V30 17569 O 1648.28 0.687079 1.60078 0
M  V30 17570 C 1645.41 1.4472 3.08657 0
M  V30 17571 H 1646.6 2.51778 1.62935 0
M  V30 17572 H 1644.16 1.3322 0.81744 0
M  V30 17573 H 1644.89 0.486027 3.20637 0
M  V30 17574 H 1644.68 2.26045 3.20384 0
M  V30 17575 H 1646.17 1.53902 3.88206 0
M  V30 17576 N 1646.6 -0.84422 1.33082 0
M  V30 17577 C 1647.83 -1.63654 1.27405 0
M  V30 17578 C 1648.25 -1.87476 -0.153146 0
M  V30 17579 O 1647.61 -1.43502 -1.10801 0
M  V30 17580 C 1647.66 -2.96698 2.04945 0
M  V30 17581 O 1646.76 -3.87751 1.40439 0
M  V30 17582 H 1646.1 -0.498545 0.438576 0
M  V30 17583 H 1648.63 -1.0507 1.7556 0
M  V30 17584 H 1648.64 -3.46438 2.1551 0
M  V30 17585 H 1647.32 -2.78682 3.08722 0
M  V30 17586 H 1645.9 -3.46231 1.38487 0
M  V30 17587 N 1648.08 -1.16463 -1.0618 0
M  V30 17588 C 1649.33 -0.946846 -1.79 0
M  V30 17589 C 1649.66 0.525259 -1.87273 0
M  V30 17590 O 1648.91 1.40584 -1.36142 0
M  V30 17591 C 1649.21 -1.52085 -3.23427 0
M  V30 17592 C 1648.88 -3.01547 -3.35232 0
M  V30 17593 C 1647.54 -3.42346 -3.38161 0
M  V30 17594 C 1649.89 -3.97543 -3.37059 0
M  V30 17595 C 1647.22 -4.77759 -3.40534 0
M  V30 17596 C 1649.57 -5.32843 -3.4097 0
M  V30 17597 C 1648.23 -5.73121 -3.42182 0
M  V30 17598 H 1647.5 -0.346475 -0.655008 0
M  V30 17599 H 1650.15 -1.45195 -1.24862 0
M  V30 17600 H 1648.46 -0.937212 -3.80426 0
M  V30 17601 H 1650.15 -1.32801 -3.78371 0
M  V30 17602 H 1646.74 -2.69017 -3.33658 0
M  V30 17603 H 1650.93 -3.67088 -3.34006 0
M  V30 17604 H 1646.18 -5.08293 -3.39777 0
M  V30 17605 H 1650.36 -6.07014 -3.41332 0
M  V30 17606 H 1647.98 -6.78029 -3.43774 0
M  V30 17607 N 1649.56 1.24734 -0.963288 0
M  V30 17608 C 1650.51 2.25555 -0.48926 0
M  V30 17609 C 1651.48 1.59521 0.462848 0
M  V30 17610 O 1652.66 1.87095 0.374188 0
M  V30 17611 C 1649.8 3.44407 0.218629 0
M  V30 17612 C 1648.91 4.25051 -0.77173 0
M  V30 17613 C 1648.05 5.31185 -0.0403986 0
M  V30 17614 C 1647.09 6.03523 -1.02112 0
M  V30 17615 N 1646.23 7.0137 -0.320083 0
M  V30 17616 H 1651.07 2.6547 -1.35386 0
M  V30 17617 H 1648.6 1.30504 -0.678762 0
M  V30 17618 H 1650.56 4.12173 0.645701 0
M  V30 17619 H 1649.19 3.05341 1.04722 0
M  V30 17620 H 1648.24 3.56865 -1.31726 0
M  V30 17621 H 1649.55 4.75084 -1.51976 0
M  V30 17622 H 1648.71 6.05067 0.444886 0
M  V30 17623 H 1647.45 4.82048 0.740356 0
M  V30 17624 H 1646.45 5.28448 -1.51732 0
M  V30 17625 H 1647.68 6.54749 -1.80224 0
M  V30 17626 H 1645.62 6.54511 0.441775 0
M  V30 17627 H 1645.54 7.49263 -1.00705 0
M  V30 17628 H 1646.81 7.79368 0.143379 0
M  V30 17629 N 1651.04 0.732878 1.39523 0
M  V30 17630 C 1652.29 0.279338 2.0016 0
M  V30 17631 C 1652.61 -1.13673 1.58441 0
M  V30 17632 O 1651.88 -1.77369 0.831681 0
M  V30 17633 H 1650.46 0.100288 0.740237 0
M  V30 17634 H 1653.12 0.942363 1.70603 0
M  V30 17635 H 1652.21 0.326053 3.10392 0
M  V30 17636 N 1652.52 -1.50101 0.480349 0
M  V30 17637 C 1653.76 -2.02674 -0.0715373 0
M  V30 17638 C 1654.09 -1.36095 -1.38535 0
M  V30 17639 O 1653.37 -0.489703 -1.88234 0
M  V30 17640 C 1653.65 -3.59261 -0.245693 0
M  V30 17641 C 1653.51 -4.36399 1.08979 0
M  V30 17642 C 1654.82 -4.28682 -0.995966 0
M  V30 17643 H 1651.94 -0.736592 -0.0245244 0
M  V30 17644 H 1654.59 -1.7933 0.627743 0
M  V30 17645 H 1652.74 -3.79281 -0.841308 0
M  V30 17646 H 1654.41 -4.27926 1.72269 0
M  V30 17647 H 1652.65 -3.99773 1.68417 0
M  V30 17648 H 1653.32 -5.44254 0.921468 0
M  V30 17649 H 1655.8 -4.13193 -0.491025 0
M  V30 17650 H 1654.67 -5.38037 -1.08663 0
M  V30 17651 H 1654.93 -3.92491 -2.03479 0
M  V30 17652 N 1653.99 -0.213323 -1.5615 0
M  V30 17653 C 1654.92 0.695003 -2.22917 0
M  V30 17654 C 1655.9 1.20738 -1.19818 0
M  V30 17655 O 1657.09 1.25289 -1.48379 0
M  V30 17656 C 1654.22 1.90685 -2.9027 0
M  V30 17657 C 1653.17 1.52865 -3.9977 0
M  V30 17658 C 1652.5 2.81859 -4.54378 0
M  V30 17659 C 1653.8 0.724829 -5.17246 0
M  V30 17660 H 1655.49 0.138351 -2.9908 0
M  V30 17661 H 1653.04 0.0651029 -1.43853 0
M  V30 17662 H 1654.99 2.54766 -3.35667 0
M  V30 17663 H 1653.72 2.48833 -2.11541 0
M  V30 17664 H 1652.38 0.911336 -3.55092 0
M  V30 17665 H 1652.02 3.38135 -3.72389 0
M  V30 17666 H 1651.72 2.57291 -5.28275 0
M  V30 17667 H 1653.25 3.46897 -5.02489 0
M  V30 17668 H 1654.66 1.26915 -5.59076 0
M  V30 17669 H 1653.06 0.57656 -5.97324 0
M  V30 17670 H 1654.13 -0.270309 -4.84146 0
M  V30 17671 N 1655.47 1.57485 0.0601405 0
M  V30 17672 C 1656.89 1.54105 0.415187 0
M  V30 17673 C 1657.09 0.935177 1.78484 0
M  V30 17674 O 1656.14 0.542715 2.46599 0
M  V30 17675 C 1657.46 2.98708 0.34555 0
M  V30 17676 C 1659.01 3.10103 0.424895 0
M  V30 17677 C 1659.48 4.56379 0.385041 0
M  V30 17678 N 1660.97 4.6106 0.444771 0
M  V30 17679 C 1661.71 5.71737 0.436334 0
M  V30 17680 N 1661.2 6.91746 0.38202 0
M  V30 17681 N 1663 5.60014 0.483759 0
M  V30 17682 H 1655.15 1.95232 -0.836565 0
M  V30 17683 H 1657.41 0.894101 -0.3151 0
M  V30 17684 H 1657.12 3.4664 -0.594427 0
M  V30 17685 H 1656.99 3.59201 1.15129 0
M  V30 17686 H 1659.38 2.62137 1.3553 0
M  V30 17687 H 1659.46 2.52499 -0.409633 0
M  V30 17688 H 1659.1 5.05004 -0.541561 0
M  V30 17689 H 1659.03 5.11859 1.23726 0
M  V30 17690 H 1661.52 3.74703 0.490522 0
M  V30 17691 H 1661.84 7.71866 0.379829 0
M  V30 17692 H 1660.18 6.94126 0.348532 0
M  V30 17693 H 1663.37 4.65158 0.523965 0
M  V30 17694 H 1663.54 6.46266 0.473715 0
M  V30 17695 N 1656.95 -0.331789 1.54068 0
M  V30 17696 C 1658.37 -0.675628 1.44594 0
M  V30 17697 C 1658.57 -1.91976 0.612166 0
M  V30 17698 O 1657.62 -2.5227 0.107742 0
M  V30 17699 C 1658.94 -0.857303 2.8822 0
M  V30 17700 C 1660.48 -0.955171 2.9807 0
M  V30 17701 C 1660.96 -1.16908 4.42828 0
M  V30 17702 N 1662.45 -1.23601 4.46405 0
M  V30 17703 C 1663.18 -1.41924 5.55558 0
M  V30 17704 N 1662.68 -1.57345 6.74696 0
M  V30 17705 N 1664.47 -1.44566 5.43191 0
M  V30 17706 H 1656.62 0.486058 2.06764 0
M  V30 17707 H 1658.89 0.155605 0.935142 0
M  V30 17708 H 1658.59 -0.0144659 3.51697 0
M  V30 17709 H 1658.47 -1.75558 3.33855 0
M  V30 17710 H 1660.85 -1.78852 2.34725 0
M  V30 17711 H 1660.94 -0.0335425 2.55778 0
M  V30 17712 H 1660.58 -0.340612 5.06757 0
M  V30 17713 H 1660.51 -2.10445 4.82722 0
M  V30 17714 H 1663 -1.13161 3.60559 0
M  V30 17715 H 1663.31 -1.70995 7.53645 0
M  V30 17716 H 1661.66 -1.54458 6.77619 0
M  V30 17717 H 1664.85 -1.3211 4.49071 0
M  V30 17718 H 1665.02 -1.58505 6.28315 0
M  V30 17719 N 1658.43 -1.46001 -0.593424 0
M  V30 17720 C 1659.36 -1.51774 -1.71748 0
M  V30 17721 C 1660.37 -0.407093 -1.57628 0
M  V30 17722 O 1661.56 -0.674903 -1.65249 0
M  V30 17723 C 1658.66 -1.3718 -3.09895 0
M  V30 17724 C 1657.84 -2.62173 -3.5012 0
M  V30 17725 C 1656.89 -2.41933 -4.67285 0
M  V30 17726 O 1655.92 -3.15611 -4.73686 0
M  V30 17727 N 1657.12 -1.47405 -5.61473 0
M  V30 17728 H 1659.89 -2.48689 -1.67253 0
M  V30 17729 H 1657.45 -1.41921 -0.779111 0
M  V30 17730 H 1659.44 -1.21428 -3.86054 0
M  V30 17731 H 1658.01 -0.484876 -3.08817 0
M  V30 17732 H 1657.23 -2.92943 -2.63777 0
M  V30 17733 H 1658.52 -3.45229 -3.73758 0
M  V30 17734 H 1657.92 -0.866282 -5.59028 0
M  V30 17735 H 1656.47 -1.3762 -6.37106 0
M  V30 17736 N 1659.91 0.83715 -1.33527 0
M  V30 17737 C 1660.85 1.96849 -1.23908 0
M  V30 17738 C 1661.85 1.6882 -0.140096 0
M  V30 17739 O 1663.05 1.77411 -0.304166 0
M  V30 17740 H 1659.43 0.646232 -0.384562 0
M  V30 17741 H 1661.4 2.02087 -2.19552 0
M  V30 17742 C 1660.15 3.33102 -0.996907 0
M  V30 17743 H 1659.47 3.5521 -1.83482 0
M  V30 17744 H 1660.91 4.12757 -0.96991 0
M  V30 17745 C 1659.37 3.3556 0.30013 0
M  V30 17746 O 1659.9 3.79868 1.30626 0
M  V30 17747 N 1658.11 2.8874 0.328269 0
M  V30 17748 H 1657.65 2.52877 -0.491043 0
M  V30 17749 H 1657.61 2.90767 1.19591 0
M  V30 17750 N 1661.38 1.17024 1.05561 0
M  V30 17751 C 1662.32 0.827019 2.12687 0
M  V30 17752 C 1663.3 -0.204573 1.61308 0
M  V30 17753 O 1664.48 -0.0869578 1.88299 0
M  V30 17754 C 1661.61 0.233018 3.37897 0
M  V30 17755 C 1660.65 1.2394 4.08094 0
M  V30 17756 S 1661.49 2.78918 4.57127 0
M  V30 17757 C 1662.64 2.20988 5.8559 0
M  V30 17758 H 1662.87 1.73431 2.41472 0
M  V30 17759 H 1660.41 0.994498 1.18106 0
M  V30 17760 H 1662.37 -0.103221 4.1037 0
M  V30 17761 H 1661.03 -0.652154 3.07255 0
M  V30 17762 H 1660.22 0.772359 4.98047 0
M  V30 17763 H 1659.82 1.5211 3.4167 0
M  V30 17764 H 1662.11 1.58313 6.58744 0
M  V30 17765 H 1663.06 3.0918 6.37035 0
M  V30 17766 H 1663.46 1.64583 5.39975 0
M  V30 17767 N 1662.86 -1.24221 0.969889 0
M  V30 17768 C 1664.11 -1.91973 0.631725 0
M  V30 17769 C 1664.43 -1.76169 -0.836032 0
M  V30 17770 O 1663.7 -1.13459 -1.597 0
M  V30 17771 H 1662.28 -0.710497 0.230658 0
M  V30 17772 H 1664.94 -1.51069 1.23143 0
M  V30 17773 H 1664.04 -2.99606 0.874223 0
M  V30 17774 N 1664.34 -0.740267 -1.39132 0
M  V30 17775 C 1665.27 -0.064087 -2.2911 0
M  V30 17776 C 1666.29 0.697897 -1.47082 0
M  V30 17777 O 1667.47 0.541189 -1.70098 0
M  V30 17778 C 1664.57 0.933426 -3.25792 0
M  V30 17779 C 1663.75 0.231867 -4.36785 0
M  V30 17780 C 1662.81 1.13823 -5.13742 0
M  V30 17781 O 1661.83 0.613741 -5.65881 0
M  V30 17782 N 1663.03 2.46751 -5.25447 0
M  V30 17783 H 1665.8 -0.836774 -2.87781 0
M  V30 17784 H 1663.36 -0.589928 -1.5077 0
M  V30 17785 H 1665.35 1.5425 -3.74151 0
M  V30 17786 H 1663.92 1.60728 -2.68114 0
M  V30 17787 H 1663.14 -0.557747 -3.90234 0
M  V30 17788 H 1664.43 -0.254115 -5.08165 0
M  V30 17789 H 1663.83 2.91834 -4.84613 0
M  V30 17790 H 1662.39 3.02741 -5.77227 0
M  V30 17791 N 1665.82 1.49844 -0.488302 0
M  V30 17792 C 1666.77 2.25802 0.315853 0
M  V30 17793 C 1667.75 1.30108 0.946606 0
M  V30 17794 O 1668.94 1.54908 0.856306 0
M  V30 17795 C 1666.07 3.14024 1.38723 0
M  V30 17796 C 1665.16 4.17174 0.763348 0
M  V30 17797 N 1665.55 5.05642 -0.126544 0
M  V30 17798 C 1663.85 4.34053 1.02537 0
M  V30 17799 C 1664.55 5.79696 -0.482379 0
M  V30 17800 N 1663.53 5.43402 0.146639 0
M  V30 17801 H 1667.33 2.91569 -0.369397 0
M  V30 17802 H 1664.84 1.59538 -0.30355 0
M  V30 17803 H 1666.84 3.67061 1.97666 0
M  V30 17804 H 1665.5 2.49807 2.07429 0
M  V30 17805 H 1666.51 5.15514 -0.49653 0
M  V30 17806 H 1663.19 3.81048 1.70613 0
M  V30 17807 H 1664.58 6.60921 -1.20965 0
M  V30 17808 N 1667.3 0.221601 1.56034 0
M  V30 17809 C 1668.23 -0.683171 2.23282 0
M  V30 17810 C 1669.21 -1.20101 1.20456 0
M  V30 17811 O 1670.39 -1.245 1.49041 0
M  V30 17812 C 1667.52 -1.89143 2.91277 0
M  V30 17813 C 1666.48 -1.50742 4.00576 0
M  V30 17814 C 1665.8 -2.79446 4.55867 0
M  V30 17815 C 1667.1 -0.697388 5.17623 0
M  V30 17816 H 1668.8 -0.122488 2.99149 0
M  V30 17817 H 1666.34 -0.0574732 1.43885 0
M  V30 17818 H 1668.3 -2.52982 3.37013 0
M  V30 17819 H 1667.02 -2.47708 2.12858 0
M  V30 17820 H 1665.68 -0.892492 3.5557 0
M  V30 17821 H 1665.33 -3.36155 3.74177 0
M  V30 17822 H 1665.03 -2.54486 5.29633 0
M  V30 17823 H 1666.55 -3.44228 5.04321 0
M  V30 17824 H 1667.96 -1.23948 5.59741 0
M  V30 17825 H 1666.36 -0.544875 5.97621 0
M  V30 17826 H 1667.43 0.295981 4.83996 0
M  V30 17827 N 1668.77 -1.57515 -0.0517878 0
M  V30 17828 C 1670.05 -1.79321 -0.781233 0
M  V30 17829 C 1670.43 -0.814142 -1.94769 0
M  V30 17830 O 1669.78 0.14858 -2.28016 0
M  V30 17831 C 1669.99 -3.26398 -1.23553 0
M  V30 17832 C 1671.34 -3.90773 -1.66077 0
M  V30 17833 O 1672.36 -3.3041 -1.33069 0
M  V30 17834 O 1671.22 -4.97008 -2.27257 0
M  V30 17835 H 1668.31 -0.736627 -0.375912 0
M  V30 17836 H 1670.86 -1.69673 -0.0303173 0
M  V30 17837 H 1669.63 -3.89232 -0.401806 0
M  V30 17838 H 1669.26 -3.40848 -2.04716 0
M  V30 17839 N 1670.25 0.323614 -1.54242 0
M  V30 17840 C 1671.5 1.06314 -1.727 0
M  V30 17841 C 1671.83 1.87674 -0.499225 0
M  V30 17842 O 1671.11 1.87862 0.503805 0
M  V30 17843 C 1671.39 1.9879 -3.00258 0
M  V30 17844 C 1671.24 1.2076 -4.33286 0
M  V30 17845 C 1672.56 2.98314 -3.23569 0
M  V30 17846 H 1669.68 0.385101 -0.628384 0
M  V30 17847 H 1672.32 0.339801 -1.86937 0
M  V30 17848 H 1670.47 2.60468 -2.88251 0
M  V30 17849 H 1672.15 0.615425 -4.57176 0
M  V30 17850 H 1670.39 0.509878 -4.30793 0
M  V30 17851 H 1671.06 1.88662 -5.18759 0
M  V30 17852 H 1673.54 2.46757 -3.35037 0
M  V30 17853 H 1672.41 3.60204 -4.14179 0
M  V30 17854 H 1672.67 3.7077 -2.40795 0
M  V30 17855 N 1671.73 1.46313 0.585673 0
M  V30 17856 C 1672.68 1.56653 1.69495 0
M  V30 17857 C 1673.65 0.411007 1.60935 0
M  V30 17858 O 1674.83 0.627369 1.80191 0
M  V30 17859 C 1671.97 1.55996 3.0783 0
M  V30 17860 C 1671.09 2.82261 3.27036 0
M  V30 17861 C 1670.22 2.73129 4.55603 0
M  V30 17862 C 1669.26 3.94346 4.68143 0
M  V30 17863 N 1668.4 3.83617 5.88032 0
M  V30 17864 H 1673.24 2.51407 1.59995 0
M  V30 17865 H 1670.77 1.24729 0.779821 0
M  V30 17866 H 1672.73 1.53602 3.87895 0
M  V30 17867 H 1671.36 0.647766 3.16234 0
M  V30 17868 H 1670.41 2.94648 2.40596 0
M  V30 17869 H 1671.73 3.72107 3.32171 0
M  V30 17870 H 1670.88 2.68823 5.43893 0
M  V30 17871 H 1669.62 1.80917 4.52902 0
M  V30 17872 H 1668.62 3.98987 3.78272 0
M  V30 17873 H 1669.85 4.8765 4.72625 0
M  V30 17874 H 1667.8 2.9419 5.86334 0
M  V30 17875 H 1667.71 4.67117 5.94422 0
M  V30 17876 H 1668.98 3.83281 6.7876 0
M  V30 17877 N 1673.21 -0.830057 1.33969 0
M  V30 17878 C 1674.14 -1.95557 1.27592 0
M  V30 17879 C 1675.12 -1.69395 0.154745 0
M  V30 17880 O 1676.31 -1.91094 0.345954 0
M  V30 17881 C 1673.44 -3.31881 1.02335 0
M  V30 17882 C 1672.39 -3.72464 2.10842 0
M  V30 17883 C 1671.72 -5.06692 1.70785 0
M  V30 17884 C 1673.02 -3.85315 3.52604 0
M  V30 17885 H 1674.71 -2.0115 2.21763 0
M  V30 17886 H 1672.26 -0.96639 1.06756 0
M  V30 17887 H 1674.21 -4.10197 0.965206 0
M  V30 17888 H 1672.93 -3.26568 0.0460462 0
M  V30 17889 H 1671.59 -2.96417 2.15714 0
M  V30 17890 H 1671.24 -4.97859 0.717334 0
M  V30 17891 H 1670.94 -5.34817 2.43403 0
M  V30 17892 H 1672.46 -5.87474 1.66452 0
M  V30 17893 H 1673.88 -4.5392 3.50185 0
M  V30 17894 H 1672.27 -4.24886 4.23783 0
M  V30 17895 H 1673.34 -2.87514 3.90466 0
M  V30 17896 N 1674.69 -1.17582 -1.04939 0
M  V30 17897 C 1675.93 -0.967208 -1.7825 0
M  V30 17898 C 1676.27 0.502711 -1.87581 0
M  V30 17899 O 1675.54 1.37318 -1.37746 0
M  V30 17900 C 1675.82 -1.61205 -3.22001 0
M  V30 17901 C 1675.68 -3.15424 -3.20667 0
M  V30 17902 C 1677 -1.31804 -4.199 0
M  V30 17903 H 1674.12 -0.35279 -0.647077 0
M  V30 17904 H 1676.76 -1.45119 -1.2264 0
M  V30 17905 H 1674.91 -1.20052 -3.69486 0
M  V30 17906 H 1676.58 -3.65653 -2.8124 0
M  V30 17907 H 1674.82 -3.48042 -2.58938 0
M  V30 17908 H 1675.49 -3.55674 -4.22138 0
M  V30 17909 H 1677.97 -1.67446 -3.80921 0
M  V30 17910 H 1676.85 -1.79505 -5.18719 0
M  V30 17911 H 1677.11 -0.239304 -4.41452 0
M  V30 17912 N 1676.17 1.23705 -0.976463 0
M  V30 17913 C 1677.58 1.73848 -0.680723 0
M  V30 17914 C 1677.93 1.79005 0.803228 0
M  V30 17915 O 1677.05 1.42529 1.62832 0
M  V30 17916 C 1677.65 3.15724 -1.22898 0
M  V30 17917 C 1676.21 3.63338 -0.982963 0
M  V30 17918 C 1675.35 2.41712 -1.35906 0
M  V30 17919 H 1678.3 1.09284 -1.15077 0
M  V30 17920 H 1678.33 3.75748 -0.599487 0
M  V30 17921 H 1677.84 3.11938 -2.30903 0
M  V30 17922 H 1675.94 3.72512 0.0811766 0
M  V30 17923 H 1676.05 4.50347 -1.63477 0
M  V30 17924 H 1674.42 2.42543 -0.777498 0
M  V30 17925 H 1675.2 2.40601 -2.4488 0
M  V30 17926 N 1677.64 0.747635 1.38738 0
M  V30 17927 C 1678.87 0.310484 2.05063 0
M  V30 17928 C 1679.29 -1.05078 1.56013 0
M  V30 17929 O 1678.65 -1.66842 0.709461 0
M  V30 17930 C 1678.7 0.335837 3.59033 0
M  V30 17931 O 1677.8 -0.672218 4.06884 0
M  V30 17932 H 1677.14 0.138591 0.649375 0
M  V30 17933 H 1679.67 1.01709 1.77529 0
M  V30 17934 H 1679.68 0.184631 4.07582 0
M  V30 17935 H 1678.36 1.32906 3.94092 0
M  V30 17936 H 1676.94 -0.486112 3.69718 0
M  V30 17937 N 1679.12 -1.49583 0.496242 0
M  V30 17938 C 1680.35 -2.07342 -0.0490986 0
M  V30 17939 C 1680.77 -1.35474 -1.30493 0
M  V30 17940 O 1680.13 -0.410005 -1.76603 0
M  V30 17941 C 1680.18 -3.59427 -0.290601 0
M  V30 17942 O 1679.28 -3.89111 -1.36626 0
M  V30 17943 H 1678.62 -0.663562 0.0241141 0
M  V30 17944 H 1681.15 -1.92452 0.6945 0
M  V30 17945 H 1681.16 -4.04627 -0.523549 0
M  V30 17946 H 1679.84 -4.11147 0.626959 0
M  V30 17947 H 1678.41 -3.55726 -1.11864 0
M  V30 17948 N 1680.6 -0.229873 -1.55915 0
M  V30 17949 C 1681.82 0.4072 -2.03363 0
M  V30 17950 C 1682.25 1.5197 -1.10845 0
M  V30 17951 O 1681.61 1.81034 -0.098175 0
M  V30 17952 C 1681.66 0.908268 -3.48974 0
M  V30 17953 O 1680.76 2.01907 -3.59593 0
M  V30 17954 H 1680.1 0.091091 -0.657722 0
M  V30 17955 H 1682.63 -0.350947 -2.01568 0
M  V30 17956 H 1682.64 1.21593 -3.8946 0
M  V30 17957 H 1681.32 0.0940655 -4.15794 0
M  V30 17958 H 1679.89 1.71741 -3.30998 0
M  V30 17959 N 1682.08 1.5754 0.0434337 0
M  V30 17960 C 1683.31 1.92577 0.748182 0
M  V30 17961 C 1683.72 0.826758 1.7018 0
M  V30 17962 O 1683.06 -0.206713 1.82533 0
M  V30 17963 C 1683.12 3.23309 1.57199 0
M  V30 17964 C 1682.78 4.50213 0.784705 0
M  V30 17965 C 1683.78 5.1982 0.091305 0
M  V30 17966 C 1681.47 4.96767 0.74349 0
M  V30 17967 C 1683.46 6.34251 -0.632768 0
M  V30 17968 C 1681.15 6.11098 0.0156621 0
M  V30 17969 C 1682.15 6.79694 -0.67124 0
M  V30 17970 O 1681.83 7.91839 -1.38728 0
M  V30 17971 H 1681.57 0.64049 0.216213 0
M  V30 17972 H 1684.12 2.05398 0.00937223 0
M  V30 17973 H 1682.35 3.06775 2.35428 0
M  V30 17974 H 1684.04 3.43779 2.15802 0
M  V30 17975 H 1684.8 4.84865 0.11427 0
M  V30 17976 H 1680.68 4.43229 1.26763 0
M  V30 17977 H 1684.23 6.87728 -1.16947 0
M  V30 17978 H 1680.12 6.45499 -0.00927628 0
M  V30 17979 H 1680.89 8.08119 -1.29947 0
M  V30 17980 N 1683.56 -0.31543 1.54411 0
M  V30 17981 C 1684.8 -1.04997 1.72217 0
M  V30 17982 C 1685.12 -1.8891 0.507176 0
M  V30 17983 O 1686.32 -2.65519 0.566738 0
M  V30 17984 C 1684.78 -1.91633 3.04639 0
M  V30 17985 C 1684.39 -1.12792 4.33569 0
M  V30 17986 C 1686.13 -2.64774 3.31806 0
M  V30 17987 C 1684.04 -1.98621 5.57049 0
M  V30 17988 H 1682.97 -0.395716 0.641814 0
M  V30 17989 H 1685.62 -0.307748 1.80901 0
M  V30 17990 H 1684 -2.69786 2.89882 0
M  V30 17991 H 1685.18 -0.393534 4.59116 0
M  V30 17992 H 1683.49 -0.512975 4.13228 0
M  V30 17993 H 1686.09 -3.29313 4.21257 0
M  V30 17994 H 1686.43 -3.32843 2.50043 0
M  V30 17995 H 1686.96 -1.93678 3.47467 0
M  V30 17996 H 1683.7 -1.35047 6.41438 0
M  V30 17997 H 1683.22 -2.69771 5.35708 0
M  V30 17998 H 1684.9 -2.57014 5.93762 0
M  V30 17999 N 1685.03 -1.46622 -0.577906 0
M  V30 18000 C 1685.98 -1.57549 -1.68662 0
M  V30 18001 C 1686.95 -0.419536 -1.60714 0
M  V30 18002 O 1688.14 -0.636916 -1.79856 0
M  V30 18003 C 1685.28 -1.57627 -3.06998 0
M  V30 18004 C 1684.39 -2.83991 -3.25535 0
M  V30 18005 C 1683.52 -2.75541 -4.54148 0
M  V30 18006 C 1682.56 -3.96823 -4.66045 0
M  V30 18007 N 1681.7 -3.86731 -5.8599 0
M  V30 18008 H 1686.54 -2.52252 -1.58659 0
M  V30 18009 H 1684.08 -1.2514 -0.773195 0
M  V30 18010 H 1686.04 -1.55657 -3.87075 0
M  V30 18011 H 1684.67 -0.664527 -3.15886 0
M  V30 18012 H 1683.72 -2.9592 -2.3903 0
M  V30 18013 H 1685.03 -3.73864 -3.30193 0
M  V30 18014 H 1684.18 -2.71703 -5.42459 0
M  V30 18015 H 1682.92 -1.83317 -4.51936 0
M  V30 18016 H 1681.93 -4.00987 -3.76151 0
M  V30 18017 H 1683.15 -4.90149 -4.70033 0
M  V30 18018 H 1681.1 -2.97296 -5.84766 0
M  V30 18019 H 1681.02 -4.70263 -5.91937 0
M  V30 18020 H 1682.28 -3.86876 -6.76718 0
M  V30 18021 N 1686.51 0.822941 -1.34408 0
M  V30 18022 C 1687.76 1.58149 -1.26951 0
M  V30 18023 C 1688.09 1.93538 0.160222 0
M  V30 18024 O 1687.37 1.60021 1.1056 0
M  V30 18025 C 1687.65 2.88101 -2.16032 0
M  V30 18026 C 1687.5 2.59293 -3.67542 0
M  V30 18027 C 1688.82 3.89673 -2.04556 0
M  V30 18028 H 1685.94 0.573811 -0.462504 0
M  V30 18029 H 1688.58 0.948017 -1.64659 0
M  V30 18030 H 1686.73 3.42162 -1.84003 0
M  V30 18031 H 1688.4 2.11542 -4.09936 0
M  V30 18032 H 1686.65 1.92738 -3.88632 0
M  V30 18033 H 1687.32 3.51962 -4.25238 0
M  V30 18034 H 1689.79 3.44965 -2.32677 0
M  V30 18035 H 1688.67 4.78404 -2.69111 0
M  V30 18036 H 1688.93 4.30113 -1.02253 0
M  V30 18037 N 1687.99 1.18137 1.04314 0
M  V30 18038 C 1689.24 0.976648 1.77734 0
M  V30 18039 C 1689.57 -0.492756 1.87844 0
M  V30 18040 O 1688.84 -1.36586 1.38472 0
M  V30 18041 C 1689.13 1.62911 3.21142 0
M  V30 18042 C 1688.98 3.1712 3.1899 0
M  V30 18043 C 1690.3 1.34029 4.19195 0
M  V30 18044 H 1687.42 0.356217 0.645197 0
M  V30 18045 H 1690.06 1.45767 1.21868 0
M  V30 18046 H 1688.21 1.22009 3.68844 0
M  V30 18047 H 1689.88 3.67139 2.79296 0
M  V30 18048 H 1688.13 3.4941 2.57089 0
M  V30 18049 H 1688.8 3.57907 4.20245 0
M  V30 18050 H 1691.27 1.69463 3.80028 0
M  V30 18051 H 1690.15 1.82253 5.1776 0
M  V30 18052 H 1690.41 0.262712 4.41319 0
M  V30 18053 N 1689.47 -1.23186 0.98301 0
M  V30 18054 C 1690.42 -2.24748 0.525082 0
M  V30 18055 C 1691.39 -1.60237 -0.437411 0
M  V30 18056 O 1692.57 -1.87666 -0.344376 0
M  V30 18057 C 1689.71 -3.44711 -0.163809 0
M  V30 18058 C 1688.82 -4.23769 0.839254 0
M  V30 18059 C 1687.96 -5.31053 0.1249 0
M  V30 18060 C 1687 -6.01822 1.117 0
M  V30 18061 N 1686.13 -7.00772 0.431625 0
M  V30 18062 H 1690.97 -2.63283 1.39593 0
M  V30 18063 H 1688.51 -1.29407 0.699438 0
M  V30 18064 H 1690.47 -4.13148 -0.580046 0
M  V30 18065 H 1689.1 -3.06969 -0.998507 0
M  V30 18066 H 1688.15 -3.54724 1.37386 0
M  V30 18067 H 1689.46 -4.72606 1.59515 0
M  V30 18068 H 1688.62 -6.05698 -0.348569 0
M  V30 18069 H 1687.36 -4.83165 -0.663573 0
M  V30 18070 H 1686.36 -5.25967 1.6012 0
M  V30 18071 H 1687.59 -6.51799 1.90618 0
M  V30 18072 H 1685.53 -6.55131 -0.337592 0
M  V30 18073 H 1685.45 -7.47566 1.12613 0
M  V30 18074 H 1686.72 -7.79498 -0.0193703 0
M  V30 18075 N 1690.95 -0.754982 -1.38339 0
M  V30 18076 C 1691.91 -0.136457 -2.28793 0
M  V30 18077 C 1692.91 0.646016 -1.47252 0
M  V30 18078 O 1694.1 0.472077 -1.67681 0
M  V30 18079 C 1691.23 0.815058 -3.31013 0
M  V30 18080 H 1692.42 -0.933619 -2.84997 0
M  V30 18081 H 1689.98 -0.522082 -1.47323 0
M  V30 18082 H 1690.71 1.63785 -2.79902 0
M  V30 18083 H 1690.5 0.256363 -3.91261 0
M  V30 18084 H 1691.99 1.24378 -3.98648 0
M  V30 18085 N 1692.42 1.49318 -0.504168 0
M  V30 18086 C 1693.67 2.02462 0.0392265 0
M  V30 18087 C 1694 1.38359 1.36701 0
M  V30 18088 O 1693.25 0.509579 1.88949 0
M  V30 18089 C 1693.55 3.56613 0.237041 0
M  V30 18090 C 1693.22 4.3937 -1.01314 0
M  V30 18091 C 1691.88 4.61704 -1.35583 0
M  V30 18092 C 1694.23 4.8749 -1.84399 0
M  V30 18093 C 1691.56 5.29403 -2.52882 0
M  V30 18094 C 1693.91 5.56479 -3.00854 0
M  V30 18095 C 1692.58 5.77058 -3.35499 0
M  V30 18096 H 1691.85 0.740861 0.014354 0
M  V30 18097 H 1694.49 1.79584 -0.664967 0
M  V30 18098 H 1692.8 3.78188 1.02379 0
M  V30 18099 H 1694.5 3.95329 0.671987 0
M  V30 18100 H 1691.09 4.2223 -0.736213 0
M  V30 18101 H 1695.27 4.7006 -1.59238 0
M  V30 18102 H 1690.53 5.43538 -2.79958 0
M  V30 18103 H 1694.7 5.9274 -3.65558 0
M  V30 18104 H 1692.33 6.29291 -4.26494 0
M  V30 18105 N 1693.9 0.238138 1.5579 0
M  V30 18106 C 1694.85 -0.678829 2.1766 0
M  V30 18107 C 1695.84 -1.14558 1.12984 0
M  V30 18108 O 1697.03 -1.09681 1.38921 0
M  V30 18109 C 1694.16 -1.8794 2.87286 0
M  V30 18110 C 1693.24 -1.43156 3.99208 0
M  V30 18111 N 1693.63 -0.697374 5.00969 0
M  V30 18112 C 1691.93 -1.71755 4.11602 0
M  V30 18113 C 1692.63 -0.466696 5.79825 0
M  V30 18114 N 1691.61 -1.02832 5.33785 0
M  V30 18115 H 1695.41 -0.109646 2.93695 0
M  V30 18116 H 1692.93 0.0400828 1.62351 0
M  V30 18117 H 1694.92 -2.54724 3.30033 0
M  V30 18118 H 1693.58 -2.45289 2.12752 0
M  V30 18119 H 1694.59 -0.348366 5.16727 0
M  V30 18120 H 1691.27 -2.30305 3.48232 0
M  V30 18121 H 1692.66 0.118813 6.71795 0
M  V30 18122 N 1695.38 -1.57561 -0.0350783 0
M  V30 18123 C 1696.61 -1.93644 -0.742753 0
M  V30 18124 C 1697.03 -0.837655 -1.68419 0
M  V30 18125 O 1696.39 0.207069 -1.80114 0
M  V30 18126 C 1696.44 -3.28779 -1.48111 0
M  V30 18127 O 1695.54 -3.20604 -2.59398 0
M  V30 18128 H 1694.88 -0.633103 -0.200192 0
M  V30 18129 H 1697.41 -2.04599 0.00765271 0
M  V30 18130 H 1697.42 -3.63527 -1.85236 0
M  V30 18131 H 1696.1 -4.08316 -0.790608 0
M  V30 18132 H 1694.67 -2.97477 -2.2486 0
M  V30 18133 N 1696.86 0.307236 -1.54576 0
M  V30 18134 C 1698.08 1.06668 -1.77867 0
M  V30 18135 C 1698.51 1.80375 -0.533536 0
M  V30 18136 O 1697.87 1.73812 0.515663 0
M  V30 18137 C 1697.91 2.02777 -2.98184 0
M  V30 18138 O 1697.02 3.10969 -2.70872 0
M  V30 18139 H 1696.36 0.306741 -0.588902 0
M  V30 18140 H 1698.89 0.346557 -2.01644 0
M  V30 18141 H 1698.9 2.45355 -3.25983 0
M  V30 18142 H 1697.57 1.48534 -3.88472 0
M  V30 18143 H 1696.15 2.7295 -2.54072 0
M  V30 18144 N 1698.34 1.46926 0.570122 0
M  V30 18145 C 1699.27 1.61311 1.68822 0
M  V30 18146 C 1700.25 0.462964 1.63678 0
M  V30 18147 O 1701.43 0.690745 1.815 0
M  V30 18148 C 1698.56 1.61499 3.07466 0
M  V30 18149 C 1697.52 2.7561 3.27449 0
M  V30 18150 C 1696.84 2.60865 4.66748 0
M  V30 18151 C 1698.14 4.17324 3.14067 0
M  V30 18152 H 1699.84 2.54909 1.5704 0
M  V30 18153 H 1697.38 1.22677 0.754077 0
M  V30 18154 H 1699.34 1.70155 3.8552 0
M  V30 18155 H 1698.06 0.64453 3.20177 0
M  V30 18156 H 1696.72 2.66444 2.51799 0
M  V30 18157 H 1696.37 1.61875 4.76241 0
M  V30 18158 H 1696.07 3.37411 4.81069 0
M  V30 18159 H 1697.59 2.7143 5.46954 0
M  V30 18160 H 1699 4.27534 3.81952 0
M  V30 18161 H 1697.4 4.94555 3.39905 0
M  V30 18162 H 1698.47 4.36596 2.10979 0
M  V30 18163 N 1699.82 -0.815801 1.34842 0
M  V30 18164 C 1700.77 -1.9162 1.23555 0
M  V30 18165 C 1701.75 -1.6035 0.132922 0
M  V30 18166 O 1702.94 -1.73232 0.363269 0
M  V30 18167 C 1700.07 -3.284 1.00043 0
M  V30 18168 C 1699.16 -3.65765 2.14655 0
M  V30 18169 N 1699.55 -3.74639 3.39822 0
M  V30 18170 C 1697.85 -3.9566 2.05837 0
M  V30 18171 C 1698.55 -4.07478 4.15135 0
M  V30 18172 N 1697.52 -4.21075 3.43797 0
M  V30 18173 H 1701.32 -1.96669 2.184 0
M  V30 18174 H 1698.84 -1.00987 1.27183 0
M  V30 18175 H 1700.84 -4.07059 0.900462 0
M  V30 18176 H 1699.5 -3.24643 0.0607337 0
M  V30 18177 H 1700.51 -3.57951 3.74288 0
M  V30 18178 H 1697.18 -3.99982 1.19667 0
M  V30 18179 H 1698.57 -4.21488 5.23257 0
M  V30 18180 N 1701.29 -1.18689 -1.03686 0
M  V30 18181 C 1702.2 -0.932473 -2.15272 0
M  V30 18182 C 1703.22 0.104751 -1.73684 0
M  V30 18183 O 1704.4 -0.0780471 -2.01249 0
M  V30 18184 C 1701.46 -0.465807 -3.43557 0
M  V30 18185 C 1700.52 -1.57146 -3.99504 0
M  V30 18186 C 1699.75 -1.12696 -5.21666 0
M  V30 18187 O 1699.98 0.0127657 -5.70399 0
M  V30 18188 O 1698.91 -1.92627 -5.70244 0
M  V30 18189 H 1702.74 -1.86626 -2.39592 0
M  V30 18190 H 1700.32 -0.969029 -1.13711 0
M  V30 18191 H 1702.2 -0.213819 -4.20857 0
M  V30 18192 H 1700.88 0.43964 -3.20701 0
M  V30 18193 H 1699.79 -1.8775 -3.23575 0
M  V30 18194 H 1701.12 -2.45317 -4.26709 0
M  V30 18195 N 1702.77 1.22662 -0.989529 0
M  V30 18196 C 1704 1.95883 -0.681511 0
M  V30 18197 C 1704.42 1.72646 0.746646 0
M  V30 18198 O 1703.78 1.00358 1.5099 0
M  V30 18199 C 1703.83 3.46773 -0.988975 0
M  V30 18200 O 1702.93 4.12311 -0.0858485 0
M  V30 18201 H 1702.27 0.612916 -0.255401 0
M  V30 18202 H 1704.8 1.5585 -1.32559 0
M  V30 18203 H 1704.81 3.97273 -0.929426 0
M  V30 18204 H 1703.49 3.63011 -2.02967 0
M  V30 18205 H 1702.06 3.7236 -0.200592 0
M  V30 18206 N 1704.25 0.762308 1.37937 0
M  V30 18207 C 1705.5 0.319104 1.9916 0
M  V30 18208 C 1705.81 -1.10787 1.61201 0
M  V30 18209 O 1707.02 -1.65198 2.15457 0
M  V30 18210 C 1705.47 0.519582 3.5613 0
M  V30 18211 C 1705.08 1.9562 4.03034 0
M  V30 18212 C 1706.83 0.139528 4.24271 0
M  V30 18213 C 1704.73 2.10478 5.52678 0
M  V30 18214 H 1703.66 0.115564 0.745091 0
M  V30 18215 H 1706.31 0.940092 1.5759 0
M  V30 18216 H 1704.7 -0.170724 3.95632 0
M  V30 18217 H 1705.87 2.68069 3.74801 0
M  V30 18218 H 1704.18 2.29197 3.47646 0
M  V30 18219 H 1706.78 0.22918 5.34209 0
M  V30 18220 H 1707.12 -0.908999 4.06255 0
M  V30 18221 H 1707.66 0.782019 3.90038 0
M  V30 18222 H 1704.4 3.13616 5.75609 0
M  V30 18223 H 1703.92 1.42501 5.82626 0
M  V30 18224 H 1705.6 1.89887 6.18508 0
M  V30 18225 N 1705.73 -1.49049 0.51208 0
M  V30 18226 C 1706.66 -2.27264 -0.297278 0
M  V30 18227 C 1707.67 -1.34266 -0.920674 0
M  V30 18228 O 1708.86 -1.59461 -0.80214 0
M  V30 18229 C 1705.96 -3.07042 -1.43452 0
M  V30 18230 C 1705.13 -4.27693 -0.916376 0
M  V30 18231 C 1704.19 -4.89427 -1.93256 0
M  V30 18232 O 1703.22 -5.49171 -1.49666 0
M  V30 18233 N 1704.42 -4.80066 -3.26369 0
M  V30 18234 H 1707.19 -2.97364 0.373445 0
M  V30 18235 H 1704.75 -1.58175 0.3453 0
M  V30 18236 H 1706.74 -3.45213 -2.1121 0
M  V30 18237 H 1705.31 -2.39478 -2.0092 0
M  V30 18238 H 1704.53 -3.94149 -0.0633415 0
M  V30 18239 H 1705.82 -5.05832 -0.548786 0
M  V30 18240 H 1705.22 -4.32646 -3.64464 0
M  V30 18241 H 1703.77 -5.2239 -3.89811 0
M  V30 18242 N 1707.21 -0.246397 -1.55662 0
M  V30 18243 C 1708.15 0.653368 -2.21359 0
M  V30 18244 C 1709.12 1.1717 -1.1773 0
M  V30 18245 O 1710.31 1.22626 -1.46176 0
M  V30 18246 C 1707.45 1.84484 -2.9165 0
M  V30 18247 C 1706.56 1.36308 -4.09932 0
M  V30 18248 C 1705.7 2.51407 -4.6794 0
M  V30 18249 C 1704.73 2.0009 -5.78472 0
M  V30 18250 N 1703.87 3.08555 -6.30665 0
M  V30 18251 H 1708.71 0.0864458 -2.97875 0
M  V30 18252 H 1706.25 0.0309074 -1.47068 0
M  V30 18253 H 1708.21 2.54476 -3.30602 0
M  V30 18254 H 1706.84 2.38425 -2.17609 0
M  V30 18255 H 1705.89 0.557224 -3.76297 0
M  V30 18256 H 1707.2 0.946988 -4.89728 0
M  V30 18257 H 1706.35 3.29442 -5.09463 0
M  V30 18258 H 1705.09 2.96318 -3.87359 0
M  V30 18259 H 1704.1 1.20526 -5.36427 0
M  V30 18260 H 1705.32 1.5615 -6.60904 0
M  V30 18261 H 1703.27 3.529 -5.52989 0
M  V30 18262 H 1703.19 2.71274 -7.05653 0
M  V30 18263 H 1704.45 3.8665 -6.76847 0
M  V30 18264 N 1708.68 1.57577 0.026722 0
M  V30 18265 C 1710.09 1.77689 0.573022 0
M  V30 18266 C 1710.45 0.877771 1.7547 0
M  V30 18267 O 1709.57 0.0732156 2.16276 0
M  V30 18268 C 1710.17 3.22239 1.0463 0
M  V30 18269 C 1708.72 3.4354 1.5381 0
M  V30 18270 C 1707.87 2.73163 0.47722 0
M  V30 18271 H 1710.82 1.57441 -0.199502 0
M  V30 18272 H 1710.84 3.28882 1.91355 0
M  V30 18273 H 1710.36 3.87654 0.186047 0
M  V30 18274 H 1708.46 2.83304 2.42012 0
M  V30 18275 H 1708.57 4.52158 1.58398 0
M  V30 18276 H 1706.93 2.37004 0.932793 0
M  V30 18277 H 1707.72 3.41261 -0.373605 0
M  V30 18278 N 1710.16 -0.299034 1.54737 0
M  V30 18279 C 1711.39 -1.05138 1.77847 0
M  V30 18280 C 1711.8 -1.81359 0.53902 0
M  V30 18281 O 1711.14 -1.76742 -0.500783 0
M  V30 18282 C 1711.2 -2.07681 2.93443 0
M  V30 18283 C 1710.87 -1.50636 4.3146 0
M  V30 18284 C 1711.87 -0.935378 5.11416 0
M  V30 18285 C 1709.55 -1.5414 4.78065 0
M  V30 18286 C 1711.54 -0.407022 6.36099 0
M  V30 18287 C 1709.23 -1.00917 6.0271 0
M  V30 18288 C 1710.23 -0.442956 6.81562 0
M  V30 18289 O 1709.92 0.081192 8.03859 0
M  V30 18290 H 1709.65 -0.317487 0.596807 0
M  V30 18291 H 1712.2 -0.343249 2.02512 0
M  V30 18292 H 1710.43 -2.82179 2.64408 0
M  V30 18293 H 1712.12 -2.68832 3.04112 0
M  V30 18294 H 1712.89 -0.901197 4.76554 0
M  V30 18295 H 1708.77 -1.9715 4.16717 0
M  V30 18296 H 1712.31 0.035577 6.97591 0
M  V30 18297 H 1708.21 -1.04051 6.37059 0
M  V30 18298 H 1708.98 -0.031922 8.18494 0
M  V30 18299 N 1711.64 -1.47227 -0.562322 0
M  V30 18300 C 1712.59 -1.59729 -1.69084 0
M  V30 18301 C 1713.58 -0.464812 -1.62898 0
M  V30 18302 O 1714.79 -0.642429 -1.68145 0
M  V30 18303 H 1711.16 -0.502579 -0.559391 0
M  V30 18304 H 1713.13 -2.54573 -1.55676 0
M  V30 18305 C 1711.88 -1.62394 -3.07447 0
M  V30 18306 H 1711.21 -2.48882 -3.12887 0
M  V30 18307 H 1712.65 -1.75192 -3.86114 0
M  V30 18308 C 1711.1 -0.356287 -3.35011 0
M  V30 18309 O 1711.63 0.544818 -3.97988 0
M  V30 18310 N 1709.84 -0.237888 -2.89625 0
M  V30 18311 H 1709.39 -0.9721 -2.38554 0
M  V30 18312 H 1709.35 0.609348 -3.08438 0
M  V30 18313 N 1713.12 0.808639 -1.35273 0
M  V30 18314 C 1714.05 1.92839 -1.23878 0
M  V30 18315 C 1715.06 1.61987 -0.162543 0
M  V30 18316 O 1716.25 1.73593 -0.41564 0
M  V30 18317 C 1713.35 3.27158 -0.884369 0
M  V30 18318 C 1712.52 3.85931 -2.05855 0
M  V30 18319 C 1711.58 4.98652 -1.68025 0
M  V30 18320 O 1710.61 5.16188 -2.39871 0
M  V30 18321 N 1711.81 5.77363 -0.602684 0
M  V30 18322 H 1714.58 2.03141 -2.20349 0
M  V30 18323 H 1712.14 0.985956 -1.28415 0
M  V30 18324 H 1714.13 4.00033 -0.612814 0
M  V30 18325 H 1712.7 3.12599 -0.00940584 0
M  V30 18326 H 1711.92 3.05274 -2.49402 0
M  V30 18327 H 1713.21 4.21929 -2.84347 0
M  V30 18328 H 1712.61 5.657 -0.00570741 0
M  V30 18329 H 1711.16 6.50627 -0.390903 0
M  V30 18330 N 1714.6 1.19237 1.03055 0
M  V30 18331 C 1715.54 0.928588 2.11296 0
M  V30 18332 C 1716.51 -0.135941 1.65543 0
M  V30 18333 O 1717.7 0.00584847 1.90799 0
M  V30 18334 C 1714.84 0.471532 3.41863 0
M  V30 18335 C 1713.95 1.60264 4.01173 0
M  V30 18336 C 1713.09 1.09729 5.19743 0
M  V30 18337 C 1712.13 2.2024 5.71105 0
M  V30 18338 N 1711.26 1.71024 6.80952 0
M  V30 18339 H 1716.1 1.85536 2.33196 0
M  V30 18340 H 1713.64 0.925029 1.14375 0
M  V30 18341 H 1715.6 0.187949 4.16776 0
M  V30 18342 H 1714.23 -0.41825 3.20079 0
M  V30 18343 H 1713.28 2.00147 3.23489 0
M  V30 18344 H 1714.59 2.43531 4.35309 0
M  V30 18345 H 1713.75 0.768832 6.01809 0
M  V30 18346 H 1712.48 0.234324 4.87137 0
M  V30 18347 H 1711.49 2.53918 4.87653 0
M  V30 18348 H 1712.71 3.06989 6.05751 0
M  V30 18349 H 1710.66 0.870334 6.50201 0
M  V30 18350 H 1710.58 2.47882 7.14206 0
M  V30 18351 H 1711.85 1.41137 7.66616 0
M  V30 18352 N 1716.07 -1.22136 0.99602 0
M  V30 18353 C 1717.3 -1.95519 0.69189 0
M  V30 18354 C 1717.72 -1.7304 -0.73748 0
M  V30 18355 O 1717.08 -1.01157 -1.50456 0
M  V30 18356 C 1717.13 -3.46244 1.00735 0
M  V30 18357 O 1716.23 -4.12259 0.107713 0
M  V30 18358 H 1715.58 -0.611553 0.258648 0
M  V30 18359 H 1718.11 -1.55145 1.33384 0
M  V30 18360 H 1718.12 -3.96774 0.950482 0
M  V30 18361 H 1716.79 -3.6193 2.04889 0
M  V30 18362 H 1715.37 -3.72248 0.220336 0
M  V30 18363 N 1717.55 -0.769612 -1.37531 0
M  V30 18364 C 1718.8 -0.329661 -1.98988 0
M  V30 18365 C 1719.11 1.0993 -1.61786 0
M  V30 18366 O 1720.32 1.64053 -2.1633 0
M  V30 18367 C 1718.78 -0.538461 -3.55849 0
M  V30 18368 C 1718.38 -1.97755 -4.01991 0
M  V30 18369 C 1720.13 -0.162026 -4.24191 0
M  V30 18370 C 1718.04 -2.13406 -5.51554 0
M  V30 18371 H 1716.97 -0.119514 -0.744468 0
M  V30 18372 H 1719.62 -0.948436 -1.57089 0
M  V30 18373 H 1718 0.14974 -3.95717 0
M  V30 18374 H 1719.17 -2.70053 -3.73374 0
M  V30 18375 H 1717.49 -2.31038 -3.46425 0
M  V30 18376 H 1720.08 -0.257508 -5.3408 0
M  V30 18377 H 1720.43 0.887442 -4.06731 0
M  V30 18378 H 1720.96 -0.802692 -3.89617 0
M  V30 18379 H 1717.7 -3.16664 -5.73937 0
M  V30 18380 H 1717.22 -1.45589 -5.81862 0
M  V30 18381 H 1718.9 -1.93165 -6.17492 0
M  V30 18382 N 1719.03 1.48775 -0.519977 0
M  V30 18383 C 1719.98 2.26421 0.267886 0
M  V30 18384 C 1720.96 1.32087 0.918795 0
M  V30 18385 O 1722.16 1.56689 0.823256 0
M  V30 18386 C 1719.29 3.16896 1.3203 0
M  V30 18387 C 1718.37 4.18699 0.674688 0
M  V30 18388 N 1718.76 5.05259 -0.233769 0
M  V30 18389 C 1717.06 4.3613 0.933071 0
M  V30 18390 C 1717.76 5.78543 -0.605233 0
M  V30 18391 N 1716.74 5.43591 0.0313426 0
M  V30 18392 H 1720.54 2.9072 -0.43116 0
M  V30 18393 H 1718.05 1.58858 -0.337322 0
M  V30 18394 H 1720.05 3.71171 1.89836 0
M  V30 18395 H 1718.71 2.5415 2.02083 0
M  V30 18396 H 1719.72 5.14345 -0.605766 0
M  V30 18397 H 1716.4 3.84581 1.62492 0
M  V30 18398 H 1717.79 6.58207 -1.34957 0
M  V30 18399 N 1720.51 0.254649 1.55529 0
M  V30 18400 C 1721.73 -0.374795 2.03985 0
M  V30 18401 C 1722.16 -1.50188 1.13249 0
M  V30 18402 O 1721.52 -1.80855 0.126963 0
M  V30 18403 C 1721.56 -0.852635 3.50375 0
M  V30 18404 O 1720.67 -1.9616 3.6276 0
M  V30 18405 H 1720.01 -0.0806157 0.659088 0
M  V30 18406 H 1722.54 0.38297 2.00984 0
M  V30 18407 H 1722.55 -1.15381 3.91345 0
M  V30 18408 H 1721.22 -0.0279044 4.15891 0
M  V30 18409 H 1719.8 -1.66453 3.33688 0
M  V30 18410 N 1721.99 -1.57589 -0.0183649 0
M  V30 18411 C 1723.23 -1.89757 -0.707008 0
M  V30 18412 C 1723.56 -0.853257 -1.74785 0
M  V30 18413 O 1722.82 0.144406 -1.95166 0
M  V30 18414 C 1723.12 -3.28677 -1.4038 0
M  V30 18415 C 1722.78 -4.48142 -0.497917 0
M  V30 18416 C 1721.44 -4.80558 -0.248444 0
M  V30 18417 C 1723.8 -5.21046 0.126883 0
M  V30 18418 C 1721.12 -5.8326 0.634428 0
M  V30 18419 C 1723.48 -6.24686 0.997521 0
M  V30 18420 C 1722.14 -6.5557 1.25635 0
M  V30 18421 H 1721.41 -0.694369 -0.258713 0
M  V30 18422 H 1724.06 -1.91471 0.0332176 0
M  V30 18423 H 1722.36 -3.23 -2.21761 0
M  V30 18424 H 1724.06 -3.50818 -1.94236 0
M  V30 18425 H 1720.65 -4.22803 -0.702519 0
M  V30 18426 H 1724.83 -4.96272 -0.0528705 0
M  V30 18427 H 1720.09 -6.05558 0.843157 0
M  V30 18428 H 1724.26 -6.80315 1.48811 0
M  V30 18429 H 1721.89 -7.34972 1.94218 0
M  V30 18430 N 1723.46 0.290824 -1.54893 0
M  V30 18431 C 1724.4 1.38393 -1.81446 0
M  V30 18432 C 1725.38 1.48322 -0.666282 0
M  V30 18433 O 1726.56 1.65225 -0.907354 0
M  V30 18434 C 1723.69 2.76211 -1.96024 0
M  V30 18435 C 1722.73 2.83655 -3.18499 0
M  V30 18436 S 1723.57 2.44713 -4.76315 0
M  V30 18437 C 1724.72 3.84539 -4.93843 0
M  V30 18438 H 1724.95 1.15664 -2.73878 0
M  V30 18439 H 1722.49 0.489495 -1.46435 0
M  V30 18440 H 1724.45 3.55585 -2.05108 0
M  V30 18441 H 1723.11 2.96203 -1.04511 0
M  V30 18442 H 1722.3 3.84765 -3.25533 0
M  V30 18443 H 1721.9 2.12285 -3.07914 0
M  V30 18444 H 1724.19 4.79639 -4.7849 0
M  V30 18445 H 1725.14 3.82469 -5.95922 0
M  V30 18446 H 1725.54 3.75014 -4.2193 0
M  V30 18447 N 1724.94 1.47523 0.554506 0
M  V30 18448 C 1726.17 1.57907 1.3369 0
M  V30 18449 C 1726.59 0.230244 1.87391 0
M  V30 18450 O 1725.94 -0.776917 1.65137 0
M  V30 18451 C 1725.99 2.60644 2.50493 0
M  V30 18452 O 1725.71 3.9029 1.99011 0
M  V30 18453 C 1727.22 2.81238 3.42666 0
M  V30 18454 H 1724.44 0.533139 0.407436 0
M  V30 18455 H 1726.98 1.93163 0.671445 0
M  V30 18456 H 1725.13 2.28315 3.12971 0
M  V30 18457 H 1725.55 4.46451 2.75285 0
M  V30 18458 H 1727.02 3.56981 4.21033 0
M  V30 18459 H 1727.5 1.89159 3.96378 0
M  V30 18460 H 1728.11 3.14775 2.86001 0
M  V30 18461 N 1726.42 -0.801453 1.357 0
M  V30 18462 C 1727.37 -1.90299 1.2558 0
M  V30 18463 C 1728.35 -1.602 0.149922 0
M  V30 18464 O 1729.55 -1.72837 0.381622 0
M  V30 18465 C 1726.68 -3.2732 1.0352 0
M  V30 18466 C 1725.76 -3.63468 2.18522 0
M  V30 18467 N 1726.15 -3.71014 3.43777 0
M  V30 18468 C 1724.45 -3.93455 2.10022 0
M  V30 18469 C 1725.15 -4.03052 4.19433 0
M  V30 18470 N 1724.13 -4.17405 3.48244 0
M  V30 18471 H 1727.93 -1.94341 2.20474 0
M  V30 18472 H 1725.44 -0.996323 1.28247 0
M  V30 18473 H 1727.44 -4.06081 0.943586 0
M  V30 18474 H 1726.1 -3.24561 0.095163 0
M  V30 18475 H 1727.11 -3.53961 3.78064 0
M  V30 18476 H 1723.79 -3.98691 1.23903 0
M  V30 18477 H 1725.18 -4.15914 5.27698 0
M  V30 18478 N 1727.9 -1.19782 -1.02421 0
M  V30 18479 C 1729.31 -1.00493 -1.57347 0
M  V30 18480 C 1729.66 0.440854 -1.91183 0
M  V30 18481 O 1728.79 1.32102 -1.714 0
M  V30 18482 C 1729.38 -1.8179 -2.85898 0
M  V30 18483 C 1727.94 -1.66889 -3.3738 0
M  V30 18484 C 1727.09 -1.80199 -2.10769 0
M  V30 18485 H 1730.04 -1.34085 -0.848938 0
M  V30 18486 H 1730.06 -1.31676 -3.5699 0
M  V30 18487 H 1729.57 -2.87011 -2.6124 0
M  V30 18488 H 1727.67 -0.64274 -3.67014 0
M  V30 18489 H 1727.78 -2.47705 -4.10096 0
M  V30 18490 H 1726.15 -1.23308 -2.22862 0
M  V30 18491 H 1726.93 -2.86889 -1.88546 0
M  V30 18492 N 1729.38 1.21606 -1.00248 0
M  V30 18493 C 1730.29 2.2757 -0.570004 0
M  V30 18494 C 1731.3 1.69669 0.385788 0
M  V30 18495 O 1732.48 1.99839 0.250246 0
M  V30 18496 C 1729.54 3.46558 0.0990566 0
M  V30 18497 C 1728.61 4.19741 -0.9009 0
M  V30 18498 C 1727.84 5.33048 -0.263673 0
M  V30 18499 O 1728.06 5.62599 0.940131 0
M  V30 18500 O 1727 5.93978 -0.973342 0
M  V30 18501 H 1730.82 2.66751 -1.45182 0
M  V30 18502 H 1728.41 1.27955 -0.771224 0
M  V30 18503 H 1730.29 4.18733 0.47339 0
M  V30 18504 H 1728.96 3.09283 0.955285 0
M  V30 18505 H 1727.87 3.49798 -1.32634 0
M  V30 18506 H 1729.2 4.60921 -1.72664 0
M  V30 18507 N 1730.86 0.776895 1.37121 0
M  V30 18508 C 1732.1 0.343555 1.99564 0
M  V30 18509 C 1732.43 -1.08134 1.6167 0
M  V30 18510 O 1731.69 -1.75938 0.856998 0
M  V30 18511 C 1731.98 0.440201 3.54679 0
M  V30 18512 C 1731.65 1.82409 4.12356 0
M  V30 18513 C 1730.31 2.20277 4.27822 0
M  V30 18514 C 1732.66 2.73082 4.43932 0
M  V30 18515 C 1729.99 3.48244 4.72168 0
M  V30 18516 C 1732.34 4.00465 4.89705 0
M  V30 18517 C 1731.01 4.38371 5.03376 0
M  V30 18518 H 1730.28 0.125716 0.730258 0
M  V30 18519 H 1732.93 0.991921 1.63808 0
M  V30 18520 H 1731.23 -0.291695 3.90713 0
M  V30 18521 H 1732.93 0.0861328 4.00907 0
M  V30 18522 H 1729.52 1.5198 4.0075 0
M  V30 18523 H 1733.7 2.45085 4.31564 0
M  V30 18524 H 1728.96 3.77501 4.80939 0
M  V30 18525 H 1733.13 4.70849 5.13103 0
M  V30 18526 H 1730.76 5.37587 5.37498 0
M  V30 18527 N 1732.33 -1.48497 0.527859 0
M  V30 18528 C 1733.3 -2.2809 -0.225312 0
M  V30 18529 C 1734.3 -1.35251 -0.869707 0
M  V30 18530 O 1735.49 -1.58163 -0.730086 0
M  V30 18531 C 1732.62 -3.14061 -1.32584 0
M  V30 18532 H 1733.81 -2.96139 0.473465 0
M  V30 18533 H 1731.36 -1.53703 0.283724 0
M  V30 18534 H 1732.1 -2.50638 -2.05794 0
M  V30 18535 H 1731.88 -3.82351 -0.868922 0
M  V30 18536 H 1733.37 -3.74106 -1.85566 0
M  V30 18537 N 1733.81 -0.262893 -1.55392 0
M  V30 18538 C 1735.06 0.357939 -1.98499 0
M  V30 18539 C 1735.37 1.5789 -1.15456 0
M  V30 18540 O 1736.58 2.2719 -1.4865 0
M  V30 18541 C 1735.04 0.688205 -3.53259 0
M  V30 18542 C 1734.64 -0.512257 -4.45062 0
M  V30 18543 C 1736.39 1.27234 -4.04984 0
M  V30 18544 C 1734.29 -0.157257 -5.91191 0
M  V30 18545 H 1733.22 0.137514 -0.741354 0
M  V30 18546 H 1735.88 -0.365626 -1.79821 0
M  V30 18547 H 1734.26 1.47034 -3.67692 0
M  V30 18548 H 1735.43 -1.28935 -4.42394 0
M  V30 18549 H 1733.75 -1.0124 -4.03905 0
M  V30 18550 H 1736.34 1.55155 -5.11694 0
M  V30 18551 H 1736.69 2.20217 -3.53285 0
M  V30 18552 H 1737.22 0.552763 -3.93941 0
M  V30 18553 H 1733.96 -1.05464 -6.4696 0
M  V30 18554 H 1733.48 0.583319 -5.96957 0
M  V30 18555 H 1735.16 0.254892 -6.46498 0
M  V30 18556 N 1735.29 1.57597 0.0100073 0
M  V30 18557 C 1736.2 2.11209 1.02117 0
M  V30 18558 C 1737.22 1.05503 1.38366 0
M  V30 18559 O 1738.39 1.37348 1.47301 0
M  V30 18560 C 1735.46 2.59654 2.2974 0
M  V30 18561 C 1734.52 3.79921 1.99896 0
M  V30 18562 C 1733.75 4.26046 3.21435 0
M  V30 18563 O 1733.97 3.71566 4.32775 0
M  V30 18564 O 1732.91 5.18301 3.06018 0
M  V30 18565 H 1736.73 2.97805 0.595469 0
M  V30 18566 H 1734.32 1.47647 0.228208 0
M  V30 18567 H 1736.2 2.91058 3.04735 0
M  V30 18568 H 1734.88 1.76161 2.71568 0
M  V30 18569 H 1733.78 3.53506 1.22409 0
M  V30 18570 H 1735.12 4.64457 1.62912 0
M  V30 18571 N 1736.77 -0.282606 1.55045 0
M  V30 18572 C 1737.68 -1.37129 1.90349 0
M  V30 18573 C 1738.69 -1.54537 0.799639 0
M  V30 18574 O 1739.87 -1.68849 1.09782 0
M  V30 18575 C 1736.93 -2.71211 2.15975 0
M  V30 18576 C 1736 -2.62632 3.39592 0
M  V30 18577 C 1735.23 -3.90319 3.63987 0
M  V30 18578 O 1735.45 -4.90551 2.9106 0
M  V30 18579 O 1734.39 -3.91102 4.57518 0
M  V30 18580 H 1738.21 -1.10189 2.83006 0
M  V30 18581 H 1735.8 -0.480293 1.41469 0
M  V30 18582 H 1737.68 -3.50509 2.33926 0
M  V30 18583 H 1736.35 -2.97958 1.26503 0
M  V30 18584 H 1735.26 -1.81743 3.26987 0
M  V30 18585 H 1736.59 -2.40836 4.29254 0
M  V30 18586 N 1738.25 -1.47815 -0.546675 0
M  V30 18587 C 1739.16 -1.63744 -1.68003 0
M  V30 18588 C 1740.17 -0.520118 -1.66044 0
M  V30 18589 O 1741.35 -0.789033 -1.853 0
M  V30 18590 C 1738.41 -1.65778 -3.04497 0
M  V30 18591 C 1737.47 -2.89015 -3.17441 0
M  V30 18592 C 1736.71 -2.90943 -4.47424 0
M  V30 18593 O 1736.93 -2.01769 -5.33522 0
M  V30 18594 O 1735.86 -3.82927 -4.64382 0
M  V30 18595 H 1739.69 -2.59665 -1.57505 0
M  V30 18596 H 1737.27 -1.31022 -0.717883 0
M  V30 18597 H 1739.16 -1.69734 -3.85705 0
M  V30 18598 H 1737.83 -0.730268 -3.15355 0
M  V30 18599 H 1736.74 -2.90599 -2.35591 0
M  V30 18600 H 1738.07 -3.81095 -3.11492 0
M  V30 18601 N 1739.72 0.794246 -1.36123 0
M  V30 18602 C 1740.65 1.92105 -1.32732 0
M  V30 18603 C 1741.63 1.68925 -0.199603 0
M  V30 18604 O 1742.82 1.90109 -0.396498 0
M  V30 18605 C 1739.95 3.29051 -1.11098 0
M  V30 18606 C 1738.9 3.66743 -2.20643 0
M  V30 18607 C 1738.23 5.01986 -1.84159 0
M  V30 18608 C 1739.53 3.75831 -3.62696 0
M  V30 18609 H 1741.22 1.952 -2.27018 0
M  V30 18610 H 1738.77 0.937746 -1.09281 0
M  V30 18611 H 1740.72 4.07494 -1.07362 0
M  V30 18612 H 1739.45 3.26331 -0.132614 0
M  V30 18613 H 1738.11 2.90594 -2.23497 0
M  V30 18614 H 1737.75 4.95782 -0.849081 0
M  V30 18615 H 1737.45 5.28175 -2.57497 0
M  V30 18616 H 1738.98 5.82855 -1.8197 0
M  V30 18617 H 1740.39 4.44476 -3.62096 0
M  V30 18618 H 1738.79 4.135 -4.34899 0
M  V30 18619 H 1739.86 2.7706 -3.97952 0
M  V30 18620 N 1741.2 1.20323 1.01785 0
M  V30 18621 C 1742.61 1.01326 1.56812 0
M  V30 18622 C 1742.96 -0.430709 1.91414 0
M  V30 18623 O 1742.09 -1.31191 1.72098 0
M  V30 18624 C 1742.68 1.83304 2.8493 0
M  V30 18625 C 1741.24 1.68676 3.3649 0
M  V30 18626 C 1740.39 1.81315 2.0981 0
M  V30 18627 H 1743.34 1.34533 0.841815 0
M  V30 18628 H 1743.36 1.33567 3.56286 0
M  V30 18629 H 1742.87 2.88392 2.59714 0
M  V30 18630 H 1740.97 0.662195 3.66668 0
M  V30 18631 H 1741.09 2.49877 4.08777 0
M  V30 18632 H 1739.45 1.24488 2.22204 0
M  V30 18633 H 1740.23 2.87885 1.87022 0
M  V30 18634 N 1742.68 -1.21073 1.00892 0
M  V30 18635 C 1744.1 -1.42314 0.72242 0
M  V30 18636 C 1744.3 -1.88917 -0.700908 0
M  V30 18637 O 1743.35 -2.05318 -1.46973 0
M  V30 18638 C 1744.66 -2.4513 1.74161 0
M  V30 18639 C 1746.21 -2.58907 1.75887 0
M  V30 18640 C 1746.69 -3.64959 2.76711 0
M  V30 18641 N 1748.18 -3.72434 2.75404 0
M  V30 18642 C 1748.91 -4.54129 3.50077 0
M  V30 18643 N 1748.41 -5.39691 4.34403 0
M  V30 18644 N 1750.2 -4.48589 3.38709 0
M  V30 18645 H 1742.35 -0.891353 1.92792 0
M  V30 18646 H 1744.62 -0.45372 0.832371 0
M  V30 18647 H 1744.32 -2.17868 2.76091 0
M  V30 18648 H 1744.2 -3.43996 1.54746 0
M  V30 18649 H 1746.58 -2.85503 0.746455 0
M  V30 18650 H 1746.66 -1.60261 1.99374 0
M  V30 18651 H 1746.31 -3.39107 3.78112 0
M  V30 18652 H 1746.24 -4.63209 2.50489 0
M  V30 18653 H 1748.73 -3.11311 2.14228 0
M  V30 18654 H 1749.04 -5.99092 4.88168 0
M  V30 18655 H 1747.39 -5.39219 4.38484 0
M  V30 18656 H 1750.58 -3.80778 2.7226 0
M  V30 18657 H 1750.75 -5.12023 3.97161 0
M  V30 18658 N 1744.16 -0.784156 -1.36707 0
M  V30 18659 C 1745.39 -0.365901 -2.03639 0
M  V30 18660 C 1745.8 1.01599 -1.59132 0
M  V30 18661 O 1745.16 1.65072 -0.778298 0
M  V30 18662 C 1745.21 -0.414035 -3.59121 0
M  V30 18663 O 1744.93 -1.74142 -4.02003 0
M  V30 18664 C 1746.43 0.0142546 -4.43298 0
M  V30 18665 H 1743.65 -0.151525 -0.653667 0
M  V30 18666 H 1746.2 -1.06154 -1.7479 0
M  V30 18667 H 1744.35 0.233134 -3.86698 0
M  V30 18668 H 1744.76 -1.68861 -4.96575 0
M  V30 18669 H 1746.24 -0.0705681 -5.51955 0
M  V30 18670 H 1746.72 1.06623 -4.26061 0
M  V30 18671 H 1747.32 -0.605201 -4.20972 0
M  V30 18672 N 1745.64 1.48215 -0.535727 0
M  V30 18673 C 1747.05 1.86449 -0.0967433 0
M  V30 18674 C 1747.4 1.44469 1.32752 0
M  V30 18675 O 1746.52 0.837989 1.99516 0
M  V30 18676 C 1747.12 3.38379 -0.168791 0
M  V30 18677 C 1745.68 3.75785 0.21503 0
M  V30 18678 C 1744.82 2.72266 -0.525995 0
M  V30 18679 H 1747.78 1.40038 -0.74666 0
M  V30 18680 H 1747.8 3.75447 0.61807 0
M  V30 18681 H 1747.31 3.68903 -1.2055 0
M  V30 18682 H 1745.41 3.50876 1.25366 0
M  V30 18683 H 1745.52 4.78927 -0.128579 0
M  V30 18684 H 1743.89 2.54684 0.028422 0
M  V30 18685 H 1744.67 3.05632 -1.56345 0
M  V30 18686 N 1747.11 0.27113 1.5525 0
M  V30 18687 C 1748.04 -0.61179 2.25343 0
M  V30 18688 C 1749.03 -1.16208 1.24216 0
M  V30 18689 O 1750.21 -1.19696 1.52927 0
M  V30 18690 C 1747.34 -1.7978 2.97147 0
M  V30 18691 C 1746.29 -1.37922 4.05169 0
M  V30 18692 C 1745.62 -2.64801 4.64526 0
M  V30 18693 C 1746.92 -0.532357 5.1958 0
M  V30 18694 H 1748.61 -0.0272538 2.99388 0
M  V30 18695 H 1746.16 -0.0116681 1.43995 0
M  V30 18696 H 1748.11 -2.42132 3.44891 0
M  V30 18697 H 1746.84 -2.40811 2.20631 0
M  V30 18698 H 1745.5 -0.778918 3.5823 0
M  V30 18699 H 1745.14 -3.24081 3.84682 0
M  V30 18700 H 1744.84 -2.37507 5.37461 0
M  V30 18701 H 1746.37 -3.28009 5.15017 0
M  V30 18702 H 1747.78 -1.06078 5.63401 0
M  V30 18703 H 1746.18 -0.35447 5.99052 0
M  V30 18704 H 1747.25 0.44981 4.82809 0
M  V30 18705 N 1748.59 -1.576 -0.00164943 0
M  V30 18706 C 1749.52 -2.11354 -0.992554 0
M  V30 18707 C 1750.5 -1.0223 -1.35952 0
M  V30 18708 O 1751.69 -1.29904 -1.44356 0
M  V30 18709 C 1748.82 -2.61549 -2.28494 0
M  V30 18710 C 1747.77 -3.75185 -2.05962 0
M  V30 18711 C 1747.1 -4.11688 -3.412 0
M  V30 18712 C 1748.4 -5.02526 -1.42355 0
M  V30 18713 H 1750.09 -2.94398 -0.544986 0
M  V30 18714 H 1747.64 -1.4162 -0.260702 0
M  V30 18715 H 1749.59 -2.97782 -2.98168 0
M  V30 18716 H 1748.32 -1.75625 -2.75361 0
M  V30 18717 H 1746.97 -3.39343 -1.38714 0
M  V30 18718 H 1746.62 -3.22789 -3.85767 0
M  V30 18719 H 1746.32 -4.88246 -3.2694 0
M  V30 18720 H 1747.85 -4.50478 -4.12192 0
M  V30 18721 H 1749.26 -5.3654 -2.01984 0
M  V30 18722 H 1747.66 -5.83878 -1.38589 0
M  V30 18723 H 1748.73 -4.83308 -0.392565 0
M  V30 18724 N 1750.07 0.274379 -1.55193 0
M  V30 18725 C 1751.35 1.02736 -1.66447 0
M  V30 18726 C 1751.73 2.04337 -0.530051 0
M  V30 18727 O 1751.08 2.23613 0.470058 0
M  V30 18728 C 1751.29 1.6854 -3.05606 0
M  V30 18729 C 1752.63 2.19754 -3.63309 0
M  V30 18730 O 1753.66 1.78529 -3.0823 0
M  V30 18731 O 1752.52 2.95364 -4.59807 0
M  V30 18732 H 1749.61 0.476462 -0.675953 0
M  V30 18733 H 1752.16 0.270347 -1.67533 0
M  V30 18734 H 1750.93 0.949086 -3.79616 0
M  V30 18735 H 1750.55 2.50931 -3.08414 0
M  V30 18736 N 1751.55 1.48103 0.538828 0
M  V30 18737 C 1752.46 1.64632 1.67133 0
M  V30 18738 C 1753.47 0.528917 1.65766 0
M  V30 18739 O 1754.65 0.798849 1.84879 0
M  V30 18740 C 1751.72 1.67391 3.03614 0
M  V30 18741 C 1750.78 2.90694 3.15904 0
M  V30 18742 C 1750.01 2.93311 4.45875 0
M  V30 18743 O 1750.23 2.04596 5.32444 0
M  V30 18744 O 1749.17 3.85384 4.62345 0
M  V30 18745 H 1752.99 2.60496 1.56126 0
M  V30 18746 H 1750.58 1.31401 0.710925 0
M  V30 18747 H 1752.46 1.71777 3.84799 0
M  V30 18748 H 1751.13 0.746982 3.14963 0
M  V30 18749 H 1750.04 2.91844 2.34047 0
M  V30 18750 H 1751.37 3.82742 3.09467 0
M  V30 18751 N 1753.03 -0.787016 1.36542 0
M  V30 18752 C 1753.94 -1.93103 1.33223 0
M  V30 18753 C 1754.95 -1.72419 0.234047 0
M  V30 18754 O 1756.13 -1.95915 0.466828 0
M  V30 18755 C 1753.19 -3.28002 1.12319 0
M  V30 18756 C 1752.25 -3.61447 2.31635 0
M  V30 18757 C 1751.49 -4.89909 2.11719 0
M  V30 18758 O 1751.71 -5.59818 1.0936 0
M  V30 18759 O 1750.64 -5.22065 2.99552 0
M  V30 18760 H 1754.47 -1.98853 2.29545 0
M  V30 18761 H 1752.06 -0.92761 1.17114 0
M  V30 18762 H 1753.94 -4.08722 1.02589 0
M  V30 18763 H 1752.61 -3.23138 0.19061 0
M  V30 18764 H 1751.52 -2.81024 2.46934 0
M  V30 18765 H 1752.85 -3.71037 3.23407 0
M  V30 18766 N 1754.5 -1.20861 -1.01145 0
M  V30 18767 C 1755.41 -0.977926 -2.13246 0
M  V30 18768 C 1756.43 0.0678862 -1.73868 0
M  V30 18769 O 1757.61 -0.120717 -2.01038 0
M  V30 18770 C 1754.67 -0.538575 -3.42491 0
M  V30 18771 C 1753.73 -1.65584 -3.96081 0
M  V30 18772 C 1752.97 -1.23736 -5.19158 0
M  V30 18773 O 1753.19 -0.108227 -5.70297 0
M  V30 18774 O 1752.12 -2.04679 -5.6603 0
M  V30 18775 H 1755.95 -1.91666 -2.3558 0
M  V30 18776 H 1753.53 -0.992931 -1.1163 0
M  V30 18777 H 1755.42 -0.303041 -4.20309 0
M  V30 18778 H 1754.09 0.371515 -3.21561 0
M  V30 18779 H 1753 -1.94572 -3.19519 0
M  V30 18780 H 1754.33 -2.54313 -4.21409 0
M  V30 18781 N 1755.98 1.20536 -1.01532 0
M  V30 18782 C 1756.89 2.26953 -0.594109 0
M  V30 18783 C 1757.91 1.70069 0.367771 0
M  V30 18784 O 1759.08 2.00093 0.229036 0
M  V30 18785 C 1756.15 3.46644 0.0622939 0
M  V30 18786 C 1755.21 4.18762 -0.945368 0
M  V30 18787 C 1754.44 5.32739 -0.320195 0
M  V30 18788 O 1754.67 5.63565 0.880407 0
M  V30 18789 O 1753.6 5.92912 -1.03629 0
M  V30 18790 H 1757.43 2.65196 -1.48003 0
M  V30 18791 H 1755.01 1.2713 -0.784752 0
M  V30 18792 H 1756.89 4.19211 0.428952 0
M  V30 18793 H 1755.57 3.10279 0.922428 0
M  V30 18794 H 1754.48 3.48372 -1.36337 0
M  V30 18795 H 1755.81 4.59064 -1.77543 0
M  V30 18796 N 1757.46 0.791395 1.36289 0
M  V30 18797 C 1758.37 0.192362 2.3381 0
M  V30 18798 C 1759.39 -0.656556 1.61138 0
M  V30 18799 O 1760.56 -0.571877 1.9311 0
M  V30 18800 C 1757.63 -0.661283 3.40335 0
M  V30 18801 C 1756.69 0.206361 4.28804 0
M  V30 18802 C 1755.92 -0.606636 5.30241 0
M  V30 18803 O 1756.14 -1.84247 5.39823 0
M  V30 18804 O 1755.08 -0.00549116 6.019 0
M  V30 18805 H 1758.9 0.998723 2.86809 0
M  V30 18806 H 1756.49 0.552889 1.38793 0
M  V30 18807 H 1758.37 -1.148 4.05461 0
M  V30 18808 H 1757.05 -1.4455 2.89632 0
M  V30 18809 H 1755.95 0.739877 3.66711 0
M  V30 18810 H 1757.29 0.954142 4.82863 0
M  V30 18811 N 1758.94 -1.47929 0.54358 0
M  V30 18812 C 1759.89 -2.3151 -0.224935 0
M  V30 18813 C 1760.88 -1.4208 -0.922473 0
M  V30 18814 O 1762.09 -1.58917 -0.845309 0
M  V30 18815 H 1758.46 -0.746424 -0.0914091 0
M  V30 18816 H 1760.43 -2.94192 0.499381 0
M  V30 18817 C 1759.18 -3.24439 -1.25038 0
M  V30 18818 H 1758.51 -3.93207 -0.723059 0
M  V30 18819 H 1759.95 -3.8578 -1.75927 0
M  V30 18820 C 1758.4 -2.46998 -2.29115 0
M  V30 18821 O 1758.93 -2.20457 -3.358 0
M  V30 18822 N 1757.14 -2.08249 -2.02684 0
M  V30 18823 H 1756.69 -2.30034 -1.15941 0
M  V30 18824 H 1756.65 -1.56748 -2.72539 0
M  V30 18825 N 1760.42 -0.27936 -1.55104 0
M  V30 18826 C 1761.83 0.217569 -1.85428 0
M  V30 18827 C 1762.18 1.55117 -1.20138 0
M  V30 18828 O 1761.3 2.10751 -0.491229 0
M  V30 18829 C 1761.9 0.401547 -3.36412 0
M  V30 18830 C 1760.46 0.842706 -3.66845 0
M  V30 18831 C 1759.61 -0.0615565 -2.77232 0
M  V30 18832 H 1762.56 -0.501025 -1.50584 0
M  V30 18833 H 1762.58 1.23946 -3.59747 0
M  V30 18834 H 1762.09 -0.569224 -3.83903 0
M  V30 18835 H 1760.19 1.8248 -3.24857 0
M  V30 18836 H 1760.3 0.677088 -4.74291 0
M  V30 18837 H 1758.67 0.455486 -2.50594 0
M  V30 18838 H 1759.45 -1.02829 -3.27538 0
M  V30 18839 N 1761.9 1.57599 -0.0067085 0
M  V30 18840 C 1763.17 1.82097 0.714141 0
M  V30 18841 C 1763.55 0.885868 1.91613 0
M  V30 18842 O 1762.9 -0.0638506 2.28411 0
M  V30 18843 C 1763.11 3.30759 1.11354 0
M  V30 18844 C 1764.46 3.96668 1.51459 0
M  V30 18845 O 1765.48 3.35121 1.20715 0
M  V30 18846 O 1764.34 5.051 2.08654 0
M  V30 18847 H 1761.44 0.750071 0.348314 0
M  V30 18848 H 1763.98 1.69669 -0.0326766 0
M  V30 18849 H 1762.75 3.90455 0.257068 0
M  V30 18850 H 1762.38 3.48211 1.91924 0
M  V30 18851 N 1763.37 -0.266145 1.55336 0
M  V30 18852 C 1764.32 -1.32914 1.88686 0
M  V30 18853 C 1765.29 -1.48752 0.739048 0
M  V30 18854 O 1766.48 -1.63048 0.990951 0
M  V30 18855 C 1763.62 -2.68317 2.17026 0
M  V30 18856 C 1762.73 -2.60644 3.44512 0
M  V30 18857 C 1761.86 -3.88271 3.62517 0
M  V30 18858 C 1760.9 -3.75137 4.83672 0
M  V30 18859 N 1760.04 -4.94614 4.98299 0
M  V30 18860 H 1764.88 -1.03774 2.79347 0
M  V30 18861 H 1762.42 -0.501205 1.38298 0
M  V30 18862 H 1764.37 -3.47107 2.31458 0
M  V30 18863 H 1763 -2.95645 1.29591 0
M  V30 18864 H 1762.06 -1.73527 3.38515 0
M  V30 18865 H 1763.37 -2.46842 4.3344 0
M  V30 18866 H 1762.52 -4.75503 3.76804 0
M  V30 18867 H 1761.26 -4.04949 2.71787 0
M  V30 18868 H 1760.27 -2.86289 4.69381 0
M  V30 18869 H 1761.49 -3.59973 5.75844 0
M  V30 18870 H 1759.44 -5.11689 4.10501 0
M  V30 18871 H 1759.35 -4.83369 5.81284 0
M  V30 18872 H 1760.62 -5.83399 5.16978 0
M  V30 18873 N 1764.85 -1.48386 -0.530967 0
M  V30 18874 C 1765.81 -1.62355 -1.61782 0
M  V30 18875 C 1766.81 -0.496909 -1.5293 0
M  V30 18876 O 1768 -0.762672 -1.56617 0
M  V30 18877 C 1765.14 -1.59282 -3.014 0
M  V30 18878 H 1766.33 -2.59265 -1.50737 0
M  V30 18879 H 1763.88 -1.36969 -0.752948 0
M  V30 18880 H 1764.62 -0.638453 -3.17953 0
M  V30 18881 H 1764.4 -2.41073 -3.09235 0
M  V30 18882 H 1765.89 -1.72248 -3.80421 0
M  V30 18883 N 1766.33 0.779763 -1.36958 0
M  V30 18884 C 1767.55 1.57389 -1.35068 0
M  V30 18885 C 1767.98 1.87993 0.0635244 0
M  V30 18886 O 1767.34 1.48625 1.03828 0
M  V30 18887 C 1767.39 2.86582 -2.18868 0
M  V30 18888 O 1766.49 3.80609 -1.58779 0
M  V30 18889 H 1765.83 0.477052 -0.461863 0
M  V30 18890 H 1768.36 0.965741 -1.80373 0
M  V30 18891 H 1768.37 3.35761 -2.31794 0
M  V30 18892 H 1767.05 2.63635 -3.21666 0
M  V30 18893 H 1765.62 3.39229 -1.54848 0
M  V30 18894 N 1767.81 1.21396 1.00503 0
M  V30 18895 C 1768.75 0.973198 2.09279 0
M  V30 18896 C 1769.72 -0.100797 1.65794 0
M  V30 18897 O 1770.91 0.0463185 1.90744 0
M  V30 18898 C 1768.05 0.543941 3.40786 0
M  V30 18899 C 1767.16 1.68737 3.97683 0
M  V30 18900 C 1766.3 1.20728 5.17299 0
M  V30 18901 C 1765.34 2.32305 5.66305 0
M  V30 18902 N 1764.47 1.8543 6.77171 0
M  V30 18903 H 1769.31 1.90441 2.29208 0
M  V30 18904 H 1766.85 0.949082 1.12387 0
M  V30 18905 H 1768.81 0.276311 4.16284 0
M  V30 18906 H 1767.44 -0.350263 3.20894 0
M  V30 18907 H 1766.49 2.06964 3.19171 0
M  V30 18908 H 1767.8 2.5271 4.30045 0
M  V30 18909 H 1766.96 0.896312 6.00043 0
M  V30 18910 H 1765.7 0.3376 4.8653 0
M  V30 18911 H 1764.7 2.64205 4.82158 0
M  V30 18912 H 1765.93 3.19769 5.99103 0
M  V30 18913 H 1763.87 1.00806 6.48208 0
M  V30 18914 H 1763.79 2.62976 7.08788 0
M  V30 18915 H 1765.06 1.57366 7.6345 0
M  V30 18916 N 1769.29 -1.19996 1.0217 0
M  V30 18917 C 1770.53 -1.89495 0.713989 0
M  V30 18918 C 1770.86 -1.79172 -0.756819 0
M  V30 18919 O 1770.12 -1.17362 -1.56603 0
M  V30 18920 C 1770.41 -3.39999 1.10162 0
M  V30 18921 C 1770.08 -3.70524 2.5695 0
M  V30 18922 C 1768.74 -3.78565 2.97056 0
M  V30 18923 C 1771.09 -3.8442 3.51952 0
M  V30 18924 C 1768.42 -3.97965 4.31092 0
M  V30 18925 C 1770.77 -4.05332 4.85684 0
M  V30 18926 C 1769.44 -4.11604 5.25489 0
M  V30 18927 H 1768.71 -0.693412 0.261267 0
M  V30 18928 H 1771.36 -1.42146 1.28323 0
M  V30 18929 H 1769.66 -3.89197 0.45088 0
M  V30 18930 H 1771.36 -3.92078 0.841158 0
M  V30 18931 H 1767.95 -3.64868 2.24876 0
M  V30 18932 H 1772.13 -3.77558 3.22123 0
M  V30 18933 H 1767.39 -4.01058 4.61479 0
M  V30 18934 H 1771.56 -4.15027 5.59219 0
M  V30 18935 H 1769.19 -4.26389 6.29362 0
M  V30 18936 N 1770.76 -0.798611 -1.35867 0
M  V30 18937 C 1772.01 -0.374519 -1.986 0
M  V30 18938 C 1772.33 1.05984 -1.63684 0
M  V30 18939 O 1771.6 1.73199 -0.915359 0
M  V30 18940 H 1770.18 -0.135492 -0.734609 0
M  V30 18941 H 1772.84 -1.02269 -1.65913 0
M  V30 18942 H 1771.94 -0.473773 -3.08483 0
M  V30 18943 N 1772.24 1.47639 -0.551417 0
M  V30 18944 C 1773.47 2.06878 -0.0298904 0
M  V30 18945 C 1773.88 1.40493 1.26123 0
M  V30 18946 O 1773.24 0.499513 1.75531 0
M  V30 18947 C 1773.29 3.61074 0.175449 0
M  V30 18948 O 1773.01 4.2497 -1.06454 0
M  V30 18949 C 1774.51 4.37166 0.734919 0
M  V30 18950 H 1771.73 0.669607 -0.0432142 0
M  V30 18951 H 1774.28 1.89726 -0.763178 0
M  V30 18952 H 1772.43 3.7776 0.858848 0
M  V30 18953 H 1772.85 5.17424 -0.858644 0
M  V30 18954 H 1774.32 5.45756 0.827915 0
M  V30 18955 H 1774.8 4.03052 1.74486 0
M  V30 18956 H 1775.4 4.2521 0.0874045 0
M  V30 18957 N 1773.72 0.287581 1.54954 0
M  V30 18958 C 1775.14 -0.0662092 1.59463 0
M  V30 18959 C 1775.34 -1.53556 1.30471 0
M  V30 18960 O 1774.39 -2.28632 1.07161 0
M  V30 18961 C 1775.71 0.319651 2.98996 0
M  V30 18962 C 1777.25 0.2673 3.11857 0
M  V30 18963 C 1777.73 0.627784 4.53677 0
M  V30 18964 N 1779.22 0.579808 4.59557 0
M  V30 18965 C 1779.95 0.831377 5.67341 0
M  V30 18966 N 1779.45 1.14821 6.83219 0
M  V30 18967 N 1781.24 0.759337 5.56947 0
M  V30 18968 H 1773.39 1.24534 1.72062 0
M  V30 18969 H 1775.66 0.503969 0.802944 0
M  V30 18970 H 1775.36 1.34201 3.25089 0
M  V30 18971 H 1775.24 -0.333373 3.75724 0
M  V30 18972 H 1777.62 -0.745794 2.8552 0
M  V30 18973 H 1777.71 0.954759 2.37314 0
M  V30 18974 H 1777.35 1.63862 4.80741 0
M  V30 18975 H 1777.28 -0.0816007 5.26537 0
M  V30 18976 H 1779.77 0.34531 3.76319 0
M  V30 18977 H 1780.08 1.32651 7.6133 0
M  V30 18978 H 1778.43 1.18612 6.84804 0
M  V30 18979 H 1781.62 0.511563 4.65296 0
M  V30 18980 H 1781.79 0.95877 6.40868 0
M  V30 18981 N 1775.2 -1.57593 0.0150662 0
M  V30 18982 C 1776.44 -1.91497 -0.667587 0
M  V30 18983 C 1776.78 -0.890493 -1.7258 0
M  V30 18984 O 1776.05 0.0887462 -1.94297 0
M  V30 18985 C 1776.34 -3.35934 -1.29694 0
M  V30 18986 C 1776.19 -4.49109 -0.249242 0
M  V30 18987 C 1777.51 -3.80068 -2.21893 0
M  V30 18988 H 1774.63 -0.696408 -0.241217 0
M  V30 18989 H 1777.27 -1.89873 0.0694484 0
M  V30 18990 H 1775.42 -3.37448 -1.92512 0
M  V30 18991 H 1777.09 -4.59729 0.380417 0
M  V30 18992 H 1775.33 -4.31695 0.426861 0
M  V30 18993 H 1776 -5.47166 -0.728934 0
M  V30 18994 H 1778.48 -3.80201 -1.69076 0
M  V30 18995 H 1777.36 -4.81852 -2.62887 0
M  V30 18996 H 1777.62 -3.1478 -3.10429 0
M  V30 18997 N 1776.68 0.257904 -1.55475 0
M  V30 18998 C 1777.61 1.32303 -1.92401 0
M  V30 18999 C 1778.59 1.50767 -0.787617 0
M  V30 19000 O 1779.77 1.63559 -1.047 0
M  V30 19001 C 1776.9 2.67984 -2.20912 0
M  V30 19002 C 1775.86 2.64231 -3.36699 0
M  V30 19003 C 1775.18 4.03604 -3.50725 0
M  V30 19004 C 1776.48 2.22177 -4.72689 0
M  V30 19005 H 1778.18 1.01646 -2.81618 0
M  V30 19006 H 1775.72 0.487523 -1.35496 0
M  V30 19007 H 1777.68 3.42622 -2.45332 0
M  V30 19008 H 1776.4 3.00254 -1.2851 0
M  V30 19009 H 1775.06 1.92049 -3.1227 0
M  V30 19010 H 1774.71 4.33122 -2.55763 0
M  V30 19011 H 1774.41 4.01983 -4.28583 0
M  V30 19012 H 1775.93 4.79959 -3.77455 0
M  V30 19013 H 1777.34 2.86543 -4.96554 0
M  V30 19014 H 1775.74 2.3169 -5.5357 0
M  V30 19015 H 1776.81 1.17326 -4.70492 0
M  V30 19016 N 1778.15 1.48666 0.52309 0
M  V30 19017 C 1779.08 1.666 1.63605 0
M  V30 19018 C 1780.07 0.514803 1.62123 0
M  V30 19019 O 1781.25 0.748138 1.79211 0
M  V30 19020 C 1778.38 1.71199 3.02172 0
M  V30 19021 C 1777.33 2.85888 3.18515 0
M  V30 19022 C 1776.66 2.75582 4.58213 0
M  V30 19023 C 1777.96 4.27104 3.00631 0
M  V30 19024 H 1779.65 2.59776 1.48851 0
M  V30 19025 H 1777.2 1.25014 0.714667 0
M  V30 19026 H 1779.15 1.82333 3.79911 0
M  V30 19027 H 1777.88 0.746066 3.17964 0
M  V30 19028 H 1776.54 2.7432 2.43195 0
M  V30 19029 H 1776.18 1.76944 4.7085 0
M  V30 19030 H 1775.88 3.52545 4.70091 0
M  V30 19031 H 1777.41 2.88693 5.38041 0
M  V30 19032 H 1778.82 4.3947 3.68157 0
M  V30 19033 H 1777.22 5.05119 3.23999 0
M  V30 19034 H 1778.29 4.43087 1.96982 0
M  V30 19035 N 1779.63 -0.772489 1.37369 0
M  V30 19036 C 1780.56 -1.89969 1.35772 0
M  V30 19037 C 1781.54 -1.68586 0.226452 0
M  V30 19038 O 1782.73 -1.89454 0.426692 0
M  V30 19039 C 1779.86 -3.27242 1.16319 0
M  V30 19040 C 1778.81 -3.63187 2.2645 0
M  V30 19041 C 1778.14 -4.98992 1.92121 0
M  V30 19042 C 1779.44 -3.70013 3.6863 0
M  V30 19043 H 1781.13 -1.91564 2.30095 0
M  V30 19044 H 1778.68 -0.920241 1.10759 0
M  V30 19045 H 1780.63 -4.05734 1.13832 0
M  V30 19046 H 1779.36 -3.26078 0.184513 0
M  V30 19047 H 1778.01 -2.87001 2.28091 0
M  V30 19048 H 1777.66 -4.94368 0.927848 0
M  V30 19049 H 1777.36 -5.24012 2.65867 0
M  V30 19050 H 1778.89 -5.79886 1.91219 0
M  V30 19051 H 1780.3 -4.38659 3.69122 0
M  V30 19052 H 1778.7 -4.06529 4.41423 0
M  V30 19053 H 1779.77 -2.70694 4.02309 0
M  V30 19054 N 1781.11 -1.21927 -0.998575 0
M  V30 19055 C 1782.39 -0.949034 -1.71034 0
M  V30 19056 C 1782.77 0.537429 -2.04144 0
M  V30 19057 O 1782.12 1.50398 -1.72026 0
M  V30 19058 C 1782.33 -1.84076 -2.96508 0
M  V30 19059 C 1783.67 -2.09345 -3.69405 0
M  V30 19060 O 1784.7 -1.81477 -3.06504 0
M  V30 19061 O 1783.56 -2.56513 -4.82559 0
M  V30 19062 H 1780.65 -0.356423 -0.746252 0
M  V30 19063 H 1783.2 -1.32886 -1.05543 0
M  V30 19064 H 1781.97 -2.84647 -2.68499 0
M  V30 19065 H 1781.59 -1.46215 -3.69739 0
M  V30 19066 N 1782.59 1.19452 -1.02805 0
M  V30 19067 C 1783.84 1.8874 -0.722599 0
M  V30 19068 C 1784.16 1.79957 0.751028 0
M  V30 19069 O 1783.43 1.20949 1.54104 0
M  V30 19070 H 1782.01 0.698683 -0.264294 0
M  V30 19071 H 1784.67 1.45021 -1.30211 0
M  V30 19072 H 1783.77 2.95094 -1.01617 0
M  V30 19073 N 1784.07 0.805805 1.35442 0
M  V30 19074 C 1784.98 0.217149 2.33593 0
M  V30 19075 C 1785.99 -0.639428 1.61825 0
M  V30 19076 O 1787.17 -0.551363 1.93706 0
M  V30 19077 C 1784.23 -0.625149 3.41017 0
M  V30 19078 C 1783.29 0.25183 4.28561 0
M  V30 19079 C 1782.53 -0.550363 5.30855 0
M  V30 19080 O 1782.75 -1.78511 5.41747 0
M  V30 19081 O 1781.68 0.0583487 6.01872 0
M  V30 19082 H 1785.51 1.02909 2.85733 0
M  V30 19083 H 1783.1 0.567579 1.38199 0
M  V30 19084 H 1784.98 -1.10493 4.06656 0
M  V30 19085 H 1783.65 -1.4147 2.91149 0
M  V30 19086 H 1782.56 0.77873 3.65905 0
M  V30 19087 H 1783.89 1.0053 4.81824 0
M  V30 19088 N 1785.54 -1.47344 0.559239 0
M  V30 19089 C 1786.79 -2.02768 0.0359962 0
M  V30 19090 C 1787.12 -1.43247 -1.31126 0
M  V30 19091 O 1786.4 -0.588793 -1.85374 0
M  V30 19092 C 1786.68 -3.60058 -0.0549111 0
M  V30 19093 C 1786.53 -4.30008 1.31958 0
M  V30 19094 C 1787.85 -4.33359 -0.767331 0
M  V30 19095 H 1784.97 -0.736856 0.0145552 0
M  V30 19096 H 1787.61 -1.75751 0.72192 0
M  V30 19097 H 1785.76 -3.83208 -0.639076 0
M  V30 19098 H 1787.44 -4.18193 1.94711 0
M  V30 19099 H 1785.68 -3.90283 1.89372 0
M  V30 19100 H 1786.35 -5.38605 1.20867 0
M  V30 19101 H 1788.83 -4.15215 -0.27131 0
M  V30 19102 H 1787.7 -5.4304 -0.799905 0
M  V30 19103 H 1787.96 -4.02725 -1.82387 0
M  V30 19104 N 1787.02 -0.295795 -1.54799 0
M  V30 19105 C 1788.25 0.317763 -2.04445 0
M  V30 19106 C 1788.67 1.47915 -1.17331 0
M  V30 19107 O 1788.02 1.81425 -0.197811 0
M  V30 19108 C 1788.07 0.778995 -3.53007 0
M  V30 19109 O 1787.79 -0.33616 -4.36808 0
M  V30 19110 C 1789.3 1.45824 -4.18629 0
M  V30 19111 H 1786.52 0.0697871 -0.667361 0
M  V30 19112 H 1789.06 -0.433911 -1.99844 0
M  V30 19113 H 1787.21 1.4807 -3.57986 0
M  V30 19114 H 1787.63 0.0219928 -5.24495 0
M  V30 19115 H 1789.1 1.73218 -5.24118 0
M  V30 19116 H 1789.58 2.3966 -3.68049 0
M  V30 19117 H 1790.19 0.799847 -4.17711 0
M  V30 19118 N 1788.5 1.57583 -0.0234236 0
M  V30 19119 C 1789.91 1.79422 0.516201 0
M  V30 19120 C 1790.26 0.933151 1.72588 0
M  V30 19121 O 1789.39 0.141985 2.15934 0
M  V30 19122 C 1789.98 3.25405 0.943248 0
M  V30 19123 C 1788.54 3.48259 1.42802 0
M  V30 19124 C 1787.69 2.74543 0.390074 0
M  V30 19125 H 1790.64 1.56727 -0.24949 0
M  V30 19126 H 1790.66 3.34803 1.80795 0
M  V30 19127 H 1790.17 3.88049 0.0626242 0
M  V30 19128 H 1788.27 2.9086 2.32877 0
M  V30 19129 H 1788.39 4.56968 1.43933 0
M  V30 19130 H 1786.75 2.39852 0.856919 0
M  V30 19131 H 1787.53 3.399 -0.481986 0
M  V30 19132 N 1789.98 -0.249655 1.5561 0
M  V30 19133 C 1791.21 -0.994263 1.81102 0
M  V30 19134 C 1791.62 -1.79553 0.596445 0
M  V30 19135 O 1790.96 -1.78246 -0.4443 0
M  V30 19136 C 1791.02 -1.9824 2.99902 0
M  V30 19137 C 1790.69 -1.36833 4.36034 0
M  V30 19138 C 1791.68 -0.772202 5.14133 0
M  V30 19139 C 1789.37 -1.38852 4.82727 0
M  V30 19140 C 1791.36 -0.204446 6.37072 0
M  V30 19141 C 1789.05 -0.816913 6.05615 0
M  V30 19142 C 1790.05 -0.225898 6.82626 0
M  V30 19143 O 1789.74 0.336892 8.03194 0
M  V30 19144 H 1789.47 -0.298339 0.606605 0
M  V30 19145 H 1792.02 -0.278647 2.03501 0
M  V30 19146 H 1790.25 -2.73625 2.73252 0
M  V30 19147 H 1791.94 -2.59021 3.12511 0
M  V30 19148 H 1792.71 -0.749129 4.7918 0
M  V30 19149 H 1788.59 -1.83793 4.22778 0
M  V30 19150 H 1792.13 0.257492 6.97125 0
M  V30 19151 H 1788.03 -0.837303 6.40046 0
M  V30 19152 H 1788.79 0.228492 8.18181 0
M  V30 19153 N 1791.46 -1.48941 -0.515198 0
M  V30 19154 C 1792.42 -1.64062 -1.60051 0
M  V30 19155 C 1793.42 -0.513101 -1.52394 0
M  V30 19156 O 1794.61 -0.77924 -1.558 0
M  V30 19157 C 1791.74 -1.6247 -2.99694 0
M  V30 19158 H 1792.94 -2.60849 -1.47978 0
M  V30 19159 H 1790.49 -1.37759 -0.738378 0
M  V30 19160 H 1791.22 -0.672141 -3.17258 0
M  V30 19161 H 1791.01 -2.4434 -3.0666 0
M  V30 19162 H 1792.5 -1.76273 -3.78573 0
M  V30 19163 N 1792.94 0.765193 -1.37777 0
M  V30 19164 C 1793.88 1.90005 -1.34168 0
M  V30 19165 C 1794.88 1.6784 -0.229387 0
M  V30 19166 O 1796.08 1.7555 -0.39778 0
M  V30 19167 H 1792.46 0.624939 -0.418276 0
M  V30 19168 H 1794.43 1.90165 -2.29956 0
M  V30 19169 C 1793.18 3.27349 -1.17208 0
M  V30 19170 H 1792.5 3.44985 -2.02053 0
M  V30 19171 H 1793.94 4.07036 -1.18734 0
M  V30 19172 C 1792.4 3.3668 0.121835 0
M  V30 19173 O 1792.93 3.86258 1.10306 0
M  V30 19174 N 1791.14 2.90074 0.174753 0
M  V30 19175 H 1790.68 2.49918 -0.624397 0
M  V30 19176 H 1790.64 2.96697 1.0401 0
M  V30 19177 N 1794.41 1.22455 0.992094 0
M  V30 19178 C 1795.64 1.07594 1.76723 0
M  V30 19179 C 1796.06 -0.37345 1.8507 0
M  V30 19180 O 1795.41 -1.25876 1.32142 0
M  V30 19181 C 1795.46 1.68178 3.19998 0
M  V30 19182 O 1795.19 3.07447 3.12102 0
M  V30 19183 C 1796.69 1.58602 4.13957 0
M  V30 19184 H 1793.91 0.377148 0.554978 0
M  V30 19185 H 1796.45 1.62065 1.24721 0
M  V30 19186 H 1794.61 1.17768 3.69066 0
M  V30 19187 H 1795.02 3.36641 4.0221 0
M  V30 19188 H 1796.49 2.05714 5.12236 0
M  V30 19189 H 1796.97 0.542712 4.35834 0
M  V30 19190 H 1797.58 2.08321 3.70786 0
M  V30 19191 N 1795.89 -1.18905 1.03437 0
M  V30 19192 C 1796.84 -2.24362 0.613557 0
M  V30 19193 C 1797.83 -1.65605 -0.356541 0
M  V30 19194 O 1799.04 -1.78594 -0.22452 0
M  V30 19195 H 1795.41 -0.730098 0.18017 0
M  V30 19196 H 1797.39 -2.57168 1.51351 0
M  V30 19197 C 1796.13 -3.47697 -0.0141125 0
M  V30 19198 H 1795.46 -3.93201 0.723394 0
M  V30 19199 H 1796.9 -4.2313 -0.271424 0
M  V30 19200 C 1795.36 -3.12357 -1.26232 0
M  V30 19201 O 1795.89 -3.25515 -2.35378 0
M  V30 19202 N 1794.09 -2.6674 -1.15318 0
M  V30 19203 H 1793.64 -2.56233 -0.26501 0
M  V30 19204 H 1793.6 -2.43466 -1.98927 0
M  V30 19205 N 1797.37 -0.812977 -1.35013 0
M  V30 19206 C 1798.32 -0.216001 -2.31595 0
M  V30 19207 C 1799.31 0.637771 -1.56936 0
M  V30 19208 O 1800.52 0.530221 -1.72014 0
M  V30 19209 H 1796.89 -0.0510947 -0.750262 0
M  V30 19210 H 1798.86 -1.04559 -2.79482 0
M  V30 19211 C 1797.61 0.615651 -3.42206 0
M  V30 19212 H 1796.94 -0.0319737 -3.99787 0
M  V30 19213 H 1798.38 0.99963 -4.12048 0
M  V30 19214 C 1796.83 1.78386 -2.85797 0
M  V30 19215 O 1797.36 2.88163 -2.79866 0
M  V30 19216 N 1795.57 1.59742 -2.42757 0
M  V30 19217 H 1795.12 0.704468 -2.4778 0
M  V30 19218 H 1795.08 2.38061 -2.05364 0
M  V30 19219 N 1798.85 1.47045 -0.567045 0
M  V30 19220 C 1799.8 2.31838 0.188075 0
M  V30 19221 C 1800.79 1.4353 0.899752 0
M  V30 19222 O 1802 1.60241 0.81992 0
M  V30 19223 H 1798.37 0.747783 0.0795226 0
M  V30 19224 H 1800.34 2.9336 -0.546121 0
M  V30 19225 C 1799.09 3.26387 1.19861 0
M  V30 19226 H 1798.41 3.94308 0.660412 0
M  V30 19227 H 1799.85 3.8853 1.69767 0
M  V30 19228 C 1798.31 2.50612 2.25157 0
M  V30 19229 O 1798.84 2.25771 3.3225 0
M  V30 19230 N 1797.05 2.11447 1.99345 0
M  V30 19231 H 1796.6 2.31849 1.12267 0
M  V30 19232 H 1796.55 1.61064 2.7001 0
M  V30 19233 N 1800.33 0.304 1.5464 0
M  V30 19234 C 1801.29 -0.557917 2.22306 0
M  V30 19235 C 1802.29 -1.05895 1.21008 0
M  V30 19236 O 1803.48 -0.954497 1.45722 0
M  V30 19237 C 1800.61 -1.77279 2.91178 0
M  V30 19238 H 1801.8 0.0333187 2.99881 0
M  V30 19239 H 1799.36 0.0548659 1.56204 0
M  V30 19240 H 1800.09 -2.40378 2.17689 0
M  V30 19241 H 1799.88 -1.42115 3.65439 0
M  V30 19242 H 1801.37 -2.38507 3.42789 0
M  V30 19243 N 1801.8 -1.57568 0.0317802 0
M  V30 19244 C 1803.05 -1.92194 -0.647238 0
M  V30 19245 C 1803.38 -0.908747 -1.71626 0
M  V30 19246 O 1802.66 0.0681334 -1.94381 0
M  V30 19247 C 1802.94 -3.3729 -1.26124 0
M  V30 19248 C 1802.79 -4.49348 -0.201594 0
M  V30 19249 C 1804.11 -3.824 -2.17849 0
M  V30 19250 H 1801.23 -0.698927 -0.233817 0
M  V30 19251 H 1803.87 -1.89789 0.0895831 0
M  V30 19252 H 1802.02 -3.39471 -1.88922 0
M  V30 19253 H 1803.7 -4.59299 0.429155 0
M  V30 19254 H 1801.94 -4.31218 0.472624 0
M  V30 19255 H 1802.61 -5.47908 -0.670859 0
M  V30 19256 H 1805.09 -3.81972 -1.65034 0
M  V30 19257 H 1803.96 -4.84614 -2.57761 0
M  V30 19258 H 1804.22 -3.18054 -3.07073 0
M  V30 19259 N 1803.28 0.241399 -1.5574 0
M  V30 19260 C 1804.56 0.991821 -1.68589 0
M  V30 19261 C 1804.94 2.03167 -0.573274 0
M  V30 19262 O 1804.29 2.2456 0.422521 0
M  V30 19263 C 1804.5 1.6202 -3.09112 0
M  V30 19264 C 1805.85 2.11998 -3.67889 0
M  V30 19265 O 1806.87 1.71951 -3.11948 0
M  V30 19266 O 1805.73 2.85545 -4.65968 0
M  V30 19267 H 1802.82 0.462017 -0.685907 0
M  V30 19268 H 1805.37 0.23475 -1.68068 0
M  V30 19269 H 1804.14 0.86835 -3.81543 0
M  V30 19270 H 1803.76 2.44333 -3.13667 0
M  V30 19271 N 1804.76 1.49212 0.507292 0
M  V30 19272 C 1806 1.59994 1.27205 0
M  V30 19273 C 1806.36 0.277569 1.89983 0
M  V30 19274 O 1807.57 0.260529 2.67534 0
M  V30 19275 C 1805.84 2.72265 2.31531 0
M  V30 19276 S 1807.4 3.02958 3.1743 0
M  V30 19277 H 1804.21 0.564411 0.432391 0
M  V30 19278 H 1806.82 1.86842 0.575353 0
M  V30 19279 H 1805.52 3.66876 1.8393 0
M  V30 19280 H 1805.05 2.4739 3.05878 0
M  V30 19281 H 1807.07 2.43996 4.32065 0
M  V30 19282 N 1806.24 -0.757876 1.38181 0
M  V30 19283 C 1807.19 -1.8929 1.35174 0
M  V30 19284 C 1808.18 -1.67716 0.238284 0
M  V30 19285 O 1809.39 -1.75336 0.407085 0
M  V30 19286 H 1805.76 -0.622712 0.421585 0
M  V30 19287 H 1807.73 -1.88943 2.30961 0
M  V30 19288 C 1806.48 -3.26723 1.18942 0
M  V30 19289 H 1805.8 -3.43909 2.0388 0
M  V30 19290 H 1807.24 -4.06401 1.20891 0
M  V30 19291 C 1805.7 -3.3674 -0.103978 0
M  V30 19292 O 1806.23 -3.86838 -1.08256 0
M  V30 19293 N 1804.44 -2.90163 -0.159367 0
M  V30 19294 H 1803.99 -2.49583 0.637642 0
M  V30 19295 H 1803.94 -2.97245 -1.02435 0
M  V30 19296 N 1807.72 -1.22979 -0.985586 0
M  V30 19297 C 1808.65 -0.964185 -2.07933 0
M  V30 19298 C 1809.66 0.0599162 -1.6269 0
M  V30 19299 O 1810.85 -0.174984 -1.7764 0
M  V30 19300 C 1807.95 -0.429879 -3.36163 0
M  V30 19301 C 1807.12 -1.51293 -4.10401 0
M  V30 19302 C 1806.18 -0.984411 -5.1691 0
M  V30 19303 O 1805.21 -1.67225 -5.44081 0
M  V30 19304 N 1806.41 0.190439 -5.80188 0
M  V30 19305 H 1809.18 -1.90582 -2.31297 0
M  V30 19306 H 1806.74 -1.13767 -1.15189 0
M  V30 19307 H 1808.73 -0.0614639 -4.04653 0
M  V30 19308 H 1807.3 0.417049 -3.09806 0
M  V30 19309 H 1806.52 -2.05434 -3.36438 0
M  V30 19310 H 1807.81 -2.24141 -4.56769 0
M  V30 19311 H 1807.2 0.765928 -5.60491 0
M  V30 19312 H 1805.76 0.500168 -6.49878 0
M  V30 19313 N 1809.19 1.18355 -1.04066 0
M  V30 19314 C 1810.44 1.88614 -0.745148 0
M  V30 19315 C 1810.77 1.80147 0.725294 0
M  V30 19316 O 1810.05 1.20177 1.5293 0
M  V30 19317 C 1810.33 3.39095 -1.2119 0
M  V30 19318 C 1810.18 3.56372 -2.74444 0
M  V30 19319 C 1811.5 4.32732 -0.801953 0
M  V30 19320 H 1808.62 0.684905 -0.272166 0
M  V30 19321 H 1811.26 1.39248 -1.29267 0
M  V30 19322 H 1809.41 3.81269 -0.746091 0
M  V30 19323 H 1811.09 3.2329 -3.29061 0
M  V30 19324 H 1809.33 2.99028 -3.14269 0
M  V30 19325 H 1810 4.61956 -3.0216 0
M  V30 19326 H 1812.48 3.98337 -1.20278 0
M  V30 19327 H 1811.35 5.36583 -1.15628 0
M  V30 19328 H 1811.61 4.41115 0.294907 0
M  V30 19329 N 1810.67 0.820125 1.3458 0
M  V30 19330 C 1811.6 0.197556 2.28347 0
M  V30 19331 C 1812.62 -0.610956 1.50901 0
M  V30 19332 O 1813.81 -0.441096 1.72964 0
M  V30 19333 C 1810.91 -0.741893 3.3068 0
M  V30 19334 C 1810.08 0.0231854 4.37394 0
M  V30 19335 C 1809.14 -0.83677 5.19504 0
M  V30 19336 O 1808.16 -0.282772 5.68497 0
M  V30 19337 N 1809.37 -2.15696 5.38939 0
M  V30 19338 H 1812.13 1.00314 2.82413 0
M  V30 19339 H 1809.69 0.676827 1.47074 0
M  V30 19340 H 1811.68 -1.32173 3.82508 0
M  V30 19341 H 1810.25 -1.44823 2.77029 0
M  V30 19342 H 1809.47 0.784316 3.86319 0
M  V30 19343 H 1810.76 0.549958 5.05819 0
M  V30 19344 H 1810.16 -2.63083 5.00803 0
M  V30 19345 H 1808.72 -2.68572 5.93896 0
M  V30 19346 N 1812.15 -1.46743 0.574835 0
M  V30 19347 C 1813.08 -2.33012 -0.150836 0
M  V30 19348 C 1814.06 -1.44868 -0.891472 0
M  V30 19349 O 1815.25 -1.73698 -0.868481 0
M  V30 19350 C 1812.38 -3.26995 -1.17012 0
M  V30 19351 C 1811.33 -4.24518 -0.544829 0
M  V30 19352 C 1810.66 -5.07951 -1.67002 0
M  V30 19353 C 1811.96 -5.19776 0.512891 0
M  V30 19354 H 1813.65 -2.93935 0.569433 0
M  V30 19355 H 1811.2 -1.41344 0.275289 0
M  V30 19356 H 1813.15 -3.86198 -1.68609 0
M  V30 19357 H 1811.87 -2.64163 -1.92056 0
M  V30 19358 H 1810.53 -3.66566 -0.0500133 0
M  V30 19359 H 1810.18 -4.4151 -2.40993 0
M  V30 19360 H 1809.88 -5.73991 -1.25732 0
M  V30 19361 H 1811.4 -5.70017 -2.1889 0
M  V30 19362 H 1812.82 -5.73241 0.0823064 0
M  V30 19363 H 1811.22 -5.94114 0.845462 0
M  V30 19364 H 1812.29 -4.64184 1.40217 0
M  V30 19365 N 1813.63 -0.312197 -1.54477 0
M  V30 19366 C 1815.04 0.178189 -1.85848 0
M  V30 19367 C 1815.39 1.52534 -1.23401 0
M  V30 19368 O 1814.52 2.09661 -0.535822 0
M  V30 19369 C 1815.11 0.330099 -3.37188 0
M  V30 19370 C 1813.67 0.764703 -3.6855 0
M  V30 19371 C 1812.82 -0.120348 -2.77039 0
M  V30 19372 H 1815.77 -0.532853 -1.49487 0
M  V30 19373 H 1815.79 1.16287 -3.62295 0
M  V30 19374 H 1815.3 -0.650527 -3.82609 0
M  V30 19375 H 1813.4 1.75548 -3.28654 0
M  V30 19376 H 1813.51 0.576331 -4.75621 0
M  V30 19377 H 1811.88 0.402229 -2.51504 0
M  V30 19378 H 1812.66 -1.09753 -3.25283 0
M  V30 19379 N 1815.11 1.57549 -0.040136 0
M  V30 19380 C 1816.04 2.07803 0.966975 0
M  V30 19381 C 1817.05 1.00363 1.28184 0
M  V30 19382 O 1818.24 1.27957 1.24456 0
M  V30 19383 C 1815.34 2.49688 2.29149 0
M  V30 19384 C 1814.51 3.80336 2.16017 0
M  V30 19385 C 1813.57 4.08652 3.31497 0
M  V30 19386 O 1812.6 4.78739 3.07892 0
M  V30 19387 N 1813.8 3.59693 4.55633 0
M  V30 19388 H 1816.57 2.94829 0.538115 0
M  V30 19389 H 1814.13 1.61237 0.146368 0
M  V30 19390 H 1816.12 2.65715 3.0525 0
M  V30 19391 H 1814.69 1.67969 2.63638 0
M  V30 19392 H 1813.91 3.73998 1.24575 0
M  V30 19393 H 1815.2 4.65912 2.04458 0
M  V30 19394 H 1814.59 3.03012 4.77703 0
M  V30 19395 H 1813.15 3.80978 5.28866 0
M  V30 19396 N 1816.58 -0.233136 1.55866 0
M  V30 19397 C 1817.81 -0.980602 1.82754 0
M  V30 19398 C 1818.23 -1.77624 0.618988 0
M  V30 19399 O 1817.59 -1.76074 -0.432148 0
M  V30 19400 C 1817.64 -1.88319 3.07519 0
M  V30 19401 O 1816.74 -2.97692 2.85401 0
M  V30 19402 H 1816.09 -0.278295 0.602867 0
M  V30 19403 H 1818.62 -0.249956 2.03067 0
M  V30 19404 H 1818.63 -2.29523 3.37318 0
M  V30 19405 H 1817.3 -1.29831 3.95116 0
M  V30 19406 H 1815.88 -2.60517 2.66805 0
M  V30 19407 N 1818.06 -1.49479 -0.499372 0
M  V30 19408 C 1819.34 -1.4955 -1.26071 0
M  V30 19409 C 1819.72 -0.224142 -2.09907 0
M  V30 19410 O 1819.07 0.793432 -2.14282 0
M  V30 19411 C 1819.28 -2.77534 -2.11604 0
M  V30 19412 C 1820.63 -3.27088 -2.70738 0
M  V30 19413 O 1821.65 -2.78662 -2.2187 0
M  V30 19414 O 1820.51 -4.11432 -3.59703 0
M  V30 19415 H 1817.6 -0.598631 -0.570587 0
M  V30 19416 H 1820.15 -1.61744 -0.513509 0
M  V30 19417 H 1818.92 -3.61556 -1.49642 0
M  V30 19418 H 1818.54 -2.68208 -2.93514 0
M  V30 19419 N 1819.54 0.750537 -1.38581 0
M  V30 19420 C 1820.77 1.54489 -1.38376 0
M  V30 19421 C 1821.19 1.88085 0.023634 0
M  V30 19422 O 1820.55 1.50794 1.00652 0
M  V30 19423 C 1820.6 2.81875 -2.24897 0
M  V30 19424 O 1819.7 3.77155 -1.66817 0
M  V30 19425 H 1819.04 0.467148 -0.471878 0
M  V30 19426 H 1821.57 0.927264 -1.82381 0
M  V30 19427 H 1821.58 3.30769 -2.38864 0
M  V30 19428 H 1820.26 2.56753 -3.27186 0
M  V30 19429 H 1818.83 3.35868 -1.62009 0
M  V30 19430 N 1821.02 1.235 0.979051 0
M  V30 19431 C 1822.24 1.09551 1.76106 0
M  V30 19432 C 1822.67 -0.348792 1.84838 0
M  V30 19433 O 1822.03 -1.25231 1.31099 0
M  V30 19434 C 1822.08 1.7272 3.16544 0
M  V30 19435 O 1821.18 0.990263 4.00334 0
M  V30 19436 H 1820.52 0.383909 0.541766 0
M  V30 19437 H 1823.05 1.63581 1.22892 0
M  V30 19438 H 1823.06 1.78014 3.67117 0
M  V30 19439 H 1821.74 2.77813 3.09504 0
M  V30 19440 H 1820.31 1.01436 3.58839 0
M  V30 19441 N 1822.5 -1.17802 1.04693 0
M  V30 19442 C 1823.43 -2.23847 0.664448 0
M  V30 19443 C 1824.41 -1.66761 -0.335356 0
M  V30 19444 O 1825.59 -1.93017 -0.214062 0
M  V30 19445 C 1822.72 -3.47284 0.0331587 0
M  V30 19446 C 1821.68 -4.1716 0.95718 0
M  V30 19447 C 1821 -5.34362 0.190034 0
M  V30 19448 C 1822.3 -4.69951 2.2791 0
M  V30 19449 H 1824 -2.56095 1.55099 0
M  V30 19450 H 1821.54 -1.23097 0.747196 0
M  V30 19451 H 1823.5 -4.2068 -0.246178 0
M  V30 19452 H 1822.22 -3.14288 -0.888294 0
M  V30 19453 H 1820.88 -3.45669 1.221 0
M  V30 19454 H 1820.53 -4.97615 -0.734025 0
M  V30 19455 H 1820.23 -5.8205 0.805684 0
M  V30 19456 H 1821.75 -6.10545 -0.0821372 0
M  V30 19457 H 1823.17 -5.3501 2.06003 0
M  V30 19458 H 1821.56 -5.28198 2.84828 0
M  V30 19459 H 1822.63 -3.87032 2.9212 0
M  V30 19460 N 1823.98 -0.827251 -1.34143 0
M  V30 19461 C 1824.91 -0.209663 -2.28239 0
M  V30 19462 C 1825.92 0.602945 -1.51223 0
M  V30 19463 O 1827.11 0.431917 -1.73196 0
M  V30 19464 C 1824.21 0.724345 -3.31069 0
M  V30 19465 C 1823.38 -0.0463812 -4.37375 0
M  V30 19466 C 1822.44 0.809208 -5.19941 0
M  V30 19467 O 1821.47 0.252619 -5.68639 0
M  V30 19468 N 1822.67 2.12835 -5.40075 0
M  V30 19469 H 1825.43 -1.0181 -2.81877 0
M  V30 19470 H 1823 -0.684618 -1.46713 0
M  V30 19471 H 1824.99 1.30143 -3.83204 0
M  V30 19472 H 1823.56 1.43352 -2.77793 0
M  V30 19473 H 1822.78 -0.804793 -3.85897 0
M  V30 19474 H 1824.07 -0.576775 -5.0552 0
M  V30 19475 H 1823.46 2.60423 -5.02191 0
M  V30 19476 H 1822.02 2.65419 -5.95312 0
M  V30 19477 N 1825.45 1.46436 -0.582609 0
M  V30 19478 C 1826.68 2.07275 -0.0718712 0
M  V30 19479 C 1827.1 1.42851 1.22373 0
M  V30 19480 O 1826.46 0.512272 1.73912 0
M  V30 19481 C 1826.51 3.6051 0.08055 0
M  V30 19482 O 1825.61 3.96414 1.13707 0
M  V30 19483 H 1824.95 0.661027 -0.0627607 0
M  V30 19484 H 1827.48 1.88076 -0.805524 0
M  V30 19485 H 1827.49 4.06991 0.286749 0
M  V30 19486 H 1826.17 4.06792 -0.865603 0
M  V30 19487 H 1824.75 3.61643 0.909338 0
M  V30 19488 N 1826.93 0.320385 1.54309 0
M  V30 19489 C 1827.86 -0.539789 2.27175 0
M  V30 19490 C 1828.84 -1.12198 1.2785 0
M  V30 19491 O 1830.03 -1.1477 1.56657 0
M  V30 19492 C 1827.16 -1.70236 3.02716 0
M  V30 19493 C 1826.11 -1.24962 4.09351 0
M  V30 19494 C 1825.44 -2.49888 4.72715 0
M  V30 19495 C 1826.74 -0.366788 5.21011 0
M  V30 19496 H 1828.43 0.0680079 2.99323 0
M  V30 19497 H 1825.98 0.0341488 1.4396 0
M  V30 19498 H 1827.93 -2.31037 3.5242 0
M  V30 19499 H 1826.65 -2.33669 2.2818 0
M  V30 19500 H 1825.31 -0.664556 3.60526 0
M  V30 19501 H 1824.96 -3.11679 3.94798 0
M  V30 19502 H 1824.66 -2.20288 5.44745 0
M  V30 19503 H 1826.19 -3.11458 5.25192 0
M  V30 19504 H 1827.6 -0.881001 5.6649 0
M  V30 19505 H 1826 -0.163707 5.99877 0
M  V30 19506 H 1827.07 0.603185 4.81134 0
M  V30 19507 N 1828.41 -1.57525 0.0484906 0
M  V30 19508 C 1829.32 -2.14854 -0.942076 0
M  V30 19509 C 1830.34 -1.10565 -1.34355 0
M  V30 19510 O 1831.51 -1.4272 -1.42102 0
M  V30 19511 C 1828.58 -2.68002 -2.19945 0
M  V30 19512 C 1827.64 -3.87078 -1.85658 0
M  V30 19513 C 1826.87 -4.37682 -3.05401 0
M  V30 19514 O 1827.09 -3.87373 -4.18687 0
M  V30 19515 O 1826.03 -5.29302 -2.86571 0
M  V30 19516 H 1829.85 -2.9981 -0.48453 0
M  V30 19517 H 1827.44 -1.48392 -0.173252 0
M  V30 19518 H 1829.32 -3.02167 -2.93722 0
M  V30 19519 H 1828 -1.86118 -2.64843 0
M  V30 19520 H 1826.9 -3.57806 -1.09205 0
M  V30 19521 H 1828.24 -4.70184 -1.45562 0
M  V30 19522 N 1829.89 0.224867 -1.55988 0
M  V30 19523 C 1831.12 0.966727 -1.82926 0
M  V30 19524 C 1831.53 1.78078 -0.627177 0
M  V30 19525 O 1830.89 1.77966 0.404277 0
M  V30 19526 C 1830.94 1.88696 -3.08344 0
M  V30 19527 O 1830.66 1.10581 -4.23914 0
M  V30 19528 C 1832.16 2.74299 -3.48246 0
M  V30 19529 H 1829.38 0.283479 -0.608178 0
M  V30 19530 H 1831.92 0.241097 -2.03074 0
M  V30 19531 H 1830.08 2.56658 -2.90182 0
M  V30 19532 H 1830.49 1.73019 -4.95141 0
M  V30 19533 H 1831.97 3.34577 -4.39047 0
M  V30 19534 H 1832.44 3.46526 -2.69845 0
M  V30 19535 H 1833.05 2.11755 -3.68836 0
M  V30 19536 N 1831.37 1.49742 0.491438 0
M  V30 19537 C 1832.59 1.63703 1.27343 0
M  V30 19538 C 1833.02 0.312079 1.85493 0
M  V30 19539 O 1832.37 -0.721545 1.66323 0
M  V30 19540 C 1832.42 2.71549 2.37262 0
M  V30 19541 O 1831.53 2.31387 3.41371 0
M  V30 19542 H 1830.87 0.547605 0.375533 0
M  V30 19543 H 1833.4 1.95991 0.587243 0
M  V30 19544 H 1833.41 2.94009 2.82883 0
M  V30 19545 H 1832.08 3.6772 1.94306 0
M  V30 19546 H 1830.66 2.19295 3.01603 0
M  V30 19547 N 1832.84 -0.743177 1.38977 0
M  V30 19548 C 1834.09 -1.50479 1.35956 0
M  V30 19549 C 1834.42 -1.94143 -0.0471116 0
M  V30 19550 O 1833.7 -1.66195 -1.01042 0
M  V30 19551 C 1833.98 -2.75016 2.32461 0
M  V30 19552 C 1833.83 -2.37423 3.82034 0
M  V30 19553 C 1835.15 -3.77084 2.26927 0
M  V30 19554 H 1832.27 -0.545869 0.495172 0
M  V30 19555 H 1834.91 -0.850403 1.69906 0
M  V30 19556 H 1833.06 -3.30852 2.03639 0
M  V30 19557 H 1834.74 -1.87282 4.21572 0
M  V30 19558 H 1832.98 -1.69752 3.99208 0
M  V30 19559 H 1833.65 -3.2657 4.45035 0
M  V30 19560 H 1836.13 -3.30812 2.52394 0
M  V30 19561 H 1835 -4.61901 2.96545 0
M  V30 19562 H 1835.26 -4.23419 1.27156 0
M  V30 19563 O 1834.36 -1.35154 -0.884061 0
M  V30 19564 H 1835.05 -1.1991 -1.52122 0
M  V30 END ATOM
M  V30 BEGIN BOND
M  V30 END BOND
M  V30 END CTAB
M  END
$$$$
