drugbank_target|Q701N4 Keratin-associated protein 5-2 (DB02379; DB03088)
 OpenBabel12092120543D

  0  0  0     0  0            999 V3000
M  V30 BEGIN CTAB
M  V30 COUNTS 2043 2053 0 0 0
M  V30 BEGIN ATOM
M  V30 1 H -0.908 1.98254 -0.117106 0
M  V30 2 N 0 1.576 0 0
M  V30 3 C 0.933 2.03868 1.02534 0
M  V30 4 C 1.911 0.928543 1.3348 0
M  V30 5 O 3.095 1.19667 1.45644 0
M  V30 6 C 0.222 2.43627 2.35294 0
M  V30 7 C -0.732 3.65373 2.2001 0
M  V30 8 S 0.101 5.13292 1.52614 0
M  V30 9 C 1.257 5.56322 2.86805 0
M  V30 10 H 1.49 2.90518 0.631377 0
M  V30 11 H -0.977 1.52953 0.210867 0
M  V30 12 H 0.981 2.67203 3.11629 0
M  V30 13 H -0.358 1.57376 2.7183 0
M  V30 14 H -1.165 3.90944 3.18086 0
M  V30 15 H -1.563 3.418 1.51819 0
M  V30 16 H 0.729 5.58782 3.83104 0
M  V30 17 H 1.672 6.56266 2.65933 0
M  V30 18 H 2.08 4.83886 2.90714 0
M  V30 19 N 1.4781 -0.272755 1.55222 0
M  V30 20 C 2.7261 -1.00234 1.75492 0
M  V30 21 C 3.0471 -1.8681 0.5592 0
M  V30 22 O 2.3171 -1.91215 -0.425882 0
M  V30 23 H 0.8971 -0.373076 0.647166 0
M  V30 24 H 3.5591 -0.296926 1.92625 0
M  V30 25 H 2.6551 -1.63913 2.65592 0
M  V30 26 N 2.9562 -1.48159 -0.537278 0
M  V30 27 C 4.1962 -1.57397 -1.30405 0
M  V30 28 C 4.5602 -0.239202 -1.90504 0
M  V30 29 O 5.7612 -0.206528 -2.68005 0
M  V30 30 C 4.0322 -2.6754 -2.36974 0
M  V30 31 S 5.5912 -2.96496 -3.23475 0
M  V30 32 H 2.4092 -0.555577 -0.443684 0
M  V30 33 H 5.0112 -1.85644 -0.612912 0
M  V30 34 H 3.7152 -3.63092 -1.91291 0
M  V30 35 H 3.2462 -2.41172 -3.10805 0
M  V30 36 H 5.2612 -2.35234 -4.36897 0
M  V30 37 N 4.4343 0.785586 -1.36625 0
M  V30 38 C 5.6743 1.55678 -1.32453 0
M  V30 39 C 6.0383 1.91769 0.0941089 0
M  V30 40 O 7.2393 2.67536 0.26042 0
M  V30 41 C 5.5103 2.79701 -2.22491 0
M  V30 42 S 7.0693 3.69907 -2.36038 0
M  V30 43 H 3.8873 0.533141 -0.470405 0
M  V30 44 H 6.4893 0.924953 -1.72235 0
M  V30 45 H 5.1933 2.51244 -3.24507 0
M  V30 46 H 4.7243 3.47854 -1.83742 0
M  V30 47 H 6.7393 4.71016 -1.56072 0
M  V30 48 N 5.9124 1.20967 1.01018 0
M  V30 49 C 7.1604 1.02172 1.74371 0
M  V30 50 C 7.4814 -0.446414 1.89821 0
M  V30 51 O 6.7514 -1.32234 1.44537 0
M  V30 52 H 5.3314 0.375066 0.646014 0
M  V30 53 H 7.9934 1.52187 1.21758 0
M  V30 54 H 7.0894 1.48538 2.74487 0
M  V30 55 N 7.3905 -1.2043 1.01659 0
M  V30 56 C 8.6305 -1.91507 0.714456 0
M  V30 57 C 8.9945 -1.77073 -0.742237 0
M  V30 58 O 10.1955 -2.42631 -1.15688 0
M  V30 59 C 8.4665 -3.38795 1.13809 0
M  V30 60 S 10.0255 -4.28216 0.957925 0
M  V30 61 H 6.8435 -0.661571 0.260471 0
M  V30 62 H 9.4455 -1.45671 1.30384 0
M  V30 63 H 8.1495 -3.46822 2.19415 0
M  V30 64 H 7.6805 -3.89656 0.541474 0
M  V30 65 H 9.6955 -4.96007 -0.138531 0
M  V30 66 N 8.8686 -0.792821 -1.36206 0
M  V30 67 C 10.0936 -0.377701 -2.03932 0
M  V30 68 C 10.5186 0.998947 -1.59382 0
M  V30 69 O 9.8766 1.64421 -0.763903 0
M  V30 70 C 9.9246 -0.453635 -3.57735 0
M  V30 71 O 9.0286 0.538151 -4.08874 0
M  V30 72 H 8.3696 -0.159855 -0.644471 0
M  V30 73 H 10.8996 -1.07488 -1.7409 0
M  V30 74 H 10.9096 -0.318464 -4.06755 0
M  V30 75 H 9.5846 -1.45784 -3.89512 0
M  V30 76 H 8.1616 0.364359 -3.71116 0
M  V30 77 N 10.3467 1.47872 -0.545128 0
M  V30 78 C 11.7627 1.5829 -0.204032 0
M  V30 79 C 11.9627 1.54529 1.29317 0
M  V30 80 O 11.0187 1.44232 2.07252 0
M  V30 81 C 12.3317 2.89304 -0.819987 0
M  V30 82 C 13.8797 3.02864 -0.790105 0
M  V30 83 C 14.3547 4.3656 -1.38491 0
M  V30 84 N 15.8457 4.43165 -1.34755 0
M  V30 85 C 16.5807 5.45153 -1.77753 0
M  V30 86 N 16.0767 6.54016 -2.2855 0
M  V30 87 N 17.8697 5.36125 -1.68897 0
M  V30 88 H 10.0207 1.4856 -1.51802 0
M  V30 89 H 12.2837 0.706305 -0.632327 0
M  V30 90 H 11.9897 2.97757 -1.87173 0
M  V30 91 H 11.8637 3.75957 -0.305915 0
M  V30 92 H 14.2507 2.94014 0.252913 0
M  V30 93 H 14.3317 2.17782 -1.34181 0
M  V30 94 H 13.9757 4.46164 -2.42693 0
M  V30 95 H 13.9057 5.20353 -0.808754 0
M  V30 96 H 16.3967 3.65083 -0.975855 0
M  V30 97 H 16.7097 7.27994 -2.59314 0
M  V30 98 H 15.0547 6.54938 -2.32553 0
M  V30 99 H 18.2457 4.49975 -1.28998 0
M  V30 100 H 18.4187 6.15472 -2.02726 0
M  V30 101 N 11.8248 0.280983 1.55075 0
M  V30 102 C 13.0728 -0.333455 1.9933 0
M  V30 103 C 13.3938 -1.55937 1.17085 0
M  V30 104 O 12.6638 -1.94143 0.261805 0
M  V30 105 H 11.2438 -0.126197 0.736263 0
M  V30 106 H 13.9058 0.387678 1.91005 0
M  V30 107 H 13.0018 -0.619292 3.05894 0
M  V30 108 N 13.3029 -1.57598 0.00835791 0
M  V30 109 C 14.5429 -1.92788 -0.679136 0
M  V30 110 C 14.9069 -0.883378 -1.70471 0
M  V30 111 O 16.1079 -1.12079 -2.44319 0
M  V30 112 C 14.3789 -3.32994 -1.29807 0
M  V30 113 S 15.9379 -3.90082 -2.00952 0
M  V30 114 H 12.7559 -0.67475 -0.224127 0
M  V30 115 H 15.3579 -1.95385 0.0670497 0
M  V30 116 H 14.0619 -4.06846 -0.538922 0
M  V30 117 H 13.5929 -3.33791 -2.082 0
M  V30 118 H 15.6079 -3.71834 -3.28563 0
M  V30 119 N 14.781 0.264519 -1.55364 0
M  V30 120 C 16.029 0.993021 -1.76021 0
M  V30 121 C 16.35 1.86511 -0.569099 0
M  V30 122 O 15.62 1.91438 0.415735 0
M  V30 123 H 14.2 0.369639 -0.649135 0
M  V30 124 H 16.862 0.286707 -1.9278 0
M  V30 125 H 15.958 1.62502 -2.66457 0
M  V30 126 N 16.2591 1.48442 0.529413 0
M  V30 127 C 17.4841 1.60406 1.31471 0
M  V30 128 C 17.9091 0.264738 1.86228 0
M  V30 129 O 17.2671 -0.763668 1.64432 0
M  V30 130 C 17.3151 2.65419 2.44101 0
M  V30 131 O 16.4191 2.22618 3.47153 0
M  V30 132 H 15.7601 0.537863 0.389357 0
M  V30 133 H 18.2901 1.94432 0.636965 0
M  V30 134 H 18.3001 2.86709 2.90279 0
M  V30 135 H 16.9751 3.62652 2.03608 0
M  V30 136 H 15.5521 2.11543 3.0709 0
M  V30 137 N 17.7372 -0.778329 1.37039 0
M  V30 138 C 18.9852 -1.53361 1.31623 0
M  V30 139 C 19.3062 -1.94739 -0.100831 0
M  V30 140 O 18.5762 -1.65797 -1.04347 0
M  V30 141 H 17.1562 -0.568794 0.484234 0
M  V30 142 H 19.8182 -0.926742 1.71457 0
M  V30 143 H 18.9142 -2.43606 1.95096 0
M  V30 144 N 19.2153 -1.21501 -1.00376 0
M  V30 145 C 20.4553 -1.04444 -1.75701 0
M  V30 146 C 20.8193 0.414644 -1.87469 0
M  V30 147 O 22.0203 0.705763 -2.59369 0
M  V30 148 C 20.2913 -1.72389 -3.13077 0
M  V30 149 S 21.8503 -1.70604 -4.04277 0
M  V30 150 H 18.6683 -0.374249 -0.604532 0
M  V30 151 H 21.2703 -1.54267 -1.20091 0
M  V30 152 H 19.9743 -2.77734 -3.02146 0
M  V30 153 H 19.5053 -1.22751 -3.73759 0
M  V30 154 H 21.5203 -0.748012 -4.9053 0
M  V30 155 N 20.6934 1.19889 -1.02296 0
M  V30 156 C 21.9414 1.89046 -0.714558 0
M  V30 157 C 22.2624 1.79636 0.758681 0
M  V30 158 O 21.5324 1.20292 1.54618 0
M  V30 159 H 20.1124 0.699802 -0.261317 0
M  V30 160 H 22.7744 1.45574 -1.29592 0
M  V30 161 H 21.8704 2.95524 -1.0036 0
M  V30 162 N 22.1715 0.800033 1.35784 0
M  V30 163 C 23.4195 0.376597 1.9856 0
M  V30 164 C 23.7405 -1.05812 1.63795 0
M  V30 165 O 23.0105 -1.73103 0.917171 0
M  V30 166 H 21.5905 0.136261 0.734467 0
M  V30 167 H 24.2525 1.02442 1.65806 0
M  V30 168 H 23.3485 0.477002 3.08433 0
M  V30 169 N 23.6496 -1.47581 0.552962 0
M  V30 170 C 24.8896 -2.04379 0.0296245 0
M  V30 171 C 25.2536 -1.4185 -1.29393 0
M  V30 172 O 26.4546 -1.89669 -1.90471 0
M  V30 173 C 24.7256 -3.57339 -0.0661371 0
M  V30 174 S 26.2846 -4.35511 -0.536213 0
M  V30 175 H 23.1026 -0.710625 0.0230991 0
M  V30 176 H 25.7046 -1.81005 0.738734 0
M  V30 177 H 24.4086 -4.00374 0.901596 0
M  V30 178 H 23.9396 -3.85202 -0.798931 0
M  V30 179 H 25.9546 -4.6253 -1.79668 0
M  V30 180 N 25.1277 -0.289203 -1.54924 0
M  V30 181 C 26.3757 0.322879 -1.99504 0
M  V30 182 C 26.6967 1.55313 -1.1791 0
M  V30 183 O 25.9667 1.94001 -0.272097 0
M  V30 184 H 24.5467 0.122291 -0.736922 0
M  V30 185 H 27.2087 -0.397802 -1.90797 0
M  V30 186 H 26.3047 0.603061 -3.06218 0
M  V30 187 N 26.6058 1.57591 -0.0167156 0
M  V30 188 C 27.8308 1.9598 0.67872 0
M  V30 189 C 28.2558 0.892546 1.65575 0
M  V30 190 O 27.6138 -0.147772 1.80697 0
M  V30 191 C 27.6618 3.33468 1.37227 0
M  V30 192 O 26.7658 3.28954 2.48722 0
M  V30 193 H 26.1068 0.639339 0.17928 0
M  V30 194 H 28.6368 2.04463 -0.0748802 0
M  V30 195 H 28.6468 3.69417 1.7319 0
M  V30 196 H 27.3218 4.10694 0.656007 0
M  V30 197 H 25.8988 3.04705 2.14963 0
M  V30 198 N 28.0839 -0.256276 1.55502 0
M  V30 199 C 29.3089 -1.00766 1.81276 0
M  V30 200 C 29.7339 -1.78524 0.59252 0
M  V30 201 O 29.0919 -1.75413 -0.45827 0
M  V30 202 C 29.1399 -1.92869 3.04687 0
M  V30 203 O 28.2439 -3.019 2.80945 0
M  V30 204 H 27.5849 -0.287224 0.598664 0
M  V30 205 H 30.1149 -0.280109 2.02674 0
M  V30 206 H 30.1249 -2.34511 3.33869 0
M  V30 207 H 28.7999 -1.35689 3.93143 0
M  V30 208 H 27.3769 -2.64454 2.62904 0
M  V30 209 N 29.562 -1.4872 -0.521534 0
M  V30 210 C 30.802 -1.58771 -1.28729 0
M  V30 211 C 31.166 -0.259394 -1.9024 0
M  V30 212 O 32.367 -0.234942 -2.67771 0
M  V30 213 C 30.638 -2.70039 -2.34124 0
M  V30 214 S 32.197 -2.9991 -3.20312 0
M  V30 215 H 29.015 -0.560251 -0.437767 0
M  V30 216 H 31.617 -1.86283 -0.593188 0
M  V30 217 H 30.321 -3.65101 -1.87429 0
M  V30 218 H 29.852 -2.44455 -3.08229 0
M  V30 219 H 31.867 -2.39855 -4.34378 0
M  V30 220 N 31.0401 0.771051 -1.3745 0
M  V30 221 C 32.2881 1.52661 -1.32435 0
M  V30 222 C 32.6091 1.9479 0.0905024 0
M  V30 223 O 31.8791 1.66348 1.03466 0
M  V30 224 H 30.4591 0.566218 -0.487244 0
M  V30 225 H 33.1211 0.917636 -1.71946 0
M  V30 226 H 32.2171 2.42568 -1.96385 0
M  V30 227 N 32.5182 1.22032 0.997298 0
M  V30 228 C 33.7662 1.04016 1.73278 0
M  V30 229 C 34.0872 -0.426255 1.90284 0
M  V30 230 O 33.3572 -1.30694 1.45931 0
M  V30 231 H 31.9372 0.381897 0.642 0
M  V30 232 H 34.5992 1.5347 1.20137 0
M  V30 233 H 33.6952 1.51441 2.72896 0
M  V30 234 N 33.9963 -1.19345 1.0293 0
M  V30 235 C 35.2363 -1.90738 0.734727 0
M  V30 236 C 35.6003 -1.7785 -0.723414 0
M  V30 237 O 36.8013 -2.43844 -1.13108 0
M  V30 238 C 35.0723 -3.37569 1.17396 0
M  V30 239 S 36.6313 -4.27176 1.00329 0
M  V30 240 H 33.4493 -0.658771 0.267474 0
M  V30 241 H 36.0513 -1.4428 1.31922 0
M  V30 242 H 34.7553 -3.44475 2.23081 0
M  V30 243 H 34.2863 -3.8906 0.582772 0
M  V30 244 H 36.3013 -4.96126 -0.0859152 0
M  V30 245 N 35.4744 -0.807222 -1.35358 0
M  V30 246 C 36.7224 -0.387122 -1.98358 0
M  V30 247 C 37.0434 1.04942 -1.64354 0
M  V30 248 O 36.3134 1.72615 -0.926339 0
M  V30 249 H 34.8934 -0.140154 -0.733734 0
M  V30 250 H 37.5554 -1.0332 -1.6526 0
M  V30 251 H 36.6514 -0.493352 -3.08176 0
M  V30 252 N 36.9525 1.47285 -0.560781 0
M  V30 253 C 38.1775 2.07359 -0.0410566 0
M  V30 254 C 38.6025 1.41017 1.24483 0
M  V30 255 O 37.9605 0.486368 1.74654 0
M  V30 256 C 38.0085 3.6035 0.134123 0
M  V30 257 O 37.1125 3.94681 1.19587 0
M  V30 258 H 36.4535 0.661887 -0.0529291 0
M  V30 259 H 38.9835 1.89252 -0.777482 0
M  V30 260 H 38.9935 4.0652 0.347207 0
M  V30 261 H 37.6685 4.08034 -0.805047 0
M  V30 262 H 36.2455 3.60251 0.962987 0
M  V30 263 N 38.4306 0.297415 1.54768 0
M  V30 264 C 39.6786 -0.312295 1.99673 0
M  V30 265 C 39.9996 -1.54686 1.18732 0
M  V30 266 O 39.2696 -1.93854 0.282382 0
M  V30 267 H 37.8496 -0.118381 0.73756 0
M  V30 268 H 40.5116 0.407915 1.90583 0
M  V30 269 H 39.6076 -0.586813 3.06534 0
M  V30 270 N 39.9087 -1.5758 0.0250728 0
M  V30 271 C 41.1487 -1.93497 -0.65865 0
M  V30 272 C 41.5127 -0.901409 -1.69525 0
M  V30 273 O 42.7137 -1.14664 -2.43116 0
M  V30 274 C 40.9847 -3.34352 -1.26267 0
M  V30 275 S 42.5437 -3.92191 -1.96803 0
M  V30 276 H 39.3617 -0.67709 -0.216958 0
M  V30 277 H 41.9637 -1.95303 0.0877692 0
M  V30 278 H 40.6677 -4.07395 -0.495741 0
M  V30 279 H 40.1987 -3.3598 -2.04648 0
M  V30 280 H 42.2137 -3.75298 -3.24601 0
M  V30 281 N 41.3868 0.248026 -1.55636 0
M  V30 282 C 42.6348 0.974295 -1.77065 0
M  V30 283 C 42.9558 1.85897 -0.588849 0
M  V30 284 O 42.2258 1.91868 0.395407 0
M  V30 285 H 40.8058 0.362733 -0.653019 0
M  V30 286 H 43.4678 0.266244 -1.93073 0
M  V30 287 H 42.5638 1.59667 -2.68166 0
M  V30 288 N 42.8649 1.48995 0.513639 0
M  V30 289 C 44.1129 1.57531 1.26604 0
M  V30 290 C 44.4339 0.258236 1.93283 0
M  V30 291 O 43.7039 -0.721502 1.8213 0
M  V30 292 H 42.2839 0.580387 0.470276 0
M  V30 293 H 44.9459 1.85552 0.596373 0
M  V30 294 H 44.0419 2.36486 2.03669 0
M  V30 295 N 44.343 -0.763751 1.37857 0
M  V30 296 C 45.583 -1.53551 1.34913 0
M  V30 297 C 45.947 -1.91895 -0.0635882 0
M  V30 298 O 47.148 -2.67916 -0.217825 0
M  V30 299 C 45.419 -2.76126 2.26912 0
M  V30 300 S 46.978 -3.66105 2.41893 0
M  V30 301 H 43.796 -0.52559 0.478828 0
M  V30 302 H 46.398 -0.897435 1.73685 0
M  V30 303 H 45.102 -2.4605 3.28463 0
M  V30 304 H 44.633 -3.44887 1.89253 0
M  V30 305 H 46.648 -4.68473 1.63545 0
M  V30 306 N 45.8211 -1.22559 -0.990812 0
M  V30 307 C 47.0691 -1.04933 -1.72724 0
M  V30 308 C 47.3901 0.416158 -1.90508 0
M  V30 309 O 46.6601 1.29918 -1.46622 0
M  V30 310 H 45.2401 -0.385296 -0.639965 0
M  V30 311 H 47.9021 -1.54105 -1.19322 0
M  V30 312 H 46.9981 -1.52886 -2.72089 0
M  V30 313 N 47.2992 1.18797 -1.03562 0
M  V30 314 C 48.5242 1.9314 -0.755764 0
M  V30 315 C 48.9492 1.7537 0.68022 0
M  V30 316 O 48.3072 1.06046 1.47051 0
M  V30 317 C 48.3552 3.42747 -1.12058 0
M  V30 318 O 47.4592 4.11683 -0.243124 0
M  V30 319 H 46.8002 0.602724 -0.278604 0
M  V30 320 H 49.3302 1.50678 -1.3841 0
M  V30 321 H 49.3402 3.93437 -1.08035 0
M  V30 322 H 48.0152 3.55002 -2.16672 0
M  V30 323 H 46.5922 3.71323 -0.342539 0
M  V30 324 N 48.7773 0.814389 1.34928 0
M  V30 325 C 50.0253 0.397636 1.9815 0
M  V30 326 C 50.3463 -1.04069 1.64908 0
M  V30 327 O 49.6163 -1.72121 0.93548 0
M  V30 328 H 48.1963 0.144043 0.732981 0
M  V30 329 H 50.8583 1.04195 1.6471 0
M  V30 330 H 49.9543 0.509688 3.0791 0
M  V30 331 N 50.2554 -1.46986 0.568584 0
M  V30 332 C 51.6714 -1.57946 0.229189 0
M  V30 333 C 51.8714 -1.56567 -1.26843 0
M  V30 334 O 50.9274 -1.47511 -2.04931 0
M  V30 335 C 52.2404 -2.87963 0.865909 0
M  V30 336 C 53.7884 -3.01568 0.838188 0
M  V30 337 C 54.2634 -4.34301 1.45419 0
M  V30 338 N 55.7544 -4.40965 1.41788 0
M  V30 339 C 56.4894 -5.42256 1.86403 0
M  V30 340 N 55.9854 -6.50297 2.38926 0
M  V30 341 N 57.7784 -5.3337 1.77405 0
M  V30 342 H 49.9294 -1.46126 1.54146 0
M  V30 343 H 52.1924 -0.696156 0.643484 0
M  V30 344 H 51.8984 -2.94742 1.91886 0
M  V30 345 H 51.7724 -3.75423 0.365687 0
M  V30 346 H 54.1594 -2.94379 -0.206106 0
M  V30 347 H 54.2404 -2.1562 1.37629 0
M  V30 348 H 53.8844 -4.42247 2.49761 0
M  V30 349 H 53.8144 -5.19 0.891435 0
M  V30 350 H 56.3054 -3.63484 1.03381 0
M  V30 351 H 56.6184 -7.23777 2.70863 0
M  V30 352 H 54.9634 -6.51155 2.42944 0
M  V30 353 H 58.1544 -4.47865 1.3614 0
M  V30 354 H 58.3274 -6.12169 2.12492 0
M  V30 355 N 51.7335 -0.305618 -1.54608 0
M  V30 356 C 52.9815 0.301701 -1.99835 0
M  V30 357 C 53.3025 1.54054 -1.19551 0
M  V30 358 O 52.5725 1.93702 -0.292658 0
M  V30 359 H 51.1525 0.114468 -0.738178 0
M  V30 360 H 53.8145 -0.418016 -1.90364 0
M  V30 361 H 52.9105 0.570548 -3.06841 0
M  V30 362 N 53.2116 1.57565 -0.0334293 0
M  V30 363 C 54.4596 1.91598 0.642999 0
M  V30 364 C 54.7806 0.910847 1.7242 0
M  V30 365 O 54.0506 -0.0469931 1.95844 0
M  V30 366 H 52.6306 0.707228 0.240496 0
M  V30 367 H 55.2926 1.94726 -0.0822488 0
M  V30 368 H 54.3886 2.92336 1.09298 0
M  V30 369 N 54.6897 -0.239769 1.55765 0
M  V30 370 C 55.9297 -0.974076 1.79697 0
M  V30 371 C 56.2937 -1.82249 0.604088 0
M  V30 372 O 57.4947 -2.58913 0.722324 0
M  V30 373 C 55.7657 -1.80595 3.08416 0
M  V30 374 S 57.3247 -2.59838 3.53596 0
M  V30 375 H 54.1427 -0.327524 0.63107 0
M  V30 376 H 56.7447 -0.241277 1.94005 0
M  V30 377 H 55.4487 -1.17249 3.93295 0
M  V30 378 H 54.9797 -2.58137 2.96865 0
M  V30 379 H 56.9947 -3.82987 3.15492 0
M  V30 380 N 56.1678 -1.49265 -0.50573 0
M  V30 381 C 57.4158 -1.582 -1.25766 0
M  V30 382 C 57.7368 -0.268482 -1.93143 0
M  V30 383 O 57.0068 0.711833 -1.8251 0
M  V30 384 H 55.5868 -0.582873 -0.467191 0
M  V30 385 H 58.2488 -1.85865 -0.586525 0
M  V30 386 H 57.3448 -2.37563 -2.02412 0
M  V30 387 N 57.6459 0.756429 -1.3826 0
M  V30 388 C 58.8709 1.55077 -1.37717 0
M  V30 389 C 59.2959 1.88073 0.03164 0
M  V30 390 O 58.6539 1.50364 1.01293 0
M  V30 391 C 58.7019 2.8283 -2.23695 0
M  V30 392 O 57.8059 3.77862 -1.6521 0
M  V30 393 H 57.1469 0.469152 -0.469885 0
M  V30 394 H 59.6769 0.935019 -1.81985 0
M  V30 395 H 59.6869 3.31783 -2.37453 0
M  V30 396 H 58.3619 2.58144 -3.2609 0
M  V30 397 H 56.9389 3.36555 -1.60578 0
M  V30 398 N 59.124 1.23083 0.984299 0
M  V30 399 C 60.372 1.05848 1.72165 0
M  V30 400 C 60.693 -0.406049 1.90726 0
M  V30 401 O 59.963 -1.29139 1.47309 0
M  V30 402 H 58.543 0.388685 0.637913 0
M  V30 403 H 61.205 1.54736 1.18503 0
M  V30 404 H 60.301 1.54327 2.71274 0
M  V30 405 N 60.6021 -1.18246 1.0419 0
M  V30 406 C 61.8421 -1.89948 0.754916 0
M  V30 407 C 62.2061 -1.78608 -0.70451 0
M  V30 408 O 63.4071 -2.4503 -1.10516 0
M  V30 409 C 61.6781 -3.36305 1.20969 0
M  V30 410 S 63.2371 -4.26088 1.04854 0
M  V30 411 H 60.0551 -0.655897 0.274446 0
M  V30 412 H 62.6571 -1.42873 1.33445 0
M  V30 413 H 61.3611 -3.42089 2.26722 0
M  V30 414 H 60.8921 -3.8842 0.624004 0
M  V30 415 H 62.9071 -4.96189 -0.0332896 0
M  V30 416 N 62.0802 -0.821533 -1.34494 0
M  V30 417 C 63.3282 -0.408139 -1.97936 0
M  V30 418 C 63.6492 1.03193 -1.65457 0
M  V30 419 O 62.9192 1.71622 -0.944595 0
M  V30 420 H 61.4992 -0.147928 -0.732206 0
M  V30 421 H 64.1612 -1.05067 -1.64155 0
M  V30 422 H 63.2572 -0.52601 -3.07635 0
M  V30 423 N 63.5583 1.46682 -0.576371 0
M  V30 424 C 64.8063 2.02013 -0.0594163 0
M  V30 425 C 65.1273 1.45101 1.30271 0
M  V30 426 O 64.3973 0.633317 1.8538 0
M  V30 427 H 62.9773 0.746759 -0.0189745 0
M  V30 428 H 65.6393 1.79862 -0.750717 0
M  V30 429 H 64.7353 3.12097 0.014345 0
M  V30 430 N 65.0364 0.313813 1.54444 0
M  V30 431 C 66.2764 -0.292389 2.02298 0
M  V30 432 C 66.6404 -1.50105 1.19719 0
M  V30 433 O 67.8414 -2.17947 1.5733 0
M  V30 434 C 66.1124 -0.627682 3.51845 0
M  V30 435 S 67.6714 -1.21493 4.21646 0
M  V30 436 H 64.4894 -0.0890247 0.705405 0
M  V30 437 H 67.0914 0.444668 1.90376 0
M  V30 438 H 65.7954 0.260265 4.09574 0
M  V30 439 H 65.3264 -1.39519 3.67829 0
M  V30 440 H 67.3414 -2.5022 4.28491 0
M  V30 441 N 66.5145 -1.57545 0.0417849 0
M  V30 442 C 67.7395 -1.97035 -0.647455 0
M  V30 443 C 68.1645 -0.918775 -1.64135 0
M  V30 444 O 67.5225 0.119006 -1.80909 0
M  V30 445 C 67.5705 -3.35609 -1.31905 0
M  V30 446 O 66.6745 -3.3287 -2.43457 0
M  V30 447 H 66.0155 -0.64211 -0.169086 0
M  V30 448 H 68.5455 -2.04318 0.107399 0
M  V30 449 H 68.5555 -3.72126 -1.67291 0
M  V30 450 H 67.2305 -4.11685 -0.590586 0
M  V30 451 H 65.8075 -3.08087 -2.10088 0
M  V30 452 N 67.9926 0.231505 -1.5589 0
M  V30 453 C 69.2176 0.978689 -1.82856 0
M  V30 454 C 69.6426 1.77559 -0.620846 0
M  V30 455 O 69.0006 1.76119 0.430305 0
M  V30 456 C 69.0486 1.87997 -3.07716 0
M  V30 457 O 68.1526 2.97393 -2.85712 0
M  V30 458 H 67.4936 0.277663 -0.603158 0
M  V30 459 H 70.0236 0.24783 -2.03093 0
M  V30 460 H 70.0336 2.2917 -3.37558 0
M  V30 461 H 68.7086 1.29417 -3.95252 0
M  V30 462 H 67.2856 2.60238 -2.67078 0
M  V30 463 N 69.4707 1.49531 0.497807 0
M  V30 464 C 70.6957 1.63159 1.28039 0
M  V30 465 C 71.1207 0.30418 1.85624 0
M  V30 466 O 70.4787 -0.728618 1.66015 0
M  V30 467 C 70.5267 2.70537 2.38416 0
M  V30 468 O 69.6307 2.29931 3.42353 0
M  V30 469 H 68.9717 0.546001 0.377861 0
M  V30 470 H 71.5017 1.9574 0.59558 0
M  V30 471 H 71.5117 2.92802 2.84132 0
M  V30 472 H 70.1867 3.6689 1.95869 0
M  V30 473 H 68.7637 2.18009 3.02533 0
M  V30 474 N 70.9488 -0.749086 1.3866 0
M  V30 475 C 72.1888 -1.52112 1.36534 0
M  V30 476 C 72.5528 -1.91951 -0.0432316 0
M  V30 477 O 73.7538 -2.68132 -0.189396 0
M  V30 478 C 72.0248 -2.73704 2.29828 0
M  V30 479 S 73.5838 -3.63519 2.45763 0
M  V30 480 H 70.4018 -0.520482 0.484375 0
M  V30 481 H 73.0038 -0.878963 1.74627 0
M  V30 482 H 71.7078 -2.42552 3.31054 0
M  V30 483 H 71.2388 -3.4286 1.929 0
M  V30 484 H 73.2538 -4.66712 1.68505 0
M  V30 485 N 72.4269 -1.23603 -0.977757 0
M  V30 486 C 73.6749 -1.06759 -1.71601 0
M  V30 487 C 73.9959 0.395929 -1.90938 0
M  V30 488 O 73.2659 1.28356 -1.47992 0
M  V30 489 H 71.8459 -0.392062 -0.635843 0
M  V30 490 H 74.5079 -1.55362 -1.1768 0
M  V30 491 H 73.6039 -1.55763 -2.70452 0
M  V30 492 N 73.905 1.17692 -1.04816 0
M  V30 493 C 75.153 1.87488 -0.754497 0
M  V30 494 C 75.474 1.81205 0.720407 0
M  V30 495 O 74.744 1.23544 1.52032 0
M  V30 496 H 73.324 0.694101 -0.276102 0
M  V30 497 H 75.986 1.42793 -1.32651 0
M  V30 498 H 75.082 2.93328 -1.06606 0
M  V30 499 N 75.3831 0.828654 1.34056 0
M  V30 500 C 76.6231 0.425394 1.99924 0
M  V30 501 C 76.9871 -0.994294 1.64249 0
M  V30 502 O 78.1881 -1.50074 2.23005 0
M  V30 503 C 76.4591 0.628071 3.51838 0
M  V30 504 S 78.0181 0.318511 4.37642 0
M  V30 505 H 74.8361 0.160465 0.692656 0
M  V30 506 H 77.4381 1.07572 1.63244 0
M  V30 507 H 76.1421 1.66089 3.7529 0
M  V30 508 H 75.6731 -0.0367799 3.93383 0
M  V30 509 H 77.6881 -0.865632 4.88591 0
M  V30 510 N 76.8612 -1.46375 0.584142 0
M  V30 511 C 78.1092 -2.01978 0.0701287 0
M  V30 512 C 78.4302 -1.4579 -1.295 0
M  V30 513 O 77.7002 -0.64314 -1.85042 0
M  V30 514 H 76.2802 -0.746648 0.0229345 0
M  V30 515 H 78.9422 -1.79461 0.760245 0
M  V30 516 H 78.0382 -3.121 0.0022064 0
M  V30 517 N 78.3393 -0.321999 -1.54275 0
M  V30 518 C 79.5643 0.285791 -2.05422 0
M  V30 519 C 79.9893 1.45124 -1.19669 0
M  V30 520 O 79.3473 1.80132 -0.205441 0
M  V30 521 C 79.3953 0.69956 -3.53749 0
M  V30 522 O 78.4993 1.8021 -3.70942 0
M  V30 523 H 77.8403 0.0518962 -0.661969 0
M  V30 524 H 80.3703 -0.469954 -1.9913 0
M  V30 525 H 80.3803 0.982649 -3.9599 0
M  V30 526 H 79.0553 -0.152864 -4.15619 0
M  V30 527 H 77.6323 1.51794 -3.40607 0
M  V30 528 N 79.8174 1.5752 -0.0501392 0
M  V30 529 C 81.2334 1.56631 0.306402 0
M  V30 530 C 81.4334 1.0577 1.71508 0
M  V30 531 O 80.4894 0.713837 2.422 0
M  V30 532 C 81.8024 3.00393 0.135811 0
M  V30 533 C 83.3504 3.12315 0.206993 0
M  V30 534 C 83.8254 4.57954 0.064944 0
M  V30 535 N 85.3164 4.63041 0.121254 0
M  V30 536 C 86.0514 5.73389 0.0354381 0
M  V30 537 N 85.5474 6.92724 -0.102666 0
M  V30 538 N 87.3404 5.62026 0.090946 0
M  V30 539 H 79.4914 1.88903 -0.971046 0
M  V30 540 H 81.7544 0.869876 -0.376855 0
M  V30 541 H 81.4604 3.41635 -0.835384 0
M  V30 542 H 81.3344 3.66373 0.897275 0
M  V30 543 H 83.7214 2.70973 1.16866 0
M  V30 544 H 83.8024 2.49016 -0.585208 0
M  V30 545 H 83.4464 4.99981 -0.893394 0
M  V30 546 H 83.3764 5.19258 0.876277 0
M  V30 547 H 85.8674 3.77216 0.227284 0
M  V30 548 H 86.1804 7.72633 -0.160882 0
M  V30 549 H 84.5254 6.94864 -0.137737 0
M  V30 550 H 87.7164 4.67684 0.197388 0
M  V30 551 H 87.8894 6.47997 0.0206089 0
M  V30 552 N 81.2955 -0.223234 1.56011 0
M  V30 553 C 82.5355 -0.954962 1.8072 0
M  V30 554 C 82.8995 -1.81598 0.623384 0
M  V30 555 O 84.1005 -2.58132 0.749745 0
M  V30 556 C 82.3715 -1.77313 3.10314 0
M  V30 557 S 83.9305 -2.56073 3.56332 0
M  V30 558 H 80.7485 -0.320812 0.634508 0
M  V30 559 H 83.3505 -0.220686 1.9425 0
M  V30 560 H 82.0545 -1.13071 3.94516 0
M  V30 561 H 81.5855 -2.54974 2.99586 0
M  V30 562 H 83.6005 -3.79619 3.19536 0
M  V30 563 N 82.7736 -1.49793 -0.48987 0
M  V30 564 C 84.0036 -1.6333 -1.26518 0
M  V30 565 C 84.4116 -0.308392 -1.8667 0
M  V30 566 O 83.7546 0.717512 -1.69108 0
M  V30 567 C 83.8166 -2.6522 -2.4269 0
M  V30 568 C 83.4806 -4.09279 -2.03321 0
M  V30 569 C 84.4776 -4.95738 -1.56652 0
M  V30 570 C 82.1626 -4.55082 -2.12616 0
M  V30 571 C 84.1566 -6.26041 -1.19795 0
M  V30 572 C 81.8436 -5.85396 -1.75371 0
M  V30 573 C 82.8416 -6.707 -1.29036 0
M  V30 574 O 82.5296 -7.98584 -0.92299 0
M  V30 575 H 82.2616 -0.552502 -0.389509 0
M  V30 576 H 84.8156 -1.96642 -0.593381 0
M  V30 577 H 83.0456 -2.27112 -3.12981 0
M  V30 578 H 84.7346 -2.68171 -3.04695 0
M  V30 579 H 85.5006 -4.61575 -1.48908 0
M  V30 580 H 81.3796 -3.88844 -2.47631 0
M  V30 581 H 84.9236 -6.92578 -0.835582 0
M  V30 582 H 80.8206 -6.19085 -1.82768 0
M  V30 583 H 81.5886 -8.11692 -1.05349 0
M  V30 584 N 84.2517 0.741722 -1.39055 0
M  V30 585 C 85.4977 1.50336 -1.36113 0
M  V30 586 C 85.8307 1.94148 0.0450796 0
M  V30 587 O 85.1057 1.66301 1.00868 0
M  V30 588 C 85.3887 2.74773 -2.32749 0
M  V30 589 C 85.2417 2.37023 -3.82283 0
M  V30 590 C 86.5607 3.76846 -2.27322 0
M  V30 591 H 83.6797 0.545351 -0.495743 0
M  V30 592 H 86.3217 0.848624 -1.69995 0
M  V30 593 H 84.4717 3.30639 -2.03986 0
M  V30 594 H 86.1437 1.8684 -4.21768 0
M  V30 595 H 84.3867 1.69334 -3.99385 0
M  V30 596 H 85.0577 3.26104 -4.45376 0
M  V30 597 H 87.5337 3.30548 -2.5274 0
M  V30 598 H 86.4097 4.6159 -2.97028 0
M  V30 599 H 86.6707 4.23286 -1.27599 0
M  V30 600 N 85.7298 1.2412 0.971189 0
M  V30 601 C 87.1408 1.07236 1.52831 0
M  V30 602 C 87.4918 -0.357352 1.92918 0
M  V30 603 O 86.6168 -1.24528 1.76979 0
M  V30 604 C 87.2118 1.94043 2.77728 0
M  V30 605 C 85.7708 1.81394 3.29808 0
M  V30 606 C 84.9178 1.89189 2.02738 0
M  V30 607 H 87.8688 1.37648 0.789864 0
M  V30 608 H 87.8898 1.47066 3.5093 0
M  V30 609 H 87.4018 2.98093 2.4852 0
M  V30 610 H 85.5028 0.801634 3.63874 0
M  V30 611 H 85.6158 2.65294 3.98944 0
M  V30 612 H 83.9798 1.32877 2.17292 0
M  V30 613 H 84.7628 2.94812 1.759 0
M  V30 614 N 87.2079 -1.17134 1.05439 0
M  V30 615 C 88.4539 -1.87733 0.767077 0
M  V30 616 C 88.7869 -1.8098 -0.704253 0
M  V30 617 O 88.0619 -1.21951 -1.5152 0
M  V30 618 C 88.3449 -3.37659 1.25133 0
M  V30 619 C 88.1979 -3.53149 2.78578 0
M  V30 620 C 89.5169 -4.31768 0.852324 0
M  V30 621 H 86.6359 -0.681687 0.280129 0
M  V30 622 H 89.2779 -1.37732 1.30881 0
M  V30 623 H 87.4279 -3.80373 0.790469 0
M  V30 624 H 89.0999 -3.19434 3.32806 0
M  V30 625 H 87.3429 -2.95345 3.17732 0
M  V30 626 H 88.0139 -4.58403 3.07523 0
M  V30 627 H 90.4899 -3.96909 1.24911 0
M  V30 628 H 89.3659 -5.35199 1.21873 0
M  V30 629 H 89.6269 -4.41429 -0.243485 0
M  V30 630 N 88.686 -0.835752 -1.33615 0
M  V30 631 C 89.926 -0.43599 -1.99696 0
M  V30 632 C 90.29 0.98557 -1.64774 0
M  V30 633 O 91.491 1.48889 -2.23798 0
M  V30 634 C 89.762 -0.646721 -3.515 0
M  V30 635 S 91.321 -0.341715 -4.37467 0
M  V30 636 H 88.139 -0.164136 -0.691795 0
M  V30 637 H 90.741 -1.08436 -1.62671 0
M  V30 638 H 89.445 -1.68077 -3.74404 0
M  V30 639 H 88.976 0.0159173 -3.93397 0
M  V30 640 H 90.991 0.839708 -4.89043 0
M  V30 641 N 90.1641 1.46063 -0.591896 0
M  V30 642 C 91.4041 2.04228 -0.0838014 0
M  V30 643 C 91.7681 1.45231 1.25587 0
M  V30 644 O 92.9691 1.94653 1.85375 0
M  V30 645 C 91.2401 3.57389 -0.0286282 0
M  V30 646 S 92.7991 4.3678 0.420557 0
M  V30 647 H 89.6171 0.709762 -0.0419319 0
M  V30 648 H 92.2191 1.78983 -0.786465 0
M  V30 649 H 90.9231 3.97843 -1.00743 0
M  V30 650 H 90.4541 3.87185 0.69652 0
M  V30 651 H 92.4691 4.67131 1.67341 0
M  V30 652 N 91.6422 0.330177 1.54103 0
M  V30 653 C 92.8822 -0.270916 2.02597 0
M  V30 654 C 93.2462 -1.48826 1.21304 0
M  V30 655 O 94.4472 -2.16266 1.59633 0
M  V30 656 C 92.7182 -0.590328 3.52491 0
M  V30 657 S 94.2772 -1.17014 4.2291 0
M  V30 658 H 91.0952 -0.0815379 0.706309 0
M  V30 659 H 93.6972 0.464835 1.89893 0
M  V30 660 H 92.4012 0.303691 4.09275 0
M  V30 661 H 91.9322 -1.3561 3.69288 0
M  V30 662 H 93.9472 -2.45662 4.3112 0
M  V30 663 N 93.1203 -1.57491 0.0584922 0
M  V30 664 C 94.0673 -2.11958 -0.913376 0
M  V30 665 C 95.0373 -1.02875 -1.30407 0
M  V30 666 O 96.2223 -1.30464 -1.39226 0
M  V30 667 C 93.3623 -2.67497 -2.18035 0
M  V30 668 C 92.4753 -3.90691 -1.84349 0
M  V30 669 C 91.6103 -4.3452 -3.05559 0
M  V30 670 C 90.6493 -5.50395 -2.67827 0
M  V30 671 N 89.7863 -5.89244 -3.81754 0
M  V30 672 H 94.6263 -2.94704 -0.442017 0
M  V30 673 H 92.1633 -1.45643 -0.206545 0
M  V30 674 H 94.1213 -2.978 -2.92183 0
M  V30 675 H 92.7513 -1.87537 -2.62735 0
M  V30 676 H 91.8033 -3.66934 -1.00319 0
M  V30 677 H 93.1153 -4.7489 -1.5258 0
M  V30 678 H 92.2693 -4.66414 -3.87998 0
M  V30 679 H 91.0083 -3.49147 -3.40511 0
M  V30 680 H 90.0133 -5.18165 -1.83806 0
M  V30 681 H 91.2383 -6.3749 -2.34059 0
M  V30 682 H 89.1843 -5.06823 -4.16493 0
M  V30 683 H 89.1013 -6.68151 -3.53708 0
M  V30 684 H 90.3693 -6.25756 -4.64811 0
M  V30 685 N 94.5984 0.214957 -1.56127 0
M  V30 686 C 96.0094 0.781386 -1.69562 0
M  V30 687 C 96.3604 1.84707 -0.66165 0
M  V30 688 O 95.4854 2.156 0.185927 0
M  V30 689 C 96.0804 1.42411 -3.07416 0
M  V30 690 C 94.6394 1.93786 -3.22683 0
M  V30 691 C 93.7864 0.800438 -2.65496 0
M  V30 692 H 96.7374 -0.00980633 -1.58697 0
M  V30 693 H 96.7584 2.29309 -3.0364 0
M  V30 694 H 96.2704 0.64826 -3.82648 0
M  V30 695 H 94.3714 2.74152 -2.52332 0
M  V30 696 H 94.4844 2.1133 -4.29973 0
M  V30 697 H 92.8484 1.2095 -2.2415 0
M  V30 698 H 93.6314 0.0371471 -3.4328 0
M  V30 699 N 96.0765 1.50051 0.48192 0
M  V30 700 C 97.3225 1.60736 1.2366 0
M  V30 701 C 97.6555 0.301786 1.91841 0
M  V30 702 O 96.9305 -0.696025 1.8162 0
M  V30 703 C 97.2135 2.78009 2.28874 0
M  V30 704 C 97.0665 4.18416 1.65069 0
M  V30 705 C 98.3855 2.90867 3.30279 0
M  V30 706 H 95.5045 0.585031 0.448228 0
M  V30 707 H 98.1465 1.82402 0.531946 0
M  V30 708 H 96.2965 2.59667 2.88973 0
M  V30 709 H 97.9685 4.48322 1.0865 0
M  V30 710 H 96.2115 4.23177 0.954148 0
M  V30 711 H 96.8825 4.96381 2.41474 0
M  V30 712 H 99.3585 3.07623 2.80191 0
M  V30 713 H 98.2345 3.74566 4.01238 0
M  V30 714 H 98.4955 2.01021 3.93755 0
M  V30 715 N 97.5546 -0.734337 1.39446 0
M  V30 716 C 98.7946 -1.50655 1.38139 0
M  V30 717 C 99.1586 -1.91986 -0.0228701 0
M  V30 718 O 100.36 -2.68318 -0.160947 0
M  V30 719 C 98.6306 -2.71251 2.32718 0
M  V30 720 S 100.19 -3.60892 2.49605 0
M  V30 721 H 97.0076 -0.515315 0.489869 0
M  V30 722 H 99.6096 -0.860392 1.75549 0
M  V30 723 H 98.3136 -2.39027 3.33608 0
M  V30 724 H 97.8446 -3.40795 1.96526 0
M  V30 725 H 99.8596 -4.64899 1.73446 0
M  V30 726 N 99.0327 -1.24633 -0.964593 0
M  V30 727 C 100.258 -1.11596 -1.74818 0
M  V30 728 C 100.683 0.32723 -1.85232 0
M  V30 729 O 100.041 1.23695 -1.32549 0
M  V30 730 C 100.089 -1.76397 -3.1451 0
M  V30 731 O 99.1927 -1.03685 -3.99153 0
M  V30 732 H 98.5337 -0.390196 -0.537255 0
M  V30 733 H 101.064 -1.65002 -1.20977 0
M  V30 734 H 101.074 -1.8228 -3.65018 0
M  V30 735 H 99.7487 -2.81401 -3.06246 0
M  V30 736 H 98.3257 -1.05611 -3.57632 0
M  V30 737 N 100.511 1.16574 -1.06058 0
M  V30 738 C 101.757 1.87565 -0.78683 0
M  V30 739 C 102.112 1.80012 0.679214 0
M  V30 740 O 101.405 1.20327 1.49104 0
M  V30 741 C 101.599 3.36195 -1.21275 0
M  V30 742 C 101.428 3.58216 -2.71866 0
M  V30 743 C 100.198 3.7444 -3.39298 0
M  V30 744 C 102.396 3.57134 -3.70081 0
M  V30 745 N 100.378 3.84389 -4.78663 0
M  V30 746 C 101.749 3.73038 -4.9522 0
M  V30 747 C 103.804 3.40332 -3.63426 0
M  V30 748 C 102.507 3.73879 -6.14497 0
M  V30 749 C 104.533 3.42466 -4.82153 0
M  V30 750 C 103.895 3.58887 -6.06118 0
M  V30 751 H 99.9938 0.704081 -0.340284 0
M  V30 752 H 102.578 1.39885 -1.35426 0
M  V30 753 H 100.749 3.82522 -0.673179 0
M  V30 754 H 102.481 3.94839 -0.887917 0
M  V30 755 H 99.2358 3.74662 -2.89699 0
M  V30 756 H 99.6598 3.93138 -5.51155 0
M  V30 757 H 104.302 3.26566 -2.68541 0
M  V30 758 H 102.02 3.86427 -7.09718 0
M  V30 759 H 105.606 3.30712 -4.78666 0
M  V30 760 H 104.486 3.60454 -6.9645 0
M  V30 761 N 101.989 0.842826 1.3317 0
M  V30 762 C 103.235 0.441099 1.97945 0
M  V30 763 C 103.568 -0.998024 1.66593 0
M  V30 764 O 102.843 -1.69839 0.947898 0
M  V30 765 C 103.126 0.666841 3.53872 0
M  V30 766 C 102.979 2.15352 3.94897 0
M  V30 767 C 104.298 0.115544 4.39948 0
M  V30 768 H 101.417 0.161739 0.719034 0
M  V30 769 H 104.059 1.05907 1.57746 0
M  V30 770 H 102.209 0.140828 3.88245 0
M  V30 771 H 103.881 2.7447 3.70761 0
M  V30 772 H 102.124 2.63653 3.44484 0
M  V30 773 H 102.795 2.26221 5.03516 0
M  V30 774 H 105.271 0.565213 4.12243 0
M  V30 775 H 104.147 0.303152 5.48062 0
M  V30 776 H 104.408 -0.980935 4.3108 0
M  V30 777 N 103.467 -1.45747 0.599634 0
M  V30 778 C 104.878 -1.85853 0.177681 0
M  V30 779 C 105.229 -1.50102 -1.26348 0
M  V30 780 O 104.354 -0.923905 -1.95686 0
M  V30 781 C 104.949 -3.37326 0.315688 0
M  V30 782 C 103.508 -3.76365 -0.0515144 0
M  V30 783 C 102.655 -2.69722 0.643822 0
M  V30 784 H 105.606 -1.36661 0.806814 0
M  V30 785 H 105.627 -3.77778 -0.454321 0
M  V30 786 H 105.139 -3.63315 1.36468 0
M  V30 787 H 103.24 -3.55993 -1.09999 0
M  V30 788 H 103.353 -4.77916 0.336594 0
M  V30 789 H 101.717 -2.54567 0.0822881 0
M  V30 790 H 102.5 -2.98549 1.6948 0
M  V30 791 N 104.945 -0.338344 -1.53925 0
M  V30 792 C 105.908 0.508299 -2.23493 0
M  V30 793 C 106.908 1.03175 -1.23335 0
M  V30 794 O 108.098 0.921826 -1.47811 0
M  V30 795 C 105.23 1.70754 -2.95052 0
M  V30 796 H 106.423 -0.100058 -2.99733 0
M  V30 797 H 103.976 -0.0896198 -1.56043 0
M  V30 798 H 104.711 2.35474 -2.22986 0
M  V30 799 H 104.496 1.33946 -3.68512 0
M  V30 800 H 105.986 2.30818 -3.48013 0
M  V30 801 N 106.423 1.57458 -0.0668435 0
M  V30 802 C 107.663 1.95175 0.607116 0
M  V30 803 C 108.027 0.946039 1.67075 0
M  V30 804 O 109.228 1.2107 2.39991 0
M  V30 805 C 107.499 3.37582 1.17358 0
M  V30 806 S 109.058 3.97271 1.86336 0
M  V30 807 H 105.876 0.682604 0.19893 0
M  V30 808 H 108.478 1.95002 -0.139519 0
M  V30 809 H 107.182 4.08566 0.387553 0
M  V30 810 H 106.713 3.41288 1.95669 0
M  V30 811 H 108.728 3.83772 3.14537 0
M  V30 812 N 107.901 -0.206675 1.56239 0
M  V30 813 C 109.126 -0.949474 1.8439 0
M  V30 814 C 109.551 -1.76549 0.649016 0
M  V30 815 O 108.909 -1.76782 -0.402231 0
M  V30 816 C 108.957 -1.83078 3.10668 0
M  V30 817 O 108.061 -2.9281 2.90407 0
M  V30 818 H 107.402 -0.268033 0.607499 0
M  V30 819 H 109.932 -0.215488 2.03462 0
M  V30 820 H 109.942 -2.2377 3.41161 0
M  V30 821 H 108.617 -1.23112 3.97261 0
M  V30 822 H 107.194 -2.55956 2.71184 0
M  V30 823 N 109.379 -1.50304 -0.473955 0
M  V30 824 C 110.619 -1.62786 -1.23612 0
M  V30 825 C 110.983 -0.319786 -1.89318 0
M  V30 826 O 112.184 -0.320012 -2.66888 0
M  V30 827 C 110.455 -2.77351 -2.25414 0
M  V30 828 S 112.014 -3.09948 -3.10608 0
M  V30 829 H 108.832 -0.573895 -0.419721 0
M  V30 830 H 111.434 -1.88076 -0.533623 0
M  V30 831 H 110.138 -3.70879 -1.75719 0
M  V30 832 H 109.669 -2.54137 -3.00296 0
M  V30 833 H 111.684 -2.53553 -4.26527 0
M  V30 834 N 110.857 0.726932 -1.39834 0
M  V30 835 C 112.085 1.51613 -1.40787 0
M  V30 836 C 112.5 1.88799 -0.00451505 0
M  V30 837 O 111.857 1.54662 0.968809 0
M  V30 838 C 111.908 2.79863 -2.28821 0
M  V30 839 O 111.629 2.44253 -3.63692 0
M  V30 840 C 113.13 3.73837 -2.38245 0
M  V30 841 H 110.35 0.468264 -0.480593 0
M  V30 842 H 112.894 0.897607 -1.83748 0
M  V30 843 H 111.049 3.38027 -1.89252 0
M  V30 844 H 111.463 3.26695 -4.1033 0
M  V30 845 H 112.937 4.60699 -3.04073 0
M  V30 846 H 113.414 4.16153 -1.40403 0
M  V30 847 H 114.02 3.21589 -2.78317 0
M  V30 848 N 112.336 1.25143 0.95797 0
M  V30 849 C 113.561 1.12521 1.74223 0
M  V30 850 C 113.986 -0.317402 1.85403 0
M  V30 851 O 113.344 -1.2299 1.33204 0
M  V30 852 C 113.392 1.78062 3.1357 0
M  V30 853 O 112.496 1.058 3.98598 0
M  V30 854 H 111.837 0.39304 0.535178 0
M  V30 855 H 114.367 1.65641 1.201 0
M  V30 856 H 114.377 1.84213 3.64046 0
M  V30 857 H 113.052 2.83021 3.04749 0
M  V30 858 H 111.629 1.07506 3.57067 0
M  V30 859 N 113.814 -1.1601 1.06675 0
M  V30 860 C 115.054 -1.88304 0.795037 0
M  V30 861 C 115.418 -1.80062 -0.666466 0
M  V30 862 O 116.619 -2.47319 -1.05293 0
M  V30 863 C 114.89 -3.33664 1.28076 0
M  V30 864 S 116.449 -4.23768 1.13868 0
M  V30 865 H 113.267 -0.649928 0.288296 0
M  V30 866 H 115.869 -1.4001 1.36445 0
M  V30 867 H 114.573 -3.37203 2.33927 0
M  V30 868 H 114.104 -3.87009 0.706253 0
M  V30 869 H 116.119 -4.96148 0.0719668 0
M  V30 870 N 115.292 -0.849877 -1.32721 0
M  V30 871 C 116.54 -0.450032 -1.97026 0
M  V30 872 C 116.861 0.996604 -1.67609 0
M  V30 873 O 116.131 1.6958 -0.980786 0
M  V30 874 H 114.711 -0.163426 -0.728904 0
M  V30 875 H 117.373 -1.08526 -1.6189 0
M  V30 876 H 116.469 -0.591146 -3.0645 0
M  V30 877 N 116.77 1.45427 -0.607355 0
M  V30 878 C 117.995 2.07124 -0.107006 0
M  V30 879 C 118.42 1.44906 1.19933 0
M  V30 880 O 117.778 0.541687 1.73019 0
M  V30 881 C 117.826 3.60595 0.0194119 0
M  V30 882 O 116.93 3.98285 1.0697 0
M  V30 883 H 116.271 0.659868 -0.0739597 0
M  V30 884 H 118.801 1.86683 -0.837297 0
M  V30 885 H 118.811 4.07419 0.2177 0
M  V30 886 H 117.486 4.05266 -0.934453 0
M  V30 887 H 116.063 3.63133 0.847889 0
M  V30 888 N 118.248 0.346503 1.53744 0
M  V30 889 C 119.488 -0.249413 2.02873 0
M  V30 890 C 119.852 -1.47532 1.22876 0
M  V30 891 O 121.053 -2.1456 1.61918 0
M  V30 892 C 119.324 -0.552909 3.53097 0
M  V30 893 S 120.883 -1.12521 4.24128 0
M  V30 894 H 117.701 -0.074042 0.707134 0
M  V30 895 H 120.303 0.48495 1.8939 0
M  V30 896 H 119.007 0.347083 4.0893 0
M  V30 897 H 118.538 -1.31686 3.70705 0
M  V30 898 H 120.553 -2.41075 4.33702 0
M  V30 899 N 119.726 -1.57421 0.075193 0
M  V30 900 C 120.974 -1.93236 -0.591974 0
M  V30 901 C 121.295 -0.956241 -1.69944 0
M  V30 902 O 120.565 -0.00494792 -1.95899 0
M  V30 903 H 119.145 -0.713355 -0.22166 0
M  V30 904 H 121.807 -1.9444 0.133848 0
M  V30 905 H 120.903 -2.95131 -1.01509 0
M  V30 906 N 121.204 0.198386 -1.56346 0
M  V30 907 C 122.452 0.91747 -1.80075 0
M  V30 908 C 122.773 1.83929 -0.647692 0
M  V30 909 O 122.043 1.93029 0.334166 0
M  V30 910 H 120.623 0.341774 -0.664228 0
M  V30 911 H 123.285 0.204684 -1.93822 0
M  V30 912 H 122.381 1.51055 -2.7311 0
M  V30 913 N 122.682 1.50554 0.465978 0
M  V30 914 C 123.907 1.65838 1.24549 0
M  V30 915 C 124.332 0.343486 1.84937 0
M  V30 916 O 123.69 -0.69324 1.67523 0
M  V30 917 C 123.738 2.75533 2.32624 0
M  V30 918 O 122.842 2.37142 3.37398 0
M  V30 919 H 122.183 0.553893 0.366194 0
M  V30 920 H 124.713 1.96959 0.553927 0
M  V30 921 H 124.723 2.98763 2.77857 0
M  V30 922 H 123.398 3.70962 1.88043 0
M  V30 923 H 121.975 2.24377 2.97841 0
M  V30 924 N 124.16 -0.719506 1.40217 0
M  V30 925 C 125.107 -1.83359 1.40172 0
M  V30 926 C 126.077 -1.64065 0.259206 0
M  V30 927 O 127.262 -1.85254 0.456677 0
M  V30 928 C 124.402 -3.2103 1.26624 0
M  V30 929 C 123.515 -3.51923 2.50548 0
M  V30 930 C 122.65 -4.79079 2.29471 0
M  V30 931 C 121.689 -5.02863 3.48992 0
M  V30 932 N 120.826 -6.2123 3.27135 0
M  V30 933 H 125.666 -1.82733 2.35399 0
M  V30 934 H 123.203 -0.892688 1.16917 0
M  V30 935 H 125.161 -4.00524 1.16776 0
M  V30 936 H 123.791 -3.20895 0.350176 0
M  V30 937 H 122.843 -2.67014 2.70939 0
M  V30 938 H 124.155 -3.6541 3.39525 0
M  V30 939 H 123.309 -5.66582 2.16955 0
M  V30 940 H 122.048 -4.67794 1.37913 0
M  V30 941 H 121.053 -4.13816 3.6199 0
M  V30 942 H 122.278 -5.16023 4.41472 0
M  V30 943 H 120.224 -6.11204 2.38256 0
M  V30 944 H 120.141 -6.35375 4.09675 0
M  V30 945 H 121.409 -7.11532 3.18344 0
M  V30 946 N 125.638 -1.25649 -0.95132 0
M  V30 947 C 126.886 -1.10375 -1.69298 0
M  V30 948 C 127.207 0.355339 -1.91735 0
M  V30 949 O 126.477 1.25188 -1.50681 0
M  V30 950 H 125.057 -0.405461 -0.627384 0
M  V30 951 H 127.719 -1.57823 -1.14358 0
M  V30 952 H 126.815 -1.61465 -2.67087 0
M  V30 953 N 127.117 1.15442 -1.07289 0
M  V30 954 C 128.365 1.85845 -0.794096 0
M  V30 955 C 128.686 1.82692 0.681809 0
M  V30 956 O 127.956 1.26741 1.49377 0
M  V30 957 H 126.536 0.688089 -0.290763 0
M  V30 958 H 129.198 1.39947 -1.3565 0
M  V30 959 H 128.294 2.91001 -1.12804 0
M  V30 960 N 128.595 0.856903 1.32268 0
M  V30 961 C 129.835 0.467705 1.98977 0
M  V30 962 C 130.199 -0.959231 1.66321 0
M  V30 963 O 131.4 -1.4531 2.26138 0
M  V30 964 C 129.671 0.70256 3.50427 0
M  V30 965 S 131.23 0.411269 4.36868 0
M  V30 966 H 128.048 0.175121 0.689096 0
M  V30 967 H 130.65 1.1101 1.60925 0
M  V30 968 H 129.354 1.74012 3.71683 0
M  V30 969 H 128.885 0.0466707 3.93372 0
M  V30 970 H 130.9 -0.761799 4.90317 0
M  V30 971 N 130.073 -1.45103 0.615059 0
M  V30 972 C 131.321 -2.01784 0.112955 0
M  V30 973 C 131.642 -1.48504 -1.26378 0
M  V30 974 O 130.912 -0.682245 -1.83636 0
M  V30 975 H 129.492 -0.745993 0.0387668 0
M  V30 976 H 132.154 -1.77808 0.798141 0
M  V30 977 H 131.25 -3.12025 0.0684069 0
M  V30 978 N 131.551 -0.354651 -1.53558 0
M  V30 979 C 132.776 0.242153 -2.05981 0
M  V30 980 C 133.201 1.42553 -1.2272 0
M  V30 981 O 132.559 1.79656 -0.243604 0
M  V30 982 C 132.607 0.624367 -3.55154 0
M  V30 983 O 131.711 1.72301 -3.74681 0
M  V30 984 H 131.052 0.0378432 -0.662921 0
M  V30 985 H 133.582 -0.512087 -1.98088 0
M  V30 986 H 133.592 0.898433 -3.97985 0
M  V30 987 H 132.267 -0.240989 -4.15201 0
M  V30 988 H 130.844 1.44535 -3.4375 0
M  V30 989 N 133.029 1.57378 -0.0835403 0
M  V30 990 C 134.269 1.95808 0.586381 0
M  V30 991 C 134.633 0.963706 1.66062 0
M  V30 992 O 135.834 1.23608 2.38693 0
M  V30 993 C 134.105 3.38808 1.13771 0
M  V30 994 S 135.664 3.99225 1.82112 0
M  V30 995 H 132.482 0.684675 0.191679 0
M  V30 996 H 135.084 1.94843 -0.160194 0
M  V30 997 H 133.788 4.08954 0.344197 0
M  V30 998 H 133.319 3.43344 1.92038 0
M  V30 999 H 135.334 3.87087 3.10449 0
M  V30 1000 N 134.507 -0.190092 1.56449 0
M  V30 1001 C 135.755 -0.907908 1.80559 0
M  V30 1002 C 136.076 -1.83583 0.657438 0
M  V30 1003 O 135.346 -1.93203 -0.323924 0
M  V30 1004 H 133.926 -0.338247 0.666032 0
M  V30 1005 H 136.588 -0.194403 1.93928 0
M  V30 1006 H 135.684 -1.49604 2.73907 0
M  V30 1007 N 135.985 -1.50799 -0.457987 0
M  V30 1008 C 137.233 -1.62121 -1.2067 0
M  V30 1009 C 137.554 -0.329793 -1.92191 0
M  V30 1010 O 136.824 0.653409 -1.84682 0
M  V30 1011 H 135.404 -0.597441 -0.448411 0
M  V30 1012 H 138.066 -1.87637 -0.527096 0
M  V30 1013 H 137.162 -2.43882 -1.94751 0
M  V30 1014 N 137.463 0.71206 -1.40597 0
M  V30 1015 C 138.688 1.50617 -1.42581 0
M  V30 1016 C 139.113 1.88079 -0.0282102 0
M  V30 1017 O 138.471 1.53511 0.964579 0
M  V30 1018 C 138.519 2.7557 -2.3258 0
M  V30 1019 O 137.623 3.72414 -1.77148 0
M  V30 1020 H 136.964 0.453966 -0.484573 0
M  V30 1021 H 139.494 0.876649 -1.84868 0
M  V30 1022 H 139.504 3.2406 -2.47889 0
M  V30 1023 H 138.179 2.47639 -3.34138 0
M  V30 1024 H 136.756 3.31276 -1.71204 0
M  V30 1025 N 138.941 1.26152 0.944643 0
M  V30 1026 C 139.888 1.07408 2.04285 0
M  V30 1027 C 140.858 -0.0198413 1.66088 0
M  V30 1028 O 142.043 0.139264 1.90291 0
M  V30 1029 C 139.183 0.70945 3.37729 0
M  V30 1030 C 138.296 1.87926 3.88983 0
M  V30 1031 C 137.431 1.45807 5.10797 0
M  V30 1032 C 136.47 2.5964 5.54305 0
M  V30 1033 N 135.607 2.18226 6.67324 0
M  V30 1034 H 140.447 2.01389 2.1965 0
M  V30 1035 H 137.984 1.00275 1.07626 0
M  V30 1036 H 139.942 0.478948 4.14442 0
M  V30 1037 H 138.572 -0.193389 3.2222 0
M  V30 1038 H 137.624 2.22279 3.08701 0
M  V30 1039 H 138.936 2.73377 4.17213 0
M  V30 1040 H 138.09 1.18781 5.94959 0
M  V30 1041 H 136.829 0.574414 4.84305 0
M  V30 1042 H 135.834 2.87399 4.68702 0
M  V30 1043 H 137.059 3.48599 5.828 0
M  V30 1044 H 135.005 1.3229 6.42523 0
M  V30 1045 H 134.922 2.97221 6.95123 0
M  V30 1046 H 136.19 1.94403 7.54869 0
M  V30 1047 N 140.419 -1.14872 1.07899 0
M  V30 1048 C 141.667 -1.85422 0.803941 0
M  V30 1049 C 141.988 -1.83051 -0.67211 0
M  V30 1050 O 141.258 -1.27532 -1.48703 0
M  V30 1051 H 139.838 -0.686537 0.294408 0
M  V30 1052 H 142.5 -1.39226 1.3639 0
M  V30 1053 H 141.596 -2.90399 1.14346 0
M  V30 1054 N 141.898 -0.863906 -1.31812 0
M  V30 1055 C 143.146 -0.470904 -1.96537 0
M  V30 1056 C 143.467 0.978771 -1.68657 0
M  V30 1057 O 142.737 1.6853 -0.998717 0
M  V30 1058 H 141.317 -0.171148 -0.72713 0
M  V30 1059 H 143.979 -1.10236 -1.60729 0
M  V30 1060 H 143.075 -0.623616 -3.05806 0
M  V30 1061 N 143.376 1.44774 -0.622745 0
M  V30 1062 C 144.616 2.04004 -0.127102 0
M  V30 1063 C 144.98 1.47862 1.22478 0
M  V30 1064 O 146.181 1.98541 1.81204 0
M  V30 1065 C 144.452 3.57247 -0.104429 0
M  V30 1066 S 146.011 4.37574 0.327814 0
M  V30 1067 H 142.829 0.708713 -0.0569776 0
M  V30 1068 H 145.431 1.77275 -0.824253 0
M  V30 1069 H 144.135 3.95616 -1.09159 0
M  V30 1070 H 143.666 3.88575 0.614236 0
M  V30 1071 H 145.681 4.70575 1.57395 0
M  V30 1072 N 144.854 0.36279 1.53368 0
M  V30 1073 C 146.102 -0.227326 2.00817 0
M  V30 1074 C 146.423 -1.49511 1.25186 0
M  V30 1075 O 145.693 -1.92482 0.364348 0
M  V30 1076 H 144.273 -0.0869923 0.741917 0
M  V30 1077 H 146.935 0.488381 1.88682 0
M  V30 1078 H 146.031 -0.456273 3.08747 0
M  V30 1079 N 146.332 -1.57332 0.0918853 0
M  V30 1080 C 147.557 -1.98995 -0.584442 0
M  V30 1081 C 147.982 -0.970528 -1.61128 0
M  V30 1082 O 147.34 0.0613904 -1.81196 0
M  V30 1083 C 147.388 -3.39636 -1.21161 0
M  V30 1084 O 146.492 -3.40447 -2.32744 0
M  V30 1085 H 145.833 -0.647165 -0.148572 0
M  V30 1086 H 148.363 -2.03873 0.172347 0
M  V30 1087 H 148.373 -3.7726 -1.55367 0
M  V30 1088 H 147.048 -4.13356 -0.459313 0
M  V30 1089 H 145.625 -3.14614 -2.0018 0
M  V30 1090 N 147.81 0.181792 -1.56548 0
M  V30 1091 C 149.05 0.906711 -1.83189 0
M  V30 1092 C 149.414 1.79882 -0.671312 0
M  V30 1093 O 150.615 2.56054 -0.81792 0
M  V30 1094 C 148.886 1.69023 -3.14906 0
M  V30 1095 S 150.445 2.46535 -3.62996 0
M  V30 1096 H 147.263 0.303877 -0.642791 0
M  V30 1097 H 149.865 0.169107 -1.94767 0
M  V30 1098 H 148.569 1.02571 -3.97376 0
M  V30 1099 H 148.1 2.46941 -3.06241 0
M  V30 1100 H 150.115 3.71014 -3.29489 0
M  V30 1101 N 149.288 1.51039 0.449983 0
M  V30 1102 C 150.536 1.62759 1.19808 0
M  V30 1103 C 150.857 0.339981 1.92013 0
M  V30 1104 O 150.127 -0.643606 1.85026 0
M  V30 1105 H 148.707 0.599811 0.445237 0
M  V30 1106 H 151.369 1.87914 0.517138 0
M  V30 1107 H 150.465 2.44911 1.93455 0
M  V30 1108 N 150.766 -0.704594 1.40972 0
M  V30 1109 C 152.014 -1.46169 1.39568 0
M  V30 1110 C 152.335 -1.95 0.00253745 0
M  V30 1111 O 151.605 -1.71095 -0.954114 0
M  V30 1112 H 150.185 -0.542326 0.513704 0
M  V30 1113 H 152.847 -0.834553 1.76128 0
M  V30 1114 H 151.943 -2.32922 2.07735 0
M  V30 1115 N 152.244 -1.26651 -0.937939 0
M  V30 1116 C 153.469 -1.15279 -1.72411 0
M  V30 1117 C 153.894 0.287866 -1.85884 0
M  V30 1118 O 153.252 1.20855 -1.35143 0
M  V30 1119 C 153.3 -1.83028 -3.10698 0
M  V30 1120 O 152.404 -1.12128 -3.96864 0
M  V30 1121 H 151.745 -0.401504 -0.528858 0
M  V30 1122 H 154.275 -1.67531 -1.1745 0
M  V30 1123 H 154.285 -1.89981 -3.6107 0
M  V30 1124 H 152.96 -2.87833 -3.00208 0
M  V30 1125 H 151.537 -1.13173 -3.55312 0
M  V30 1126 N 153.722 1.14298 -1.08507 0
M  V30 1127 C 154.669 2.19414 -0.715965 0
M  V30 1128 C 155.639 1.63399 0.298326 0
M  V30 1129 O 156.824 1.89929 0.182101 0
M  V30 1130 C 153.964 3.44845 -0.132534 0
M  V30 1131 C 153.077 4.15007 -1.19973 0
M  V30 1132 C 152.212 5.28024 -0.580048 0
M  V30 1133 C 151.251 5.9002 -1.62921 0
M  V30 1134 N 150.388 6.94485 -1.03125 0
M  V30 1135 H 155.228 2.50336 -1.61666 0
M  V30 1136 H 152.765 1.2293 -0.807882 0
M  V30 1137 H 154.723 4.16601 0.223454 0
M  V30 1138 H 153.353 3.14403 0.731467 0
M  V30 1139 H 152.405 3.41629 -1.67313 0
M  V30 1140 H 153.717 4.57178 -1.99473 0
M  V30 1141 H 152.871 6.06455 -0.172364 0
M  V30 1142 H 151.61 4.87076 0.246603 0
M  V30 1143 H 150.615 5.10291 -2.04654 0
M  V30 1144 H 151.84 6.33042 -2.45835 0
M  V30 1145 H 149.786 6.55612 -0.225711 0
M  V30 1146 H 149.703 7.35148 -1.76334 0
M  V30 1147 H 150.971 7.7679 -0.649458 0
M  V30 1148 N 155.201 0.870884 1.31352 0
M  V30 1149 C 156.449 0.48132 1.96285 0
M  V30 1150 C 156.77 -0.969813 1.69173 0
M  V30 1151 O 156.04 -1.67998 1.00764 0
M  V30 1152 H 154.62 0.175002 0.726212 0
M  V30 1153 H 157.282 1.11087 1.60143 0
M  V30 1154 H 156.378 0.639825 3.05471 0
M  V30 1155 N 156.679 -1.44442 0.630414 0
M  V30 1156 C 157.927 -2.01653 0.134351 0
M  V30 1157 C 158.248 -1.49836 -1.24796 0
M  V30 1158 O 157.518 -0.701684 -1.82902 0
M  V30 1159 H 156.098 -0.74554 0.0466769 0
M  V30 1160 H 158.76 -1.76952 0.816955 0
M  V30 1161 H 157.856 -3.11935 0.101498 0
M  V30 1162 N 158.157 -0.370918 -1.53173 0
M  V30 1163 C 159.397 0.217106 -2.03244 0
M  V30 1164 C 159.761 1.45558 -1.25207 0
M  V30 1165 O 160.962 2.11957 -1.65311 0
M  V30 1166 C 159.233 0.496664 -3.53932 0
M  V30 1167 S 160.792 1.0576 -4.25864 0
M  V30 1168 H 157.61 0.0627827 -0.708223 0
M  V30 1169 H 160.212 -0.515019 -1.88594 0
M  V30 1170 H 158.916 -0.412096 -4.08326 0
M  V30 1171 H 158.447 1.25772 -3.72753 0
M  V30 1172 H 160.462 2.34145 -4.37482 0
M  V30 1173 N 159.635 1.57281 -0.100228 0
M  V30 1174 C 160.883 1.94153 0.561157 0
M  V30 1175 C 161.204 0.983157 1.68401 0
M  V30 1176 O 160.474 0.0361132 1.95867 0
M  V30 1177 H 159.054 0.716791 0.210283 0
M  V30 1178 H 161.716 1.94202 -0.164765 0
M  V30 1179 H 160.812 2.96709 0.968008 0
M  V30 1180 N 161.113 -0.173488 1.56642 0
M  V30 1181 C 162.338 -0.910149 1.86363 0
M  V30 1182 C 162.763 -1.75132 0.686318 0
M  V30 1183 O 162.121 -1.77595 -0.364643 0
M  V30 1184 C 162.169 -1.76447 3.14482 0
M  V30 1185 O 161.273 -2.86584 2.96553 0
M  V30 1186 H 160.614 -0.255086 0.613047 0
M  V30 1187 H 163.144 -0.172283 2.03873 0
M  V30 1188 H 163.154 -2.16483 3.45831 0
M  V30 1189 H 161.829 -1.14658 3.99783 0
M  V30 1190 H 160.406 -2.50146 2.76553 0
M  V30 1191 N 162.591 -1.51276 -0.441967 0
M  V30 1192 C 163.831 -1.65372 -1.20132 0
M  V30 1193 C 164.195 -0.359871 -1.88597 0
M  V30 1194 O 165.396 -0.376551 -2.66149 0
M  V30 1195 C 163.667 -2.8207 -2.1948 0
M  V30 1196 S 165.226 -3.16467 -3.03964 0
M  V30 1197 H 162.044 -0.582669 -0.407453 0
M  V30 1198 H 164.646 -1.89166 -0.493609 0
M  V30 1199 H 163.35 -3.74523 -1.67812 0
M  V30 1200 H 162.881 -2.6045 -2.94838 0
M  V30 1201 H 164.896 -2.62543 -4.21053 0
M  V30 1202 N 164.069 0.697108 -1.41344 0
M  V30 1203 C 165.317 1.45426 -1.40341 0
M  V30 1204 C 165.638 1.94996 -0.0128787 0
M  V30 1205 O 164.908 1.71599 0.945027 0
M  V30 1206 H 163.488 0.539594 -0.516573 0
M  V30 1207 H 166.15 0.825201 -1.76569 0
M  V30 1208 H 165.246 2.31817 -2.08967 0
M  V30 1209 N 165.547 1.27147 0.931209 0
M  V30 1210 C 166.787 1.14511 1.69312 0
M  V30 1211 C 167.151 -0.304638 1.89568 0
M  V30 1212 O 168.352 -0.553343 2.63043 0
M  V30 1213 C 166.623 1.90349 3.02493 0
M  V30 1214 S 168.182 1.93884 3.93642 0
M  V30 1215 H 165 0.408858 0.581684 0
M  V30 1216 H 167.602 1.61006 1.10893 0
M  V30 1217 H 166.306 2.94877 2.85439 0
M  V30 1218 H 165.837 1.44333 3.65966 0
M  V30 1219 H 167.852 1.03273 4.85334 0
M  V30 1220 N 167.025 -1.13721 1.09112 0
M  V30 1221 C 168.25 -1.89314 0.847053 0
M  V30 1222 C 168.675 -1.78416 -0.595774 0
M  V30 1223 O 168.033 -1.12942 -1.41823 0
M  V30 1224 C 168.081 -3.3701 1.28284 0
M  V30 1225 O 167.185 -4.10054 0.439267 0
M  V30 1226 H 166.526 -0.588745 0.307044 0
M  V30 1227 H 169.056 -1.43902 1.45442 0
M  V30 1228 H 169.066 -3.87834 1.26683 0
M  V30 1229 H 167.741 -3.4426 2.33363 0
M  V30 1230 H 166.318 -3.69266 0.519312 0
M  V30 1231 N 168.503 -0.877838 -1.30888 0
M  V30 1232 C 169.435 -0.296607 -2.27273 0
M  V30 1233 C 170.448 0.544799 -1.53414 0
M  V30 1234 O 171.637 0.365511 -1.74718 0
M  V30 1235 C 168.737 0.597481 -3.33592 0
M  V30 1236 C 167.91 -0.213251 -4.3688 0
M  V30 1237 C 166.969 0.610208 -5.2265 0
M  V30 1238 O 165.995 0.035441 -5.69189 0
M  V30 1239 N 167.197 1.92071 -5.47804 0
M  V30 1240 H 169.962 -1.12492 -2.77787 0
M  V30 1241 H 167.523 -0.740105 -1.43993 0
M  V30 1242 H 169.515 1.15425 -3.87891 0
M  V30 1243 H 168.085 1.32647 -2.83061 0
M  V30 1244 H 167.305 -0.951466 -3.82545 0
M  V30 1245 H 168.593 -0.769262 -5.02951 0
M  V30 1246 H 167.991 2.4107 -5.11763 0
M  V30 1247 H 166.548 2.42508 -6.05007 0
M  V30 1248 N 169.982 1.44106 -0.638065 0
M  V30 1249 C 171.207 2.0685 -0.150916 0
M  V30 1250 C 171.632 1.47417 1.16833 0
M  V30 1251 O 170.99 0.578264 1.71831 0
M  V30 1252 C 171.038 3.60555 -0.05708 0
M  V30 1253 O 170.142 4.00465 0.984972 0
M  V30 1254 H 169.483 0.658151 -0.0879399 0
M  V30 1255 H 172.013 1.84865 -0.876707 0
M  V30 1256 H 172.023 4.07789 0.131232 0
M  V30 1257 H 170.698 4.03193 -1.02021 0
M  V30 1258 H 169.275 3.64849 0.770672 0
M  V30 1259 N 171.46 0.379036 1.52974 0
M  V30 1260 C 172.685 -0.209353 2.06341 0
M  V30 1261 C 173.11 -1.40583 1.24972 0
M  V30 1262 O 172.468 -1.79246 0.272155 0
M  V30 1263 C 172.516 -0.567786 3.56102 0
M  V30 1264 O 171.62 -1.66318 3.77375 0
M  V30 1265 H 170.961 -0.0272919 0.663439 0
M  V30 1266 H 173.491 0.543536 1.97248 0
M  V30 1267 H 173.501 -0.835003 3.99364 0
M  V30 1268 H 172.176 0.307013 4.14765 0
M  V30 1269 H 170.753 -1.39048 3.46006 0
M  V30 1270 N 172.938 -1.57226 0.108567 0
M  V30 1271 C 174.178 -1.96717 -0.555155 0
M  V30 1272 C 174.542 -0.990003 -1.64508 0
M  V30 1273 O 175.743 -1.2739 -2.36696 0
M  V30 1274 C 174.014 -3.40575 -1.08367 0
M  V30 1275 S 175.573 -4.02072 -1.75737 0
M  V30 1276 H 172.391 -0.687638 -0.180762 0
M  V30 1277 H 174.993 -1.94563 0.191172 0
M  V30 1278 H 173.697 -4.0945 -0.279092 0
M  V30 1279 H 173.228 -3.46356 -1.86551 0
M  V30 1280 H 175.243 -3.91977 -3.04251 0
M  V30 1281 N 174.416 0.165178 -1.56732 0
M  V30 1282 C 175.656 0.887231 -1.8414 0
M  V30 1283 C 176.02 1.79159 -0.690353 0
M  V30 1284 O 177.221 2.55172 -0.845032 0
M  V30 1285 C 175.492 1.65674 -3.16681 0
M  V30 1286 S 177.051 2.42671 -3.6559 0
M  V30 1287 H 173.869 0.297042 -0.645978 0
M  V30 1288 H 176.471 0.148439 -1.94936 0
M  V30 1289 H 175.175 0.983507 -3.98441 0
M  V30 1290 H 174.706 2.43679 -3.08843 0
M  V30 1291 H 176.721 3.67499 -3.33406 0
M  V30 1292 N 175.894 1.51508 0.433938 0
M  V30 1293 C 176.841 1.73068 1.52696 0
M  V30 1294 C 177.811 0.572441 1.55924 0
M  V30 1295 O 178.996 0.807253 1.72882 0
M  V30 1296 C 176.136 1.86474 2.90381 0
M  V30 1297 C 175.249 3.14037 2.96656 0
M  V30 1298 C 174.384 3.18019 4.25485 0
M  V30 1299 C 173.423 4.39882 4.2564 0
M  V30 1300 N 172.56 4.41394 5.45999 0
M  V30 1301 H 177.4 2.66366 1.33615 0
M  V30 1302 H 174.937 1.32008 0.649018 0
M  V30 1303 H 176.895 1.92229 3.70275 0
M  V30 1304 H 175.525 0.965809 3.08013 0
M  V30 1305 H 174.577 3.17575 2.09404 0
M  V30 1306 H 175.889 4.0394 2.92633 0
M  V30 1307 H 175.043 3.22708 5.13755 0
M  V30 1308 H 173.782 2.2601 4.3217 0
M  V30 1309 H 172.787 4.35366 3.35763 0
M  V30 1310 H 174.012 5.33159 4.20617 0
M  V30 1311 H 171.958 3.52258 5.53399 0
M  V30 1312 H 171.875 5.25111 5.4387 0
M  V30 1313 H 173.143 4.50281 6.36292 0
M  V30 1314 N 177.372 -0.689602 1.41712 0
M  V30 1315 C 178.783 -1.26973 1.36875 0
M  V30 1316 C 179.134 -1.96124 0.054748 0
M  V30 1317 O 178.259 -1.99141 -0.84687 0
M  V30 1318 C 178.854 -2.30912 2.47922 0
M  V30 1319 C 177.413 -2.84486 2.46464 0
M  V30 1320 C 176.56 -1.58603 2.27465 0
M  V30 1321 H 179.511 -0.48396 1.51141 0
M  V30 1322 H 179.532 -3.12331 2.17323 0
M  V30 1323 H 179.044 -1.80554 3.43543 0
M  V30 1324 H 177.145 -3.39005 1.54617 0
M  V30 1325 H 177.258 -3.34511 3.42986 0
M  V30 1326 H 175.622 -1.84632 1.75451 0
M  V30 1327 H 176.405 -1.10233 3.25121 0
M  V30 1328 N 178.85 -1.27639 -0.924453 0
M  V30 1329 C 180.09 -1.15407 -1.68703 0
M  V30 1330 C 180.454 0.294581 -1.89727 0
M  V30 1331 O 181.655 0.539385 -2.63333 0
M  V30 1332 C 179.926 -1.9195 -3.0148 0
M  V30 1333 S 181.485 -1.95969 -3.92609 0
M  V30 1334 H 178.303 -0.411937 -0.579507 0
M  V30 1335 H 180.905 -1.61592 -1.10038 0
M  V30 1336 H 179.609 -2.96387 -2.83871 0
M  V30 1337 H 179.14 -1.46272 -3.65196 0
M  V30 1338 H 181.155 -1.05846 -4.84779 0
M  V30 1339 N 180.328 1.1314 -1.09713 0
M  V30 1340 C 181.568 1.8613 -0.844683 0
M  V30 1341 C 181.932 1.81765 0.618491 0
M  V30 1342 O 183.133 2.50024 0.98699 0
M  V30 1343 C 181.404 3.30151 -1.36877 0
M  V30 1344 S 182.963 4.206 -1.25064 0
M  V30 1345 H 179.781 0.642056 -0.305427 0
M  V30 1346 H 182.383 1.36343 -1.4011 0
M  V30 1347 H 181.087 3.30883 -2.42786 0
M  V30 1348 H 180.618 3.85 -0.808614 0
M  V30 1349 H 182.633 4.95783 -0.203486 0
M  V30 1350 N 181.806 0.884767 1.30421 0
M  V30 1351 C 183.046 0.509806 1.9794 0
M  V30 1352 C 183.41 -0.923736 1.68319 0
M  V30 1353 O 184.611 -1.40481 2.29169 0
M  V30 1354 C 182.882 0.776732 3.48858 0
M  V30 1355 S 184.441 0.503843 4.35898 0
M  V30 1356 H 181.259 0.189699 0.685227 0
M  V30 1357 H 183.861 1.14399 1.58535 0
M  V30 1358 H 182.565 1.81857 3.67908 0
M  V30 1359 H 182.096 0.1301 3.93185 0
M  V30 1360 H 184.111 -0.657625 4.91823 0
M  V30 1361 N 183.284 -1.43765 0.645699 0
M  V30 1362 C 184.509 -2.06767 0.161883 0
M  V30 1363 C 184.934 -1.48034 -1.16049 0
M  V30 1364 O 184.292 -0.587369 -1.71522 0
M  V30 1365 C 184.34 -3.60519 0.0762003 0
M  V30 1366 O 183.444 -4.00982 -0.963721 0
M  V30 1367 H 182.785 -0.657675 0.091429 0
M  V30 1368 H 185.315 -1.84397 0.886499 0
M  V30 1369 H 185.325 -4.07853 -0.109604 0
M  V30 1370 H 184 -4.02646 1.04157 0
M  V30 1371 H 182.577 -3.65253 -0.751312 0
M  V30 1372 N 184.763 -0.387143 -1.52771 0
M  V30 1373 C 185.988 0.198407 -2.06449 0
M  V30 1374 C 186.413 1.39918 -1.25716 0
M  V30 1375 O 185.771 1.79099 -0.281657 0
M  V30 1376 C 185.819 0.548893 -3.56398 0
M  V30 1377 O 184.923 1.64315 -3.78252 0
M  V30 1378 H 184.264 0.0237731 -0.663574 0
M  V30 1379 H 186.794 -0.553989 -1.96957 0
M  V30 1380 H 186.804 0.813812 -3.99801 0
M  V30 1381 H 185.479 -0.329005 -4.14597 0
M  V30 1382 H 184.056 1.37211 -3.46738 0
M  V30 1383 N 186.241 1.57166 -0.116904 0
M  V30 1384 C 187.489 1.94737 0.540533 0
M  V30 1385 C 187.81 1.00096 1.67349 0
M  V30 1386 O 187.08 0.0568854 1.95817 0
M  V30 1387 H 185.66 0.718981 0.202669 0
M  V30 1388 H 188.322 1.94017 -0.185353 0
M  V30 1389 H 187.418 2.97719 0.936483 0
M  V30 1390 N 187.719 -0.156864 1.56817 0
M  V30 1391 C 188.959 -0.877453 1.84608 0
M  V30 1392 C 189.323 -1.78791 0.699845 0
M  V30 1393 O 190.524 -2.5472 0.858553 0
M  V30 1394 C 188.795 -1.63992 3.17555 0
M  V30 1395 S 190.354 -2.40729 3.66872 0
M  V30 1396 H 187.172 -0.293612 0.647544 0
M  V30 1397 H 189.774 -0.138099 1.95012 0
M  V30 1398 H 188.478 -0.962363 3.98957 0
M  V30 1399 H 188.009 -2.42038 3.10131 0
M  V30 1400 H 190.024 -3.65725 3.3535 0
M  V30 1401 N 189.197 -1.51736 -0.425897 0
M  V30 1402 C 190.445 -1.64644 -1.17204 0
M  V30 1403 C 190.766 -0.370486 -1.91448 0
M  V30 1404 O 190.036 0.614088 -1.86026 0
M  V30 1405 H 188.616 -0.606819 -0.435638 0
M  V30 1406 H 191.278 -1.88713 -0.487177 0
M  V30 1407 H 190.374 -2.47958 -1.89534 0
M  V30 1408 N 190.675 0.682077 -1.42076 0
M  V30 1409 C 191.9 1.47558 -1.45744 0
M  V30 1410 C 192.325 1.87977 -0.0680981 0
M  V30 1411 O 191.683 1.55522 0.9318 0
M  V30 1412 C 191.731 2.70575 -2.38373 0
M  V30 1413 O 190.835 3.68573 -1.85007 0
M  V30 1414 H 190.176 0.443585 -0.494093 0
M  V30 1415 H 192.706 0.837238 -1.86686 0
M  V30 1416 H 192.716 3.18729 -2.54707 0
M  V30 1417 H 191.391 2.40495 -3.39315 0
M  V30 1418 H 189.968 3.2757 -1.78192 0
M  V30 1419 N 192.153 1.28127 0.917671 0
M  V30 1420 C 193.378 1.18007 1.70555 0
M  V30 1421 C 193.803 -0.258257 1.86319 0
M  V30 1422 O 193.161 -1.1869 1.37049 0
M  V30 1423 C 193.209 1.87948 3.07746 0
M  V30 1424 O 192.313 1.18427 3.9503 0
M  V30 1425 H 191.654 0.409867 0.522403 0
M  V30 1426 H 194.184 1.69379 1.1477 0
M  V30 1427 H 194.194 1.95701 3.58001 0
M  V30 1428 H 192.869 2.92573 2.95591 0
M  V30 1429 H 191.446 1.18811 3.53466 0
M  V30 1430 N 193.631 -1.12557 1.10312 0
M  V30 1431 C 194.871 -1.8568 0.854543 0
M  V30 1432 C 195.235 -1.82091 -0.608843 0
M  V30 1433 O 196.436 -2.50544 -0.973717 0
M  V30 1434 C 194.707 -3.2942 1.38626 0
M  V30 1435 S 196.266 -4.19931 1.27293 0
M  V30 1436 H 193.084 -0.640427 0.308827 0
M  V30 1437 H 195.686 -1.35599 1.40831 0
M  V30 1438 H 194.39 -3.2959 2.44537 0
M  V30 1439 H 193.921 -3.84566 0.82902 0
M  V30 1440 H 195.936 -4.95668 0.229776 0
M  V30 1441 N 195.109 -0.891671 -1.2995 0
M  V30 1442 C 196.349 -0.520296 -1.97667 0
M  V30 1443 C 196.713 0.914797 -1.68806 0
M  V30 1444 O 197.914 1.39263 -2.29911 0
M  V30 1445 C 196.185 -0.795222 -3.48441 0
M  V30 1446 S 197.744 -0.526953 -4.35624 0
M  V30 1447 H 194.562 -0.19333 -0.684211 0
M  V30 1448 H 197.164 -1.15238 -1.57926 0
M  V30 1449 H 195.868 -1.83805 -3.66938 0
M  V30 1450 H 195.399 -0.15095 -3.9311 0
M  V30 1451 H 197.414 0.631533 -4.92165 0
M  V30 1452 N 196.587 1.43421 -0.653314 0
M  V30 1453 C 197.519 2.29071 0.0769134 0
M  V30 1454 C 198.532 1.42513 0.787017 0
M  V30 1455 O 199.721 1.66449 0.644757 0
M  V30 1456 C 196.821 3.19436 1.13199 0
M  V30 1457 C 195.994 4.34533 0.500006 0
M  V30 1458 C 195.053 5.05771 1.45198 0
M  V30 1459 O 194.079 5.61037 0.960538 0
M  V30 1460 N 195.281 5.0928 2.78594 0
M  V30 1461 H 198.046 2.92382 -0.658235 0
M  V30 1462 H 195.607 1.54112 -0.496104 0
M  V30 1463 H 197.599 3.63958 1.76964 0
M  V30 1464 H 196.169 2.57724 1.7691 0
M  V30 1465 H 195.389 3.92925 -0.316738 0
M  V30 1466 H 196.677 5.08766 0.0588345 0
M  V30 1467 H 196.075 4.65751 3.2108 0
M  V30 1468 H 194.632 5.57519 3.37662 0
M  V30 1469 N 198.065 0.39524 1.52563 0
M  V30 1470 C 199.29 -0.187456 2.06551 0
M  V30 1471 C 199.715 -1.39249 1.26457 0
M  V30 1472 O 199.073 -1.78947 0.291151 0
M  V30 1473 C 199.121 -0.529985 3.56684 0
M  V30 1474 O 198.225 -1.62307 3.79118 0
M  V30 1475 H 197.566 -0.0202537 0.663691 0
M  V30 1476 H 200.096 0.564426 1.96661 0
M  V30 1477 H 200.106 -0.792598 4.00227 0
M  V30 1478 H 198.781 0.350987 4.14416 0
M  V30 1479 H 197.358 -1.3537 3.47461 0
M  V30 1480 N 199.544 -1.57102 0.125237 0
M  V30 1481 C 200.769 -2.0019 -0.542101 0
M  V30 1482 C 201.194 -1.00449 -1.59034 0
M  V30 1483 O 200.552 0.0229423 -1.81285 0
M  V30 1484 C 200.6 -3.42129 -1.13929 0
M  V30 1485 O 199.704 -3.45307 -2.2547 0
M  V30 1486 H 199.045 -0.650171 -0.134812 0
M  V30 1487 H 201.575 -2.03461 0.215553 0
M  V30 1488 H 201.585 -3.80471 -1.4733 0
M  V30 1489 H 200.26 -4.14237 -0.371531 0
M  V30 1490 H 198.837 -3.1879 -1.93462 0
M  V30 1491 N 201.022 0.148545 -1.56898 0
M  V30 1492 C 202.262 0.86765 -1.85071 0
M  V30 1493 C 202.626 1.78417 -0.709317 0
M  V30 1494 O 203.827 2.54261 -0.872049 0
M  V30 1495 C 202.098 1.62306 -3.1842 0
M  V30 1496 S 203.657 2.3878 -3.68143 0
M  V30 1497 H 200.475 0.290174 -0.649092 0
M  V30 1498 H 203.077 0.127755 -1.95082 0
M  V30 1499 H 201.781 0.941192 -3.99462 0
M  V30 1500 H 201.312 2.4039 -3.1141 0
M  V30 1501 H 203.327 3.63942 -3.37285 0
M  V30 1502 N 202.5 1.5196 0.417844 0
M  V30 1503 C 203.74 1.67262 1.17486 0
M  V30 1504 C 204.104 0.38983 1.88001 0
M  V30 1505 O 205.305 0.418845 2.65517 0
M  V30 1506 C 203.576 2.85526 2.14965 0
M  V30 1507 S 205.135 3.21263 2.98891 0
M  V30 1508 H 201.953 0.589077 0.398132 0
M  V30 1509 H 204.555 1.89927 0.463452 0
M  V30 1510 H 203.259 3.77145 1.61833 0
M  V30 1511 H 202.79 2.65107 2.90657 0
M  V30 1512 H 204.805 2.69208 4.16823 0
M  V30 1513 N 203.978 -0.674533 1.42435 0
M  V30 1514 C 204.925 -1.78807 1.45934 0
M  V30 1515 C 205.895 -1.63157 0.311271 0
M  V30 1516 O 207.08 -1.83707 0.515383 0
M  V30 1517 C 204.22 -3.16839 1.36773 0
M  V30 1518 C 203.333 -3.43774 2.61617 0
M  V30 1519 C 202.468 -4.71536 2.44597 0
M  V30 1520 C 201.507 -4.91505 3.64814 0
M  V30 1521 N 200.644 -6.10508 3.46734 0
M  V30 1522 H 205.484 -1.75151 2.41093 0
M  V30 1523 H 203.021 -0.85504 1.19697 0
M  V30 1524 H 204.979 -3.96606 1.29459 0
M  V30 1525 H 203.609 -3.19619 0.452089 0
M  V30 1526 H 202.661 -2.58259 2.79297 0
M  V30 1527 H 203.973 -3.54423 3.50978 0
M  V30 1528 H 203.127 -5.59393 2.3487 0
M  V30 1529 H 201.866 -4.6317 1.52726 0
M  V30 1530 H 200.871 -4.0209 3.74972 0
M  V30 1531 H 202.096 -5.01716 4.57665 0
M  V30 1532 H 200.042 -6.03315 2.5758 0
M  V30 1533 H 199.959 -6.2202 4.29682 0
M  V30 1534 H 201.227 -7.01044 3.40819 0
M  V30 1535 N 205.456 -1.28612 -0.910864 0
M  V30 1536 C 206.867 -1.14406 -1.47541 0
M  V30 1537 C 207.218 0.264901 -1.94403 0
M  V30 1538 O 206.343 1.15942 -1.82719 0
M  V30 1539 C 206.938 -2.07073 -2.68153 0
M  V30 1540 C 205.497 -1.96923 -3.20778 0
M  V30 1541 C 204.644 -1.98646 -1.93481 0
M  V30 1542 H 207.595 -1.41259 -0.723291 0
M  V30 1543 H 207.616 -1.63642 -3.43514 0
M  V30 1544 H 207.128 -3.09611 -2.34015 0
M  V30 1545 H 205.229 -0.97433 -3.59635 0
M  V30 1546 H 205.342 -2.84026 -3.85832 0
M  V30 1547 H 203.706 -1.43093 -2.10705 0
M  V30 1548 H 204.489 -3.02868 -1.61634 0
M  V30 1549 N 206.934 1.1197 -1.10907 0
M  V30 1550 C 208.174 1.85224 -0.864378 0
M  V30 1551 C 208.538 1.82411 0.599178 0
M  V30 1552 O 209.739 2.51057 0.960416 0
M  V30 1553 C 208.01 3.2868 -1.40371 0
M  V30 1554 S 209.569 4.1925 -1.29518 0
M  V30 1555 H 206.387 0.63878 -0.312219 0
M  V30 1556 H 208.989 1.3485 -1.41548 0
M  V30 1557 H 207.693 3.28289 -2.46281 0
M  V30 1558 H 207.224 3.84121 -0.849402 0
M  V30 1559 H 209.239 4.95539 -0.256059 0
M  V30 1560 N 208.412 0.89855 1.29475 0
M  V30 1561 C 209.652 0.530771 1.97388 0
M  V30 1562 C 210.016 -0.905832 1.69289 0
M  V30 1563 O 211.217 -1.38042 2.30646 0
M  V30 1564 C 209.488 0.81369 3.48014 0
M  V30 1565 S 211.047 0.550048 4.35339 0
M  V30 1566 H 207.865 0.196956 0.683176 0
M  V30 1567 H 210.467 1.16074 1.57312 0
M  V30 1568 H 209.171 1.85749 3.65958 0
M  V30 1569 H 208.702 0.171795 3.93025 0
M  V30 1570 H 210.717 -0.605423 4.92493 0
M  V30 1571 N 209.89 -1.43072 0.660911 0
M  V30 1572 C 211.13 -2.03596 0.181146 0
M  V30 1573 C 211.494 -1.51057 -1.18515 0
M  V30 1574 O 212.695 -2.03275 -1.75877 0
M  V30 1575 C 210.966 -3.56845 0.19911 0
M  V30 1576 S 212.525 -4.38289 -0.211684 0
M  V30 1577 H 209.343 -0.706954 0.0757479 0
M  V30 1578 H 211.945 -1.75027 0.870965 0
M  V30 1579 H 210.649 -3.92583 1.1961 0
M  V30 1580 H 210.18 -3.90067 -0.510996 0
M  V30 1581 H 212.195 -4.74583 -1.44863 0
M  V30 1582 N 211.368 -0.403325 -1.52352 0
M  V30 1583 C 212.3 0.4603 -2.2453 0
M  V30 1584 C 213.313 1.01505 -1.27282 0
M  V30 1585 O 214.502 0.914982 -1.53266 0
M  V30 1586 C 211.602 1.65208 -2.95905 0
M  V30 1587 C 210.775 1.22224 -4.19976 0
M  V30 1588 C 209.834 2.28028 -4.74226 0
M  V30 1589 O 208.86 1.88857 -5.36956 0
M  V30 1590 N 210.062 3.6012 -4.55295 0
M  V30 1591 H 212.827 -0.158156 -2.99282 0
M  V30 1592 H 210.388 -0.230402 -1.60252 0
M  V30 1593 H 212.38 2.35541 -3.29093 0
M  V30 1594 H 210.95 2.17658 -2.24374 0
M  V30 1595 H 210.17 0.34725 -3.92668 0
M  V30 1596 H 211.458 0.911924 -5.00561 0
M  V30 1597 H 210.856 3.94698 -4.05253 0
M  V30 1598 H 209.413 4.26447 -4.92936 0
M  V30 1599 N 212.846 1.57033 -0.133567 0
M  V30 1600 C 214.071 2.00475 0.531477 0
M  V30 1601 C 214.496 1.01291 1.58499 0
M  V30 1602 O 213.854 -0.0133279 1.81295 0
M  V30 1603 C 213.902 3.42729 1.12113 0
M  V30 1604 O 213.006 3.46498 2.23636 0
M  V30 1605 H 212.347 0.650876 0.131362 0
M  V30 1606 H 214.877 2.03344 -0.22634 0
M  V30 1607 H 214.887 3.81246 1.4531 0
M  V30 1608 H 213.562 4.14428 0.349557 0
M  V30 1609 H 212.139 3.19811 1.91769 0
M  V30 1610 N 214.325 -0.140222 1.56975 0
M  V30 1611 C 215.55 -0.870414 1.88251 0
M  V30 1612 C 215.975 -1.73637 0.723312 0
M  V30 1613 O 215.333 -1.78329 -0.32689 0
M  V30 1614 C 215.381 -1.69737 3.18154 0
M  V30 1615 O 214.485 -2.80229 3.02565 0
M  V30 1616 H 213.826 -0.242025 0.61832 0
M  V30 1617 H 216.356 -0.128999 2.04193 0
M  V30 1618 H 216.366 -2.09099 3.50345 0
M  V30 1619 H 215.041 -1.06152 4.02125 0
M  V30 1620 H 213.618 -2.44224 2.81796 0
M  V30 1621 N 215.803 -1.52179 -0.40978 0
M  V30 1622 C 217.043 -1.67882 -1.16597 0
M  V30 1623 C 217.407 -0.399795 -1.87791 0
M  V30 1624 O 218.608 -0.43292 -2.65291 0
M  V30 1625 C 216.879 -2.86662 -2.13448 0
M  V30 1626 S 218.438 -3.22843 -2.97183 0
M  V30 1627 H 215.256 -0.59118 -0.395002 0
M  V30 1628 H 217.858 -1.9017 -0.453373 0
M  V30 1629 H 216.562 -3.77998 -1.59831 0
M  V30 1630 H 216.093 -2.66645 -2.89247 0
M  V30 1631 H 218.108 -2.71415 -4.15389 0
M  V30 1632 N 217.281 0.66697 -1.42791 0
M  V30 1633 C 218.521 1.43892 -1.4517 0
M  V30 1634 C 218.885 1.91877 -0.0687551 0
M  V30 1635 O 220.086 2.6878 0.0327455 0
M  V30 1636 C 218.357 2.59839 -2.45395 0
M  V30 1637 S 219.916 3.48572 -2.66539 0
M  V30 1638 H 216.734 0.491356 -0.513897 0
M  V30 1639 H 219.336 0.775656 -1.79454 0
M  V30 1640 H 218.04 2.22838 -3.44632 0
M  V30 1641 H 217.571 3.3103 -2.12562 0
M  V30 1642 H 219.586 4.56094 -1.95429 0
M  V30 1643 N 218.759 1.29093 0.90403 0
M  V30 1644 C 220.005 1.16986 1.65656 0
M  V30 1645 C 220.338 -0.278925 1.92186 0
M  V30 1646 O 219.613 -1.2019 1.5292 0
M  V30 1647 C 219.896 1.97908 3.0084 0
M  V30 1648 C 219.749 3.50903 2.81403 0
M  V30 1649 C 221.068 1.80208 4.01513 0
M  V30 1650 H 218.187 0.426346 0.601164 0
M  V30 1651 H 220.829 1.58518 1.04747 0
M  V30 1652 H 218.979 1.62616 3.52829 0
M  V30 1653 H 220.651 3.96153 2.36348 0
M  V30 1654 H 218.894 3.76045 2.1627 0
M  V30 1655 H 219.565 4.02791 3.77443 0
M  V30 1656 H 222.041 2.11025 3.58619 0
M  V30 1657 H 220.917 2.39184 4.94047 0
M  V30 1658 H 221.178 0.756119 4.35586 0
M  V30 1659 N 220.237 -1.11381 1.11499 0
M  V30 1660 C 221.648 -1.6465 0.880191 0
M  V30 1661 C 221.999 -1.87199 -0.587434 0
M  V30 1662 O 221.124 -1.60667 -1.44966 0
M  V30 1663 C 221.719 -2.99105 1.59128 0
M  V30 1664 C 220.278 -3.49279 1.40289 0
M  V30 1665 C 219.425 -2.24077 1.63354 0
M  V30 1666 H 222.376 -0.950123 1.27116 0
M  V30 1667 H 222.397 -3.66107 1.03664 0
M  V30 1668 H 221.909 -2.82661 2.65941 0
M  V30 1669 H 220.01 -3.70887 0.356888 0
M  V30 1670 H 220.123 -4.2803 2.15238 0
M  V30 1671 H 218.487 -2.31733 1.05698 0
M  V30 1672 H 219.27 -2.10175 2.71443 0
M  V30 1673 N 221.715 -0.905404 -1.28997 0
M  V30 1674 C 222.961 -0.535039 -1.95615 0
M  V30 1675 C 223.294 0.917404 -1.71165 0
M  V30 1676 O 222.569 1.65123 -1.02785 0
M  V30 1677 C 222.852 -0.834918 -3.50287 0
M  V30 1678 C 222.705 -2.33948 -3.84172 0
M  V30 1679 C 224.024 -0.325318 -4.38896 0
M  V30 1680 H 221.143 -0.195861 -0.710498 0
M  V30 1681 H 223.785 -1.13313 -1.52513 0
M  V30 1682 H 221.935 -0.325904 -3.87131 0
M  V30 1683 H 223.607 -2.91847 -3.57243 0
M  V30 1684 H 221.85 -2.79789 -3.31513 0
M  V30 1685 H 222.521 -2.49987 -4.92149 0
M  V30 1686 H 224.997 -0.761256 -4.09077 0
M  V30 1687 H 223.873 -0.564295 -5.45992 0
M  V30 1688 H 224.134 0.774144 -4.35269 0
M  V30 1689 N 223.193 1.4272 -0.668489 0
M  V30 1690 C 224.433 2.03497 -0.19194 0
M  V30 1691 C 224.797 1.51684 1.17712 0
M  V30 1692 O 225.998 2.04205 1.74796 0
M  V30 1693 C 224.269 3.56734 -0.218032 0
M  V30 1694 S 225.828 4.38395 0.188438 0
M  V30 1695 H 222.646 0.706542 -0.0794959 0
M  V30 1696 H 225.248 1.74563 -0.880235 0
M  V30 1697 H 223.952 3.91943 -1.2169 0
M  V30 1698 H 223.483 3.90333 0.490303 0
M  V30 1699 H 225.498 4.75345 1.42345 0
M  V30 1700 N 224.671 0.411399 1.52136 0
M  V30 1701 C 225.911 -0.163143 2.03748 0
M  V30 1702 C 226.275 -1.42187 1.29022 0
M  V30 1703 O 227.476 -2.075 1.70872 0
M  V30 1704 C 225.747 -0.402651 3.55125 0
M  V30 1705 S 227.306 -0.944315 4.28519 0
M  V30 1706 H 224.124 -0.0439833 0.709638 0
M  V30 1707 H 226.726 0.56484 1.87163 0
M  V30 1708 H 225.43 0.520212 4.0709 0
M  V30 1709 H 224.961 -1.15844 3.75957 0
M  V30 1710 H 226.976 -2.22463 4.43536 0
M  V30 1711 N 226.149 -1.5696 0.141893 0
M  V30 1712 C 227.081 -2.13619 -0.830627 0
M  V30 1713 C 228.094 -1.08439 -1.21428 0
M  V30 1714 O 229.283 -1.35734 -1.15925 0
M  V30 1715 C 226.383 -2.63978 -2.12529 0
M  V30 1716 C 225.556 -3.93504 -1.9098 0
M  V30 1717 C 224.615 -4.29225 -3.04388 0
M  V30 1718 O 223.641 -4.97641 -2.76302 0
M  V30 1719 N 224.843 -3.88393 -4.31429 0
M  V30 1720 H 227.608 -2.97691 -0.34641 0
M  V30 1721 H 225.169 -1.61846 -0.0418375 0
M  V30 1722 H 227.161 -2.84891 -2.87436 0
M  V30 1723 H 225.731 -1.84659 -2.52229 0
M  V30 1724 H 224.951 -3.81269 -1.00139 0
M  V30 1725 H 226.239 -4.78154 -1.73914 0
M  V30 1726 H 225.637 -3.33257 -4.57117 0
M  V30 1727 H 224.194 -4.14368 -5.03133 0
M  V30 1728 N 227.627 0.131896 -1.57047 0
M  V30 1729 C 228.852 0.860418 -1.8871 0
M  V30 1730 C 229.277 1.73251 -0.73251 0
M  V30 1731 O 228.635 1.785 0.317429 0
M  V30 1732 C 228.683 1.68047 -3.19049 0
M  V30 1733 O 227.787 2.7862 -3.04047 0
M  V30 1734 H 227.128 0.238743 -0.619595 0
M  V30 1735 H 229.658 0.118169 -2.04258 0
M  V30 1736 H 229.668 2.07238 -3.51449 0
M  V30 1737 H 228.343 1.04018 -4.02682 0
M  V30 1738 H 226.92 2.42726 -2.83088 0
M  V30 1739 N 229.106 1.52395 0.401703 0
M  V30 1740 C 230.331 1.70972 1.17403 0
M  V30 1741 C 230.756 0.421615 1.83314 0
M  V30 1742 O 230.114 -0.621564 1.70312 0
M  V30 1743 C 230.162 2.85151 2.20728 0
M  V30 1744 O 229.266 2.51238 3.27037 0
M  V30 1745 H 228.607 0.568927 0.342372 0
M  V30 1746 H 231.137 1.99131 0.469891 0
M  V30 1747 H 231.147 3.10279 2.64936 0
M  V30 1748 H 229.822 3.78603 1.7214 0
M  V30 1749 H 228.399 2.36808 2.88057 0
M  V30 1750 N 230.584 -0.659388 1.43143 0
M  V30 1751 C 231.824 -1.43121 1.45931 0
M  V30 1752 C 232.188 -1.91838 0.0789298 0
M  V30 1753 O 233.389 -2.68794 -0.018491 0
M  V30 1754 C 231.66 -2.58534 2.46769 0
M  V30 1755 S 233.219 -3.47154 2.68384 0
M  V30 1756 H 230.037 -0.488624 0.516496 0
M  V30 1757 H 232.639 -0.766128 1.79863 0
M  V30 1758 H 231.343 -2.21007 3.45809 0
M  V30 1759 H 230.874 -3.29898 2.14315 0
M  V30 1760 H 232.889 -4.55051 1.97845 0
M  V30 1761 N 232.062 -1.29571 -0.897171 0
M  V30 1762 C 233.302 -1.18959 -1.66217 0
M  V30 1763 C 233.666 0.254271 -1.90309 0
M  V30 1764 O 234.867 0.483407 -2.64417 0
M  V30 1765 C 233.138 -1.98302 -2.9734 0
M  V30 1766 S 234.697 -2.04253 -3.88364 0
M  V30 1767 H 231.515 -0.424137 -0.570639 0
M  V30 1768 H 234.117 -1.6389 -1.06585 0
M  V30 1769 H 232.821 -3.02342 -2.77521 0
M  V30 1770 H 232.352 -1.53986 -3.62011 0
M  V30 1771 H 234.367 -1.16105 -4.82425 0
M  V30 1772 N 233.54 1.10788 -1.12088 0
M  V30 1773 C 234.487 2.17025 -0.785407 0
M  V30 1774 C 235.457 1.64265 0.246191 0
M  V30 1775 O 236.642 1.90412 0.121584 0
M  V30 1776 C 233.782 3.44249 -0.242177 0
M  V30 1777 C 232.895 4.1098 -1.33115 0
M  V30 1778 C 232.03 5.25911 -0.747741 0
M  V30 1779 C 231.069 5.84538 -1.81609 0
M  V30 1780 N 230.206 6.90853 -1.25167 0
M  V30 1781 H 235.046 2.45066 -1.69548 0
M  V30 1782 H 232.583 1.20297 -0.846582 0
M  V30 1783 H 234.541 4.17101 0.0908026 0
M  V30 1784 H 233.171 3.16571 0.631072 0
M  V30 1785 H 232.223 3.36133 -1.78097 0
M  V30 1786 H 233.535 4.50601 -2.13917 0
M  V30 1787 H 232.689 6.056 -0.365216 0
M  V30 1788 H 231.428 4.87614 0.0915188 0
M  V30 1789 H 230.433 5.03522 -2.20785 0
M  V30 1790 H 231.658 6.249 -2.6585 0
M  V30 1791 H 229.604 6.54562 -0.434174 0
M  V30 1792 H 229.521 7.29166 -1.99633 0
M  V30 1793 H 230.789 7.7433 -0.896259 0
M  V30 1794 N 235.018 0.912232 1.28515 0
M  V30 1795 C 236.429 0.591352 1.77087 0
M  V30 1796 C 236.78 -0.8933 1.74684 0
M  V30 1797 O 235.905 -1.69876 1.34056 0
M  V30 1798 C 236.5 1.06668 3.2157 0
M  V30 1799 C 235.059 0.79675 3.67871 0
M  V30 1800 C 234.206 1.23427 2.48316 0
M  V30 1801 H 237.157 1.09365 1.15 0
M  V30 1802 H 237.178 0.407455 3.78312 0
M  V30 1803 H 236.69 2.14726 3.23287 0
M  V30 1804 H 234.791 -0.270679 3.71616 0
M  V30 1805 H 234.904 1.40343 4.58084 0
M  V30 1806 H 233.268 0.653036 2.46186 0
M  V30 1807 H 234.051 2.32316 2.52753 0
M  V30 1808 N 236.496 -1.42363 0.676048 0
M  V30 1809 C 237.736 -2.03392 0.20273 0
M  V30 1810 C 238.1 -1.52306 -1.16906 0
M  V30 1811 O 239.301 -2.05129 -1.73711 0
M  V30 1812 C 237.572 -3.56614 0.236947 0
M  V30 1813 S 239.131 -4.38489 -0.165186 0
M  V30 1814 H 235.949 -0.70611 0.0832418 0
M  V30 1815 H 238.551 -1.74093 0.88948 0
M  V30 1816 H 237.255 -3.91293 1.23767 0
M  V30 1817 H 236.786 -3.90587 -0.469596 0
M  V30 1818 H 238.801 -4.76093 -1.39822 0
M  V30 1819 N 237.974 -0.419461 -1.51915 0
M  V30 1820 C 239.214 0.152336 -2.03832 0
M  V30 1821 C 239.578 1.41501 -1.29775 0
M  V30 1822 O 240.779 2.06591 -1.7197 0
M  V30 1823 C 239.05 0.383812 -3.55333 0
M  V30 1824 S 240.609 0.921577 -4.29013 0
M  V30 1825 H 237.427 0.0402193 -0.709862 0
M  V30 1826 H 240.029 -0.574758 -1.8686 0
M  V30 1827 H 238.733 -0.541794 -4.06808 0
M  V30 1828 H 238.264 1.13849 -3.76566 0
M  V30 1829 H 240.279 2.20108 -4.4471 0
M  V30 1830 N 239.452 1.56882 -0.150215 0
M  V30 1831 C 240.692 1.98119 0.502804 0
M  V30 1832 C 241.056 1.03327 1.61826 0
M  V30 1833 O 242.257 1.33621 2.33236 0
M  V30 1834 C 240.528 3.43329 0.992988 0
M  V30 1835 S 242.087 4.0659 1.65015 0
M  V30 1836 H 238.905 0.692189 0.162467 0
M  V30 1837 H 241.507 1.93988 -0.242689 0
M  V30 1838 H 240.211 4.10046 0.170436 0
M  V30 1839 H 239.742 3.5118 1.77303 0
M  V30 1840 H 241.757 3.99906 2.93752 0
M  V30 1841 N 240.93 -0.123565 1.57115 0
M  V30 1842 C 241.862 -1.17739 1.96648 0
M  V30 1843 C 242.875 -1.37906 0.865201 0
M  V30 1844 O 244.064 -1.37062 1.14351 0
M  V30 1845 C 241.164 -2.53821 2.24562 0
M  V30 1846 C 240.337 -2.54317 3.55867 0
M  V30 1847 C 239.396 -3.72112 3.72047 0
M  V30 1848 O 238.422 -3.55907 4.44206 0
M  V30 1849 N 239.624 -4.90498 3.10471 0
M  V30 1850 H 242.389 -0.841147 2.87654 0
M  V30 1851 H 239.95 -0.31289 1.58848 0
M  V30 1852 H 241.942 -3.31175 2.32606 0
M  V30 1853 H 240.512 -2.79645 1.39705 0
M  V30 1854 H 239.732 -1.62711 3.59053 0
M  V30 1855 H 241.02 -2.51701 4.42181 0
M  V30 1856 H 240.418 -5.06567 2.51806 0
M  V30 1857 H 238.975 -5.65544 3.24043 0
M  V30 1858 N 242.408 -1.52605 -0.393616 0
M  V30 1859 C 243.633 -1.71592 -1.16495 0
M  V30 1860 C 244.058 -0.43133 -1.83088 0
M  V30 1861 O 243.416 0.612523 -1.7064 0
M  V30 1862 C 243.464 -2.86318 -2.19213 0
M  V30 1863 O 242.568 -2.52969 -3.257 0
M  V30 1864 H 241.909 -0.570734 -0.33935 0
M  V30 1865 H 244.439 -1.99377 -0.459324 0
M  V30 1866 H 244.449 -3.1168 -2.63286 0
M  V30 1867 H 243.124 -3.79511 -1.7013 0
M  V30 1868 H 241.701 -2.38332 -2.86797 0
M  V30 1869 N 243.887 0.651787 -1.4349 0
M  V30 1870 C 244.835 1.78586 -1.49029 0
M  V30 1871 C 245.829 1.65448 -0.363767 0
M  V30 1872 O 247.035 1.71777 -0.537821 0
M  V30 1873 H 243.41 0.589236 -0.467231 0
M  V30 1874 H 245.381 1.71035 -2.44519 0
M  V30 1875 C 244.13 3.16851 -1.43181 0
M  V30 1876 H 243.453 3.27598 -2.29171 0
M  V30 1877 H 244.893 3.96156 -1.51118 0
M  V30 1878 C 243.352 3.36568 -0.149616 0
M  V30 1879 O 243.882 3.93885 0.788509 0
M  V30 1880 N 242.088 2.90539 -0.0593484 0
M  V30 1881 H 241.635 2.4408 -0.823575 0
M  V30 1882 H 241.593 3.04108 0.797853 0
M  V30 1883 N 245.365 1.30045 0.890287 0
M  V30 1884 C 246.605 1.19839 1.65584 0
M  V30 1885 C 246.969 -0.244175 1.90441 0
M  V30 1886 O 248.17 -0.469378 2.6467 0
M  V30 1887 C 246.441 1.99876 2.96284 0
M  V30 1888 S 248 2.06309 3.87275 0
M  V30 1889 H 244.818 0.427157 0.568382 0
M  V30 1890 H 247.42 1.64453 1.05715 0
M  V30 1891 H 246.124 3.03809 2.75913 0
M  V30 1892 H 245.655 1.55903 3.61189 0
M  V30 1893 H 247.67 1.18661 4.81803 0
M  V30 1894 N 246.843 -1.10192 1.12674 0
M  V30 1895 C 248.083 -1.83825 0.893736 0
M  V30 1896 C 248.447 -1.83341 -0.570082 0
M  V30 1897 O 249.648 -2.52553 -0.920354 0
M  V30 1898 C 247.919 -3.26405 1.45582 0
M  V30 1899 S 249.478 -4.17136 1.36171 0
M  V30 1900 H 246.296 -0.633732 0.322342 0
M  V30 1901 H 248.898 -1.32581 1.43675 0
M  V30 1902 H 247.602 -3.24329 2.51473 0
M  V30 1903 H 247.133 -3.82721 0.910405 0
M  V30 1904 H 249.148 -4.95069 0.334863 0
M  V30 1905 N 248.321 -0.919034 -1.28029 0
M  V30 1906 C 249.567 -0.555757 -1.95036 0
M  V30 1907 C 249.9 0.899198 -1.72128 0
M  V30 1908 O 249.175 1.64023 -1.04531 0
M  V30 1909 C 249.458 -0.872024 -3.49382 0
M  V30 1910 C 249.311 -2.3801 -3.81669 0
M  V30 1911 C 250.63 -0.37185 -4.38526 0
M  V30 1912 H 247.749 -0.203386 -0.708381 0
M  V30 1913 H 250.391 -1.14924 -1.51303 0
M  V30 1914 H 248.541 -0.366946 -3.86763 0
M  V30 1915 H 250.213 -2.9562 -3.54128 0
M  V30 1916 H 248.456 -2.83289 -3.28526 0
M  V30 1917 H 249.127 -2.55192 -4.8947 0
M  V30 1918 H 251.603 -0.804602 -4.08247 0
M  V30 1919 H 250.479 -0.622173 -5.45362 0
M  V30 1920 H 250.74 0.727934 -4.36066 0
M  V30 1921 N 249.799 1.42003 -0.683588 0
M  V30 1922 C 251.21 1.84501 -0.285736 0
M  V30 1923 C 251.561 1.57213 1.17382 0
M  V30 1924 O 250.686 1.03642 1.89966 0
M  V30 1925 C 251.281 3.34912 -0.511821 0
M  V30 1926 C 249.84 3.76025 -0.168005 0
M  V30 1927 C 248.987 2.6551 -0.799983 0
M  V30 1928 H 251.938 1.31724 -0.885119 0
M  V30 1929 H 251.959 3.79784 0.233292 0
M  V30 1930 H 251.471 3.54741 -1.57418 0
M  V30 1931 H 249.572 3.61801 0.890567 0
M  V30 1932 H 249.685 4.75141 -0.614661 0
M  V30 1933 H 248.049 2.53654 -0.230568 0
M  V30 1934 H 248.832 2.8816 -1.86597 0
M  V30 1935 N 251.277 0.427512 1.51691 0
M  V30 1936 C 252.523 -0.142439 2.02299 0
M  V30 1937 C 252.856 -1.43214 1.31162 0
M  V30 1938 O 252.131 -1.89833 0.423511 0
M  V30 1939 C 252.414 -0.371301 3.58181 0
M  V30 1940 C 252.267 0.936358 4.39946 0
M  V30 1941 C 253.586 -1.14542 4.24933 0
M  V30 1942 H 250.705 -0.0502937 0.735282 0
M  V30 1943 H 253.347 0.564584 1.81418 0
M  V30 1944 H 251.497 -0.973559 3.76104 0
M  V30 1945 H 253.169 1.57184 4.33694 0
M  V30 1946 H 251.412 1.5432 4.05423 0
M  V30 1947 H 252.083 0.730388 5.47147 0
M  V30 1948 H 254.559 -0.635362 4.11221 0
M  V30 1949 H 253.435 -1.27431 5.33903 0
M  V30 1950 H 253.696 -2.17093 3.85127 0
M  V30 1951 N 252.755 -1.56801 0.158532 0
M  V30 1952 C 253.995 -1.98383 -0.49229 0
M  V30 1953 C 254.359 -1.04184 -1.61275 0
M  V30 1954 O 255.56 -1.34856 -2.32524 0
M  V30 1955 C 253.831 -3.4385 -0.974766 0
M  V30 1956 S 255.39 -4.07459 -1.62857 0
M  V30 1957 H 252.208 -0.693041 -0.158794 0
M  V30 1958 H 254.81 -1.93856 0.252974 0
M  V30 1959 H 253.514 -4.10131 -0.148688 0
M  V30 1960 H 253.045 -3.52115 -1.75438 0
M  V30 1961 H 255.06 -4.01458 -2.91627 0
M  V30 1962 N 254.233 0.115231 -1.57178 0
M  V30 1963 C 255.473 0.828199 -1.8687 0
M  V30 1964 C 255.837 1.76873 -0.747002 0
M  V30 1965 O 257.038 2.52354 -0.925785 0
M  V30 1966 C 255.309 1.55515 -3.21792 0
M  V30 1967 S 256.868 2.30917 -3.73125 0
M  V30 1968 H 253.686 0.27634 -0.655101 0
M  V30 1969 H 256.288 0.0863469 -1.95309 0
M  V30 1970 H 254.992 0.856248 -4.01368 0
M  V30 1971 H 254.523 2.3373 -3.16439 0
M  V30 1972 H 256.538 3.56705 -3.44929 0
M  V30 1973 N 255.711 1.52812 0.385517 0
M  V30 1974 C 256.643 1.74096 1.49074 0
M  V30 1975 C 257.656 0.621462 1.50472 0
M  V30 1976 O 258.845 0.897245 1.54311 0
M  V30 1977 C 255.945 1.78774 2.87911 0
M  V30 1978 C 255.118 3.08134 3.10439 0
M  V30 1979 C 254.177 3.04313 4.29278 0
M  V30 1980 O 253.203 3.78168 4.25415 0
M  V30 1981 N 254.405 2.23741 5.35649 0
M  V30 1982 H 257.17 2.69455 1.31202 0
M  V30 1983 H 254.731 1.51343 0.575065 0
M  V30 1984 H 256.723 1.73721 3.65518 0
M  V30 1985 H 255.293 0.907869 2.99126 0
M  V30 1986 H 254.513 3.26649 2.20667 0
M  V30 1987 H 255.801 3.93662 3.22347 0
M  V30 1988 H 255.199 1.63211 5.41645 0
M  V30 1989 H 253.756 2.24524 6.11909 0
M  V30 1990 N 257.189 -0.644168 1.43834 0
M  V30 1991 C 258.429 -1.41565 1.47441 0
M  V30 1992 C 258.793 -1.91743 0.0992723 0
M  V30 1993 O 259.994 -2.68798 0.0100192 0
M  V30 1994 C 258.265 -2.55902 2.49498 0
M  V30 1995 S 259.824 -3.44287 2.72051 0
M  V30 1996 H 256.642 -0.483118 0.521649 0
M  V30 1997 H 259.244 -0.747008 1.80666 0
M  V30 1998 H 257.948 -2.17327 3.48134 0
M  V30 1999 H 257.479 -3.27607 2.17801 0
M  V30 2000 H 259.494 -4.52927 2.0266 0
M  V30 2001 N 258.668 -1.30515 -0.883378 0
M  V30 2002 C 259.615 -1.17032 -1.98927 0
M  V30 2003 C 260.585 -0.0594241 -1.65994 0
M  V30 2004 O 261.77 -0.229895 -1.8941 0
M  V30 2005 C 258.91 -0.869777 -3.33959 0
M  V30 2006 C 258.023 -2.06271 -3.79574 0
M  V30 2007 C 257.158 -1.70011 -5.03259 0
M  V30 2008 C 256.197 -2.8579 -5.41286 0
M  V30 2009 N 255.334 -2.49816 -6.56153 0
M  V30 2010 H 260.174 -2.1164 -2.09792 0
M  V30 2011 H 257.711 -1.05296 -1.02719 0
M  V30 2012 H 259.669 -0.676138 -4.11685 0
M  V30 2013 H 258.299 0.0394332 -3.22776 0
M  V30 2014 H 257.351 -2.36755 -2.97744 0
M  V30 2015 H 258.663 -2.92971 -4.03694 0
M  V30 2016 H 257.817 -1.47032 -5.88614 0
M  V30 2017 H 256.556 -0.804829 -4.81013 0
M  V30 2018 H 255.561 -3.09434 -4.54456 0
M  V30 2019 H 256.786 -3.76008 -5.65504 0
M  V30 2020 H 254.732 -1.62795 -6.35479 0
M  V30 2021 H 254.649 -3.30048 -6.8015 0
M  V30 2022 H 255.917 -2.30197 -7.44735 0
M  V30 2023 N 260.146 1.09593 -1.13257 0
M  V30 2024 C 261.395 1.81105 -0.887917 0
M  V30 2025 C 261.708 1.86563 0.587672 0
M  V30 2026 O 262.914 2.54367 0.949204 0
M  V30 2027 C 261.37 3.25338 -1.53895 0
M  V30 2028 C 260.978 3.28151 -3.04994 0
M  V30 2029 C 262.722 4.01617 -1.37492 0
M  V30 2030 C 260.629 4.66897 -3.6299 0
M  V30 2031 H 259.559 0.678661 -0.328534 0
M  V30 2032 H 262.21 1.23183 -1.36008 0
M  V30 2033 H 260.592 3.8331 -0.994446 0
M  V30 2034 H 261.766 2.79953 -3.66009 0
M  V30 2035 H 260.081 2.65361 -3.20893 0
M  V30 2036 H 262.678 5.04119 -1.78235 0
M  V30 2037 H 263.021 4.15072 -0.31957 0
M  V30 2038 H 263.554 3.50082 -1.88912 0
M  V30 2039 H 260.293 4.58643 -4.68323 0
M  V30 2040 H 259.813 5.15426 -3.06752 0
M  V30 2041 H 261.492 5.3587 -3.62563 0
M  V30 2042 O 261.663 1.05716 1.22092 0
M  V30 2043 H 262.354 0.735773 1.79182 0
M  V30 END ATOM
M  V30 BEGIN BOND
M  V30 END BOND
M  V30 END CTAB
M  END
$$$$
