drugbank_target|P25971 Orotidine 5'-phosphate decarboxylase (DB03685)
 OpenBabel12092120023D

  0  0  0     0  0            999 V3000
M  V30 BEGIN CTAB
M  V30 COUNTS 3706 3733 0 0 0
M  V30 BEGIN ATOM
M  V30 1 H -0.908 1.98254 -0.117106 0
M  V30 2 N 0 1.576 0 0
M  V30 3 C 0.933 2.03868 1.02534 0
M  V30 4 C 1.911 0.928543 1.3348 0
M  V30 5 O 3.095 1.19667 1.45644 0
M  V30 6 C 0.222 2.43627 2.35294 0
M  V30 7 C -0.732 3.65373 2.2001 0
M  V30 8 S 0.101 5.13292 1.52614 0
M  V30 9 C 1.257 5.56322 2.86805 0
M  V30 10 H 1.49 2.90518 0.631377 0
M  V30 11 H -0.977 1.52953 0.210867 0
M  V30 12 H 0.981 2.67203 3.11629 0
M  V30 13 H -0.358 1.57376 2.7183 0
M  V30 14 H -1.165 3.90944 3.18086 0
M  V30 15 H -1.563 3.418 1.51819 0
M  V30 16 H 0.729 5.58782 3.83104 0
M  V30 17 H 1.672 6.56266 2.65933 0
M  V30 18 H 2.08 4.83886 2.90714 0
M  V30 19 N 1.4781 -0.272755 1.55222 0
M  V30 20 C 2.4251 -1.33716 1.88119 0
M  V30 21 C 3.3951 -1.49066 0.73271 0
M  V30 22 O 4.5801 -1.63469 0.984002 0
M  V30 23 C 1.7201 -2.69238 2.15882 0
M  V30 24 C 0.8331 -2.62108 3.43399 0
M  V30 25 C -0.0319 -3.89811 3.60861 0
M  V30 26 C -0.9929 -3.77193 4.8207 0
M  V30 27 N -1.8559 -4.9673 4.96189 0
M  V30 28 H 2.9841 -1.04962 2.78903 0
M  V30 29 H 0.5211 -0.507088 1.38083 0
M  V30 30 H 2.4791 -3.48089 2.29978 0
M  V30 31 H 1.1091 -2.96194 1.28331 0
M  V30 32 H 0.1611 -1.74967 3.37773 0
M  V30 33 H 1.4731 -2.48685 4.32386 0
M  V30 34 H 0.6271 -4.77103 3.74777 0
M  V30 35 H -0.6339 -4.06102 2.7006 0
M  V30 36 H -1.6289 -2.88284 4.68159 0
M  V30 37 H -0.4039 -3.62421 5.74307 0
M  V30 38 H -2.4579 -5.13431 4.08319 0
M  V30 39 H -2.5409 -4.85839 5.79221 0
M  V30 40 H -1.2729 -5.85594 5.1449 0
M  V30 41 N 2.9562 -1.48159 -0.537278 0
M  V30 42 C 3.9042 -1.62573 -1.66352 0
M  V30 43 C 4.8982 -0.492366 -1.62087 0
M  V30 44 O 6.1042 -0.670847 -1.67032 0
M  V30 45 H 2.4792 -0.511992 -0.550789 0
M  V30 46 H 4.4502 -2.57176 -1.51337 0
M  V30 47 C 3.1992 -1.67583 -3.04649 0
M  V30 48 H 2.5222 -2.54151 -3.08622 0
M  V30 49 H 3.9622 -1.81713 -3.83088 0
M  V30 50 C 2.4212 -0.413039 -3.34358 0
M  V30 51 O 2.9512 0.477259 -3.98855 0
M  V30 52 N 1.1572 -0.286961 -2.8918 0
M  V30 53 H 0.7042 -1.01241 -2.36871 0
M  V30 54 H 0.6622 0.556963 -3.09427 0
M  V30 55 N 4.4343 0.785586 -1.36625 0
M  V30 56 C 5.3823 1.91978 -1.31329 0
M  V30 57 C 6.3763 1.68162 -0.204416 0
M  V30 58 O 7.5823 1.76122 -0.371645 0
M  V30 59 H 3.9573 0.631087 -0.408942 0
M  V30 60 H 5.9283 1.93562 -2.27104 0
M  V30 61 C 4.6773 3.29055 -1.12329 0
M  V30 62 H 4.0003 3.4795 -1.96903 0
M  V30 63 H 5.4403 4.08756 -1.12671 0
M  V30 64 C 3.8993 3.36461 0.171861 0
M  V30 65 O 4.4293 3.84576 1.16035 0
M  V30 66 N 2.6353 2.89782 0.217846 0
M  V30 67 H 2.1823 2.50819 -0.587183 0
M  V30 68 H 2.1403 2.95119 1.08408 0
M  V30 69 N 5.9124 1.20967 1.01018 0
M  V30 70 C 6.8424 0.988272 2.11555 0
M  V30 71 C 7.8234 -0.0849778 1.69888 0
M  V30 72 O 9.0084 0.0738202 1.9406 0
M  V30 73 C 6.1384 0.546528 3.42973 0
M  V30 74 C 5.0924 1.56375 3.9841 0
M  V30 75 C 4.4184 0.97842 5.25672 0
M  V30 76 C 5.7184 2.94922 4.31066 0
M  V30 77 H 7.4124 1.91276 2.30334 0
M  V30 78 H 4.9584 0.921073 1.1069 0
M  V30 79 H 6.9114 0.378839 4.19694 0
M  V30 80 H 5.6354 -0.413598 3.23971 0
M  V30 81 H 4.2944 1.71891 3.23804 0
M  V30 82 H 3.9424 0.0101688 5.02999 0
M  V30 83 H 3.6424 1.65784 5.63728 0
M  V30 84 H 5.1664 0.821939 6.05043 0
M  V30 85 H 6.5804 2.8288 4.9865 0
M  V30 86 H 4.9774 3.5983 4.80253 0
M  V30 87 H 6.0474 3.4616 3.39561 0
M  V30 88 N 7.3905 -1.2043 1.01659 0
M  V30 89 C 8.8015 -1.71517 0.737482 0
M  V30 90 C 9.1525 -1.81547 -0.743973 0
M  V30 91 O 8.2775 -1.47803 -1.58061 0
M  V30 92 C 8.8725 -3.11515 1.33206 0
M  V30 93 C 7.4315 -3.59912 1.10183 0
M  V30 94 C 6.5785 -2.37116 1.43776 0
M  V30 95 H 9.5295 -1.05444 1.18606 0
M  V30 96 H 9.5505 -3.73575 0.722636 0
M  V30 97 H 9.0625 -3.04182 2.41028 0
M  V30 98 H 7.1635 -3.72577 0.0412756 0
M  V30 99 H 7.2765 -4.44731 1.78188 0
M  V30 100 H 5.6405 -2.39857 0.856778 0
M  V30 101 H 6.4235 -2.32424 2.52654 0
M  V30 102 N 8.8686 -0.792821 -1.36206 0
M  V30 103 C 10.1176 -0.363353 -1.984 0
M  V30 104 C 10.4306 1.07172 -1.63626 0
M  V30 105 O 11.6366 1.60362 -2.19081 0
M  V30 106 C 10.0926 -0.59872 -3.54885 0
M  V30 107 C 9.7006 -2.04543 -3.9858 0
M  V30 108 C 11.4446 -0.233926 -4.23855 0
M  V30 109 C 9.3516 -2.22727 -5.47856 0
M  V30 110 H 8.2816 -0.13212 -0.742334 0
M  V30 111 H 10.9326 -0.974935 -1.55458 0
M  V30 112 H 9.3146 0.0826222 -3.95914 0
M  V30 113 H 10.4886 -2.76345 -3.68741 0
M  V30 114 H 8.8036 -2.36879 -3.42458 0
M  V30 115 H 11.4006 -0.348027 -5.33566 0
M  V30 116 H 11.7436 0.818351 -4.08177 0
M  V30 117 H 12.2766 -0.868639 -3.882 0
M  V30 118 H 9.0156 -3.2635 -5.68486 0
M  V30 119 H 8.5356 -1.55434 -5.7931 0
M  V30 120 H 10.2146 -2.03607 -6.14128 0
M  V30 121 N 10.3467 1.47872 -0.545128 0
M  V30 122 C 11.5957 2.01695 -0.0145033 0
M  V30 123 C 11.9087 1.42609 1.33873 0
M  V30 124 O 13.1147 1.88021 1.95858 0
M  V30 125 C 11.5707 3.59892 0.0245068 0
M  V30 126 C 11.1787 4.27966 -1.32475 0
M  V30 127 C 12.9227 4.21507 0.50316 0
M  V30 128 C 10.8297 5.78136 -1.2455 0
M  V30 129 H 9.7597 0.753998 -0.00165172 0
M  V30 130 H 12.4107 1.69985 -0.691175 0
M  V30 131 H 10.7927 3.88509 0.766575 0
M  V30 132 H 11.9667 4.11003 -2.08357 0
M  V30 133 H 10.2817 3.78286 -1.74036 0
M  V30 134 H 12.8787 5.31538 0.580656 0
M  V30 135 H 13.2217 3.87855 1.51243 0
M  V30 136 H 13.7547 3.97376 -0.183681 0
M  V30 137 H 10.4937 6.16388 -2.23039 0
M  V30 138 H 10.0137 5.97469 -0.528282 0
M  V30 139 H 11.6927 6.40099 -0.942488 0
M  V30 140 N 11.8248 0.280983 1.55075 0
M  V30 141 C 12.7878 -0.590896 2.21452 0
M  V30 142 C 13.7878 -1.07682 1.19421 0
M  V30 143 O 14.9778 -0.97605 1.44288 0
M  V30 144 C 12.1098 -1.81587 2.88511 0
M  V30 145 H 13.3028 -0.0112554 2.99898 0
M  V30 146 H 10.8558 0.0316438 1.56268 0
M  V30 147 H 11.5908 -2.43587 2.14093 0
M  V30 148 H 11.3758 -1.4753 3.63287 0
M  V30 149 H 12.8658 -2.43575 3.39206 0
M  V30 150 N 13.3029 -1.57598 0.00835791 0
M  V30 151 C 14.2329 -2.1198 -0.979113 0
M  V30 152 C 15.2139 -1.03091 -1.35301 0
M  V30 153 O 16.3989 -1.30818 -1.43528 0
M  V30 154 C 13.5289 -2.62995 -2.26828 0
M  V30 155 C 12.4829 -3.76485 -2.03576 0
M  V30 156 C 11.8089 -4.13846 -3.38579 0
M  V30 157 C 13.1089 -5.0342 -1.39161 0
M  V30 158 H 14.8029 -2.94738 -0.526281 0
M  V30 159 H 12.3489 -1.41783 -0.251704 0
M  V30 160 H 14.3019 -2.99669 -2.96271 0
M  V30 161 H 13.0259 -1.7737 -2.7424 0
M  V30 162 H 11.6849 -3.40217 -1.36557 0
M  V30 163 H 11.3329 -3.25232 -3.83709 0
M  V30 164 H 11.0329 -4.90312 -3.23834 0
M  V30 165 H 12.5569 -4.53086 -4.09323 0
M  V30 166 H 13.9709 -5.37812 -1.98573 0
M  V30 167 H 12.3679 -5.84746 -1.34878 0
M  V30 168 H 13.4379 -4.83548 -0.361868 0
M  V30 169 N 14.781 0.264519 -1.55364 0
M  V30 170 C 16.058 1.01677 -1.67096 0
M  V30 171 C 16.438 2.03996 -0.543015 0
M  V30 172 O 15.786 2.23907 0.45585 0
M  V30 173 C 15.996 1.66596 -3.0667 0
M  V30 174 C 17.344 2.17442 -3.64697 0
M  V30 175 O 18.368 1.76568 -3.09358 0
M  V30 176 O 17.227 2.92439 -4.61673 0
M  V30 177 H 14.321 0.472161 -0.678965 0
M  V30 178 H 16.867 0.259703 -1.67701 0
M  V30 179 H 15.639 0.924962 -3.80211 0
M  V30 180 H 15.262 2.48968 -3.10001 0
M  V30 181 N 16.2591 1.48442 0.529413 0
M  V30 182 C 17.5061 1.56488 1.28521 0
M  V30 183 C 17.8341 0.239042 1.93025 0
M  V30 184 O 17.0891 -0.770713 1.79885 0
M  V30 185 C 17.3881 2.6523 2.39558 0
M  V30 186 C 17.0541 4.07648 1.92702 0
M  V30 187 C 15.7161 4.46411 1.79641 0
M  V30 188 C 18.0681 4.96896 1.573 0
M  V30 189 C 15.3961 5.72226 1.29514 0
M  V30 190 C 17.7481 6.23202 1.08636 0
M  V30 191 C 16.4121 6.60821 0.941919 0
M  V30 192 H 15.6821 0.572631 0.470292 0
M  V30 193 H 18.3291 1.82161 0.59072 0
M  V30 194 H 16.6341 2.33419 3.14679 0
M  V30 195 H 18.3311 2.68671 2.97686 0
M  V30 196 H 14.9211 3.77036 2.03819 0
M  V30 197 H 19.1051 4.67626 1.66251 0
M  V30 198 H 14.3611 6.00097 1.17019 0
M  V30 199 H 18.5351 6.91753 0.803136 0
M  V30 200 H 16.1621 7.58198 0.5513 0
M  V30 201 N 17.7372 -0.778329 1.37039 0
M  V30 202 C 18.7002 -1.87301 1.32102 0
M  V30 203 C 19.7002 -1.59198 0.226405 0
M  V30 204 O 20.8902 -1.67403 0.481861 0
M  V30 205 C 18.0222 -3.24309 1.05055 0
M  V30 206 H 19.2152 -1.93093 2.29467 0
M  V30 207 H 16.7682 -0.977358 1.21973 0
M  V30 208 H 17.5032 -3.24196 0.0819373 0
M  V30 209 H 17.2882 -3.46098 1.84279 0
M  V30 210 H 18.7782 -4.04382 1.04234 0
M  V30 211 N 19.2153 -1.21501 -1.00376 0
M  V30 212 C 20.4403 -1.05977 -1.78279 0
M  V30 213 C 20.8653 0.385994 -1.84097 0
M  V30 214 O 20.2233 1.27849 -1.28547 0
M  V30 215 C 20.2713 -1.66302 -3.19963 0
M  V30 216 O 19.3753 -0.909333 -4.0225 0
M  V30 217 H 18.7163 -0.372906 -0.549397 0
M  V30 218 H 21.2463 -1.6107 -1.26165 0
M  V30 219 H 21.2563 -1.70574 -3.70632 0
M  V30 220 H 19.9313 -2.71515 -3.15043 0
M  V30 221 H 18.5083 -0.941795 -3.60811 0
M  V30 222 N 20.6934 1.19889 -1.02296 0
M  V30 223 C 21.6564 2.21116 -0.603351 0
M  V30 224 C 22.6564 1.5738 0.329884 0
M  V30 225 O 23.8464 1.73802 0.117702 0
M  V30 226 C 20.9784 3.40696 0.117992 0
M  V30 227 H 22.1714 2.59754 -1.49893 0
M  V30 228 H 19.7244 1.33463 -0.813468 0
M  V30 229 H 20.4594 3.07569 1.0282 0
M  V30 230 H 20.2444 3.88188 -0.552511 0
M  V30 231 H 21.7344 4.15692 0.398696 0
M  V30 232 N 22.1715 0.800033 1.35784 0
M  V30 233 C 23.0815 0.207204 2.33683 0
M  V30 234 C 24.0975 -0.64631 1.61551 0
M  V30 235 O 25.2735 -0.559604 1.93469 0
M  V30 236 C 22.3385 -0.639659 3.40748 0
M  V30 237 C 21.3995 0.233585 4.28664 0
M  V30 238 C 20.6325 -0.572954 5.30616 0
M  V30 239 O 20.8555 -1.80816 5.40982 0
M  V30 240 O 19.7895 0.0327285 6.01891 0
M  V30 241 H 23.6155 1.01692 2.86169 0
M  V30 242 H 21.2005 0.561691 1.38439 0
M  V30 243 H 23.0825 -1.12223 4.06182 0
M  V30 244 H 21.7575 -1.42708 2.90544 0
M  V30 245 H 20.6645 0.763147 3.66233 0
M  V30 246 H 21.9975 0.984784 4.82248 0
M  V30 247 N 23.6496 -1.47581 0.552962 0
M  V30 248 C 24.5596 -2.33743 -0.200353 0
M  V30 249 C 25.5756 -1.47928 -0.916151 0
M  V30 250 O 26.7516 -1.80865 -0.885993 0
M  V30 251 C 23.8166 -3.24536 -1.21973 0
M  V30 252 C 22.8776 -4.26238 -0.511819 0
M  V30 253 C 22.1106 -5.12693 -1.48263 0
M  V30 254 O 22.3336 -5.01525 -2.71714 0
M  V30 255 O 21.2676 -5.93375 -1.00945 0
M  V30 256 H 25.0936 -2.9945 0.506304 0
M  V30 257 H 22.6786 -1.46071 0.313622 0
M  V30 258 H 24.5606 -3.80631 -1.80827 0
M  V30 259 H 23.2356 -2.61462 -1.90839 0
M  V30 260 H 22.1426 -3.73914 0.117799 0
M  V30 261 H 23.4756 -4.92014 0.135308 0
M  V30 262 N 25.1277 -0.289203 -1.54924 0
M  V30 263 C 26.3557 0.326463 -2.04308 0
M  V30 264 C 26.7707 1.48413 -1.16701 0
M  V30 265 O 26.1277 1.81507 -0.190087 0
M  V30 266 C 26.1787 0.794014 -3.52672 0
M  V30 267 O 25.8997 -0.317564 -4.36948 0
M  V30 268 C 27.4007 1.47605 -4.18004 0
M  V30 269 H 24.6207 0.0726272 -0.667058 0
M  V30 270 H 27.1647 -0.425401 -2.00026 0
M  V30 271 H 25.3197 1.49593 -3.57352 0
M  V30 272 H 25.7337 0.0443186 -5.24481 0
M  V30 273 H 27.2077 1.75447 -5.23376 0
M  V30 274 H 27.6847 2.41224 -3.67025 0
M  V30 275 H 28.2907 0.81762 -4.17367 0
M  V30 276 N 26.6058 1.57591 -0.0167156 0
M  V30 277 C 27.5358 2.12496 0.967858 0
M  V30 278 C 28.5168 1.03807 1.34752 0
M  V30 279 O 29.7018 1.31577 1.42833 0
M  V30 280 C 26.8318 2.64194 2.25431 0
M  V30 281 C 25.7858 3.77559 2.01576 0
M  V30 282 C 25.1118 4.15636 3.36379 0
M  V30 283 C 26.4118 5.04151 1.36489 0
M  V30 284 H 28.1058 2.95013 0.510643 0
M  V30 285 H 25.6518 1.41915 0.244181 0
M  V30 286 H 27.6048 3.01236 2.94678 0
M  V30 287 H 26.3288 1.78821 2.73296 0
M  V30 288 H 24.9878 3.40937 1.34751 0
M  V30 289 H 24.6358 3.27263 3.81979 0
M  V30 290 H 24.3358 4.92022 3.21229 0
M  V30 291 H 25.8598 4.5525 4.06915 0
M  V30 292 H 27.2738 5.38857 1.95718 0
M  V30 293 H 25.6708 5.85453 1.31776 0
M  V30 294 H 26.7408 4.83733 0.336219 0
M  V30 295 N 28.0839 -0.256276 1.55502 0
M  V30 296 C 29.0469 -1.30047 1.88734 0
M  V30 297 C 30.0469 -1.4154 0.763086 0
M  V30 298 O 31.2369 -1.40403 1.03115 0
M  V30 299 C 28.3689 -2.67953 2.10747 0
M  V30 300 H 29.5619 -1.01802 2.82093 0
M  V30 301 H 27.1149 -0.495134 1.4825 0
M  V30 302 H 27.8499 -3.01351 1.19825 0
M  V30 303 H 27.6349 -2.60993 2.92617 0
M  V30 304 H 29.1249 -3.43368 2.37673 0
M  V30 305 N 29.562 -1.4872 -0.521534 0
M  V30 306 C 30.809 -1.57168 -1.27689 0
M  V30 307 C 31.137 -0.249275 -1.92896 0
M  V30 308 O 30.392 0.761162 -1.80291 0
M  V30 309 C 30.691 -2.66497 -2.38148 0
M  V30 310 C 30.357 -4.08664 -1.90538 0
M  V30 311 C 29.019 -4.47357 -1.77271 0
M  V30 312 C 31.371 -4.97724 -1.54663 0
M  V30 313 C 28.699 -5.72905 -1.26478 0
M  V30 314 C 31.051 -6.2377 -1.05329 0
M  V30 315 C 29.715 -6.61311 -0.906861 0
M  V30 316 H 28.985 -0.575117 -0.467249 0
M  V30 317 H 31.632 -1.82472 -0.581051 0
M  V30 318 H 29.937 -2.35085 -3.13437 0
M  V30 319 H 31.634 -2.70246 -2.96257 0
M  V30 320 H 28.224 -3.78111 -2.01816 0
M  V30 321 H 32.408 -4.68501 -1.63768 0
M  V30 322 H 27.664 -6.00709 -1.13835 0
M  V30 323 H 31.838 -6.9217 -0.76644 0
M  V30 324 H 29.465 -7.5848 -0.511083 0
M  V30 325 N 31.0401 0.771051 -1.3745 0
M  V30 326 C 31.9701 1.89827 -1.3597 0
M  V30 327 C 32.9511 1.68562 -0.228216 0
M  V30 328 O 34.1361 1.8941 -0.428675 0
M  V30 329 C 31.2661 3.2712 -1.16662 0
M  V30 330 C 30.2201 3.6295 -2.2683 0
M  V30 331 C 29.5461 4.98791 -1.92644 0
M  V30 332 C 30.8461 3.69627 -3.69017 0
M  V30 333 H 32.5401 1.91323 -2.30295 0
M  V30 334 H 30.0861 0.919082 -1.10855 0
M  V30 335 H 32.0391 4.05615 -1.14256 0
M  V30 336 H 30.7631 3.26059 -0.187926 0
M  V30 337 H 29.4221 2.86763 -2.28392 0
M  V30 338 H 29.0701 4.94271 -0.933021 0
M  V30 339 H 28.7701 5.23733 -2.66416 0
M  V30 340 H 30.2941 5.79685 -1.91826 0
M  V30 341 H 31.7081 4.38273 -3.69581 0
M  V30 342 H 30.1051 4.06067 -4.41848 0
M  V30 343 H 31.1751 2.70273 -4.02592 0
M  V30 344 N 32.5182 1.22032 0.997298 0
M  V30 345 C 33.4812 0.987909 2.06816 0
M  V30 346 C 34.4812 -0.0440084 1.6074 0
M  V30 347 O 35.6712 0.194053 1.73116 0
M  V30 348 C 32.8032 0.49132 3.37341 0
M  V30 349 H 33.9962 1.93803 2.28868 0
M  V30 350 H 31.5492 1.03838 1.16822 0
M  V30 351 H 32.2842 -0.463364 3.20973 0
M  V30 352 H 32.0692 1.23575 3.72118 0
M  V30 353 H 33.5592 0.348824 4.16141 0
M  V30 354 N 33.9963 -1.19345 1.0293 0
M  V30 355 C 35.4073 -1.70725 0.755633 0
M  V30 356 C 35.7583 -1.82326 -0.724676 0
M  V30 357 O 34.8833 -1.49471 -1.56484 0
M  V30 358 C 35.4783 -3.10084 1.36503 0
M  V30 359 C 34.0373 -3.58723 1.13994 0
M  V30 360 C 33.1843 -2.35577 1.46283 0
M  V30 361 H 36.1353 -1.0418 1.19718 0
M  V30 362 H 36.1563 -3.72787 0.762217 0
M  V30 363 H 35.6683 -3.01609 2.44241 0
M  V30 364 H 33.7693 -3.72512 0.0807901 0
M  V30 365 H 33.8823 -4.42816 1.82894 0
M  V30 366 H 32.2463 -2.38935 0.88217 0
M  V30 367 H 33.0293 -2.29731 2.55105 0
M  V30 368 N 35.4744 -0.807222 -1.35358 0
M  V30 369 C 36.7214 -0.387888 -1.9875 0
M  V30 370 C 37.0494 1.04509 -1.64037 0
M  V30 371 O 36.3044 1.73986 -0.895946 0
M  V30 372 C 36.6034 -0.519036 -3.53611 0
M  V30 373 C 36.2694 -1.91542 -4.08194 0
M  V30 374 C 34.9314 -2.29745 -4.22813 0
M  V30 375 C 37.2834 -2.82896 -4.37744 0
M  V30 376 C 34.6114 -3.58668 -4.643 0
M  V30 377 C 36.9634 -4.11265 -4.8067 0
M  V30 378 C 35.6274 -4.49466 -4.93494 0
M  V30 379 H 34.8974 -0.141938 -0.727279 0
M  V30 380 H 37.5444 -1.02814 -1.6156 0
M  V30 381 H 35.8494 0.204658 -3.91265 0
M  V30 382 H 37.5464 -0.175345 -4.00616 0
M  V30 383 H 34.1364 -1.60862 -3.97268 0
M  V30 384 H 38.3204 -2.54629 -4.26002 0
M  V30 385 H 33.5764 -3.88113 -4.72418 0
M  V30 386 H 37.7504 -4.82153 -5.02496 0
M  V30 387 H 35.3774 -5.49418 -5.25399 0
M  V30 388 N 36.9525 1.47285 -0.560781 0
M  V30 389 C 37.8845 2.28118 0.222438 0
M  V30 390 C 38.8975 1.37219 0.876056 0
M  V30 391 O 40.0865 1.62011 0.749307 0
M  V30 392 C 37.1865 3.1159 1.33285 0
M  V30 393 C 36.3595 4.30473 0.77534 0
M  V30 394 C 35.4185 4.95513 1.77069 0
M  V30 395 O 34.4445 5.53792 1.31539 0
M  V30 396 N 35.6465 4.90531 3.10418 0
M  V30 397 H 38.4115 2.95976 -0.470958 0
M  V30 398 H 35.9725 1.56955 -0.39709 0
M  V30 399 H 37.9645 3.51967 1.99752 0
M  V30 400 H 36.5345 2.45951 1.92943 0
M  V30 401 H 35.7545 3.94144 -0.0662113 0
M  V30 402 H 37.0425 5.07362 0.382272 0
M  V30 403 H 36.4405 4.44389 3.5005 0
M  V30 404 H 34.9975 5.34917 3.72434 0
M  V30 405 N 38.4306 0.297415 1.54768 0
M  V30 406 C 39.3626 -0.613881 2.20826 0
M  V30 407 C 40.3756 -1.10032 1.19987 0
M  V30 408 O 41.5646 -1.01839 1.46598 0
M  V30 409 C 38.6646 -1.852 2.83821 0
M  V30 410 C 37.8376 -1.50865 4.10559 0
M  V30 411 C 36.8966 -2.60154 4.57391 0
M  V30 412 O 35.9226 -2.25398 5.2267 0
M  V30 413 N 37.1246 -3.90629 4.29406 0
M  V30 414 H 39.8896 -0.048389 2.99661 0
M  V30 415 H 37.4506 0.11946 1.61459 0
M  V30 416 H 39.4426 -2.57652 3.12086 0
M  V30 417 H 38.0126 -2.32597 2.08847 0
M  V30 418 H 37.2326 -0.616925 3.89343 0
M  V30 419 H 38.5206 -1.25458 4.9309 0
M  V30 420 H 37.9186 -4.21677 3.77101 0
M  V30 421 H 36.4756 -4.59391 4.62388 0
M  V30 422 N 39.9087 -1.5758 0.0250728 0
M  V30 423 C 40.8187 -2.1343 -0.973905 0
M  V30 424 C 41.8347 -1.08556 -1.35984 0
M  V30 425 O 43.0107 -1.40592 -1.44207 0
M  V30 426 C 40.0757 -2.64703 -2.23904 0
M  V30 427 C 39.1367 -3.84276 -1.91391 0
M  V30 428 C 38.3697 -4.33095 -3.11873 0
M  V30 429 O 38.5927 -3.81107 -4.24398 0
M  V30 430 O 37.5267 -5.24984 -2.94406 0
M  V30 431 H 41.3527 -2.99057 -0.529036 0
M  V30 432 H 38.9377 -1.48118 -0.195288 0
M  V30 433 H 40.8197 -2.97769 -2.98181 0
M  V30 434 H 39.4947 -1.82161 -2.6758 0
M  V30 435 H 38.4017 -3.56143 -1.14511 0
M  V30 436 H 39.7347 -4.67968 -1.52534 0
M  V30 437 N 41.3868 0.248026 -1.55636 0
M  V30 438 C 42.7978 0.817177 -1.67866 0
M  V30 439 C 43.1488 1.86069 -0.622322 0
M  V30 440 O 42.2738 2.15157 0.231618 0
M  V30 441 C 42.8688 1.489 -3.04326 0
M  V30 442 C 41.4278 2.00587 -3.185 0
M  V30 443 C 40.5748 0.856573 -2.63739 0
M  V30 444 H 43.5258 0.0238579 -1.58682 0
M  V30 445 H 43.5468 2.35698 -2.98708 0
M  V30 446 H 43.0588 0.729279 -3.81186 0
M  V30 447 H 41.1598 2.79443 -2.4646 0
M  V30 448 H 41.2728 2.20402 -4.25393 0
M  V30 449 H 39.6368 1.25678 -2.21534 0
M  V30 450 H 40.4198 0.109953 -3.43124 0
M  V30 451 N 42.8649 1.48995 0.513639 0
M  V30 452 C 43.7949 1.67636 1.62544 0
M  V30 453 C 44.7759 0.525087 1.61793 0
M  V30 454 O 45.9609 0.759502 1.78732 0
M  V30 455 C 43.0909 1.73114 3.01079 0
M  V30 456 C 42.0449 2.87905 3.16693 0
M  V30 457 C 41.3709 2.78486 4.56453 0
M  V30 458 C 42.6709 4.29005 2.97913 0
M  V30 459 H 44.3649 2.60716 1.47198 0
M  V30 460 H 41.9109 1.25465 0.706714 0
M  V30 461 H 43.8639 1.84742 3.78746 0
M  V30 462 H 42.5879 0.766241 3.17484 0
M  V30 463 H 41.2469 2.75859 2.41448 0
M  V30 464 H 40.8949 1.7993 4.69717 0
M  V30 465 H 40.5949 3.55523 4.67843 0
M  V30 466 H 42.1189 2.92104 5.36197 0
M  V30 467 H 43.5329 4.41798 3.65359 0
M  V30 468 H 41.9299 5.07166 3.20785 0
M  V30 469 H 42.9999 4.44329 1.94165 0
M  V30 470 N 44.343 -0.763751 1.37857 0
M  V30 471 C 45.59 -1.52257 1.33506 0
M  V30 472 C 45.918 -1.94343 -0.078022 0
M  V30 473 O 45.173 -1.64958 -1.05297 0
M  V30 474 C 45.472 -2.79499 2.22745 0
M  V30 475 C 45.138 -2.56426 3.70886 0
M  V30 476 C 43.8 -2.49842 4.11257 0
M  V30 477 C 46.152 -2.36008 4.64704 0
M  V30 478 C 43.48 -2.20841 5.43549 0
M  V30 479 C 45.832 -2.0853 5.97242 0
M  V30 480 C 44.496 -2.00396 6.36709 0
M  V30 481 H 43.766 -0.557149 0.488534 0
M  V30 482 H 46.413 -0.879073 1.70131 0
M  V30 483 H 44.718 -3.48447 1.79142 0
M  V30 484 H 46.415 -3.37413 2.16688 0
M  V30 485 H 43.005 -2.62416 3.38874 0
M  V30 486 H 47.189 -2.40079 4.34368 0
M  V30 487 H 42.445 -2.13045 5.73081 0
M  V30 488 H 46.619 -1.91732 6.69486 0
M  V30 489 H 44.246 -1.77688 7.39142 0
M  V30 490 N 45.8211 -1.22559 -0.990812 0
M  V30 491 C 47.0671 -1.05297 -1.73322 0
M  V30 492 C 47.4001 0.410655 -1.89808 0
M  V30 493 O 46.6751 1.30439 -1.44277 0
M  V30 494 C 46.9581 -1.76713 -3.13759 0
M  V30 495 C 46.8111 -3.30684 -3.04907 0
M  V30 496 C 48.1301 -1.52121 -4.12974 0
M  V30 497 H 45.2491 -0.38392 -0.629106 0
M  V30 498 H 47.8911 -1.50926 -1.15418 0
M  V30 499 H 46.0411 -1.37924 -3.63193 0
M  V30 500 H 47.7131 -3.7893 -2.63077 0
M  V30 501 H 45.9561 -3.60253 -2.41661 0
M  V30 502 H 46.6271 -3.75833 -4.04294 0
M  V30 503 H 49.1031 -1.85819 -3.72304 0
M  V30 504 H 47.9791 -2.04582 -5.0935 0
M  V30 505 H 48.2401 -0.454257 -4.3976 0
M  V30 506 N 47.2992 1.18797 -1.03562 0
M  V30 507 C 48.2462 2.22253 -0.622259 0
M  V30 508 C 49.2162 1.61987 0.36736 0
M  V30 509 O 50.4012 1.88986 0.262492 0
M  V30 510 C 47.5412 3.45097 0.0138462 0
M  V30 511 C 46.6542 4.19722 -1.02263 0
M  V30 512 C 45.7892 5.30009 -0.355573 0
M  V30 513 C 44.8282 5.96399 -1.37749 0
M  V30 514 N 43.9652 6.98234 -0.735766 0
M  V30 515 H 48.8052 2.56968 -1.50903 0
M  V30 516 H 46.3422 1.26245 -0.755017 0
M  V30 517 H 48.3002 4.15279 0.399948 0
M  V30 518 H 46.9302 3.11018 0.864158 0
M  V30 519 H 45.9822 3.48418 -1.52673 0
M  V30 520 H 47.2942 4.65227 -1.79903 0
M  V30 521 H 46.4482 6.0664 0.0850095 0
M  V30 522 H 45.1872 4.85592 0.452967 0
M  V30 523 H 44.1922 5.18512 -1.82826 0
M  V30 524 H 45.4172 6.42899 -2.18764 0
M  V30 525 H 43.3632 6.55979 0.0525597 0
M  V30 526 H 43.2802 7.41965 -1.44995 0
M  V30 527 H 44.5482 7.78845 -0.31941 0
M  V30 528 N 48.7773 0.814389 1.34928 0
M  V30 529 C 50.0233 0.399013 1.98836 0
M  V30 530 C 50.3563 -1.03314 1.64438 0
M  V30 531 O 49.6313 -1.71811 0.911659 0
M  V30 532 C 49.9143 0.591629 3.55207 0
M  V30 533 C 49.7673 2.06928 3.99376 0
M  V30 534 C 51.0863 0.022199 4.40094 0
M  V30 535 H 48.2053 0.146451 0.722303 0
M  V30 536 H 50.8473 1.02537 1.59957 0
M  V30 537 H 48.9973 0.0584441 3.88456 0
M  V30 538 H 50.6693 2.66544 3.76499 0
M  V30 539 H 48.9123 2.56287 3.49999 0
M  V30 540 H 49.5833 2.1549 5.08201 0
M  V30 541 H 52.0593 0.477643 4.13349 0
M  V30 542 H 50.9353 0.186832 5.48582 0
M  V30 543 H 51.1963 -1.07215 4.28902 0
M  V30 544 N 50.2554 -1.46986 0.568584 0
M  V30 545 C 51.5034 -2.02041 0.0487022 0
M  V30 546 C 51.8244 -1.44408 -1.31039 0
M  V30 547 O 51.0944 -0.623477 -1.85714 0
M  V30 548 H 49.6744 -0.746849 0.015014 0
M  V30 549 H 52.3364 -1.80257 0.741168 0
M  V30 550 H 51.4324 -3.12085 -0.0308961 0
M  V30 551 N 51.7335 -0.305618 -1.54608 0
M  V30 552 C 52.6665 0.610536 -2.19881 0
M  V30 553 C 53.6445 1.1294 -1.16976 0
M  V30 554 O 54.8285 1.19673 -1.45638 0
M  V30 555 C 51.9555 1.83583 -2.84631 0
M  V30 556 C 51.0015 1.4498 -4.01102 0
M  V30 557 S 51.8345 0.501793 -5.33144 0
M  V30 558 C 52.9905 1.73478 -6.01379 0
M  V30 559 H 53.2235 0.0560177 -2.97247 0
M  V30 560 H 50.7565 -0.0897434 -1.54139 0
M  V30 561 H 52.7145 2.53898 -3.22562 0
M  V30 562 H 51.3755 2.36152 -2.07102 0
M  V30 563 H 50.5685 2.36236 -4.45206 0
M  V30 564 H 50.1705 0.826553 -3.64752 0
M  V30 565 H 52.4625 2.67473 -6.22467 0
M  V30 566 H 53.4055 1.33622 -6.95378 0
M  V30 567 H 53.8135 1.9136 -5.31076 0
M  V30 568 N 53.2116 1.57565 -0.0334293 0
M  V30 569 C 54.1216 2.13943 0.962572 0
M  V30 570 C 55.1376 1.09276 1.35406 0
M  V30 571 O 56.3136 1.41355 1.4346 0
M  V30 572 C 53.3786 2.65887 2.22497 0
M  V30 573 C 52.4396 3.85286 1.8935 0
M  V30 574 C 51.6726 4.34743 3.09571 0
M  V30 575 O 51.8956 3.83352 4.22371 0
M  V30 576 O 50.8296 5.26538 2.91618 0
M  V30 577 H 54.6556 2.99333 0.513169 0
M  V30 578 H 52.2406 1.4822 0.18743 0
M  V30 579 H 54.1226 2.99346 2.96598 0
M  V30 580 H 52.7976 1.83578 2.6661 0
M  V30 581 H 51.7046 3.56746 1.1262 0
M  V30 582 H 53.0376 4.68771 1.5005 0
M  V30 583 N 54.6897 -0.239769 1.55765 0
M  V30 584 C 55.6197 -1.30052 1.9393 0
M  V30 585 C 56.6007 -1.49839 0.805132 0
M  V30 586 O 57.7857 -1.62328 1.06599 0
M  V30 587 C 54.9157 -2.65391 2.2402 0
M  V30 588 C 53.8697 -2.60289 3.39755 0
M  V30 589 C 53.1957 -3.99489 3.55405 0
M  V30 590 C 54.4957 -2.16654 4.75246 0
M  V30 591 H 56.1897 -0.983573 2.82783 0
M  V30 592 H 53.7357 -0.471701 1.36055 0
M  V30 593 H 55.6887 -3.3974 2.49308 0
M  V30 594 H 54.4127 -2.98736 1.32 0
M  V30 595 H 53.0717 -1.88398 3.14487 0
M  V30 596 H 52.7197 -4.30112 2.60793 0
M  V30 597 H 52.4197 -3.96962 4.33238 0
M  V30 598 H 53.9437 -4.75528 3.83022 0
M  V30 599 H 55.3577 -2.80737 4.99859 0
M  V30 600 H 53.7547 -2.25223 5.56232 0
M  V30 601 H 54.8247 -1.11835 4.71827 0
M  V30 602 N 56.1678 -1.49265 -0.50573 0
M  V30 603 C 57.4148 -1.58513 -1.26015 0
M  V30 604 C 57.7428 -0.26972 -1.92621 0
M  V30 605 O 56.9978 0.741997 -1.81088 0
M  V30 606 C 57.2968 -2.69008 -2.35308 0
M  V30 607 C 56.9628 -4.10662 -1.86192 0
M  V30 608 C 55.6248 -4.49212 -1.72516 0
M  V30 609 C 57.9768 -4.99336 -1.49375 0
M  V30 610 C 55.3048 -5.74214 -1.20394 0
M  V30 611 C 57.6568 -6.24852 -0.987072 0
M  V30 612 C 56.3208 -6.62236 -0.836669 0
M  V30 613 H 55.5908 -0.580041 -0.461122 0
M  V30 614 H 58.2378 -1.83078 -0.561665 0
M  V30 615 H 56.5428 -2.38396 -3.10926 0
M  V30 616 H 58.2398 -2.73373 -2.93374 0
M  V30 617 H 54.8298 -3.8023 -1.97795 0
M  V30 618 H 59.0138 -4.70212 -1.5879 0
M  V30 619 H 54.2698 -6.01883 -1.07458 0
M  V30 620 H 58.4438 -6.92944 -0.692983 0
M  V30 621 H 56.0708 -7.58979 -0.430607 0
M  V30 622 N 57.6459 0.756429 -1.3826 0
M  V30 623 C 58.8759 1.54341 -1.3734 0
M  V30 624 C 59.2839 1.89159 0.0393917 0
M  V30 625 O 58.6269 1.5307 1.01565 0
M  V30 626 C 58.6889 2.87238 -2.16182 0
M  V30 627 C 58.3529 2.74973 -3.65019 0
M  V30 628 C 59.3499 2.44962 -4.58574 0
M  V30 629 C 57.0349 2.92515 -4.08338 0
M  V30 630 C 59.0289 2.32642 -5.93428 0
M  V30 631 C 56.7159 2.79815 -5.43274 0
M  V30 632 C 57.7139 2.49921 -6.35632 0
M  V30 633 O 57.4019 2.37275 -7.68086 0
M  V30 634 H 57.1339 0.484281 -0.471643 0
M  V30 635 H 59.6879 0.944152 -1.82414 0
M  V30 636 H 57.9179 3.49342 -1.65822 0
M  V30 637 H 59.6069 3.48731 -2.07705 0
M  V30 638 H 60.3729 2.31081 -4.26412 0
M  V30 639 H 56.2519 3.14781 -3.368 0
M  V30 640 H 59.7959 2.0923 -6.65484 0
M  V30 641 H 55.6929 2.93269 -5.75034 0
M  V30 642 H 56.4609 2.52509 -7.78577 0
M  V30 643 N 59.124 1.23083 0.984299 0
M  V30 644 C 60.056 0.96636 2.07832 0
M  V30 645 C 61.069 -0.0582135 1.62696 0
M  V30 646 O 62.258 0.176843 1.77622 0
M  V30 647 C 59.358 0.433397 3.36117 0
M  V30 648 C 58.531 1.51722 4.10243 0
M  V30 649 C 57.59 0.989821 5.16807 0
M  V30 650 O 56.616 1.67794 5.43906 0
M  V30 651 N 57.818 -0.184367 5.80207 0
M  V30 652 H 60.583 1.90824 2.31098 0
M  V30 653 H 58.144 1.13888 1.1507 0
M  V30 654 H 60.136 0.065699 4.04647 0
M  V30 655 H 58.706 -0.413806 3.09849 0
M  V30 656 H 57.926 2.05786 3.36223 0
M  V30 657 H 59.214 2.24619 4.56534 0
M  V30 658 H 58.612 -0.760062 5.60571 0
M  V30 659 H 57.169 -0.493366 6.4993 0
M  V30 660 N 60.6021 -1.18246 1.0419 0
M  V30 661 C 61.5121 -2.25574 0.644476 0
M  V30 662 C 62.5281 -1.70845 -0.329826 0
M  V30 663 O 63.7041 -2.00554 -0.184443 0
M  V30 664 C 60.7691 -3.46697 0.014877 0
M  V30 665 C 59.8301 -4.16554 1.03834 0
M  V30 666 C 59.0631 -5.31894 0.438692 0
M  V30 667 O 59.2861 -5.65385 -0.754752 0
M  V30 668 O 58.2201 -5.90459 1.168 0
M  V30 669 H 62.0461 -2.61836 1.53869 0
M  V30 670 H 59.6311 -1.25352 0.812854 0
M  V30 671 H 61.5131 -4.20062 -0.335538 0
M  V30 672 H 60.1881 -3.12255 -0.853138 0
M  V30 673 H 59.0951 -3.45251 1.44057 0
M  V30 674 H 60.4281 -4.54998 1.87716 0
M  V30 675 N 62.0802 -0.821533 -1.34494 0
M  V30 676 C 63.3282 -0.408139 -1.97936 0
M  V30 677 C 63.6492 1.03193 -1.65457 0
M  V30 678 O 62.9192 1.71622 -0.944595 0
M  V30 679 H 61.4992 -0.147928 -0.732206 0
M  V30 680 H 64.1612 -1.05067 -1.64155 0
M  V30 681 H 63.2572 -0.52601 -3.07635 0
M  V30 682 N 63.5583 1.46682 -0.576371 0
M  V30 683 C 64.9693 1.86112 -0.148091 0
M  V30 684 C 65.3203 1.48073 1.2872 0
M  V30 685 O 64.4453 0.892656 1.97131 0
M  V30 686 C 65.0403 3.37786 -0.261982 0
M  V30 687 C 63.5993 3.76235 0.111384 0
M  V30 688 C 62.7463 2.70713 -0.60083 0
M  V30 689 H 65.6973 1.37927 -0.78497 0
M  V30 690 H 65.7183 3.77007 0.514364 0
M  V30 691 H 65.2303 3.6544 -1.30671 0
M  V30 692 H 63.3313 3.54198 1.15649 0
M  V30 693 H 63.4443 4.78391 -0.26052 0
M  V30 694 H 61.8083 2.54666 -0.0417783 0
M  V30 695 H 62.5913 3.01208 -1.64708 0
M  V30 696 N 65.0364 0.313813 1.54444 0
M  V30 697 C 66.2614 -0.296681 2.05267 0
M  V30 698 C 66.6864 -1.45757 1.18897 0
M  V30 699 O 66.0444 -1.80239 0.195886 0
M  V30 700 C 66.0924 -0.71831 3.53373 0
M  V30 701 O 65.1964 -1.82175 3.69981 0
M  V30 702 H 64.5374 -0.0554061 0.661684 0
M  V30 703 H 67.0674 0.459387 1.99376 0
M  V30 704 H 67.0774 -1.00364 3.95463 0
M  V30 705 H 65.7524 0.130821 4.15694 0
M  V30 706 H 64.3294 -1.53598 3.39797 0
M  V30 707 N 66.5145 -1.57545 0.0417849 0
M  V30 708 C 67.7635 -1.91494 -0.633492 0
M  V30 709 C 68.0765 -0.921084 -1.72556 0
M  V30 710 O 69.2825 -1.15228 -2.45835 0
M  V30 711 C 67.7385 -3.40072 -1.17808 0
M  V30 712 C 67.3465 -4.47843 -0.118633 0
M  V30 713 C 69.0905 -3.8307 -1.82915 0
M  V30 714 C 66.9975 -5.87529 -0.675578 0
M  V30 715 H 65.9275 -0.714653 -0.24039 0
M  V30 716 H 68.5785 -1.83175 0.109148 0
M  V30 717 H 66.9605 -3.43364 -1.97274 0
M  V30 718 H 68.1345 -4.56128 0.654494 0
M  V30 719 H 66.4495 -4.14128 0.434414 0
M  V30 720 H 69.0465 -4.84794 -2.25563 0
M  V30 721 H 69.3895 -3.1881 -2.67705 0
M  V30 722 H 69.9225 -3.82255 -1.10119 0
M  V30 723 H 66.6615 -6.55362 0.134475 0
M  V30 724 H 66.1815 -5.82824 -1.4169 0
M  V30 725 H 67.8605 -6.36491 -1.1614 0
M  V30 726 N 67.9926 0.231505 -1.5589 0
M  V30 727 C 69.2386 0.95877 -1.78705 0
M  V30 728 C 69.5716 1.8438 -0.609725 0
M  V30 729 O 68.8466 1.90521 0.391426 0
M  V30 730 C 69.1296 1.8062 -3.11526 0
M  V30 731 C 68.9826 0.948328 -4.39689 0
M  V30 732 C 70.3016 2.78585 -3.40703 0
M  V30 733 H 67.4206 0.347129 -0.650131 0
M  V30 734 H 70.0626 0.228259 -1.88624 0
M  V30 735 H 68.2126 2.42902 -3.03201 0
M  V30 736 H 69.8846 0.343016 -4.60023 0
M  V30 737 H 68.1276 0.253314 -4.3306 0
M  V30 738 H 68.7986 1.57543 -5.29041 0
M  V30 739 H 71.2746 2.26439 -3.49091 0
M  V30 740 H 70.1506 3.34988 -4.34826 0
M  V30 741 H 70.4116 3.55825 -2.62375 0
M  V30 742 N 69.4707 1.49531 0.497807 0
M  V30 743 C 70.4177 1.66436 1.59899 0
M  V30 744 C 71.3877 0.505793 1.58212 0
M  V30 745 O 72.5727 0.733202 1.7615 0
M  V30 746 C 69.7127 1.7399 2.98029 0
M  V30 747 C 68.8257 3.01172 3.09708 0
M  V30 748 C 67.9607 2.99686 4.38591 0
M  V30 749 C 66.9997 4.21434 4.43914 0
M  V30 750 N 66.1367 4.1784 5.64229 0
M  V30 751 H 70.9767 2.60459 1.44793 0
M  V30 752 H 68.5137 1.29137 0.704423 0
M  V30 753 H 70.4717 1.76352 3.78095 0
M  V30 754 H 69.1017 0.834301 3.11832 0
M  V30 755 H 68.1537 3.08408 2.22685 0
M  V30 756 H 69.4657 3.91165 3.09502 0
M  V30 757 H 68.6197 3.00628 5.2698 0
M  V30 758 H 67.3587 2.07477 4.41367 0
M  V30 759 H 66.3637 4.20733 3.53926 0
M  V30 760 H 67.5887 5.14839 4.42851 0
M  V30 761 H 65.5347 3.28469 5.67841 0
M  V30 762 H 65.4517 5.01571 5.65652 0
M  V30 763 H 66.7197 4.22889 6.54817 0
M  V30 764 N 70.9488 -0.749086 1.3866 0
M  V30 765 C 71.8808 -1.87273 1.32142 0
M  V30 766 C 72.8938 -1.61127 0.232787 0
M  V30 767 O 74.0828 -1.71623 0.49069 0
M  V30 768 C 71.1828 -3.23005 1.02571 0
M  V30 769 C 70.3558 -3.7662 2.22433 0
M  V30 770 C 69.4148 -4.90879 1.89537 0
M  V30 771 O 68.4408 -5.05276 2.62078 0
M  V30 772 N 69.6428 -5.74198 0.853031 0
M  V30 773 H 72.4078 -1.93373 2.28969 0
M  V30 774 H 69.9688 -0.929216 1.32579 0
M  V30 775 H 71.9608 -3.96992 0.786085 0
M  V30 776 H 70.5308 -3.12262 0.145249 0
M  V30 777 H 69.7508 -2.94147 2.62434 0
M  V30 778 H 71.0388 -4.09173 3.02415 0
M  V30 779 H 70.4368 -5.6514 0.25155 0
M  V30 780 H 68.9938 -6.48313 0.67329 0
M  V30 781 N 72.4269 -1.23603 -0.977757 0
M  V30 782 C 73.3569 -1.04401 -2.0886 0
M  V30 783 C 74.3379 0.0399052 -1.70053 0
M  V30 784 O 75.5229 -0.125246 -1.93796 0
M  V30 785 C 72.6529 -0.637269 -3.41403 0
M  V30 786 C 71.6069 -1.66883 -3.94124 0
M  V30 787 C 70.9329 -1.11745 -5.22893 0
M  V30 788 C 72.2329 -3.06247 -4.23096 0
M  V30 789 H 73.9269 -1.97316 -2.25182 0
M  V30 790 H 71.4729 -0.950096 -1.08209 0
M  V30 791 H 73.4259 -0.48998 -4.18542 0
M  V30 792 H 72.1499 0.327557 -3.24953 0
M  V30 793 H 70.8089 -1.80416 -3.19133 0
M  V30 794 H 70.4569 -0.143527 -5.02795 0
M  V30 795 H 70.1569 -1.80672 -5.59134 0
M  V30 796 H 71.6809 -0.982067 -6.02651 0
M  V30 797 H 73.0949 -2.96001 -4.90975 0
M  V30 798 H 71.4919 -3.72436 -4.70544 0
M  V30 799 H 72.5619 -3.55041 -3.30263 0
M  V30 800 N 73.905 1.17692 -1.04816 0
M  V30 801 C 74.852 2.21581 -0.645797 0
M  V30 802 C 75.822 1.62367 0.350159 0
M  V30 803 O 77.007 1.89254 0.242433 0
M  V30 804 C 74.147 3.45092 -0.0227568 0
M  V30 805 C 73.26 4.18613 -1.06709 0
M  V30 806 C 72.395 5.29602 -0.411767 0
M  V30 807 C 71.434 5.94904 -1.44067 0
M  V30 808 N 70.571 6.97414 -0.809781 0
M  V30 809 H 75.411 2.55353 -1.5362 0
M  V30 810 H 72.948 1.25438 -0.768364 0
M  V30 811 H 74.906 4.15679 0.35588 0
M  V30 812 H 73.536 3.11917 0.831122 0
M  V30 813 H 72.588 3.46779 -1.5636 0
M  V30 814 H 73.9 4.63293 -1.84827 0
M  V30 815 H 73.054 6.06696 0.0206623 0
M  V30 816 H 71.793 4.86045 0.401438 0
M  V30 817 H 70.798 5.16544 -1.88316 0
M  V30 818 H 72.023 6.40542 -2.25571 0
M  V30 819 H 69.969 6.55998 -0.0170186 0
M  V30 820 H 69.886 7.40386 -1.52856 0
M  V30 821 H 71.154 7.78463 -0.401999 0
M  V30 822 N 75.3831 0.828654 1.34056 0
M  V30 823 C 76.2931 0.256725 2.33191 0
M  V30 824 C 77.3091 -0.611898 1.62886 0
M  V30 825 O 78.4851 -0.51844 1.94613 0
M  V30 826 C 75.5501 -0.567238 3.42028 0
M  V30 827 C 74.6111 0.324458 4.28072 0
M  V30 828 C 73.8441 -0.460274 5.31712 0
M  V30 829 O 74.0671 -1.693 5.44696 0
M  V30 830 O 73.0011 0.160391 6.01686 0
M  V30 831 H 76.8271 1.07739 2.83947 0
M  V30 832 H 74.4121 0.59093 1.37217 0
M  V30 833 H 76.2941 -1.03582 4.08471 0
M  V30 834 H 74.9691 -1.36513 2.93506 0
M  V30 835 H 73.8761 0.840659 3.64532 0
M  V30 836 H 75.2091 1.08685 4.8005 0
M  V30 837 N 76.8612 -1.46375 0.584142 0
M  V30 838 C 78.2772 -1.57694 0.245929 0
M  V30 839 C 78.4772 -1.57903 -1.25175 0
M  V30 840 O 77.5332 -1.49676 -2.03355 0
M  V30 841 C 78.8462 -2.87028 0.896402 0
M  V30 842 C 80.3942 -3.00662 0.870127 0
M  V30 843 C 80.8692 -4.32734 1.50017 0
M  V30 844 N 82.3602 -4.39436 1.46458 0
M  V30 845 C 83.0952 -5.40248 1.92144 0
M  V30 846 N 82.5912 -6.47726 2.4581 0
M  V30 847 N 84.3842 -5.31459 1.83052 0
M  V30 848 H 76.5352 -1.44483 1.55687 0
M  V30 849 H 78.7982 -0.689291 0.650831 0
M  V30 850 H 78.5042 -2.9269 1.95002 0
M  V30 851 H 78.3782 -3.75014 0.405486 0
M  V30 852 H 80.7652 -2.94581 -0.174871 0
M  V30 853 H 80.8462 -2.14148 1.39908 0
M  V30 854 H 80.4902 -4.39573 2.54437 0
M  V30 855 H 80.4202 -5.18025 0.946432 0
M  V30 856 H 82.9112 -3.62367 1.07231 0
M  V30 857 H 83.2242 -7.20863 2.78525 0
M  V30 858 H 81.5692 -6.48542 2.49836 0
M  V30 859 H 84.7602 -4.46396 1.40883 0
M  V30 860 H 84.9332 -6.09881 2.18973 0
M  V30 861 N 78.3393 -0.321999 -1.54275 0
M  V30 862 C 79.2873 0.560206 -2.25753 0
M  V30 863 C 80.2813 1.11984 -1.27106 0
M  V30 864 O 81.4873 1.06806 -1.44888 0
M  V30 865 H 77.8623 0.199304 -0.725108 0
M  V30 866 H 79.8333 -0.0649365 -2.98329 0
M  V30 867 C 78.5823 1.71023 -3.02731 0
M  V30 868 H 77.9053 1.28885 -3.78456 0
M  V30 869 H 79.3453 2.30314 -3.55993 0
M  V30 870 C 77.8043 2.62692 -2.10938 0
M  V30 871 O 78.3343 3.64364 -1.6912 0
M  V30 872 N 76.5403 2.30891 -1.76459 0
M  V30 873 H 76.0873 1.48253 -2.10663 0
M  V30 874 H 76.0453 2.92487 -1.1532 0
M  V30 875 N 79.8174 1.5752 -0.0501392 0
M  V30 876 C 81.0574 1.94521 0.627783 0
M  V30 877 C 81.4214 0.928265 1.68069 0
M  V30 878 O 82.6224 1.18517 2.41261 0
M  V30 879 C 80.8934 3.36319 1.20932 0
M  V30 880 S 82.4524 3.95272 1.90539 0
M  V30 881 H 79.2704 0.680456 0.206158 0
M  V30 882 H 81.8724 1.95139 -0.118829 0
M  V30 883 H 80.5764 4.08132 0.430865 0
M  V30 884 H 80.1074 3.39193 1.99277 0
M  V30 885 H 82.1224 3.80415 3.18589 0
M  V30 886 N 81.2955 -0.223234 1.56011 0
M  V30 887 C 82.2055 -1.29766 1.95443 0
M  V30 888 C 83.2215 -1.51373 0.858028 0
M  V30 889 O 84.3975 -1.64536 1.16146 0
M  V30 890 C 81.4625 -2.62772 2.26167 0
M  V30 891 C 80.5235 -2.49482 3.49367 0
M  V30 892 C 79.7565 -3.76145 3.78616 0
M  V30 893 O 79.9795 -4.79087 3.09568 0
M  V30 894 O 78.9135 -3.73358 4.72109 0
M  V30 895 H 82.7395 -0.99309 2.87004 0
M  V30 896 H 80.3245 -0.425958 1.43199 0
M  V30 897 H 82.2065 -3.41327 2.47131 0
M  V30 898 H 80.8815 -2.92913 1.37781 0
M  V30 899 H 79.7885 -1.69133 3.33684 0
M  V30 900 H 81.1215 -2.2428 4.38131 0
M  V30 901 N 82.7736 -1.49793 -0.48987 0
M  V30 902 C 83.7036 -1.70201 -1.59856 0
M  V30 903 C 84.6846 -0.55076 -1.60937 0
M  V30 904 O 85.8696 -0.787841 -1.77501 0
M  V30 905 C 82.9996 -1.77882 -2.98287 0
M  V30 906 C 81.9536 -2.92907 -3.12073 0
M  V30 907 C 81.2796 -2.85712 -4.51965 0
M  V30 908 C 82.5796 -4.3369 -2.91051 0
M  V30 909 H 84.2736 -2.63025 -1.43032 0
M  V30 910 H 81.8196 -1.26574 -0.686664 0
M  V30 911 H 83.7726 -1.90744 -3.75759 0
M  V30 912 H 82.4966 -0.816653 -3.16225 0
M  V30 913 H 81.1556 -2.79665 -2.37029 0
M  V30 914 H 80.8036 -1.8738 -4.66795 0
M  V30 915 H 80.5036 -3.62921 -4.62128 0
M  V30 916 H 82.0276 -3.00598 -5.31482 0
M  V30 917 H 83.4416 -4.47555 -3.58284 0
M  V30 918 H 81.8386 -5.12205 -3.12675 0
M  V30 919 H 82.9086 -4.47362 -1.87071 0
M  V30 920 N 84.2517 0.741722 -1.39055 0
M  V30 921 C 85.4987 1.50114 -1.35912 0
M  V30 922 C 85.8267 1.94443 0.0470937 0
M  V30 923 O 85.0817 1.66612 1.02659 0
M  V30 924 C 85.3807 2.7592 -2.27163 0
M  V30 925 C 85.0467 2.50493 -3.74919 0
M  V30 926 C 83.7087 2.43267 -4.1518 0
M  V30 927 C 86.0607 2.28585 -4.684 0
M  V30 928 C 83.3887 2.12166 -5.46994 0
M  V30 929 C 85.7407 1.99002 -6.00484 0
M  V30 930 C 84.4047 1.90241 -6.39816 0
M  V30 931 H 83.6747 0.549306 -0.497336 0
M  V30 932 H 86.3217 0.851896 -1.71508 0
M  V30 933 H 84.6267 3.45553 -1.84663 0
M  V30 934 H 86.3237 3.33923 -2.22028 0
M  V30 935 H 82.9137 2.56992 -3.43006 0
M  V30 936 H 87.0977 2.33139 -4.38132 0
M  V30 937 H 82.3537 2.03901 -5.76398 0
M  V30 938 H 86.5277 1.81057 -6.72452 0
M  V30 939 H 84.1547 1.65907 -7.41875 0
M  V30 940 N 85.7298 1.2412 0.971189 0
M  V30 941 C 86.6598 1.05508 2.08304 0
M  V30 942 C 87.6408 -0.0308864 1.70072 0
M  V30 943 O 88.8258 0.135521 1.93727 0
M  V30 944 C 85.9558 0.655365 3.4106 0
M  V30 945 C 84.9098 1.68971 3.93234 0
M  V30 946 C 84.2358 1.14516 5.22293 0
M  V30 947 C 85.5358 3.08487 4.21465 0
M  V30 948 H 87.2298 1.98507 2.24132 0
M  V30 949 H 84.7758 0.955821 1.07704 0
M  V30 950 H 86.7288 0.51217 4.18276 0
M  V30 951 H 85.4528 -0.31032 3.25122 0
M  V30 952 H 84.1118 1.82106 3.18171 0
M  V30 953 H 83.7598 0.170189 5.02712 0
M  V30 954 H 83.4598 1.83635 5.58168 0
M  V30 955 H 84.9838 1.01401 6.02121 0
M  V30 956 H 86.3978 2.98601 4.89398 0
M  V30 957 H 84.7948 3.74926 4.68562 0
M  V30 958 H 85.8648 3.56787 3.28376 0
M  V30 959 N 87.2079 -1.17134 1.05439 0
M  V30 960 C 88.4849 -1.83411 0.679699 0
M  V30 961 C 88.8649 -1.9368 -0.839726 0
M  V30 962 O 88.2129 -1.47325 -1.74664 0
M  V30 963 C 88.4229 -3.20918 1.37159 0
M  V30 964 C 89.7709 -3.96796 1.51123 0
M  V30 965 O 90.7949 -3.30406 1.3308 0
M  V30 966 O 89.6539 -5.15778 1.80651 0
M  V30 967 H 86.7479 -0.79154 0.239569 0
M  V30 968 H 89.2939 -1.24411 1.15413 0
M  V30 969 H 88.0659 -3.08428 2.40807 0
M  V30 970 H 87.6889 -3.87587 0.886674 0
M  V30 971 N 88.686 -0.835752 -1.33615 0
M  V30 972 C 89.616 -0.281739 -2.31794 0
M  V30 973 C 90.597 0.608833 -1.58831 0
M  V30 974 O 91.782 0.533035 -1.86741 0
M  V30 975 C 88.912 0.546612 -3.42971 0
M  V30 976 C 87.866 -0.247904 -4.27281 0
M  V30 977 C 87.192 0.704001 -5.30045 0
M  V30 978 C 88.492 -1.46324 -5.01385 0
M  V30 979 H 90.186 -1.10206 -2.78379 0
M  V30 980 H 87.732 -0.531388 -1.33837 0
M  V30 981 H 89.685 0.944467 -4.1068 0
M  V30 982 H 88.409 1.40011 -2.95067 0
M  V30 983 H 87.068 -0.627281 -3.61194 0
M  V30 984 H 86.716 1.55381 -4.78399 0
M  V30 985 H 86.416 0.176524 -5.87335 0
M  V30 986 H 87.94 1.09944 -6.0062 0
M  V30 987 H 89.354 -1.13871 -5.61877 0
M  V30 988 H 87.751 -1.92728 -5.6831 0
M  V30 989 H 88.821 -2.23467 -4.30338 0
M  V30 990 N 90.1641 1.46063 -0.591896 0
M  V30 991 C 91.1111 2.30399 0.136069 0
M  V30 992 C 92.0811 1.41169 0.875238 0
M  V30 993 O 93.2661 1.70112 0.86409 0
M  V30 994 C 90.4061 3.25804 1.13781 0
M  V30 995 C 89.5191 4.30134 0.401137 0
M  V30 996 C 88.6541 5.12659 1.39121 0
M  V30 997 C 87.6931 6.0873 0.641462 0
M  V30 998 N 86.8301 6.8409 1.58004 0
M  V30 999 H 91.6701 2.92118 -0.589144 0
M  V30 1000 H 89.2071 1.43959 -0.302342 0
M  V30 1001 H 91.1651 3.79569 1.73156 0
M  V30 1002 H 89.7951 2.65872 1.83062 0
M  V30 1003 H 88.8471 3.79152 -0.307826 0
M  V30 1004 H 90.1591 4.98458 -0.184565 0
M  V30 1005 H 89.3131 5.70747 2.05749 0
M  V30 1006 H 88.0521 4.44316 2.01084 0
M  V30 1007 H 87.0571 5.49786 -0.0385419 0
M  V30 1008 H 88.2821 6.79095 0.0270945 0
M  V30 1009 H 86.2281 6.18449 2.18761 0
M  V30 1010 H 86.1451 7.48709 1.04738 0
M  V30 1011 H 87.4131 7.4673 2.23639 0
M  V30 1012 N 91.6422 0.330177 1.54103 0
M  V30 1013 C 92.5722 -0.525353 2.27513 0
M  V30 1014 C 93.5532 -1.11383 1.2856 0
M  V30 1015 O 94.7382 -1.13773 1.57383 0
M  V30 1016 C 91.8682 -1.6831 3.03791 0
M  V30 1017 C 90.8222 -1.2236 4.10137 0
M  V30 1018 C 90.1482 -2.46882 4.74293 0
M  V30 1019 C 91.4482 -0.333697 5.21233 0
M  V30 1020 H 93.1422 0.087013 2.99274 0
M  V30 1021 H 90.6882 0.0432893 1.43935 0
M  V30 1022 H 92.6412 -2.28795 3.5388 0
M  V30 1023 H 91.3652 -2.32216 2.29659 0
M  V30 1024 H 90.0242 -0.64165 3.60941 0
M  V30 1025 H 89.6722 -3.09165 3.96769 0
M  V30 1026 H 89.3722 -2.16825 5.46133 0
M  V30 1027 H 90.8962 -3.08117 5.27159 0
M  V30 1028 H 92.3102 -0.845013 5.67038 0
M  V30 1029 H 90.7072 -0.125612 5.99969 0
M  V30 1030 H 91.7772 0.633724 4.80741 0
M  V30 1031 N 93.1203 -1.57491 0.0584922 0
M  V30 1032 C 94.0703 -2.08474 -0.923188 0
M  V30 1033 C 95.0543 -0.991479 -1.26722 0
M  V30 1034 O 96.2463 -1.25473 -1.24842 0
M  V30 1035 C 93.3753 -2.6392 -2.19548 0
M  V30 1036 C 92.4613 -3.80227 -1.87852 0
M  V30 1037 N 92.8523 -4.89714 -1.26546 0
M  V30 1038 C 91.1503 -3.89271 -2.17679 0
M  V30 1039 C 91.8513 -5.70689 -1.12644 0
M  V30 1040 N 90.8273 -5.18531 -1.63176 0
M  V30 1041 H 94.6293 -2.90517 -0.444653 0
M  V30 1042 H 92.1433 -1.61745 -0.145764 0
M  V30 1043 H 94.1403 -2.98752 -2.9078 0
M  V30 1044 H 92.8003 -1.83318 -2.68001 0
M  V30 1045 H 93.8113 -5.09358 -0.936757 0
M  V30 1046 H 90.4883 -3.19623 -2.68602 0
M  V30 1047 H 91.8783 -6.6875 -0.6499 0
M  V30 1048 N 94.5984 0.214957 -1.56127 0
M  V30 1049 C 95.8754 0.963093 -1.70247 0
M  V30 1050 C 96.2554 2.02166 -0.60764 0
M  V30 1051 O 95.6034 2.25244 0.384385 0
M  V30 1052 C 95.8134 1.56756 -3.11815 0
M  V30 1053 C 97.1614 2.0573 -3.7143 0
M  V30 1054 O 98.1854 1.66637 -3.14818 0
M  V30 1055 O 97.0444 2.77603 -4.70743 0
M  V30 1056 H 94.1384 0.450321 -0.693643 0
M  V30 1057 H 96.6844 0.206219 -1.68442 0
M  V30 1058 H 95.4564 0.803533 -3.82961 0
M  V30 1059 H 95.0794 2.3898 -3.17765 0
M  V30 1060 N 96.0765 1.50051 0.48192 0
M  V30 1061 C 97.3255 1.59741 1.23149 0
M  V30 1062 C 97.6385 0.298163 1.93314 0
M  V30 1063 O 98.8445 0.273835 2.70116 0
M  V30 1064 C 97.3005 2.81926 2.23708 0
M  V30 1065 C 96.9085 4.18685 1.59396 0
M  V30 1066 C 98.6525 3.00956 2.99375 0
M  V30 1067 C 96.5595 5.3207 2.58178 0
M  V30 1068 H 95.4895 0.594838 0.46334 0
M  V30 1069 H 98.1405 1.76467 0.503169 0
M  V30 1070 H 96.5225 2.58736 2.99786 0
M  V30 1071 H 97.6965 4.52088 0.891811 0
M  V30 1072 H 96.0115 4.05171 0.960503 0
M  V30 1073 H 98.6085 3.82836 3.73283 0
M  V30 1074 H 98.9515 2.12258 3.58123 0
M  V30 1075 H 99.4845 3.24277 2.30411 0
M  V30 1076 H 96.2235 6.22888 2.04184 0
M  V30 1077 H 95.7435 5.03098 3.26577 0
M  V30 1078 H 97.4225 5.62196 3.20225 0
M  V30 1079 N 97.5546 -0.734337 1.39446 0
M  V30 1080 C 98.9656 -1.31264 1.32766 0
M  V30 1081 C 99.3166 -1.96198 -0.00767497 0
M  V30 1082 O 98.4416 -1.96346 -0.909796 0
M  V30 1083 C 99.0366 -2.38682 2.4045 0
M  V30 1084 C 97.5956 -2.92184 2.37288 0
M  V30 1085 C 96.7426 -1.6576 2.22304 0
M  V30 1086 H 99.6936 -0.531799 1.49525 0
M  V30 1087 H 99.7146 -3.19087 2.07276 0
M  V30 1088 H 99.2266 -1.91392 3.37625 0
M  V30 1089 H 97.3276 -3.43752 1.43754 0
M  V30 1090 H 97.4406 -3.45253 3.3217 0
M  V30 1091 H 95.8046 -1.9012 1.69489 0
M  V30 1092 H 96.5876 -1.20521 3.21449 0
M  V30 1093 N 99.0327 -1.24633 -0.964593 0
M  V30 1094 C 100.261 -1.11501 -1.74285 0
M  V30 1095 C 100.676 0.332165 -1.85855 0
M  V30 1096 O 100.033 1.22903 -1.34911 0
M  V30 1097 C 100.084 -1.75258 -3.16175 0
M  V30 1098 O 99.8047 -3.14318 -3.05182 0
M  V30 1099 C 101.306 -1.67776 -4.10324 0
M  V30 1100 H 98.5257 -0.389407 -0.546446 0
M  V30 1101 H 101.07 -1.64801 -1.21083 0
M  V30 1102 H 99.2247 -1.25954 -3.66353 0
M  V30 1103 H 99.6387 -3.4551 -3.94618 0
M  V30 1104 H 101.113 -2.17064 -5.0753 0
M  V30 1105 H 101.59 -0.639584 -4.34518 0
M  V30 1106 H 102.196 -2.16522 -3.66058 0
M  V30 1107 N 100.511 1.16574 -1.06058 0
M  V30 1108 C 101.739 1.90952 -0.796552 0
M  V30 1109 C 102.154 1.77302 0.648808 0
M  V30 1110 O 101.511 1.11605 1.44397 0
M  V30 1111 C 101.562 3.41736 -1.17894 0
M  V30 1112 O 101.283 3.54975 -2.56758 0
M  V30 1113 C 102.784 4.33169 -0.942308 0
M  V30 1114 H 100.004 0.605594 -0.288959 0
M  V30 1115 H 102.548 1.47777 -1.41358 0
M  V30 1116 H 100.703 3.82623 -0.606491 0
M  V30 1117 H 101.117 4.4846 -2.72 0
M  V30 1118 H 102.591 5.37439 -1.25952 0
M  V30 1119 H 103.068 4.3903 0.122078 0
M  V30 1120 H 103.674 3.98007 -1.49902 0
M  V30 1121 N 101.989 0.842826 1.3317 0
M  V30 1122 C 103.235 0.441099 1.97945 0
M  V30 1123 C 103.568 -0.998024 1.66593 0
M  V30 1124 O 102.843 -1.69839 0.947898 0
M  V30 1125 C 103.126 0.666841 3.53872 0
M  V30 1126 C 102.979 2.15352 3.94897 0
M  V30 1127 C 104.298 0.115544 4.39948 0
M  V30 1128 H 101.417 0.161739 0.719034 0
M  V30 1129 H 104.059 1.05907 1.57746 0
M  V30 1130 H 102.209 0.140828 3.88245 0
M  V30 1131 H 103.881 2.7447 3.70761 0
M  V30 1132 H 102.124 2.63653 3.44484 0
M  V30 1133 H 102.795 2.26221 5.03516 0
M  V30 1134 H 105.271 0.565213 4.12243 0
M  V30 1135 H 104.147 0.303152 5.48062 0
M  V30 1136 H 104.408 -0.980935 4.3108 0
M  V30 1137 N 103.467 -1.45747 0.599634 0
M  V30 1138 C 104.415 -2.322 -0.136426 0
M  V30 1139 C 105.409 -1.45497 -0.867583 0
M  V30 1140 O 106.615 -1.62027 -0.78405 0
M  V30 1141 H 102.99 -0.749368 -0.0628588 0
M  V30 1142 H 104.961 -2.92072 0.611281 0
M  V30 1143 C 103.71 -3.28974 -1.12567 0
M  V30 1144 H 103.033 -3.9568 -0.572484 0
M  V30 1145 H 104.473 -3.92212 -1.61077 0
M  V30 1146 C 102.932 -2.55561 -2.19523 0
M  V30 1147 O 103.462 -2.33111 -3.27143 0
M  V30 1148 N 101.668 -2.15832 -1.94589 0
M  V30 1149 H 101.215 -2.3429 -1.07078 0
M  V30 1150 H 101.173 -1.67034 -2.66359 0
M  V30 1151 N 104.945 -0.338344 -1.53925 0
M  V30 1152 C 105.892 0.520845 -2.24846 0
M  V30 1153 C 106.862 1.09976 -1.24477 0
M  V30 1154 O 108.047 1.13735 -1.53196 0
M  V30 1155 C 105.187 1.6685 -3.02084 0
M  V30 1156 C 104.3 1.11739 -4.17299 0
M  V30 1157 C 103.435 2.23193 -4.82036 0
M  V30 1158 C 102.474 1.65407 -5.89328 0
M  V30 1159 N 101.611 2.70582 -6.47866 0
M  V30 1160 H 106.451 -0.0904881 -2.97863 0
M  V30 1161 H 103.988 -0.0564282 -1.46992 0
M  V30 1162 H 105.946 2.34407 -3.45122 0
M  V30 1163 H 104.576 2.2509 -2.31375 0
M  V30 1164 H 103.628 0.332919 -3.7894 0
M  V30 1165 H 104.94 0.654677 -4.94485 0
M  V30 1166 H 104.094 2.98626 -5.28117 0
M  V30 1167 H 102.833 2.72807 -4.04262 0
M  V30 1168 H 101.838 0.884779 -5.42634 0
M  V30 1169 H 103.063 1.16652 -6.69006 0
M  V30 1170 H 101.009 3.1946 -5.72959 0
M  V30 1171 H 100.926 2.28917 -7.20509 0
M  V30 1172 H 102.194 3.45799 -6.98601 0
M  V30 1173 N 106.423 1.57458 -0.0668435 0
M  V30 1174 C 107.386 2.11323 0.887422 0
M  V30 1175 C 108.386 1.03618 1.22964 0
M  V30 1176 O 109.576 1.29626 1.16373 0
M  V30 1177 C 106.708 2.61048 2.19242 0
M  V30 1178 H 107.901 2.96942 0.420194 0
M  V30 1179 H 105.454 1.55239 0.181793 0
M  V30 1180 H 106.189 1.78868 2.70512 0
M  V30 1181 H 105.974 3.39769 1.95702 0
M  V30 1182 H 107.464 3.02814 2.87565 0
M  V30 1183 N 107.901 -0.206675 1.56239 0
M  V30 1184 C 108.834 -1.28383 1.88661 0
M  V30 1185 C 109.812 -1.44504 0.745481 0
M  V30 1186 O 110.996 -1.60079 0.995336 0
M  V30 1187 C 108.123 -2.65211 2.10667 0
M  V30 1188 C 107.169 -2.66025 3.33366 0
M  V30 1189 S 108.002 -2.18609 4.88846 0
M  V30 1190 C 109.158 -3.57283 5.13906 0
M  V30 1191 H 109.391 -1.00691 2.7973 0
M  V30 1192 H 106.924 -0.409627 1.48867 0
M  V30 1193 H 108.882 -3.43979 2.24029 0
M  V30 1194 H 107.543 -2.90121 1.20369 0
M  V30 1195 H 106.736 -3.66607 3.45855 0
M  V30 1196 H 106.338 -1.95331 3.18938 0
M  V30 1197 H 108.63 -4.53074 5.03717 0
M  V30 1198 H 109.573 -3.49699 6.15724 0
M  V30 1199 H 109.981 -3.51659 4.41583 0
M  V30 1200 N 109.379 -1.50304 -0.473955 0
M  V30 1201 C 110.326 -1.68959 -1.57231 0
M  V30 1202 C 111.296 -0.530899 -1.57387 0
M  V30 1203 O 112.481 -0.761133 -1.74961 0
M  V30 1204 C 109.621 -1.7871 -2.95223 0
M  V30 1205 C 108.734 -3.06061 -3.04878 0
M  V30 1206 C 107.869 -3.06626 -4.33767 0
M  V30 1207 C 106.908 -4.28443 -4.37154 0
M  V30 1208 N 106.045 -4.26763 -5.5751 0
M  V30 1209 H 110.885 -2.6273 -1.40631 0
M  V30 1210 H 108.422 -1.30241 -0.683789 0
M  V30 1211 H 110.38 -1.82344 -3.75242 0
M  V30 1212 H 109.01 -0.883806 -3.10465 0
M  V30 1213 H 108.062 -3.11911 -2.17751 0
M  V30 1214 H 109.374 -3.96039 -3.0324 0
M  V30 1215 H 108.528 -3.08973 -5.22131 0
M  V30 1216 H 107.267 -2.14473 -4.3801 0
M  V30 1217 H 106.272 -4.2631 -3.47188 0
M  V30 1218 H 107.497 -5.2182 -4.34605 0
M  V30 1219 H 105.443 -3.37462 -5.62544 0
M  V30 1220 H 105.36 -5.10507 -5.57601 0
M  V30 1221 H 106.628 -4.33253 -6.48006 0
M  V30 1222 N 110.857 0.726932 -1.39834 0
M  V30 1223 C 112.273 1.03354 -1.21615 0
M  V30 1224 C 112.473 2.01327 -0.08338 0
M  V30 1225 O 111.529 2.46158 0.56238 0
M  V30 1226 C 112.842 1.58811 -2.55342 0
M  V30 1227 C 114.39 1.70851 -2.62257 0
M  V30 1228 C 114.865 2.29716 -3.96225 0
M  V30 1229 N 116.356 2.37116 -3.97907 0
M  V30 1230 C 117.091 2.83619 -4.98345 0
M  V30 1231 N 116.587 3.29958 -6.09179 0
M  V30 1232 N 118.38 2.82901 -4.8572 0
M  V30 1233 H 110.531 0.0773069 -2.12259 0
M  V30 1234 H 112.794 0.0969102 -0.943034 0
M  V30 1235 H 112.5 0.942855 -3.38826 0
M  V30 1236 H 112.374 2.57502 -2.75632 0
M  V30 1237 H 114.761 2.34497 -1.79152 0
M  V30 1238 H 114.842 0.707913 -2.45809 0
M  V30 1239 H 114.486 1.66696 -4.79765 0
M  V30 1240 H 114.416 3.30469 -4.09997 0
M  V30 1241 H 116.907 2.04374 -3.17868 0
M  V30 1242 H 117.22 3.63976 -6.8172 0
M  V30 1243 H 115.565 3.27946 -6.12761 0
M  V30 1244 H 118.756 2.46027 -3.98231 0
M  V30 1245 H 118.929 3.18827 -5.6414 0
M  V30 1246 N 112.336 1.25143 0.95797 0
M  V30 1247 C 113.266 1.07711 2.07173 0
M  V30 1248 C 114.247 -0.0128462 1.70095 0
M  V30 1249 O 115.432 0.156061 1.93572 0
M  V30 1250 C 112.562 0.691503 3.40346 0
M  V30 1251 C 111.516 1.73132 3.9142 0
M  V30 1252 C 110.842 1.20049 5.21049 0
M  V30 1253 C 112.142 3.1294 4.1817 0
M  V30 1254 H 113.836 2.00873 2.22014 0
M  V30 1255 H 111.382 0.967191 1.06684 0
M  V30 1256 H 113.335 0.556505 4.17709 0
M  V30 1257 H 112.059 -0.275819 3.25433 0
M  V30 1258 H 110.718 1.8547 3.16222 0
M  V30 1259 H 110.366 0.223499 5.02503 0
M  V30 1260 H 110.066 1.89545 5.56189 0
M  V30 1261 H 111.59 1.07782 6.01012 0
M  V30 1262 H 113.004 3.03775 4.86203 0
M  V30 1263 H 111.401 3.79875 4.64559 0
M  V30 1264 H 112.471 3.6025 3.24573 0
M  V30 1265 N 113.814 -1.1601 1.06675 0
M  V30 1266 C 114.777 -2.18724 0.685001 0
M  V30 1267 C 115.777 -1.58496 -0.271246 0
M  V30 1268 O 116.967 -1.74119 -0.0531156 0
M  V30 1269 C 114.099 -3.40899 0.00853648 0
M  V30 1270 H 115.292 -2.54011 1.59431 0
M  V30 1271 H 112.845 -1.30352 0.862441 0
M  V30 1272 H 113.58 -3.11173 -0.913337 0
M  V30 1273 H 113.365 -3.8587 0.696204 0
M  V30 1274 H 114.855 -4.16886 -0.24414 0
M  V30 1275 N 115.292 -0.849877 -1.32721 0
M  V30 1276 C 116.517 -0.463856 -2.02146 0
M  V30 1277 C 116.942 0.930449 -1.63476 0
M  V30 1278 O 116.3 1.61033 -0.832952 0
M  V30 1279 C 116.348 -0.604955 -3.55489 0
M  V30 1280 O 115.452 0.36425 -4.10788 0
M  V30 1281 H 114.793 -0.187046 -0.637111 0
M  V30 1282 H 117.323 -1.14775 -1.69375 0
M  V30 1283 H 117.333 -0.490696 -4.05038 0
M  V30 1284 H 116.008 -1.62174 -3.82978 0
M  V30 1285 H 114.585 0.206628 -3.72327 0
M  V30 1286 N 116.77 1.45427 -0.607355 0
M  V30 1287 C 117.7 2.3329 0.0989352 0
M  V30 1288 C 118.681 1.46816 0.859007 0
M  V30 1289 O 119.866 1.75588 0.829604 0
M  V30 1290 C 116.996 3.29518 1.09705 0
M  V30 1291 C 115.95 4.25626 0.450206 0
M  V30 1292 C 115.276 5.11542 1.55655 0
M  V30 1293 C 116.576 5.18505 -0.628455 0
M  V30 1294 H 118.27 2.92595 -0.634716 0
M  V30 1295 H 115.816 1.40696 -0.306681 0
M  V30 1296 H 117.769 3.89855 1.59971 0
M  V30 1297 H 116.493 2.68372 1.86129 0
M  V30 1298 H 115.152 3.66586 -0.0315886 0
M  V30 1299 H 114.8 4.46765 2.31107 0
M  V30 1300 H 114.5 5.76647 1.12925 0
M  V30 1301 H 116.024 5.74748 2.06148 0
M  V30 1302 H 117.438 5.72916 -0.209877 0
M  V30 1303 H 115.835 5.92085 -0.977489 0
M  V30 1304 H 116.905 4.60948 -1.50514 0
M  V30 1305 N 118.248 0.346503 1.53744 0
M  V30 1306 C 119.496 -0.248612 2.00565 0
M  V30 1307 C 119.817 -1.5083 1.23593 0
M  V30 1308 O 119.087 -1.92858 0.343912 0
M  V30 1309 H 117.667 -0.0948564 0.740953 0
M  V30 1310 H 120.329 0.468341 1.89189 0
M  V30 1311 H 119.425 -0.488994 3.08245 0
M  V30 1312 N 119.726 -1.57421 0.075193 0
M  V30 1313 C 120.972 -1.93905 -0.594025 0
M  V30 1314 C 121.305 -0.955701 -1.69056 0
M  V30 1315 O 120.58 0.0145373 -1.94495 0
M  V30 1316 C 120.863 -3.40638 -1.1678 0
M  V30 1317 C 120.716 -4.49733 -0.0776792 0
M  V30 1318 C 122.035 -3.88259 -2.07228 0
M  V30 1319 H 119.154 -0.705105 -0.214466 0
M  V30 1320 H 121.796 -1.8947 0.141854 0
M  V30 1321 H 119.946 -3.44549 -1.79494 0
M  V30 1322 H 121.618 -4.57942 0.555573 0
M  V30 1323 H 119.861 -4.29751 0.591286 0
M  V30 1324 H 120.532 -5.49549 -0.519603 0
M  V30 1325 H 123.008 -3.86376 -1.54445 0
M  V30 1326 H 121.884 -4.91533 -2.44308 0
M  V30 1327 H 122.145 -3.26396 -2.98191 0
M  V30 1328 N 121.204 0.198386 -1.56346 0
M  V30 1329 C 122.481 0.944982 -1.71258 0
M  V30 1330 C 122.861 2.0151 -0.629048 0
M  V30 1331 O 122.209 2.25639 0.360473 0
M  V30 1332 C 122.419 1.5344 -3.1346 0
M  V30 1333 C 123.767 2.01778 -3.73591 0
M  V30 1334 O 124.791 1.63288 -3.16568 0
M  V30 1335 O 123.65 2.72594 -4.73661 0
M  V30 1336 H 120.744 0.442939 -0.69838 0
M  V30 1337 H 123.29 0.188342 -1.68652 0
M  V30 1338 H 122.062 0.762869 -3.83792 0
M  V30 1339 H 121.685 2.35596 -3.20282 0
M  V30 1340 N 122.682 1.50554 0.465978 0
M  V30 1341 C 123.612 1.72722 1.57128 0
M  V30 1342 C 124.593 0.576294 1.6004 0
M  V30 1343 O 125.778 0.81598 1.76225 0
M  V30 1344 C 122.908 1.82605 2.95419 0
M  V30 1345 C 121.862 2.97835 3.07373 0
M  V30 1346 C 121.188 2.92867 4.47363 0
M  V30 1347 C 122.488 4.38265 2.84114 0
M  V30 1348 H 124.182 2.65267 1.38829 0
M  V30 1349 H 121.728 1.2765 0.666441 0
M  V30 1350 H 123.681 1.96698 3.72677 0
M  V30 1351 H 122.405 0.866858 3.14886 0
M  V30 1352 H 121.064 2.83401 2.3255 0
M  V30 1353 H 120.712 1.94783 4.63755 0
M  V30 1354 H 120.412 3.70227 4.56296 0
M  V30 1355 H 121.936 3.09015 5.26633 0
M  V30 1356 H 123.35 4.53198 3.51118 0
M  V30 1357 H 121.747 5.17115 3.04487 0
M  V30 1358 H 122.817 4.50281 1.7993 0
M  V30 1359 N 124.16 -0.719506 1.40217 0
M  V30 1360 C 125.406 -1.48152 1.38488 0
M  V30 1361 C 125.739 -1.94195 -0.0141867 0
M  V30 1362 O 125.014 -1.67884 -0.982096 0
M  V30 1363 C 125.297 -2.71035 2.37091 0
M  V30 1364 C 125.15 -2.30912 3.86005 0
M  V30 1365 C 126.469 -3.73182 2.33288 0
M  V30 1366 H 123.588 -0.537395 0.504357 0
M  V30 1367 H 126.23 -0.821472 1.71324 0
M  V30 1368 H 124.38 -3.27352 2.0922 0
M  V30 1369 H 126.052 -1.80107 4.24687 0
M  V30 1370 H 124.295 -1.62958 4.02029 0
M  V30 1371 H 124.966 -3.18978 4.50508 0
M  V30 1372 H 127.442 -3.26485 2.57966 0
M  V30 1373 H 126.318 -4.56806 3.04334 0
M  V30 1374 H 126.579 -4.21202 1.34317 0
M  V30 1375 N 125.638 -1.25649 -0.95132 0
M  V30 1376 C 126.586 -1.06118 -2.06982 0
M  V30 1377 C 127.58 0.00889169 -1.69398 0
M  V30 1378 O 128.786 -0.146988 -1.79399 0
M  V30 1379 H 125.161 -0.326248 -0.677544 0
M  V30 1380 H 127.132 -2.00932 -2.2061 0
M  V30 1381 C 125.881 -0.700145 -3.40578 0
M  V30 1382 H 125.204 -1.51537 -3.69968 0
M  V30 1383 H 126.644 -0.603211 -4.19687 0
M  V30 1384 C 125.103 0.59403 -3.31622 0
M  V30 1385 O 125.633 1.63522 -3.66911 0
M  V30 1386 N 123.839 0.58089 -2.84735 0
M  V30 1387 H 123.386 -0.266783 -2.56215 0
M  V30 1388 H 123.344 1.44695 -2.79125 0
M  V30 1389 N 127.117 1.15442 -1.07289 0
M  V30 1390 C 128.363 1.86489 -0.796846 0
M  V30 1391 C 128.696 1.82078 0.675371 0
M  V30 1392 O 127.971 1.24346 1.4956 0
M  V30 1393 C 128.254 3.35626 -1.30489 0
M  V30 1394 C 128.107 3.48673 -2.84161 0
M  V30 1395 C 129.426 4.30357 -0.920907 0
M  V30 1396 H 126.545 0.677144 -0.290939 0
M  V30 1397 H 129.187 1.35633 -1.33056 0
M  V30 1398 H 127.337 3.79068 -0.850883 0
M  V30 1399 H 129.009 3.14099 -3.37846 0
M  V30 1400 H 127.252 2.90253 -3.22391 0
M  V30 1401 H 127.923 4.53453 -3.14777 0
M  V30 1402 H 130.399 3.94871 -1.3121 0
M  V30 1403 H 129.275 5.33193 -1.30372 0
M  V30 1404 H 129.536 4.4176 0.173226 0
M  V30 1405 N 128.595 0.856903 1.32268 0
M  V30 1406 C 129.545 0.274899 2.26337 0
M  V30 1407 C 130.529 -0.580543 1.50062 0
M  V30 1408 O 131.721 -0.429559 1.71708 0
M  V30 1409 C 128.85 -0.533841 3.39124 0
M  V30 1410 C 127.936 0.334114 4.22782 0
M  V30 1411 N 128.327 1.42143 4.85416 0
M  V30 1412 C 126.625 0.124256 4.45827 0
M  V30 1413 C 127.326 1.95559 5.47843 0
M  V30 1414 N 126.302 1.25444 5.28928 0
M  V30 1415 H 130.104 1.10612 2.72291 0
M  V30 1416 H 127.618 0.703258 1.46383 0
M  V30 1417 H 129.615 -0.96722 4.05525 0
M  V30 1418 H 128.275 -1.36283 2.94715 0
M  V30 1419 H 129.286 1.80436 4.85451 0
M  V30 1420 H 125.963 -0.669837 4.12092 0
M  V30 1421 H 127.353 2.86714 6.07655 0
M  V30 1422 N 130.073 -1.45103 0.615059 0
M  V30 1423 C 131.036 -2.29025 -0.0895485 0
M  V30 1424 C 132.036 -1.40174 -0.787906 0
M  V30 1425 O 133.226 -1.62217 -0.634933 0
M  V30 1426 C 130.358 -3.21376 -1.13711 0
M  V30 1427 H 131.551 -2.92807 0.648382 0
M  V30 1428 H 129.104 -1.51749 0.374444 0
M  V30 1429 H 129.839 -2.6241 -1.90556 0
M  V30 1430 H 129.624 -3.86834 -0.640475 0
M  V30 1431 H 131.114 -3.84459 -1.63036 0
M  V30 1432 N 131.551 -0.354651 -1.53558 0
M  V30 1433 C 132.514 0.484566 -2.24019 0
M  V30 1434 C 133.514 1.01861 -1.24422 0
M  V30 1435 O 134.704 0.906097 -1.4878 0
M  V30 1436 C 131.836 1.67615 -2.96847 0
M  V30 1437 H 133.029 -0.131843 -2.9961 0
M  V30 1438 H 130.582 -0.106165 -1.55939 0
M  V30 1439 H 131.317 2.33095 -2.25471 0
M  V30 1440 H 131.102 1.30029 -3.69912 0
M  V30 1441 H 132.592 2.27114 -3.50441 0
M  V30 1442 N 133.029 1.57378 -0.0835403 0
M  V30 1443 C 134.277 1.93547 0.581718 0
M  V30 1444 C 134.598 0.96524 1.69435 0
M  V30 1445 O 133.868 0.0153369 1.95894 0
M  V30 1446 H 132.448 0.714521 0.217874 0
M  V30 1447 H 135.11 1.94366 -0.144158 0
M  V30 1448 H 134.206 2.95665 0.999423 0
M  V30 1449 N 134.507 -0.190092 1.56449 0
M  V30 1450 C 135.755 -0.907908 1.80559 0
M  V30 1451 C 136.076 -1.83583 0.657438 0
M  V30 1452 O 135.346 -1.93203 -0.323924 0
M  V30 1453 H 133.926 -0.338247 0.666032 0
M  V30 1454 H 136.588 -0.194403 1.93928 0
M  V30 1455 H 135.684 -1.49604 2.73907 0
M  V30 1456 N 135.985 -1.50799 -0.457987 0
M  V30 1457 C 136.932 -1.70617 -1.5543 0
M  V30 1458 C 137.902 -0.547562 -1.56815 0
M  V30 1459 O 139.087 -0.779647 -1.74144 0
M  V30 1460 C 136.227 -1.81831 -2.93311 0
M  V30 1461 C 135.34 -3.09278 -3.01615 0
M  V30 1462 C 134.475 -3.11209 -4.30491 0
M  V30 1463 C 133.514 -4.33055 -4.32585 0
M  V30 1464 N 132.651 -4.32652 -5.52952 0
M  V30 1465 H 137.491 -2.64207 -1.37836 0
M  V30 1466 H 135.028 -1.30959 -0.669937 0
M  V30 1467 H 136.986 -1.86314 -3.73287 0
M  V30 1468 H 135.616 -0.916685 -3.0951 0
M  V30 1469 H 134.668 -3.14203 -2.1443 0
M  V30 1470 H 135.98 -3.99233 -2.99022 0
M  V30 1471 H 135.134 -3.14494 -5.18824 0
M  V30 1472 H 133.873 -2.19106 -4.35711 0
M  V30 1473 H 132.878 -4.29969 -3.42647 0
M  V30 1474 H 134.103 -5.264 -4.29046 0
M  V30 1475 H 132.049 -3.43409 -5.58933 0
M  V30 1476 H 131.966 -5.16392 -5.52155 0
M  V30 1477 H 133.234 -4.40101 -6.43375 0
M  V30 1478 N 137.463 0.71206 -1.40597 0
M  V30 1479 C 138.41 1.82613 -1.41142 0
M  V30 1480 C 139.38 1.63925 -0.267903 0
M  V30 1481 O 140.565 1.85009 -0.466495 0
M  V30 1482 C 137.705 3.20354 -1.28324 0
M  V30 1483 C 136.818 3.50589 -2.52411 0
M  V30 1484 C 135.953 4.77855 -2.32009 0
M  V30 1485 C 134.992 5.01005 -3.51654 0
M  V30 1486 N 134.129 6.19487 -3.30425 0
M  V30 1487 H 138.969 1.81482 -2.36365 0
M  V30 1488 H 136.506 0.886475 -1.17388 0
M  V30 1489 H 138.464 3.99899 -1.18899 0
M  V30 1490 H 137.094 3.20705 -0.367189 0
M  V30 1491 H 136.146 2.65573 -2.72351 0
M  V30 1492 H 137.458 3.63604 -3.41458 0
M  V30 1493 H 136.612 5.65424 -2.19956 0
M  V30 1494 H 135.351 4.67056 -1.40392 0
M  V30 1495 H 134.356 4.1189 -3.64179 0
M  V30 1496 H 135.581 5.13674 -4.44202 0
M  V30 1497 H 133.527 6.09932 -2.41494 0
M  V30 1498 H 133.444 6.33194 -4.13039 0
M  V30 1499 H 134.712 7.09834 -3.22113 0
M  V30 1500 N 138.941 1.26152 0.944643 0
M  V30 1501 C 139.874 1.01729 2.04271 0
M  V30 1502 C 140.852 -0.0568101 1.62501 0
M  V30 1503 O 142.036 0.0848987 1.88309 0
M  V30 1504 C 139.163 0.539792 3.34371 0
M  V30 1505 C 138.209 1.60593 3.9511 0
M  V30 1506 S 139.042 3.19392 4.29825 0
M  V30 1507 C 140.198 2.73402 5.63029 0
M  V30 1508 H 140.431 1.94703 2.24673 0
M  V30 1509 H 137.964 1.09793 1.08558 0
M  V30 1510 H 139.922 0.270956 4.09605 0
M  V30 1511 H 138.583 -0.369609 3.11918 0
M  V30 1512 H 137.776 1.22275 4.88943 0
M  V30 1513 H 137.378 1.82596 3.26397 0
M  V30 1514 H 139.67 2.1765 6.41588 0
M  V30 1515 H 140.613 3.65913 6.06229 0
M  V30 1516 H 141.021 2.13077 5.22741 0
M  V30 1517 N 140.419 -1.14872 1.07899 0
M  V30 1518 C 141.352 -2.18794 0.64841 0
M  V30 1519 C 142.33 -1.59065 -0.337189 0
M  V30 1520 O 143.514 -1.86936 -0.242284 0
M  V30 1521 C 140.641 -3.38667 -0.0470417 0
M  V30 1522 C 139.687 -4.16942 0.897884 0
M  V30 1523 S 140.52 -4.78615 2.40183 0
M  V30 1524 C 141.676 -6.0185 1.71834 0
M  V30 1525 H 141.909 -2.5498 1.52881 0
M  V30 1526 H 139.442 -1.25922 0.893484 0
M  V30 1527 H 141.4 -4.08113 -0.442027 0
M  V30 1528 H 140.061 -3.00814 -0.903861 0
M  V30 1529 H 139.254 -5.02726 0.358096 0
M  V30 1530 H 138.856 -3.53073 1.23352 0
M  V30 1531 H 141.148 -6.69574 1.03328 0
M  V30 1532 H 142.091 -6.60408 2.55473 0
M  V30 1533 H 142.499 -5.5173 1.19392 0
M  V30 1534 N 141.898 -0.863906 -1.31812 0
M  V30 1535 C 142.83 -0.272485 -2.27575 0
M  V30 1536 C 143.843 0.56104 -1.52827 0
M  V30 1537 O 145.032 0.384021 -1.7432 0
M  V30 1538 C 142.132 0.63283 -3.32939 0
M  V30 1539 C 141.305 -0.166902 -4.37081 0
M  V30 1540 C 140.364 0.665608 -5.21973 0
M  V30 1541 O 139.39 0.0958091 -5.69119 0
M  V30 1542 N 140.592 1.9787 -5.45736 0
M  V30 1543 H 143.357 -1.0954 -2.78964 0
M  V30 1544 H 140.918 -0.724791 -1.4477 0
M  V30 1545 H 142.91 1.19532 -3.86645 0
M  V30 1546 H 141.48 1.35642 -2.81638 0
M  V30 1547 H 140.7 -0.910838 -3.83533 0
M  V30 1548 H 141.988 -0.715874 -5.03739 0
M  V30 1549 H 141.386 2.46484 -5.09178 0
M  V30 1550 H 139.943 2.48911 -6.024 0
M  V30 1551 N 143.376 1.44774 -0.622745 0
M  V30 1552 C 144.339 2.29069 0.0774015 0
M  V30 1553 C 145.339 1.4059 0.780461 0
M  V30 1554 O 146.529 1.62551 0.626322 0
M  V30 1555 C 143.661 3.21974 1.12006 0
M  V30 1556 H 144.854 2.92459 -0.663901 0
M  V30 1557 H 142.407 1.51548 -0.382486 0
M  V30 1558 H 143.142 2.63417 1.89162 0
M  V30 1559 H 142.927 3.87168 0.619951 0
M  V30 1560 H 144.417 3.85318 1.60995 0
M  V30 1561 N 144.854 0.36279 1.53368 0
M  V30 1562 C 145.817 -0.472679 2.24273 0
M  V30 1563 C 146.817 -1.012 1.24961 0
M  V30 1564 O 148.007 -0.898194 1.49259 0
M  V30 1565 C 145.139 -1.66039 2.97731 0
M  V30 1566 H 146.332 0.14773 2.99536 0
M  V30 1567 H 143.885 0.114434 1.55881 0
M  V30 1568 H 144.62 -2.31896 2.26704 0
M  V30 1569 H 144.405 -1.28066 3.70596 0
M  V30 1570 H 145.895 -2.25252 3.51641 0
M  V30 1571 N 146.332 -1.57332 0.0918853 0
M  V30 1572 C 147.262 -2.16872 -0.865371 0
M  V30 1573 C 148.243 -1.10118 -1.29646 0
M  V30 1574 O 149.428 -1.38242 -1.36392 0
M  V30 1575 C 146.558 -2.74649 -2.12569 0
M  V30 1576 C 145.512 -3.86747 -1.83333 0
M  V30 1577 C 144.838 -4.31212 -3.16166 0
M  V30 1578 C 146.138 -5.10089 -1.1228 0
M  V30 1579 H 147.832 -2.97114 -0.369307 0
M  V30 1580 H 145.378 -1.42918 -0.176194 0
M  V30 1581 H 147.331 -3.14952 -2.7997 0
M  V30 1582 H 146.055 -1.91657 -2.64452 0
M  V30 1583 H 144.714 -3.46978 -1.18331 0
M  V30 1584 H 144.362 -3.45115 -3.6593 0
M  V30 1585 H 144.062 -5.06788 -2.97388 0
M  V30 1586 H 145.586 -4.74146 -3.84731 0
M  V30 1587 H 147 -5.47582 -1.69785 0
M  V30 1588 H 145.397 -5.91073 -1.03693 0
M  V30 1589 H 146.467 -4.84786 -0.105041 0
M  V30 1590 N 147.81 0.181792 -1.56548 0
M  V30 1591 C 148.72 1.24538 -1.98815 0
M  V30 1592 C 149.736 1.49045 -0.897861 0
M  V30 1593 O 150.912 1.61399 -1.20467 0
M  V30 1594 C 147.977 2.56683 -2.33055 0
M  V30 1595 C 147.038 2.40131 -3.55859 0
M  V30 1596 C 146.271 3.65975 -3.88456 0
M  V30 1597 O 146.494 4.70711 -3.22161 0
M  V30 1598 O 145.428 3.6071 -4.81842 0
M  V30 1599 H 149.254 0.916647 -2.89536 0
M  V30 1600 H 146.839 0.387842 -1.44278 0
M  V30 1601 H 148.721 3.34655 -2.56094 0
M  V30 1602 H 147.396 2.89157 -1.45498 0
M  V30 1603 H 146.303 1.60226 -3.38051 0
M  V30 1604 H 147.636 2.12585 -4.43924 0
M  V30 1605 N 149.288 1.51039 0.449983 0
M  V30 1606 C 150.536 1.62759 1.19808 0
M  V30 1607 C 150.857 0.339981 1.92013 0
M  V30 1608 O 150.127 -0.643606 1.85026 0
M  V30 1609 H 148.707 0.599811 0.445237 0
M  V30 1610 H 151.369 1.87914 0.517138 0
M  V30 1611 H 150.465 2.44911 1.93455 0
M  V30 1612 N 150.766 -0.704594 1.40972 0
M  V30 1613 C 151.696 -1.83124 1.44872 0
M  V30 1614 C 152.677 -1.67281 0.30838 0
M  V30 1615 O 153.862 -1.87149 0.518556 0
M  V30 1616 C 150.992 -3.21181 1.32136 0
M  V30 1617 C 149.946 -3.51714 2.43888 0
M  V30 1618 C 149.272 -4.89032 2.16222 0
M  V30 1619 C 150.572 -3.516 3.86232 0
M  V30 1620 H 152.266 -1.80117 2.39161 0
M  V30 1621 H 149.812 -0.865145 1.15114 0
M  V30 1622 H 151.765 -3.99702 1.33479 0
M  V30 1623 H 150.489 -3.24791 0.343279 0
M  V30 1624 H 149.148 -2.75539 2.41813 0
M  V30 1625 H 148.796 -4.89256 1.16778 0
M  V30 1626 H 148.496 -5.10426 2.911 0
M  V30 1627 H 150.02 -5.69873 2.19265 0
M  V30 1628 H 151.434 -4.2014 3.9007 0
M  V30 1629 H 149.831 -3.84523 4.60719 0
M  V30 1630 H 150.901 -2.50757 4.15029 0
M  V30 1631 N 152.244 -1.26651 -0.937939 0
M  V30 1632 C 153.154 -1.10276 -2.07066 0
M  V30 1633 C 154.17 -0.0354197 -1.73964 0
M  V30 1634 O 155.346 -0.239816 -1.99967 0
M  V30 1635 C 152.411 -0.740887 -3.38691 0
M  V30 1636 C 151.472 -1.88799 -3.85556 0
M  V30 1637 C 150.705 -1.54329 -5.10899 0
M  V30 1638 O 150.928 -0.446494 -5.6865 0
M  V30 1639 O 149.862 -2.37911 -5.52885 0
M  V30 1640 H 153.688 -2.05309 -2.23789 0
M  V30 1641 H 151.273 -1.05743 -1.0554 0
M  V30 1642 H 153.155 -0.55195 -4.1777 0
M  V30 1643 H 151.83 0.180022 -3.23199 0
M  V30 1644 H 150.737 -2.13191 -3.07409 0
M  V30 1645 H 152.07 -2.78874 -4.05574 0
M  V30 1646 N 153.722 1.14298 -1.08507 0
M  V30 1647 C 154.632 2.23027 -0.727753 0
M  V30 1648 C 155.648 1.71952 0.26619 0
M  V30 1649 O 156.824 2.011 0.109882 0
M  V30 1650 C 153.889 3.46403 -0.143541 0
M  V30 1651 C 152.95 4.12413 -1.19223 0
M  V30 1652 C 152.183 5.29899 -0.635798 0
M  V30 1653 O 152.406 5.67796 0.544393 0
M  V30 1654 O 151.34 5.85717 -1.38634 0
M  V30 1655 H 155.166 2.55945 -1.63481 0
M  V30 1656 H 152.751 1.22248 -0.858817 0
M  V30 1657 H 154.633 4.21018 0.179404 0
M  V30 1658 H 153.308 3.15206 0.736659 0
M  V30 1659 H 152.215 3.39667 -1.56772 0
M  V30 1660 H 153.548 4.47718 -2.04474 0
M  V30 1661 N 155.201 0.870884 1.31352 0
M  V30 1662 C 156.449 0.48132 1.96285 0
M  V30 1663 C 156.77 -0.969813 1.69173 0
M  V30 1664 O 156.04 -1.67998 1.00764 0
M  V30 1665 H 154.62 0.175002 0.726212 0
M  V30 1666 H 157.282 1.11087 1.60143 0
M  V30 1667 H 156.378 0.639825 3.05471 0
M  V30 1668 N 156.679 -1.44442 0.630414 0
M  V30 1669 C 157.907 -2.06414 0.141671 0
M  V30 1670 C 158.322 -1.47105 -1.18345 0
M  V30 1671 O 157.679 -0.593662 -1.72574 0
M  V30 1672 C 157.73 -3.61494 0.0199784 0
M  V30 1673 O 157.451 -4.18594 1.29269 0
M  V30 1674 C 158.952 -4.40499 -0.497544 0
M  V30 1675 H 156.172 -0.666292 0.0793452 0
M  V30 1676 H 158.716 -1.85323 0.864614 0
M  V30 1677 H 156.871 -3.8185 -0.653402 0
M  V30 1678 H 157.285 -5.12026 1.13707 0
M  V30 1679 H 158.759 -5.49433 -0.531708 0
M  V30 1680 H 159.236 -4.11895 -1.52445 0
M  V30 1681 H 159.842 -4.25061 0.142562 0
M  V30 1682 N 158.157 -0.370918 -1.53173 0
M  V30 1683 C 159.568 0.107139 -1.86392 0
M  V30 1684 C 159.919 1.47714 -1.29132 0
M  V30 1685 O 159.044 2.07464 -0.615439 0
M  V30 1686 C 159.639 0.201187 -3.38202 0
M  V30 1687 C 158.198 0.623507 -3.712 0
M  V30 1688 C 157.345 -0.225978 -2.76378 0
M  V30 1689 H 160.296 -0.58951 -1.47345 0
M  V30 1690 H 160.317 1.02377 -3.66468 0
M  V30 1691 H 159.829 -0.796058 -3.79848 0
M  V30 1692 H 157.93 1.62879 -3.35114 0
M  V30 1693 H 158.043 0.394414 -4.77474 0
M  V30 1694 H 156.407 0.305962 -2.52856 0
M  V30 1695 H 157.19 -1.22086 -3.20858 0
M  V30 1696 N 159.635 1.57281 -0.100228 0
M  V30 1697 C 160.598 2.13158 0.842398 0
M  V30 1698 C 161.598 1.06202 1.20738 0
M  V30 1699 O 162.788 1.32066 1.13597 0
M  V30 1700 C 159.92 2.65639 2.13655 0
M  V30 1701 H 161.113 2.97766 0.357114 0
M  V30 1702 H 158.666 1.5559 0.148823 0
M  V30 1703 H 159.401 1.84566 2.66657 0
M  V30 1704 H 159.186 3.43844 1.88451 0
M  V30 1705 H 160.676 3.08846 2.81077 0
M  V30 1706 N 161.113 -0.173488 1.56642 0
M  V30 1707 C 162.361 -0.888706 1.81512 0
M  V30 1708 C 162.682 -1.82875 0.676872 0
M  V30 1709 O 161.952 -1.93536 -0.303414 0
M  V30 1710 H 160.532 -0.331164 0.669582 0
M  V30 1711 H 163.194 -0.173823 1.94123 0
M  V30 1712 H 162.29 -1.46691 2.75478 0
M  V30 1713 N 162.591 -1.51276 -0.441967 0
M  V30 1714 C 163.538 -1.72256 -1.53612 0
M  V30 1715 C 164.508 -0.564164 -1.56225 0
M  V30 1716 O 165.693 -0.798074 -1.73307 0
M  V30 1717 C 162.833 -1.84932 -2.91366 0
M  V30 1718 C 161.946 -3.12459 -2.98317 0
M  V30 1719 C 161.081 -3.15758 -4.27166 0
M  V30 1720 C 160.12 -4.37619 -4.27967 0
M  V30 1721 N 159.257 -4.38493 -5.48333 0
M  V30 1722 H 164.097 -2.65654 -1.35026 0
M  V30 1723 H 161.634 -1.31662 -0.656009 0
M  V30 1724 H 163.592 -1.90263 -3.7129 0
M  V30 1725 H 162.222 -0.949461 -3.08521 0
M  V30 1726 H 161.274 -3.1646 -2.11086 0
M  V30 1727 H 162.586 -4.02382 -2.94771 0
M  V30 1728 H 161.74 -3.19979 -5.15459 0
M  V30 1729 H 160.479 -2.23715 -4.33362 0
M  V30 1730 H 159.484 -4.33579 -3.38067 0
M  V30 1731 H 160.709 -5.30921 -4.23438 0
M  V30 1732 H 158.655 -3.49318 -5.55259 0
M  V30 1733 H 158.572 -5.22219 -5.46647 0
M  V30 1734 H 159.84 -4.469 -6.38671 0
M  V30 1735 N 164.069 0.697108 -1.41344 0
M  V30 1736 C 165.016 1.81106 -1.43071 0
M  V30 1737 C 165.986 1.63632 -0.285275 0
M  V30 1738 O 167.171 1.84504 -0.486091 0
M  V30 1739 C 164.311 3.18975 -1.31715 0
M  V30 1740 C 163.424 3.47892 -2.56115 0
M  V30 1741 C 162.559 4.75367 -2.37064 0
M  V30 1742 C 161.598 4.97247 -3.56948 0
M  V30 1743 N 160.735 6.15947 -3.36977 0
M  V30 1744 H 165.575 1.78965 -2.38276 0
M  V30 1745 H 163.112 0.873975 -1.18322 0
M  V30 1746 H 165.07 3.98615 -1.23133 0
M  V30 1747 H 163.7 3.20297 -0.401183 0
M  V30 1748 H 162.752 2.62669 -2.75153 0
M  V30 1749 H 164.064 3.59962 -3.45295 0
M  V30 1750 H 163.218 5.63059 -2.25941 0
M  V30 1751 H 161.957 4.65541 -1.45338 0
M  V30 1752 H 160.962 4.08004 -3.68527 0
M  V30 1753 H 162.187 5.08934 -4.49626 0
M  V30 1754 H 160.133 6.07336 -2.47949 0
M  V30 1755 H 160.05 6.28777 -4.19732 0
M  V30 1756 H 161.318 7.06377 -3.29623 0
M  V30 1757 N 165.547 1.27147 0.931209 0
M  V30 1758 C 166.963 1.04475 1.20653 0
M  V30 1759 C 167.163 -0.223885 2.00252 0
M  V30 1760 O 166.219 -0.930332 2.34736 0
M  V30 1761 C 167.532 2.28209 1.95809 0
M  V30 1762 C 169.08 2.33211 2.08762 0
M  V30 1763 C 169.555 3.56665 2.87323 0
M  V30 1764 N 171.046 3.57201 2.94892 0
M  V30 1765 C 171.781 4.49395 3.56134 0
M  V30 1766 N 171.277 5.51889 4.18796 0
M  V30 1767 N 173.07 4.37026 3.53504 0
M  V30 1768 H 165.221 2.08612 0.399333 0
M  V30 1769 H 167.484 0.917312 0.239253 0
M  V30 1770 H 167.19 3.20538 1.44736 0
M  V30 1771 H 167.064 2.33247 2.96438 0
M  V30 1772 H 169.451 1.41391 2.59023 0
M  V30 1773 H 169.532 2.32178 1.07364 0
M  V30 1774 H 169.176 4.4882 2.37746 0
M  V30 1775 H 169.106 3.54948 3.88998 0
M  V30 1776 H 171.597 2.83074 2.50354 0
M  V30 1777 H 171.91 6.18409 4.63454 0
M  V30 1778 H 170.255 5.55735 4.17353 0
M  V30 1779 H 173.446 3.56166 3.03749 0
M  V30 1780 H 173.619 5.09067 4.00942 0
M  V30 1781 N 167.025 -1.13721 1.09112 0
M  V30 1782 C 168.436 -1.6648 0.845068 0
M  V30 1783 C 168.787 -1.85911 -0.62701 0
M  V30 1784 O 167.912 -1.57556 -1.48341 0
M  V30 1785 C 168.507 -3.02413 1.52748 0
M  V30 1786 C 167.066 -3.52176 1.32849 0
M  V30 1787 C 166.213 -2.27492 1.58564 0
M  V30 1788 H 169.164 -0.976872 1.25072 0
M  V30 1789 H 169.185 -3.68223 0.958752 0
M  V30 1790 H 168.697 -2.88238 2.59885 0
M  V30 1791 H 166.798 -3.7156 0.278137 0
M  V30 1792 H 166.911 -4.32499 2.0611 0
M  V30 1793 H 165.275 -2.33923 1.00758 0
M  V30 1794 H 166.058 -2.15886 2.66924 0
M  V30 1795 N 168.503 -0.877838 -1.30888 0
M  V30 1796 C 169.728 -0.506629 -2.01117 0
M  V30 1797 C 170.153 0.895564 -1.65412 0
M  V30 1798 O 169.511 1.5923 -0.866922 0
M  V30 1799 C 169.559 -0.680223 -3.54126 0
M  V30 1800 O 168.663 0.277033 -4.11468 0
M  V30 1801 H 168.004 -0.200518 -0.633 0
M  V30 1802 H 170.534 -1.18342 -1.66902 0
M  V30 1803 H 170.544 -0.5765 -4.03907 0
M  V30 1804 H 169.219 -1.70261 -3.79452 0
M  V30 1805 H 167.796 0.127606 -3.72682 0
M  V30 1806 N 169.982 1.44106 -0.638065 0
M  V30 1807 C 170.912 2.33448 0.0494287 0
M  V30 1808 C 171.893 1.48606 0.827672 0
M  V30 1809 O 173.078 1.77308 0.792173 0
M  V30 1810 C 170.208 3.31771 1.02691 0
M  V30 1811 C 169.162 4.26485 0.359823 0
M  V30 1812 C 168.488 5.14729 1.44769 0
M  V30 1813 C 169.788 5.17056 -0.738296 0
M  V30 1814 H 171.482 2.91183 -0.696636 0
M  V30 1815 H 169.028 1.40014 -0.336456 0
M  V30 1816 H 170.981 3.93161 1.51666 0
M  V30 1817 H 169.705 2.7226 1.80395 0
M  V30 1818 H 168.364 3.66437 -0.10934 0
M  V30 1819 H 168.012 4.51566 2.21578 0
M  V30 1820 H 167.712 5.78913 1.00668 0
M  V30 1821 H 169.236 5.78991 1.93911 0
M  V30 1822 H 170.65 5.72342 -0.331354 0
M  V30 1823 H 169.047 5.89879 -1.10286 0
M  V30 1824 H 170.117 4.57652 -1.60258 0
M  V30 1825 N 171.46 0.379036 1.52974 0
M  V30 1826 C 172.709 -0.207612 2.00629 0
M  V30 1827 C 173.022 -1.48758 1.27006 0
M  V30 1828 O 174.228 -2.15365 1.65318 0
M  V30 1829 C 172.684 -0.42053 3.57435 0
M  V30 1830 C 172.292 0.845587 4.39948 0
M  V30 1831 C 174.036 -0.964102 4.13407 0
M  V30 1832 C 171.943 0.601513 5.88333 0
M  V30 1833 H 170.873 -0.0813591 0.749598 0
M  V30 1834 H 173.524 0.499853 1.76561 0
M  V30 1835 H 171.906 -1.18959 3.7771 0
M  V30 1836 H 173.08 1.61848 4.31442 0
M  V30 1837 H 171.395 1.31336 3.95145 0
M  V30 1838 H 173.992 -1.16225 5.21916 0
M  V30 1839 H 174.335 -1.93019 3.68849 0
M  V30 1840 H 174.868 -0.25487 3.96983 0
M  V30 1841 H 171.607 1.53831 6.37194 0
M  V30 1842 H 171.127 -0.132628 5.99653 0
M  V30 1843 H 172.806 0.232134 6.46583 0
M  V30 1844 N 172.938 -1.57226 0.108567 0
M  V30 1845 C 173.901 -2.13602 -0.831082 0
M  V30 1846 C 174.901 -1.06841 -1.20173 0
M  V30 1847 O 176.091 -1.32666 -1.12895 0
M  V30 1848 C 173.223 -2.66769 -2.12243 0
M  V30 1849 H 174.416 -2.97951 -0.341317 0
M  V30 1850 H 171.969 -1.55667 -0.14057 0
M  V30 1851 H 172.704 -1.85977 -2.65675 0
M  V30 1852 H 172.489 -3.44839 -1.86625 0
M  V30 1853 H 173.979 -3.10332 -2.79435 0
M  V30 1854 N 174.416 0.165178 -1.56732 0
M  V30 1855 C 175.662 0.882112 -1.82611 0
M  V30 1856 C 175.995 1.81628 -0.687378 0
M  V30 1857 O 175.27 1.92009 0.310267 0
M  V30 1858 C 175.553 1.67245 -3.18906 0
M  V30 1859 C 175.406 0.760987 -4.43316 0
M  V30 1860 C 176.725 2.63884 -3.52212 0
M  V30 1861 H 173.844 0.319242 -0.664269 0
M  V30 1862 H 176.486 0.148052 -1.89422 0
M  V30 1863 H 174.636 2.29824 -3.1323 0
M  V30 1864 H 176.308 0.147596 -4.61064 0
M  V30 1865 H 174.551 0.0694102 -4.33744 0
M  V30 1866 H 175.222 1.34962 -5.35247 0
M  V30 1867 H 177.698 2.11429 -3.58381 0
M  V30 1868 H 176.574 3.16245 -4.48643 0
M  V30 1869 H 176.835 3.44377 -2.77231 0
M  V30 1870 N 175.894 1.51508 0.433938 0
M  V30 1871 C 177.122 1.68157 1.20543 0
M  V30 1872 C 177.537 0.380362 1.84929 0
M  V30 1873 O 176.894 -0.641446 1.70856 0
M  V30 1874 C 176.945 2.79965 2.28696 0
M  V30 1875 O 176.666 4.05045 1.66943 0
M  V30 1876 C 178.167 3.07912 3.18912 0
M  V30 1877 H 175.387 0.56421 0.363191 0
M  V30 1878 H 177.931 1.97941 0.513754 0
M  V30 1879 H 176.086 2.5277 2.93574 0
M  V30 1880 H 176.5 4.67165 2.38448 0
M  V30 1881 H 177.974 3.89719 3.90926 0
M  V30 1882 H 178.451 2.20456 3.79863 0
M  V30 1883 H 179.057 3.36779 2.59731 0
M  V30 1884 N 177.372 -0.689602 1.41712 0
M  V30 1885 C 178.304 -1.815 1.39966 0
M  V30 1886 C 179.317 -1.59995 0.300917 0
M  V30 1887 O 180.506 -1.69387 0.563039 0
M  V30 1888 C 177.606 -3.18364 1.16179 0
M  V30 1889 C 176.779 -3.66847 2.38206 0
M  V30 1890 C 175.838 -4.82398 2.10186 0
M  V30 1891 O 174.864 -4.93706 2.83272 0
M  V30 1892 N 176.066 -5.70064 1.0958 0
M  V30 1893 H 178.831 -1.83488 2.36965 0
M  V30 1894 H 176.392 -0.872149 1.36401 0
M  V30 1895 H 178.384 -3.93301 0.953756 0
M  V30 1896 H 176.954 -3.11365 0.27756 0
M  V30 1897 H 176.174 -2.82751 2.74673 0
M  V30 1898 H 177.462 -3.95978 3.19498 0
M  V30 1899 H 176.86 -5.63565 0.491019 0
M  V30 1900 H 175.417 -6.44874 0.947656 0
M  V30 1901 N 178.85 -1.27639 -0.924453 0
M  V30 1902 C 179.78 -1.13166 -2.04244 0
M  V30 1903 C 180.761 -0.032256 -1.70069 0
M  V30 1904 O 181.946 -0.207328 -1.9309 0
M  V30 1905 C 179.076 -0.781496 -3.38393 0
M  V30 1906 C 178.03 -1.83449 -3.86692 0
M  V30 1907 C 177.356 -1.33822 -5.17683 0
M  V30 1908 C 178.656 -3.23917 -4.09726 0
M  V30 1909 H 180.35 -2.06689 -2.1661 0
M  V30 1910 H 177.896 -0.995136 -1.04082 0
M  V30 1911 H 179.849 -0.667057 -4.16087 0
M  V30 1912 H 178.573 0.189439 -3.2605 0
M  V30 1913 H 177.232 -1.93789 -3.11193 0
M  V30 1914 H 176.88 -0.35665 -5.01734 0
M  V30 1915 H 176.58 -2.04224 -5.50968 0
M  V30 1916 H 178.104 -1.23679 -5.97943 0
M  V30 1917 H 179.518 -3.16559 -4.77978 0
M  V30 1918 H 177.915 -3.92059 -4.54324 0
M  V30 1919 H 178.985 -3.68729 -3.14908 0
M  V30 1920 N 180.328 1.1314 -1.09713 0
M  V30 1921 C 181.556 1.88321 -0.856898 0
M  V30 1922 C 181.971 1.79276 0.592073 0
M  V30 1923 O 181.328 1.16142 1.40774 0
M  V30 1924 C 181.379 3.37812 -1.28706 0
M  V30 1925 O 181.1 3.46627 -2.67921 0
M  V30 1926 C 182.601 4.29952 -1.07964 0
M  V30 1927 H 179.821 0.596094 -0.308079 0
M  V30 1928 H 182.365 1.43205 -1.45988 0
M  V30 1929 H 180.52 3.805 -0.727912 0
M  V30 1930 H 180.934 4.39579 -2.8613 0
M  V30 1931 H 182.408 5.33159 -1.42986 0
M  V30 1932 H 182.885 4.39196 -0.0176577 0
M  V30 1933 H 183.491 3.93036 -1.62489 0
M  V30 1934 N 181.806 0.884767 1.30421 0
M  V30 1935 C 183.031 0.517288 2.00845 0
M  V30 1936 C 183.456 -0.886779 1.65885 0
M  V30 1937 O 182.814 -1.58768 0.875354 0
M  V30 1938 C 182.862 0.698994 3.5376 0
M  V30 1939 O 181.966 -0.255208 4.1161 0
M  V30 1940 H 181.307 0.203872 0.631927 0
M  V30 1941 H 183.837 1.19225 1.66272 0
M  V30 1942 H 183.847 0.597912 4.03595 0
M  V30 1943 H 182.522 1.72271 3.78544 0
M  V30 1944 H 181.099 -0.10784 3.72744 0
M  V30 1945 N 183.284 -1.43765 0.645699 0
M  V30 1946 C 184.512 -2.06253 0.163556 0
M  V30 1947 C 184.927 -1.48352 -1.16778 0
M  V30 1948 O 184.284 -0.611932 -1.71935 0
M  V30 1949 C 184.335 -3.61453 0.0583186 0
M  V30 1950 O 184.056 -4.172 1.33702 0
M  V30 1951 C 185.557 -4.41002 -0.450795 0
M  V30 1952 H 182.777 -0.665413 0.0864077 0
M  V30 1953 H 185.321 -1.84396 0.884222 0
M  V30 1954 H 183.476 -3.82522 -0.612865 0
M  V30 1955 H 183.89 -5.10791 1.19131 0
M  V30 1956 H 185.364 -5.49966 -0.473403 0
M  V30 1957 H 185.841 -4.13488 -1.48068 0
M  V30 1958 H 186.447 -4.24886 0.187637 0
M  V30 1959 N 184.763 -0.387143 -1.52771 0
M  V30 1960 C 185.988 0.198407 -2.06449 0
M  V30 1961 C 186.413 1.39918 -1.25716 0
M  V30 1962 O 185.771 1.79099 -0.281657 0
M  V30 1963 C 185.819 0.548893 -3.56398 0
M  V30 1964 O 184.923 1.64315 -3.78252 0
M  V30 1965 H 184.264 0.0237731 -0.663574 0
M  V30 1966 H 186.794 -0.553989 -1.96957 0
M  V30 1967 H 186.804 0.813812 -3.99801 0
M  V30 1968 H 185.479 -0.329005 -4.14597 0
M  V30 1969 H 184.056 1.37211 -3.46738 0
M  V30 1970 N 186.241 1.57166 -0.116904 0
M  V30 1971 C 187.151 2.18745 0.847812 0
M  V30 1972 C 188.167 1.163 1.29423 0
M  V30 1973 O 189.343 1.48761 1.35765 0
M  V30 1974 C 186.408 2.77307 2.0809 0
M  V30 1975 C 185.469 3.94781 1.68661 0
M  V30 1976 C 184.702 4.50541 2.86091 0
M  V30 1977 O 184.925 4.05202 4.01456 0
M  V30 1978 O 183.859 5.41256 2.63298 0
M  V30 1979 H 187.685 3.01632 0.353778 0
M  V30 1980 H 185.27 1.49005 0.108599 0
M  V30 1981 H 187.152 3.14647 2.80313 0
M  V30 1982 H 185.827 1.97452 2.56504 0
M  V30 1983 H 184.734 3.62214 0.935518 0
M  V30 1984 H 186.067 4.76065 1.24991 0
M  V30 1985 N 187.719 -0.156864 1.56817 0
M  V30 1986 C 188.651 -1.21883 1.94106 0
M  V30 1987 C 189.664 -1.3971 0.835754 0
M  V30 1988 O 190.853 -1.39457 1.11418 0
M  V30 1989 C 187.953 -2.58527 2.19127 0
M  V30 1990 C 187.126 -2.61809 3.50393 0
M  V30 1991 C 186.185 -3.7992 3.64071 0
M  V30 1992 O 185.211 -3.65249 4.36557 0
M  V30 1993 N 186.413 -4.96973 2.99997 0
M  V30 1994 H 189.178 -0.901974 2.85805 0
M  V30 1995 H 186.739 -0.346513 1.58148 0
M  V30 1996 H 188.731 -3.36034 2.25529 0
M  V30 1997 H 187.301 -2.82545 1.33742 0
M  V30 1998 H 186.521 -1.7029 3.5552 0
M  V30 1999 H 187.809 -2.61024 4.36742 0
M  V30 2000 H 187.207 -5.11794 2.41004 0
M  V30 2001 H 185.764 -5.7229 3.11974 0
M  V30 2002 N 189.197 -1.51736 -0.425897 0
M  V30 2003 C 190.446 -1.64201 -1.17136 0
M  V30 2004 C 190.759 -0.369705 -1.92074 0
M  V30 2005 O 191.965 -0.373898 -2.68913 0
M  V30 2006 C 190.421 -2.90035 -2.13091 0
M  V30 2007 C 190.029 -4.24312 -1.43747 0
M  V30 2008 C 191.773 -3.1186 -2.87999 0
M  V30 2009 C 189.68 -5.41285 -2.38253 0
M  V30 2010 H 188.61 -0.611624 -0.440944 0
M  V30 2011 H 191.261 -1.78212 -0.437328 0
M  V30 2012 H 189.643 -2.69684 -2.89977 0
M  V30 2013 H 190.817 -4.55086 -0.723408 0
M  V30 2014 H 189.132 -4.08456 -0.809465 0
M  V30 2015 H 191.729 -3.96427 -3.58817 0
M  V30 2016 H 192.072 -2.25403 -3.49999 0
M  V30 2017 H 192.605 -3.32605 -2.18217 0
M  V30 2018 H 189.344 -6.30037 -1.80925 0
M  V30 2019 H 188.864 -5.14872 -3.0768 0
M  V30 2020 H 190.543 -5.73694 -2.99139 0
M  V30 2021 N 190.675 0.682077 -1.42076 0
M  V30 2022 C 191.608 1.80666 -1.3941 0
M  V30 2023 C 192.586 1.60518 -0.25939 0
M  V30 2024 O 193.77 1.83088 -0.448456 0
M  V30 2025 C 190.897 3.17556 -1.17796 0
M  V30 2026 C 189.943 3.56468 -2.34164 0
M  V30 2027 S 190.776 3.59729 -3.96681 0
M  V30 2028 C 191.932 4.99323 -3.77395 0
M  V30 2029 H 192.165 1.82652 -2.34575 0
M  V30 2030 H 189.698 0.852062 -1.2876 0
M  V30 2031 H 191.656 3.96575 -1.06012 0
M  V30 2032 H 190.317 3.13164 -0.242279 0
M  V30 2033 H 189.51 4.5595 -2.1477 0
M  V30 2034 H 189.112 2.84792 -2.42425 0
M  V30 2035 H 191.404 5.87202 -3.37935 0
M  V30 2036 H 192.347 5.23763 -4.76527 0
M  V30 2037 H 192.755 4.71498 -3.10403 0
M  V30 2038 N 192.153 1.28127 0.917671 0
M  V30 2039 C 193.1 1.11717 2.0196 0
M  V30 2040 C 194.07 0.0153929 1.66093 0
M  V30 2041 O 195.255 0.179596 1.89953 0
M  V30 2042 C 192.395 0.780927 3.36148 0
M  V30 2043 C 191.508 1.96135 3.84909 0
M  V30 2044 C 190.643 1.56609 5.0759 0
M  V30 2045 C 189.682 2.71339 5.48673 0
M  V30 2046 N 188.819 2.32332 6.62545 0
M  V30 2047 H 193.659 2.06003 2.15329 0
M  V30 2048 H 191.196 1.02535 1.05475 0
M  V30 2049 H 193.154 0.56675 4.13333 0
M  V30 2050 H 191.784 -0.124998 3.22558 0
M  V30 2051 H 190.836 2.28777 3.03916 0
M  V30 2052 H 192.148 2.82165 4.1132 0
M  V30 2053 H 191.302 1.31374 5.92305 0
M  V30 2054 H 190.041 0.677014 4.82978 0
M  V30 2055 H 189.046 2.97276 4.62501 0
M  V30 2056 H 190.271 3.60882 5.75274 0
M  V30 2057 H 188.217 1.45889 6.39572 0
M  V30 2058 H 188.134 3.11899 6.88662 0
M  V30 2059 H 189.402 2.10371 7.50576 0
M  V30 2060 N 193.631 -1.12557 1.10312 0
M  V30 2061 C 194.908 -1.80363 0.756878 0
M  V30 2062 C 195.288 -1.97067 -0.756824 0
M  V30 2063 O 194.636 -1.54601 -1.68259 0
M  V30 2064 C 194.846 -3.14812 1.50647 0
M  V30 2065 C 196.194 -3.90029 1.67817 0
M  V30 2066 O 197.218 -3.24464 1.46974 0
M  V30 2067 O 196.077 -5.07652 2.02365 0
M  V30 2068 H 193.171 -0.780667 0.272926 0
M  V30 2069 H 195.717 -1.19404 1.20586 0
M  V30 2070 H 194.489 -2.97936 2.53672 0
M  V30 2071 H 194.112 -3.83478 1.05026 0
M  V30 2072 N 195.109 -0.891671 -1.2995 0
M  V30 2073 C 196.019 -0.367691 -2.31701 0
M  V30 2074 C 197.035 0.533486 -1.6562 0
M  V30 2075 O 198.211 0.424997 -1.96865 0
M  V30 2076 C 195.276 0.403406 -3.44345 0
M  V30 2077 C 194.337 -0.528328 -4.26037 0
M  V30 2078 C 193.57 0.206063 -5.33302 0
M  V30 2079 O 193.793 1.43119 -5.52153 0
M  V30 2080 O 192.727 -0.447281 -6.00236 0
M  V30 2081 H 196.553 -1.21163 -2.78484 0
M  V30 2082 H 194.138 -0.655725 -1.34241 0
M  V30 2083 H 196.02 0.839753 -4.12948 0
M  V30 2084 H 194.695 1.22354 -2.99685 0
M  V30 2085 H 193.602 -1.01362 -3.60106 0
M  V30 2086 H 194.935 -1.31465 -4.74318 0
M  V30 2087 N 196.587 1.43421 -0.653314 0
M  V30 2088 C 197.517 2.33487 0.0246656 0
M  V30 2089 C 198.498 1.49475 0.811863 0
M  V30 2090 O 199.683 1.78139 0.773322 0
M  V30 2091 C 196.813 3.32841 0.99166 0
M  V30 2092 C 195.767 4.26842 0.314568 0
M  V30 2093 C 195.093 5.16236 1.39302 0
M  V30 2094 C 196.393 5.16243 -0.793095 0
M  V30 2095 H 198.087 2.90427 -0.727481 0
M  V30 2096 H 195.633 1.39649 -0.351287 0
M  V30 2097 H 197.586 3.94747 1.47487 0
M  V30 2098 H 196.31 2.74158 1.77497 0
M  V30 2099 H 194.969 3.663 -0.148199 0
M  V30 2100 H 194.617 4.53891 2.16776 0
M  V30 2101 H 194.317 5.79948 0.945223 0
M  V30 2102 H 195.841 5.81015 1.87759 0
M  V30 2103 H 197.255 5.71958 -0.392039 0
M  V30 2104 H 195.652 5.88676 -1.16536 0
M  V30 2105 H 196.722 4.55927 -1.65103 0
M  V30 2106 N 198.065 0.39524 1.52563 0
M  V30 2107 C 198.995 -0.428384 2.29537 0
M  V30 2108 C 199.976 -1.05831 1.33169 0
M  V30 2109 O 201.161 -1.06995 1.62067 0
M  V30 2110 C 198.291 -1.55274 3.10656 0
M  V30 2111 C 197.245 -1.04855 4.14957 0
M  V30 2112 C 196.571 -2.26543 4.84337 0
M  V30 2113 C 197.871 -0.112324 5.22179 0
M  V30 2114 H 199.565 0.213867 2.98635 0
M  V30 2115 H 197.111 0.104298 1.43622 0
M  V30 2116 H 199.064 -2.1358 3.63265 0
M  V30 2117 H 197.788 -2.22266 2.39302 0
M  V30 2118 H 196.447 -0.487985 3.63338 0
M  V30 2119 H 196.095 -2.92059 4.09525 0
M  V30 2120 H 195.795 -1.93466 5.54837 0
M  V30 2121 H 197.319 -2.85481 5.39753 0
M  V30 2122 H 198.733 -0.603752 5.70112 0
M  V30 2123 H 197.13 0.128968 5.99961 0
M  V30 2124 H 198.2 0.837052 4.77621 0
M  V30 2125 N 199.544 -1.57102 0.125237 0
M  V30 2126 C 200.793 -1.94582 -0.531095 0
M  V30 2127 C 201.106 -1.01126 -1.6743 0
M  V30 2128 O 202.312 -1.28097 -2.39381 0
M  V30 2129 C 200.768 -3.45839 -0.996164 0
M  V30 2130 C 200.376 -4.47842 0.118926 0
M  V30 2131 C 202.12 -3.92227 -1.62352 0
M  V30 2132 C 200.027 -5.90284 -0.363192 0
M  V30 2133 H 198.957 -0.726391 -0.20217 0
M  V30 2134 H 201.608 -1.82339 0.206092 0
M  V30 2135 H 199.99 -3.53338 -1.78796 0
M  V30 2136 H 201.164 -4.52018 0.895358 0
M  V30 2137 H 199.479 -4.11243 0.653324 0
M  V30 2138 H 202.076 -4.96069 -1.99548 0
M  V30 2139 H 202.419 -3.32552 -2.50429 0
M  V30 2140 H 202.952 -3.87554 -0.897019 0
M  V30 2141 H 199.691 -6.53728 0.481679 0
M  V30 2142 H 199.211 -5.89515 -1.10597 0
M  V30 2143 H 200.89 -6.41752 -0.822377 0
M  V30 2144 N 201.022 0.148545 -1.56898 0
M  V30 2145 C 201.932 1.20293 -2.01412 0
M  V30 2146 C 202.948 1.47107 -0.929273 0
M  V30 2147 O 204.124 1.58807 -1.23863 0
M  V30 2148 C 201.189 2.51682 -2.38447 0
M  V30 2149 C 200.25 2.32529 -3.60872 0
M  V30 2150 C 199.483 3.57653 -3.96132 0
M  V30 2151 O 199.706 4.63771 -3.32073 0
M  V30 2152 O 198.64 3.50408 -4.89385 0
M  V30 2153 H 202.466 0.855025 -2.91416 0
M  V30 2154 H 200.051 0.357151 -1.45068 0
M  V30 2155 H 201.933 3.29147 -2.63135 0
M  V30 2156 H 200.608 2.86006 -1.51599 0
M  V30 2157 H 199.515 1.53019 -3.41373 0
M  V30 2158 H 200.848 2.03121 -4.48333 0
M  V30 2159 N 202.5 1.5196 0.417844 0
M  V30 2160 C 203.447 1.74678 1.50852 0
M  V30 2161 C 204.417 0.588947 1.55308 0
M  V30 2162 O 205.602 0.825544 1.72016 0
M  V30 2163 C 202.742 1.89544 2.88387 0
M  V30 2164 C 201.855 3.17166 2.93309 0
M  V30 2165 C 200.99 3.22513 4.22088 0
M  V30 2166 C 200.029 4.44372 4.20951 0
M  V30 2167 N 199.166 4.47161 5.41287 0
M  V30 2168 H 204.006 2.67768 1.30783 0
M  V30 2169 H 201.543 1.32689 0.63498 0
M  V30 2170 H 203.501 1.96146 3.68216 0
M  V30 2171 H 202.131 0.998424 3.06971 0
M  V30 2172 H 201.183 3.19778 2.06024 0
M  V30 2173 H 202.495 4.07021 2.88332 0
M  V30 2174 H 201.649 3.28139 5.10303 0
M  V30 2175 H 200.388 2.30581 4.29748 0
M  V30 2176 H 199.393 4.38902 3.31127 0
M  V30 2177 H 200.618 5.3759 4.14938 0
M  V30 2178 H 198.564 3.58108 5.49632 0
M  V30 2179 H 198.481 5.3085 5.3827 0
M  V30 2180 H 199.749 4.57005 6.3148 0
M  V30 2181 N 203.978 -0.674533 1.42435 0
M  V30 2182 C 205.203 -1.46784 1.46524 0
M  V30 2183 C 205.628 -1.87938 0.078066 0
M  V30 2184 O 204.986 -1.56014 -0.92354 0
M  V30 2185 C 205.034 -2.69307 2.39805 0
M  V30 2186 O 204.138 -3.67587 1.86959 0
M  V30 2187 H 203.479 -0.440959 0.496439 0
M  V30 2188 H 206.009 -0.827326 1.87127 0
M  V30 2189 H 206.019 -3.17374 2.56393 0
M  V30 2190 H 204.694 -2.38692 3.40586 0
M  V30 2191 H 203.271 -3.2662 1.79927 0
M  V30 2192 N 205.456 -1.28612 -0.910864 0
M  V30 2193 C 206.386 -1.15326 -2.03032 0
M  V30 2194 C 207.367 -0.0502924 -1.70026 0
M  V30 2195 O 208.552 -0.227797 -1.92859 0
M  V30 2196 C 205.682 -0.817343 -3.37545 0
M  V30 2197 C 204.636 -1.8754 -3.84724 0
M  V30 2198 C 203.962 -1.39305 -5.16235 0
M  V30 2199 C 205.262 -3.28244 -4.06267 0
M  V30 2200 H 206.956 -2.08975 -2.14406 0
M  V30 2201 H 204.502 -1.00612 -1.03021 0
M  V30 2202 H 206.455 -0.711151 -4.15356 0
M  V30 2203 H 205.179 0.154846 -3.26233 0
M  V30 2204 H 203.838 -1.97079 -3.09121 0
M  V30 2205 H 203.486 -0.409846 -5.01328 0
M  V30 2206 H 203.186 -2.10057 -5.48771 0
M  V30 2207 H 204.71 -1.30014 -5.96598 0
M  V30 2208 H 206.124 -3.21611 -4.74594 0
M  V30 2209 H 204.521 -3.96855 -4.5014 0
M  V30 2210 H 205.591 -3.72048 -3.10979 0
M  V30 2211 N 206.934 1.1197 -1.10907 0
M  V30 2212 C 208.183 1.82947 -0.849302 0
M  V30 2213 C 208.496 1.85275 0.627112 0
M  V30 2214 O 209.702 2.52296 1.00295 0
M  V30 2215 C 208.158 3.28529 -1.46959 0
M  V30 2216 C 207.766 3.34546 -2.97965 0
M  V30 2217 C 209.51 4.04443 -1.28942 0
M  V30 2218 C 207.417 4.74491 -3.53004 0
M  V30 2219 H 206.347 0.685477 -0.314065 0
M  V30 2220 H 208.998 1.2604 -1.33365 0
M  V30 2221 H 207.38 3.85333 -0.912917 0
M  V30 2222 H 208.554 2.87654 -3.59989 0
M  V30 2223 H 206.869 2.72108 -3.15192 0
M  V30 2224 H 209.466 5.07787 -1.67502 0
M  V30 2225 H 209.809 4.15656 -0.231456 0
M  V30 2226 H 210.342 3.5401 -1.81443 0
M  V30 2227 H 207.081 4.68474 -4.58489 0
M  V30 2228 H 206.601 5.21816 -2.9575 0
M  V30 2229 H 208.28 5.4344 -3.51115 0
M  V30 2230 N 208.412 0.89855 1.29475 0
M  V30 2231 C 209.689 0.443416 1.90508 0
M  V30 2232 C 210.069 -1.07685 1.81569 0
M  V30 2233 O 209.417 -1.9182 1.24166 0
M  V30 2234 C 209.627 0.956708 3.35631 0
M  V30 2235 C 210.975 0.999728 4.12663 0
M  V30 2236 O 211.999 0.904299 3.4453 0
M  V30 2237 O 210.858 1.14289 5.34416 0
M  V30 2238 H 207.952 0.138025 0.815401 0
M  V30 2239 H 210.498 0.98834 1.37949 0
M  V30 2240 H 209.27 2.00067 3.36287 0
M  V30 2241 H 208.893 0.391728 3.95666 0
M  V30 2242 N 209.89 -1.43072 0.660911 0
M  V30 2243 C 211.118 -2.06067 0.185422 0
M  V30 2244 C 211.533 -1.49582 -1.15198 0
M  V30 2245 O 210.89 -0.630134 -1.71276 0
M  V30 2246 C 210.941 -3.61371 0.0966523 0
M  V30 2247 O 210.662 -4.15758 1.38119 0
M  V30 2248 C 212.163 -4.41455 -0.403996 0
M  V30 2249 H 209.383 -0.664459 0.0934604 0
M  V30 2250 H 211.927 -1.83447 0.90373 0
M  V30 2251 H 210.082 -3.8315 -0.572259 0
M  V30 2252 H 210.496 -5.09499 1.24542 0
M  V30 2253 H 211.97 -5.50437 -0.415045 0
M  V30 2254 H 212.447 -4.15036 -1.43674 0
M  V30 2255 H 213.053 -4.24663 0.232691 0
M  V30 2256 N 211.368 -0.403325 -1.52352 0
M  V30 2257 C 212.614 0.174605 -2.02047 0
M  V30 2258 C 212.947 1.45282 -1.28867 0
M  V30 2259 O 212.222 1.90483 -0.393257 0
M  V30 2260 C 212.505 0.428238 -3.57545 0
M  V30 2261 C 212.358 -0.866248 -4.4138 0
M  V30 2262 C 213.677 1.21287 -4.23057 0
M  V30 2263 H 210.796 0.0619851 -0.734389 0
M  V30 2264 H 213.438 -0.53565 -1.82293 0
M  V30 2265 H 211.588 1.03327 -3.74507 0
M  V30 2266 H 213.26 -1.50265 -4.3614 0
M  V30 2267 H 211.503 -1.47851 -4.07827 0
M  V30 2268 H 212.174 -0.643249 -5.48239 0
M  V30 2269 H 214.65 0.700703 -4.10158 0
M  V30 2270 H 213.526 1.35909 -5.31808 0
M  V30 2271 H 213.787 2.23193 -3.81625 0
M  V30 2272 N 212.846 1.57033 -0.133567 0
M  V30 2273 C 214.092 1.95976 0.521649 0
M  V30 2274 C 214.425 1.01779 1.65393 0
M  V30 2275 O 213.7 0.0576581 1.94415 0
M  V30 2276 C 213.983 3.44738 1.04057 0
M  V30 2277 C 213.836 4.49711 -0.0892897 0
M  V30 2278 C 215.155 3.95682 1.92675 0
M  V30 2279 H 212.274 0.712579 0.188149 0
M  V30 2280 H 214.916 1.88813 -0.212076 0
M  V30 2281 H 213.066 3.50973 1.66583 0
M  V30 2282 H 214.738 4.55565 -0.725152 0
M  V30 2283 H 212.981 4.27261 -0.750378 0
M  V30 2284 H 213.652 5.51099 0.315284 0
M  V30 2285 H 216.128 3.91841 1.39998 0
M  V30 2286 H 215.004 5.00262 2.25897 0
M  V30 2287 H 215.265 3.37239 2.85872 0
M  V30 2288 N 214.325 -0.140222 1.56975 0
M  V30 2289 C 215.275 -1.17827 1.95194 0
M  V30 2290 C 216.259 -1.38195 0.824075 0
M  V30 2291 O 217.451 -1.39643 1.0876 0
M  V30 2292 C 214.58 -2.51024 2.34184 0
M  V30 2293 C 213.666 -2.3422 3.53556 0
M  V30 2294 N 214.057 -1.87185 4.69889 0
M  V30 2295 C 212.355 -2.64949 3.58773 0
M  V30 2296 C 213.056 -1.83586 5.5197 0
M  V30 2297 N 212.032 -2.2715 4.93866 0
M  V30 2298 H 215.834 -0.806817 2.82609 0
M  V30 2299 H 213.348 -0.348208 1.58623 0
M  V30 2300 H 215.345 -3.26074 2.59772 0
M  V30 2301 H 214.005 -2.88945 1.48124 0
M  V30 2302 H 215.016 -1.57048 4.93514 0
M  V30 2303 H 211.693 -3.067 2.8327 0
M  V30 2304 H 213.083 -1.48655 6.55249 0
M  V30 2305 N 215.803 -1.52179 -0.40978 0
M  V30 2306 C 217.033 -1.69807 -1.17682 0
M  V30 2307 C 217.441 -0.406908 -1.84773 0
M  V30 2308 O 216.784 0.626863 -1.72673 0
M  V30 2309 C 216.846 -2.77712 -2.2829 0
M  V30 2310 C 216.51 -4.19481 -1.81341 0
M  V30 2311 C 217.507 -5.03345 -1.30154 0
M  V30 2312 C 215.192 -4.65713 -1.88194 0
M  V30 2313 C 217.186 -6.31511 -0.864416 0
M  V30 2314 C 214.873 -5.93869 -1.44093 0
M  V30 2315 C 215.871 -6.76597 -0.933023 0
M  V30 2316 O 215.559 -8.02354 -0.49838 0
M  V30 2317 H 215.291 -0.572372 -0.359675 0
M  V30 2318 H 217.845 -1.99511 -0.488311 0
M  V30 2319 H 216.075 -2.43383 -3.00502 0
M  V30 2320 H 217.764 -2.83946 -2.90051 0
M  V30 2321 H 218.53 -4.68819 -1.24232 0
M  V30 2322 H 214.409 -4.01424 -2.26671 0
M  V30 2323 H 217.953 -6.96033 -0.467286 0
M  V30 2324 H 213.85 -6.27903 -1.49694 0
M  V30 2325 H 214.618 -8.16135 -0.621747 0
M  V30 2326 N 217.281 0.66697 -1.42791 0
M  V30 2327 C 218.506 1.46004 -1.47301 0
M  V30 2328 C 218.931 1.87894 -0.0880317 0
M  V30 2329 O 218.289 1.56502 0.915253 0
M  V30 2330 C 218.337 2.68031 -2.41229 0
M  V30 2331 O 217.441 3.6659 -1.88906 0
M  V30 2332 H 216.782 0.43832 -0.49877 0
M  V30 2333 H 219.312 0.817391 -1.87563 0
M  V30 2334 H 219.322 3.1601 -2.58073 0
M  V30 2335 H 217.997 2.36883 -3.41847 0
M  V30 2336 H 216.574 3.25661 -1.81656 0
M  V30 2337 N 218.759 1.29093 0.90403 0
M  V30 2338 C 219.706 1.13853 2.00764 0
M  V30 2339 C 220.676 0.0330084 1.66067 0
M  V30 2340 O 221.861 0.199733 1.89752 0
M  V30 2341 C 219.001 0.816537 3.35301 0
M  V30 2342 C 218.114 2.00206 3.82807 0
M  V30 2343 C 217.249 1.61983 5.059 0
M  V30 2344 C 216.288 2.77143 5.45764 0
M  V30 2345 N 215.425 2.39346 6.60044 0
M  V30 2346 H 220.265 2.08276 2.13132 0
M  V30 2347 H 217.802 1.03648 1.04381 0
M  V30 2348 H 219.76 0.610557 4.12708 0
M  V30 2349 H 218.39 -0.090779 3.22672 0
M  V30 2350 H 217.442 2.31988 3.01473 0
M  V30 2351 H 218.754 2.86512 4.08304 0
M  V30 2352 H 217.908 1.37649 5.90879 0
M  V30 2353 H 216.647 0.728202 4.82233 0
M  V30 2354 H 215.652 3.02165 4.59322 0
M  V30 2355 H 216.877 3.66964 5.71414 0
M  V30 2356 H 214.823 1.52665 6.37989 0
M  V30 2357 H 214.74 3.19185 6.85315 0
M  V30 2358 H 216.008 2.1832 7.48303 0
M  V30 2359 N 220.237 -1.11381 1.11499 0
M  V30 2360 C 221.169 -2.17207 0.731704 0
M  V30 2361 C 222.182 -1.61066 -0.236957 0
M  V30 2362 O 223.371 -1.78489 -0.0197591 0
M  V30 2363 C 220.471 -3.38846 0.0607624 0
M  V30 2364 C 219.644 -4.24451 1.0564 0
M  V30 2365 C 218.703 -5.24562 0.4149 0
M  V30 2366 O 217.729 -5.59071 1.069 0
M  V30 2367 N 218.931 -5.74651 -0.821943 0
M  V30 2368 H 221.696 -2.50699 1.64225 0
M  V30 2369 H 219.257 -1.26908 1.00529 0
M  V30 2370 H 221.249 -4.02911 -0.380139 0
M  V30 2371 H 219.819 -3.03411 -0.752376 0
M  V30 2372 H 219.039 -3.56833 1.67524 0
M  V30 2373 H 220.327 -4.78486 1.72998 0
M  V30 2374 H 219.725 -5.48797 -1.37252 0
M  V30 2375 H 218.282 -6.40549 -1.20582 0
M  V30 2376 N 221.715 -0.905404 -1.28997 0
M  V30 2377 C 222.678 -0.392253 -2.25819 0
M  V30 2378 C 223.678 0.476753 -1.5357 0
M  V30 2379 O 224.868 0.280994 -1.71919 0
M  V30 2380 C 222 0.438588 -3.38067 0
M  V30 2381 H 223.193 -1.24743 -2.72725 0
M  V30 2382 H 220.746 -0.684051 -1.40536 0
M  V30 2383 H 221.481 1.31352 -2.96508 0
M  V30 2384 H 221.266 -0.184167 -3.91667 0
M  V30 2385 H 222.756 0.78873 -4.10084 0
M  V30 2386 N 223.193 1.4272 -0.668489 0
M  V30 2387 C 224.103 2.34596 0.0139753 0
M  V30 2388 C 225.119 1.5474 0.795703 0
M  V30 2389 O 226.295 1.87334 0.739466 0
M  V30 2390 C 223.36 3.33202 0.957982 0
M  V30 2391 C 222.421 4.28957 0.17149 0
M  V30 2392 C 221.654 5.22853 1.07053 0
M  V30 2393 O 221.877 5.21531 2.31001 0
M  V30 2394 O 220.811 5.9952 0.534727 0
M  V30 2395 H 224.637 2.9448 -0.742661 0
M  V30 2396 H 222.222 1.43117 -0.428705 0
M  V30 2397 H 224.104 3.93796 1.50008 0
M  V30 2398 H 222.779 2.758 1.69458 0
M  V30 2399 H 221.686 3.71796 -0.414558 0
M  V30 2400 H 223.019 4.89383 -0.52586 0
M  V30 2401 N 224.671 0.411399 1.52136 0
M  V30 2402 C 225.581 -0.419774 2.30814 0
M  V30 2403 C 226.597 -1.0515 1.38634 0
M  V30 2404 O 227.773 -1.05252 1.71709 0
M  V30 2405 C 224.838 -1.52019 3.11594 0
M  V30 2406 C 223.899 -0.91129 4.19516 0
M  V30 2407 C 223.132 -1.95927 4.96436 0
M  V30 2408 O 223.355 -3.17775 4.73683 0
M  V30 2409 O 222.289 -1.56423 5.81219 0
M  V30 2410 H 226.115 0.221805 3.02889 0
M  V30 2411 H 223.7 0.174547 1.48377 0
M  V30 2412 H 225.582 -2.15898 3.61892 0
M  V30 2413 H 224.257 -2.14633 2.42311 0
M  V30 2414 H 223.164 -0.235157 3.7336 0
M  V30 2415 H 224.497 -0.32904 4.91099 0
M  V30 2416 N 226.149 -1.5696 0.141893 0
M  V30 2417 C 227.374 -2.00754 -0.520838 0
M  V30 2418 C 227.799 -1.0213 -1.57959 0
M  V30 2419 O 227.157 0.00371324 -1.813 0
M  V30 2420 C 227.205 -3.43318 -1.10294 0
M  V30 2421 O 226.309 -3.47679 -2.21795 0
M  V30 2422 H 225.65 -0.651564 -0.127908 0
M  V30 2423 H 228.18 -2.03221 0.23712 0
M  V30 2424 H 228.19 -3.82012 -1.43287 0
M  V30 2425 H 226.865 -4.14608 -0.327574 0
M  V30 2426 H 225.442 -3.20824 -1.9007 0
M  V30 2427 N 227.627 0.131896 -1.57047 0
M  V30 2428 C 228.875 0.840269 -1.83804 0
M  V30 2429 C 229.196 1.81017 -0.72512 0
M  V30 2430 O 228.466 1.94272 0.251995 0
M  V30 2431 H 227.046 0.313294 -0.678127 0
M  V30 2432 H 229.708 0.122294 -1.94516 0
M  V30 2433 H 228.804 1.39335 -2.79271 0
M  V30 2434 N 229.106 1.52395 0.401703 0
M  V30 2435 C 230.036 1.79231 1.49661 0
M  V30 2436 C 231.017 0.643654 1.57452 0
M  V30 2437 O 232.202 0.889989 1.72606 0
M  V30 2438 C 229.332 1.94971 2.87409 0
M  V30 2439 C 228.286 3.10604 2.94465 0
M  V30 2440 C 227.612 3.11577 4.34538 0
M  V30 2441 C 228.912 4.49921 2.6527 0
M  V30 2442 H 230.606 2.70917 1.27454 0
M  V30 2443 H 228.152 1.30362 0.6117 0
M  V30 2444 H 230.105 2.12328 3.63999 0
M  V30 2445 H 228.829 0.999632 3.10926 0
M  V30 2446 H 227.488 2.93009 2.20321 0
M  V30 2447 H 227.136 2.14277 4.55076 0
M  V30 2448 H 226.836 3.89247 4.40183 0
M  V30 2449 H 228.36 3.31073 5.13053 0
M  V30 2450 H 229.774 4.67683 3.31581 0
M  V30 2451 H 228.171 5.29564 2.82281 0
M  V30 2452 H 229.241 4.57507 1.60671 0
M  V30 2453 N 230.584 -0.659388 1.43143 0
M  V30 2454 C 231.861 -1.41627 1.34912 0
M  V30 2455 C 232.241 -2.11099 -0.00607785 0
M  V30 2456 O 231.589 -2.04353 -1.02236 0
M  V30 2457 C 231.799 -2.40604 2.52805 0
M  V30 2458 C 233.147 -3.04789 2.95616 0
M  V30 2459 O 234.171 -2.50932 2.52807 0
M  V30 2460 O 233.03 -4.02421 3.69756 0
M  V30 2461 H 230.124 -0.63246 0.532844 0
M  V30 2462 H 232.67 -0.686814 1.5518 0
M  V30 2463 H 231.442 -1.88174 3.43083 0
M  V30 2464 H 231.065 -3.21009 2.34604 0
M  V30 2465 N 232.062 -1.29571 -0.897171 0
M  V30 2466 C 233.31 -1.17456 -1.64464 0
M  V30 2467 C 233.631 0.273698 -1.9307 0
M  V30 2468 O 232.901 1.18684 -1.55855 0
M  V30 2469 H 231.481 -0.431706 -0.609622 0
M  V30 2470 H 234.143 -1.62531 -1.07562 0
M  V30 2471 H 233.239 -1.72648 -2.59998 0
M  V30 2472 N 233.54 1.10788 -1.12088 0
M  V30 2473 C 234.786 1.82942 -0.875226 0
M  V30 2474 C 235.119 1.84779 0.597538 0
M  V30 2475 O 234.394 1.30578 1.44152 0
M  V30 2476 C 234.677 3.29789 -1.44606 0
M  V30 2477 C 234.53 3.36307 -2.98693 0
M  V30 2478 C 235.849 4.26064 -1.10261 0
M  V30 2479 H 232.968 0.664195 -0.319397 0
M  V30 2480 H 235.61 1.29867 -1.38689 0
M  V30 2481 H 233.76 3.75118 -1.01089 0
M  V30 2482 H 235.432 2.99487 -3.50864 0
M  V30 2483 H 233.675 2.76318 -3.34411 0
M  V30 2484 H 234.346 4.39694 -3.33726 0
M  V30 2485 H 236.822 3.88951 -1.4784 0
M  V30 2486 H 235.698 5.27183 -1.52869 0
M  V30 2487 H 235.959 4.42098 -0.0142953 0
M  V30 2488 N 235.018 0.912232 1.28515 0
M  V30 2489 C 236.264 0.545405 1.95328 0
M  V30 2490 C 236.597 -0.908313 1.71649 0
M  V30 2491 O 235.872 -1.64575 1.03659 0
M  V30 2492 C 236.155 0.853483 3.4984 0
M  V30 2493 C 236.008 2.35982 3.82926 0
M  V30 2494 C 237.327 0.348589 4.38717 0
M  V30 2495 H 234.446 0.199626 0.709449 0
M  V30 2496 H 237.088 1.1412 1.5191 0
M  V30 2497 H 235.238 0.34643 3.86952 0
M  V30 2498 H 236.91 2.93738 3.55691 0
M  V30 2499 H 235.153 2.81543 3.30024 0
M  V30 2500 H 235.824 2.52593 4.90816 0
M  V30 2501 H 238.3 0.78294 4.08668 0
M  V30 2502 H 237.176 0.593242 5.45685 0
M  V30 2503 H 237.437 -0.751049 4.35674 0
M  V30 2504 N 236.496 -1.42363 0.676048 0
M  V30 2505 C 237.736 -2.03392 0.20273 0
M  V30 2506 C 238.1 -1.52306 -1.16906 0
M  V30 2507 O 239.301 -2.05129 -1.73711 0
M  V30 2508 C 237.572 -3.56614 0.236947 0
M  V30 2509 S 239.131 -4.38489 -0.165186 0
M  V30 2510 H 235.949 -0.70611 0.0832418 0
M  V30 2511 H 238.551 -1.74093 0.88948 0
M  V30 2512 H 237.255 -3.91293 1.23767 0
M  V30 2513 H 236.786 -3.90587 -0.469596 0
M  V30 2514 H 238.801 -4.76093 -1.39822 0
M  V30 2515 N 237.974 -0.419461 -1.51915 0
M  V30 2516 C 239.199 0.154572 -2.06823 0
M  V30 2517 C 239.624 1.3722 -1.28656 0
M  V30 2518 O 238.982 1.78461 -0.319583 0
M  V30 2519 C 239.03 0.473172 -3.57482 0
M  V30 2520 O 238.134 1.56255 -3.81652 0
M  V30 2521 H 237.475 0.0096924 -0.663929 0
M  V30 2522 H 240.005 -0.595642 -1.95738 0
M  V30 2523 H 240.015 0.728825 -4.01438 0
M  V30 2524 H 238.69 -0.416873 -4.13805 0
M  V30 2525 H 237.267 1.29825 -3.49571 0
M  V30 2526 N 239.452 1.56882 -0.150215 0
M  V30 2527 C 240.698 1.96518 0.500834 0
M  V30 2528 C 241.031 1.03527 1.64304 0
M  V30 2529 O 240.306 0.0782751 1.94342 0
M  V30 2530 C 240.589 3.45822 1.00395 0
M  V30 2531 C 240.442 4.49591 -0.136983 0
M  V30 2532 C 241.761 3.97704 1.88467 0
M  V30 2533 H 238.88 0.714535 0.18058 0
M  V30 2534 H 241.522 1.88577 -0.232091 0
M  V30 2535 H 239.672 3.5272 1.62851 0
M  V30 2536 H 241.344 4.5477 -0.77343 0
M  V30 2537 H 239.587 4.26441 -0.795652 0
M  V30 2538 H 240.258 5.51402 0.256815 0
M  V30 2539 H 242.734 3.93304 1.35834 0
M  V30 2540 H 241.61 5.0263 2.20578 0
M  V30 2541 H 241.871 3.40252 2.82279 0
M  V30 2542 N 240.93 -0.123565 1.57115 0
M  V30 2543 C 241.88 -1.1575 1.96433 0
M  V30 2544 C 242.864 -1.37313 0.838686 0
M  V30 2545 O 244.056 -1.38482 1.10235 0
M  V30 2546 C 241.185 -2.48526 2.36833 0
M  V30 2547 C 240.271 -2.30457 3.5602 0
M  V30 2548 N 240.662 -1.8219 4.71848 0
M  V30 2549 C 238.96 -2.61129 3.61563 0
M  V30 2550 C 239.661 -1.77721 5.53886 0
M  V30 2551 N 238.637 -2.21899 4.96248 0
M  V30 2552 H 242.439 -0.776797 2.83449 0
M  V30 2553 H 239.953 -0.331364 1.58983 0
M  V30 2554 H 241.95 -3.233 2.63216 0
M  V30 2555 H 240.61 -2.87358 1.5118 0
M  V30 2556 H 241.621 -1.51805 4.95152 0
M  V30 2557 H 238.298 -3.03678 2.86507 0
M  V30 2558 H 239.688 -1.41697 6.56789 0
M  V30 2559 N 242.408 -1.52605 -0.393616 0
M  V30 2560 C 243.318 -1.79971 -1.50492 0
M  V30 2561 C 244.334 -0.686181 -1.59899 0
M  V30 2562 O 245.51 -0.973274 -1.76322 0
M  V30 2563 C 242.575 -1.95867 -2.86072 0
M  V30 2564 C 241.636 -3.19781 -2.86424 0
M  V30 2565 C 240.869 -3.34909 -4.15538 0
M  V30 2566 O 241.092 -2.54948 -5.10253 0
M  V30 2567 O 240.026 -4.28141 -4.23059 0
M  V30 2568 H 243.852 -2.74328 -1.30299 0
M  V30 2569 H 241.437 -1.3764 -0.581005 0
M  V30 2570 H 243.319 -2.08056 -3.66457 0
M  V30 2571 H 241.994 -1.04699 -3.063 0
M  V30 2572 H 240.901 -3.13038 -2.04837 0
M  V30 2573 H 242.234 -4.1078 -2.71147 0
M  V30 2574 N 243.887 0.651787 -1.4349 0
M  V30 2575 C 244.85 1.74647 -1.48429 0
M  V30 2576 C 245.85 1.56513 -0.368817 0
M  V30 2577 O 247.04 1.62385 -0.630623 0
M  V30 2578 C 244.172 3.13533 -1.33827 0
M  V30 2579 H 245.365 1.71649 -2.4592 0
M  V30 2580 H 242.918 0.863573 -1.30277 0
M  V30 2581 H 243.653 3.22142 -0.37349 0
M  V30 2582 H 243.438 3.28101 -2.14691 0
M  V30 2583 H 244.928 3.93356 -1.40218 0
M  V30 2584 N 245.365 1.30045 0.890287 0
M  V30 2585 C 246.312 1.15976 1.99545 0
M  V30 2586 C 247.282 0.0506202 1.66023 0
M  V30 2587 O 248.467 0.219847 1.89529 0
M  V30 2588 C 245.607 0.852054 3.34416 0
M  V30 2589 C 244.72 2.04255 3.80662 0
M  V30 2590 C 243.855 1.6734 5.04154 0
M  V30 2591 C 242.894 2.82916 5.42794 0
M  V30 2592 N 242.031 2.46333 6.57468 0
M  V30 2593 H 246.871 2.10524 2.10911 0
M  V30 2594 H 244.408 1.04749 1.03276 0
M  V30 2595 H 246.366 0.654296 4.12037 0
M  V30 2596 H 244.996 -0.0565502 3.2275 0
M  V30 2597 H 244.048 2.35172 2.98995 0
M  V30 2598 H 245.36 2.90826 4.05242 0
M  V30 2599 H 244.514 1.43908 5.89386 0
M  V30 2600 H 243.253 0.779308 4.81433 0
M  V30 2601 H 242.258 3.0702 4.56091 0
M  V30 2602 H 243.483 3.73004 5.6749 0
M  V30 2603 H 241.429 1.59423 6.36334 0
M  V30 2604 H 241.346 3.26436 6.81891 0
M  V30 2605 H 242.614 2.26244 7.45945 0
M  V30 2606 N 246.843 -1.10192 1.12674 0
M  V30 2607 C 247.806 -2.14786 0.799979 0
M  V30 2608 C 248.806 -1.59711 -0.18685 0
M  V30 2609 O 249.996 -1.74156 0.0392558 0
M  V30 2610 C 247.128 -3.40374 0.189228 0
M  V30 2611 H 248.321 -2.45203 1.72671 0
M  V30 2612 H 245.874 -1.25597 0.930326 0
M  V30 2613 H 246.609 -3.15577 -0.747107 0
M  V30 2614 H 246.394 -3.81637 0.899766 0
M  V30 2615 H 247.884 -4.17594 -0.0228143 0
M  V30 2616 N 248.321 -0.919034 -1.28029 0
M  V30 2617 C 249.57 -0.550802 -1.94034 0
M  V30 2618 C 249.883 0.910877 -1.73096 0
M  V30 2619 O 251.089 1.3875 -2.33368 0
M  V30 2620 C 249.545 -0.934249 -3.47563 0
M  V30 2621 C 249.153 -2.41602 -3.7727 0
M  V30 2622 C 250.897 -0.636854 -4.19696 0
M  V30 2623 C 248.804 -2.73932 -5.24133 0
M  V30 2624 H 247.734 -0.202273 -0.726362 0
M  V30 2625 H 250.385 -1.11867 -1.45458 0
M  V30 2626 H 248.767 -0.295115 -3.94899 0
M  V30 2627 H 249.941 -3.10233 -3.40723 0
M  V30 2628 H 248.256 -2.68441 -3.18321 0
M  V30 2629 H 250.853 -0.855005 -5.2782 0
M  V30 2630 H 251.196 0.425575 -4.14119 0
M  V30 2631 H 251.729 -1.23469 -3.78154 0
M  V30 2632 H 248.468 -3.79049 -5.34792 0
M  V30 2633 H 247.988 -2.09942 -5.61858 0
M  V30 2634 H 249.667 -2.61215 -5.91925 0
M  V30 2635 N 249.799 1.42003 -0.683588 0
M  V30 2636 C 251.029 2.05448 -0.217866 0
M  V30 2637 C 251.437 1.51491 1.13346 0
M  V30 2638 O 250.78 0.653048 1.717 0
M  V30 2639 C 250.842 3.59399 -0.0850118 0
M  V30 2640 C 250.506 4.36093 -1.36645 0
M  V30 2641 C 251.503 4.66169 -2.30179 0
M  V30 2642 C 249.188 4.75578 -1.61649 0
M  V30 2643 C 251.182 5.34676 -3.46988 0
M  V30 2644 C 248.869 5.43824 -2.78745 0
M  V30 2645 C 249.867 5.73299 -3.71238 0
M  V30 2646 O 249.555 6.40142 -4.86285 0
M  V30 2647 H 249.287 0.668344 -0.101454 0
M  V30 2648 H 251.841 1.82974 -0.933248 0
M  V30 2649 H 250.071 3.80566 0.686031 0
M  V30 2650 H 251.76 4.04457 0.341973 0
M  V30 2651 H 252.526 4.36156 -2.12115 0
M  V30 2652 H 248.405 4.52025 -0.905243 0
M  V30 2653 H 251.949 5.57599 -4.19201 0
M  V30 2654 H 247.846 5.73254 -2.96732 0
M  V30 2655 H 248.614 6.58636 -4.85944 0
M  V30 2656 N 251.277 0.427512 1.51691 0
M  V30 2657 C 252.209 -0.424521 2.25234 0
M  V30 2658 C 253.222 -0.994671 1.2888 0
M  V30 2659 O 254.411 -0.890483 1.54702 0
M  V30 2660 C 251.511 -1.60479 2.98496 0
M  V30 2661 C 250.684 -1.15527 4.21868 0
M  V30 2662 C 249.743 -2.20454 4.77793 0
M  V30 2663 O 248.769 -1.8029 5.39893 0
M  V30 2664 N 249.971 -3.52831 4.60967 0
M  V30 2665 H 252.736 0.205749 2.98993 0
M  V30 2666 H 250.297 0.255867 1.59865 0
M  V30 2667 H 252.289 -2.30276 3.32799 0
M  V30 2668 H 250.859 -2.14061 2.27809 0
M  V30 2669 H 250.079 -0.284736 3.9317 0
M  V30 2670 H 251.367 -0.832173 5.01949 0
M  V30 2671 H 250.765 -3.88201 4.11481 0
M  V30 2672 H 249.322 -4.18551 4.99658 0
M  V30 2673 N 252.755 -1.56801 0.158532 0
M  V30 2674 C 253.718 -2.16138 -0.762705 0
M  V30 2675 C 254.718 -1.1061 -1.16713 0
M  V30 2676 O 255.908 -1.36191 -1.08617 0
M  V30 2677 C 253.04 -2.73386 -2.03649 0
M  V30 2678 H 254.233 -2.98886 -0.246354 0
M  V30 2679 H 251.786 -1.56035 -0.0909744 0
M  V30 2680 H 252.521 -1.94335 -2.59623 0
M  V30 2681 H 252.306 -3.50601 -1.75559 0
M  V30 2682 H 253.796 -3.19065 -2.6942 0
M  V30 2683 N 254.233 0.115231 -1.57178 0
M  V30 2684 C 255.479 0.82357 -1.85325 0
M  V30 2685 C 255.812 1.79349 -0.744814 0
M  V30 2686 O 255.087 1.92899 0.249024 0
M  V30 2687 C 255.37 1.57014 -3.24066 0
M  V30 2688 C 255.223 0.619565 -4.45513 0
M  V30 2689 C 256.542 2.52545 -3.60429 0
M  V30 2690 H 253.661 0.297948 -0.674089 0
M  V30 2691 H 256.303 0.0877138 -1.89797 0
M  V30 2692 H 254.453 2.19742 -3.20383 0
M  V30 2693 H 256.125 0.000837639 -4.613 0
M  V30 2694 H 254.368 -0.0686174 -4.33746 0
M  V30 2695 H 255.039 1.17866 -5.3927 0
M  V30 2696 H 257.515 1.9992 -3.64926 0
M  V30 2697 H 256.391 3.01811 -4.58477 0
M  V30 2698 H 256.652 3.35383 -2.88047 0
M  V30 2699 N 255.711 1.52812 0.385517 0
M  V30 2700 C 256.936 1.72207 1.15583 0
M  V30 2701 C 257.361 0.441034 1.82857 0
M  V30 2702 O 256.719 -0.603465 1.70962 0
M  V30 2703 C 256.767 2.87476 2.17692 0
M  V30 2704 O 255.871 2.54693 3.24354 0
M  V30 2705 H 255.212 0.572526 0.336319 0
M  V30 2706 H 257.742 1.99618 0.448744 0
M  V30 2707 H 257.752 3.13072 2.6163 0
M  V30 2708 H 256.427 3.80408 1.68115 0
M  V30 2709 H 255.004 2.3985 2.85529 0
M  V30 2710 N 257.189 -0.644168 1.43834 0
M  V30 2711 C 258.6 -1.22554 1.40845 0
M  V30 2712 C 258.951 -1.9585 0.117115 0
M  V30 2713 O 258.076 -2.01734 -0.783086 0
M  V30 2714 C 258.671 -2.22907 2.55143 0
M  V30 2715 C 257.23 -2.76501 2.5539 0
M  V30 2716 C 256.377 -1.51287 2.32396 0
M  V30 2717 H 259.328 -0.43563 1.52604 0
M  V30 2718 H 259.349 -3.05259 2.2715 0
M  V30 2719 H 258.861 -1.69533 3.49114 0
M  V30 2720 H 256.962 -3.33914 1.65324 0
M  V30 2721 H 257.075 -3.23429 3.53455 0
M  V30 2722 H 255.439 -1.78957 1.81236 0
M  V30 2723 H 256.222 -0.998336 3.28463 0
M  V30 2724 N 258.668 -1.30515 -0.883378 0
M  V30 2725 C 259.893 -1.22487 -1.67367 0
M  V30 2726 C 260.318 0.208767 -1.86938 0
M  V30 2727 O 259.676 1.15015 -1.40148 0
M  V30 2728 C 259.724 -1.96041 -3.02655 0
M  V30 2729 O 258.828 -1.28859 -3.91751 0
M  V30 2730 H 258.169 -0.423573 -0.511353 0
M  V30 2731 H 260.699 -1.72362 -1.10239 0
M  V30 2732 H 260.709 -2.05124 -3.52687 0
M  V30 2733 H 259.384 -3.00307 -2.8773 0
M  V30 2734 H 257.961 -1.28141 -3.50192 0
M  V30 2735 N 260.146 1.09593 -1.13257 0
M  V30 2736 C 261.393 1.81734 -0.893257 0
M  V30 2737 C 261.721 1.8563 0.580656 0
M  V30 2738 O 260.976 1.31906 1.44566 0
M  V30 2739 C 261.275 3.27802 -1.42411 0
M  V30 2740 C 260.941 3.44041 -2.91456 0
M  V30 2741 C 259.603 3.48181 -3.3215 0
M  V30 2742 C 261.955 3.48719 -3.87356 0
M  V30 2743 C 259.283 3.54575 -4.67433 0
M  V30 2744 C 261.635 3.56648 -5.2248 0
M  V30 2745 C 260.299 3.59055 -5.62704 0
M  V30 2746 H 259.569 0.665011 -0.326866 0
M  V30 2747 H 262.216 1.2912 -1.41422 0
M  V30 2748 H 260.521 3.83042 -0.823795 0
M  V30 2749 H 262.218 3.82149 -1.21503 0
M  V30 2750 H 258.808 3.41502 -2.58987 0
M  V30 2751 H 262.992 3.44763 -3.57004 0
M  V30 2752 H 258.248 3.54725 -4.97976 0
M  V30 2753 H 262.422 3.59212 -5.96607 0
M  V30 2754 H 260.049 3.63763 -6.67518 0
M  V30 2755 N 261.624 0.925811 1.2754 0
M  V30 2756 C 262.554 0.440748 2.29303 0
M  V30 2757 C 263.535 -0.497971 1.62648 0
M  V30 2758 O 264.72 -0.403126 1.8997 0
M  V30 2759 C 261.85 -0.309048 3.45922 0
M  V30 2760 C 260.804 0.54166 4.24559 0
M  V30 2761 C 260.13 -0.337191 5.33636 0
M  V30 2762 C 261.43 1.80516 4.90114 0
M  V30 2763 H 263.124 1.29121 2.70126 0
M  V30 2764 H 260.67 0.622323 1.29858 0
M  V30 2765 H 262.623 -0.659315 4.1621 0
M  V30 2766 H 261.347 -1.19352 3.04011 0
M  V30 2767 H 260.006 0.874609 3.56014 0
M  V30 2768 H 259.654 -1.22056 4.87966 0
M  V30 2769 H 259.354 0.228497 5.87156 0
M  V30 2770 H 260.878 -0.683072 6.06767 0
M  V30 2771 H 262.292 1.52307 5.52698 0
M  V30 2772 H 260.689 2.3142 5.53683 0
M  V30 2773 H 261.759 2.52581 4.13921 0
M  V30 2774 N 263.102 -1.41638 0.69111 0
M  V30 2775 C 264.33 -2.05628 0.22909 0
M  V30 2776 C 264.745 -1.51992 -1.11999 0
M  V30 2777 O 264.102 -0.666322 -1.69901 0
M  V30 2778 C 264.153 -3.61084 0.173283 0
M  V30 2779 O 263.874 -4.12735 1.46907 0
M  V30 2780 C 265.375 -4.42213 -0.310266 0
M  V30 2781 H 262.595 -0.662327 0.107534 0
M  V30 2782 H 265.139 -1.81489 0.942438 0
M  V30 2783 H 263.294 -3.84278 -0.490858 0
M  V30 2784 H 263.708 -5.06743 1.35322 0
M  V30 2785 H 265.182 -5.51194 -0.298196 0
M  V30 2786 H 265.659 -4.1799 -1.34838 0
M  V30 2787 H 266.265 -4.24074 0.322716 0
M  V30 2788 N 264.58 -0.43555 -1.51462 0
M  V30 2789 C 265.826 0.131709 -2.02372 0
M  V30 2790 C 266.159 1.42516 -1.3192 0
M  V30 2791 O 265.434 1.89606 -0.433573 0
M  V30 2792 C 265.717 0.352301 -3.58373 0
M  V30 2793 C 265.57 -0.959676 -4.39443 0
M  V30 2794 C 266.889 1.12286 -4.25535 0
M  V30 2795 H 264.008 0.0463936 -0.735538 0
M  V30 2796 H 266.65 -0.574197 -1.81116 0
M  V30 2797 H 264.8 0.9536 -3.76615 0
M  V30 2798 H 266.472 -1.59482 -4.32855 0
M  V30 2799 H 264.715 -1.56468 -4.04599 0
M  V30 2800 H 265.386 -0.759394 -5.46752 0
M  V30 2801 H 267.862 0.613545 -4.11552 0
M  V30 2802 H 266.738 1.24598 -5.34571 0
M  V30 2803 H 266.999 2.15048 -3.86273 0
M  V30 2804 N 266.058 1.56714 -0.166846 0
M  V30 2805 C 267.286 2.0112 0.485644 0
M  V30 2806 C 267.701 1.04705 1.57106 0
M  V30 2807 O 267.058 0.0471923 1.82439 0
M  V30 2808 C 267.109 3.45361 1.06808 0
M  V30 2809 O 266.83 4.38092 0.0259995 0
M  V30 2810 C 268.331 4.05145 1.79924 0
M  V30 2811 H 265.551 0.65931 0.124704 0
M  V30 2812 H 268.095 2.02746 -0.267262 0
M  V30 2813 H 266.25 3.44524 1.7715 0
M  V30 2814 H 266.664 5.22519 0.455398 0
M  V30 2815 H 268.138 5.08009 2.15942 0
M  V30 2816 H 268.615 3.46982 2.69258 0
M  V30 2817 H 269.221 4.09672 1.14234 0
M  V30 2818 N 267.536 -0.106894 1.57237 0
M  V30 2819 C 268.947 -0.662723 1.74542 0
M  V30 2820 C 269.298 -1.7971 0.787319 0
M  V30 2821 O 268.423 -2.16368 -0.0369636 0
M  V30 2822 C 269.018 -1.20896 3.16496 0
M  V30 2823 C 267.577 -1.71096 3.35266 0
M  V30 2824 C 266.724 -0.615642 2.7038 0
M  V30 2825 H 269.675 0.119106 1.58252 0
M  V30 2826 H 269.696 -2.07847 3.18716 0
M  V30 2827 H 269.208 -0.383122 3.86204 0
M  V30 2828 H 267.309 -2.56119 2.70618 0
M  V30 2829 H 267.422 -1.81208 4.43509 0
M  V30 2830 H 265.786 -1.05222 2.31949 0
M  V30 2831 H 266.569 0.199419 3.4272 0
M  V30 2832 N 269.014 -1.53014 -0.377408 0
M  V30 2833 C 270.262 -1.6829 -1.11906 0
M  V30 2834 C 270.583 -0.431206 -1.90173 0
M  V30 2835 O 269.853 0.554595 -1.87886 0
M  V30 2836 H 268.433 -0.620371 -0.416112 0
M  V30 2837 H 271.095 -1.90167 -0.426893 0
M  V30 2838 H 270.191 -2.53862 -1.8155 0
M  V30 2839 N 270.492 0.636531 -1.44174 0
M  V30 2840 C 271.741 1.39213 -1.45954 0
M  V30 2841 C 272.054 1.95374 -0.0939119 0
M  V30 2842 O 273.26 2.71498 0.0107767 0
M  V30 2843 C 271.716 2.52025 -2.56927 0
M  V30 2844 C 271.324 2.024 -3.99673 0
M  V30 2845 C 273.068 3.29269 -2.67922 0
M  V30 2846 C 270.975 3.12521 -5.0208 0
M  V30 2847 H 269.905 0.523132 -0.542999 0
M  V30 2848 H 272.556 0.685349 -1.70221 0
M  V30 2849 H 270.938 3.25253 -2.25891 0
M  V30 2850 H 272.112 1.36073 -4.40251 0
M  V30 2851 H 270.427 1.37987 -3.92872 0
M  V30 2852 H 273.024 4.11352 -3.41605 0
M  V30 2853 H 273.367 3.78397 -1.73555 0
M  V30 2854 H 273.9 2.63129 -2.98342 0
M  V30 2855 H 270.639 2.68343 -5.98057 0
M  V30 2856 H 270.159 3.77507 -4.66099 0
M  V30 2857 H 271.838 3.77385 -5.25538 0
M  V30 2858 N 271.97 1.30982 0.876444 0
M  V30 2859 C 273.386 1.09498 1.16113 0
M  V30 2860 C 273.586 -0.13875 2.01022 0
M  V30 2861 O 272.642 -0.829935 2.38471 0
M  V30 2862 C 273.955 2.36308 1.85954 0
M  V30 2863 C 275.503 2.41856 1.98683 0
M  V30 2864 C 275.978 3.6853 2.71937 0
M  V30 2865 N 277.469 3.69387 2.79477 0
M  V30 2866 C 278.204 4.64096 3.36753 0
M  V30 2867 N 277.7 5.69155 3.95012 0
M  V30 2868 N 279.493 4.51626 3.3465 0
M  V30 2869 H 271.644 2.10118 0.310494 0
M  V30 2870 H 273.907 0.926634 0.200131 0
M  V30 2871 H 273.613 3.26388 1.31011 0
M  V30 2872 H 273.487 2.4561 2.86278 0
M  V30 2873 H 275.874 1.52249 2.52793 0
M  V30 2874 H 275.955 2.36523 0.9742 0
M  V30 2875 H 275.599 4.58499 2.18496 0
M  V30 2876 H 275.529 3.71127 3.73593 0
M  V30 2877 H 278.02 2.93438 2.38123 0
M  V30 2878 H 278.333 6.3751 4.36808 0
M  V30 2879 H 276.678 5.72937 3.93406 0
M  V30 2880 H 279.869 3.68728 2.8837 0
M  V30 2881 H 280.042 5.25614 3.7899 0
M  V30 2882 N 273.449 -1.08991 1.13837 0
M  V30 2883 C 274.382 -2.15049 0.763477 0
M  V30 2884 C 275.36 -1.60629 -0.252398 0
M  V30 2885 O 276.544 -1.87958 -0.142853 0
M  V30 2886 C 273.671 -3.38441 0.132545 0
M  V30 2887 C 272.717 -4.11596 1.11763 0
M  V30 2888 S 273.55 -4.6521 2.65216 0
M  V30 2889 C 274.706 -5.91896 2.03495 0
M  V30 2890 H 274.939 -2.46518 1.66182 0
M  V30 2891 H 272.472 -1.21008 0.958976 0
M  V30 2892 H 274.43 -4.09883 -0.225074 0
M  V30 2893 H 273.091 -3.05182 -0.743135 0
M  V30 2894 H 272.284 -5.00121 0.624076 0
M  V30 2895 H 271.886 -3.46038 1.41894 0
M  V30 2896 H 274.178 -6.63156 1.38675 0
M  V30 2897 H 275.121 -6.45938 2.9012 0
M  V30 2898 H 275.529 -5.44625 1.48471 0
M  V30 2899 N 274.927 -0.932562 -1.27047 0
M  V30 2900 C 276.152 -0.591474 -1.98787 0
M  V30 2901 C 276.577 0.824601 -1.69062 0
M  V30 2902 O 275.935 1.5541 -0.933677 0
M  V30 2903 C 275.983 -0.829808 -3.50922 0
M  V30 2904 O 275.087 0.102266 -4.12273 0
M  V30 2905 H 274.428 -0.227185 -0.623926 0
M  V30 2906 H 276.958 -1.25314 -1.61733 0
M  V30 2907 H 276.968 -0.747292 -4.01098 0
M  V30 2908 H 275.643 -1.86201 -3.7189 0
M  V30 2909 H 274.22 -0.0305761 -3.72887 0
M  V30 2910 N 276.405 1.4127 -0.698611 0
M  V30 2911 C 277.315 2.34573 -0.0357891 0
M  V30 2912 C 278.331 1.56393 0.762701 0
M  V30 2913 O 279.507 1.8886 0.699564 0
M  V30 2914 C 276.572 3.35159 0.887089 0
M  V30 2915 C 275.633 4.29225 0.0804634 0
M  V30 2916 C 274.866 5.25006 0.959387 0
M  V30 2917 O 275.089 5.26314 2.19886 0
M  V30 2918 O 274.023 6.00519 0.407439 0
M  V30 2919 H 277.849 2.92838 -0.804957 0
M  V30 2920 H 275.434 1.42175 -0.458966 0
M  V30 2921 H 277.316 3.9689 1.41621 0
M  V30 2922 H 275.991 2.79333 1.6357 0
M  V30 2923 H 274.898 3.70833 -0.493328 0
M  V30 2924 H 276.231 4.88157 -0.629547 0
M  V30 2925 N 277.883 0.443576 1.51229 0
M  V30 2926 C 279.16 -0.181038 1.9476 0
M  V30 2927 C 279.54 -1.59523 1.38259 0
M  V30 2928 O 278.888 -2.2122 0.572198 0
M  V30 2929 C 279.098 -0.152422 3.48667 0
M  V30 2930 C 280.446 -0.354923 4.23114 0
M  V30 2931 O 281.47 -0.230257 3.55455 0
M  V30 2932 O 280.329 -0.603674 5.43156 0
M  V30 2933 H 277.423 -0.1266 0.817252 0
M  V30 2934 H 279.969 0.502004 1.62105 0
M  V30 2935 H 278.741 0.836022 3.82265 0
M  V30 2936 H 278.364 -0.878107 3.87782 0
M  V30 2937 N 279.361 -1.56624 0.175154 0
M  V30 2938 C 280.324 -2.16934 -0.739738 0
M  V30 2939 C 281.324 -1.11842 -1.15533 0
M  V30 2940 O 282.514 -1.37335 -1.07167 0
M  V30 2941 C 279.646 -2.75531 -2.00738 0
M  V30 2942 H 280.839 -2.99131 -0.214639 0
M  V30 2943 H 278.392 -1.56123 -0.0744197 0
M  V30 2944 H 279.127 -1.97078 -2.57548 0
M  V30 2945 H 278.912 -3.52444 -1.71831 0
M  V30 2946 H 280.402 -3.21904 -2.66021 0
M  V30 2947 N 280.839 0.0985539 -1.57292 0
M  V30 2948 C 281.802 1.10402 -2.00858 0
M  V30 2949 C 282.802 1.33146 -0.901593 0
M  V30 2950 O 283.992 1.29318 -1.16716 0
M  V30 2951 C 281.124 2.45394 -2.36632 0
M  V30 2952 H 282.317 0.729099 -2.90902 0
M  V30 2953 H 279.87 0.343495 -1.52479 0
M  V30 2954 H 280.605 2.87769 -1.49531 0
M  V30 2955 H 280.39 2.30235 -3.17387 0
M  V30 2956 H 281.88 3.17718 -2.71007 0
M  V30 2957 N 282.317 1.53212 0.369288 0
M  V30 2958 C 283.265 1.80054 1.47253 0
M  V30 2959 C 284.259 0.669456 1.55611 0
M  V30 2960 O 285.465 0.852328 1.58541 0
M  V30 2961 H 281.84 0.570034 0.490475 0
M  V30 2962 H 283.811 2.72403 1.21817 0
M  V30 2963 C 282.56 2.00403 2.84137 0
M  V30 2964 H 281.883 2.86876 2.78464 0
M  V30 2965 H 283.323 2.23164 3.60519 0
M  V30 2966 C 281.782 0.782081 3.27697 0
M  V30 2967 O 282.312 -0.0310205 4.01688 0
M  V30 2968 N 280.518 0.606573 2.84199 0
M  V30 2969 H 280.065 1.26939 2.24152 0
M  V30 2970 H 280.023 -0.20962 3.137 0
M  V30 2971 N 283.795 -0.628877 1.44509 0
M  V30 2972 C 285.072 -1.38733 1.37886 0
M  V30 2973 C 285.452 -2.11065 0.0387008 0
M  V30 2974 O 284.8 -2.06476 -0.97878 0
M  V30 2975 C 285.01 -2.35188 2.57852 0
M  V30 2976 C 286.358 -2.9845 3.02014 0
M  V30 2977 O 287.382 -2.45513 2.58073 0
M  V30 2978 O 286.241 -3.94487 3.78209 0
M  V30 2979 H 283.335 -0.621015 0.54614 0
M  V30 2980 H 285.881 -0.653744 1.56602 0
M  V30 2981 H 284.653 -1.80855 3.46998 0
M  V30 2982 H 284.276 -3.1596 2.4136 0
M  V30 2983 N 285.273 -1.31445 -0.869486 0
M  V30 2984 C 286.205 -1.14955 -1.98287 0
M  V30 2985 C 287.218 -0.0885037 -1.62559 0
M  V30 2986 O 288.407 -0.336044 -1.75308 0
M  V30 2987 C 285.507 -0.734255 -3.3085 0
M  V30 2988 C 284.68 -1.88042 -3.94917 0
M  V30 2989 C 283.739 -1.4511 -5.05796 0
M  V30 2990 O 282.765 -2.16082 -5.2659 0
M  V30 2991 N 283.967 -0.338763 -5.79511 0
M  V30 2992 H 286.732 -2.10856 -2.12979 0
M  V30 2993 H 284.293 -1.23786 -1.04349 0
M  V30 2994 H 286.285 -0.42975 -4.02412 0
M  V30 2995 H 284.855 0.133158 -3.12316 0
M  V30 2996 H 284.075 -2.35222 -3.1633 0
M  V30 2997 H 285.363 -2.6481 -4.34457 0
M  V30 2998 H 284.761 0.252274 -5.65137 0
M  V30 2999 H 283.318 -0.0937925 -6.51733 0
M  V30 3000 N 286.751 1.08385 -1.14413 0
M  V30 3001 C 287.997 1.81044 -0.913834 0
M  V30 3002 C 288.33 1.86004 0.558209 0
M  V30 3003 O 287.605 1.33606 1.4135 0
M  V30 3004 C 287.888 3.26648 -1.51569 0
M  V30 3005 C 287.741 3.29895 -3.0576 0
M  V30 3006 C 289.06 4.23629 -1.19273 0
M  V30 3007 H 286.179 0.65727 -0.333414 0
M  V30 3008 H 288.821 1.26896 -1.41412 0
M  V30 3009 H 286.971 3.72889 -1.09023 0
M  V30 3010 H 288.643 2.91977 -3.57137 0
M  V30 3011 H 286.886 2.69163 -3.40197 0
M  V30 3012 H 287.557 4.32516 -3.42977 0
M  V30 3013 H 290.033 3.85727 -1.56057 0
M  V30 3014 H 288.909 5.23822 -1.64017 0
M  V30 3015 H 289.17 4.41968 -0.108068 0
M  V30 3016 N 288.23 0.939286 1.26551 0
M  V30 3017 C 289.646 0.641304 1.46149 0
M  V30 3018 C 289.846 -0.805964 1.84679 0
M  V30 3019 O 288.902 -1.58278 1.96734 0
M  V30 3020 C 290.215 1.6011 2.54529 0
M  V30 3021 C 291.763 1.6106 2.68382 0
M  V30 3022 C 292.238 2.55765 3.79932 0
M  V30 3023 N 293.729 2.5404 3.87322 0
M  V30 3024 C 294.464 3.24004 4.73085 0
M  V30 3025 N 293.96 4.03388 5.63249 0
M  V30 3026 N 295.753 3.12965 4.66914 0
M  V30 3027 H 287.904 1.87478 0.998285 0
M  V30 3028 H 290.167 0.805559 0.499779 0
M  V30 3029 H 289.873 2.63412 2.33039 0
M  V30 3030 H 289.747 1.35171 3.52149 0
M  V30 3031 H 292.134 0.584835 2.89247 0
M  V30 3032 H 292.215 1.90053 1.71212 0
M  V30 3033 H 291.859 3.58458 3.5982 0
M  V30 3034 H 291.789 2.24063 4.76554 0
M  V30 3035 H 294.28 1.96396 3.22858 0
M  V30 3036 H 294.593 4.5373 6.25579 0
M  V30 3037 H 292.938 4.07489 5.63008 0
M  V30 3038 H 296.129 2.50432 3.95476 0
M  V30 3039 H 296.302 3.67759 5.33533 0
M  V30 3040 N 289.708 -1.40897 0.706093 0
M  V30 3041 C 290.954 -2.01352 0.241889 0
M  V30 3042 C 291.287 -1.55832 -1.15888 0
M  V30 3043 O 290.562 -0.774145 -1.7843 0
M  V30 3044 C 290.845 -3.58752 0.311311 0
M  V30 3045 C 290.698 -4.1437 1.74978 0
M  V30 3046 C 292.017 -4.38914 -0.322922 0
M  V30 3047 H 289.136 -0.731562 0.0893687 0
M  V30 3048 H 291.778 -1.67504 0.896802 0
M  V30 3049 H 289.928 -3.87718 -0.246302 0
M  V30 3050 H 291.6 -3.96239 2.36205 0
M  V30 3051 H 289.843 -3.69016 2.28057 0
M  V30 3052 H 290.514 -5.23532 1.74981 0
M  V30 3053 H 292.99 -4.15822 0.152089 0
M  V30 3054 H 291.866 -5.48358 -0.243855 0
M  V30 3055 H 292.127 -4.19176 -1.40513 0
M  V30 3056 N 291.186 -0.45159 -1.50991 0
M  V30 3057 C 292.149 0.341117 -2.26647 0
M  V30 3058 C 293.149 0.937422 -1.30649 0
M  V30 3059 O 294.339 0.809644 -1.54241 0
M  V30 3060 C 291.471 1.48398 -3.06905 0
M  V30 3061 H 292.664 -0.322117 -2.98165 0
M  V30 3062 H 290.217 -0.205122 -1.54948 0
M  V30 3063 H 290.952 2.18284 -2.39838 0
M  V30 3064 H 290.737 1.06241 -3.77432 0
M  V30 3065 H 292.227 2.04367 -3.64176 0
M  V30 3066 N 292.664 1.56529 -0.183458 0
M  V30 3067 C 293.892 2.01623 0.464285 0
M  V30 3068 C 294.307 1.06366 1.55986 0
M  V30 3069 O 293.664 0.0665398 1.82379 0
M  V30 3070 C 293.715 3.46475 1.03139 0
M  V30 3071 O 293.436 4.38095 -0.0204675 0
M  V30 3072 C 294.937 4.0703 1.75617 0
M  V30 3073 H 292.157 0.660596 0.117704 0
M  V30 3074 H 294.701 2.02451 -0.288751 0
M  V30 3075 H 292.856 3.46383 1.73486 0
M  V30 3076 H 293.27 5.22973 0.399952 0
M  V30 3077 H 294.744 5.10271 2.10542 0
M  V30 3078 H 295.221 3.49819 2.65563 0
M  V30 3079 H 295.827 4.1086 1.09882 0
M  V30 3080 N 294.142 -0.090211 1.57342 0
M  V30 3081 C 295.553 -0.644173 1.75235 0
M  V30 3082 C 295.904 -1.78865 0.806335 0
M  V30 3083 O 295.029 -2.16395 -0.0140128 0
M  V30 3084 C 295.624 -1.17532 3.1776 0
M  V30 3085 C 294.183 -1.67531 3.37061 0
M  V30 3086 C 293.33 -0.58693 2.71017 0
M  V30 3087 H 296.281 0.135884 1.58117 0
M  V30 3088 H 296.302 -2.04455 3.20902 0
M  V30 3089 H 295.814 -0.342138 3.86589 0
M  V30 3090 H 293.915 -2.53234 2.73319 0
M  V30 3091 H 294.028 -1.76493 4.45406 0
M  V30 3092 H 292.392 -1.02756 2.33052 0
M  V30 3093 H 293.175 0.235758 3.4249 0
M  V30 3094 N 295.62 -1.53406 -0.361157 0
M  V30 3095 C 296.583 -1.79479 -1.42548 0
M  V30 3096 C 297.583 -0.665327 -1.4639 0
M  V30 3097 O 298.773 -0.933549 -1.47073 0
M  V30 3098 C 295.905 -1.92087 -2.8163 0
M  V30 3099 H 297.098 -2.74538 -1.20701 0
M  V30 3100 H 294.651 -1.4455 -0.594546 0
M  V30 3101 H 295.386 -0.991099 -3.08784 0
M  V30 3102 H 295.171 -2.74241 -2.80239 0
M  V30 3103 H 296.661 -2.13836 -3.58697 0
M  V30 3104 N 297.098 0.621204 -1.44841 0
M  V30 3105 C 298.347 1.37658 -1.47422 0
M  V30 3106 C 298.66 1.95264 -0.114629 0
M  V30 3107 O 299.866 2.71494 -0.0180199 0
M  V30 3108 C 298.322 2.49285 -2.59586 0
M  V30 3109 C 297.93 1.98149 -4.01797 0
M  V30 3110 C 299.674 3.26409 -2.71399 0
M  V30 3111 C 297.581 3.07178 -5.05367 0
M  V30 3112 H 296.511 0.517344 -0.548517 0
M  V30 3113 H 299.162 0.667257 -1.70938 0
M  V30 3114 H 297.544 3.22839 -2.29328 0
M  V30 3115 H 298.718 1.31395 -4.41669 0
M  V30 3116 H 297.033 1.33812 -3.94314 0
M  V30 3117 H 299.63 4.07706 -3.45948 0
M  V30 3118 H 299.973 3.76535 -1.77559 0
M  V30 3119 H 300.506 2.5995 -3.01116 0
M  V30 3120 H 297.245 2.61985 -6.00869 0
M  V30 3121 H 296.765 3.72542 -4.70077 0
M  V30 3122 H 298.444 3.71789 -5.29511 0
M  V30 3123 N 298.576 1.31904 0.862503 0
M  V30 3124 C 299.539 1.20131 1.95195 0
M  V30 3125 C 300.539 0.126409 1.60302 0
M  V30 3126 O 301.729 0.376234 1.70089 0
M  V30 3127 C 298.861 0.845691 3.30244 0
M  V30 3128 H 300.054 2.16943 2.07064 0
M  V30 3129 H 297.607 1.15622 1.05172 0
M  V30 3130 H 298.342 -0.120957 3.24074 0
M  V30 3131 H 298.127 1.62276 3.56944 0
M  V30 3132 H 299.617 0.787418 4.10109 0
M  V30 3133 N 300.054 -1.07777 1.14986 0
M  V30 3134 C 301.47 -1.32373 0.891596 0
M  V30 3135 C 301.67 -1.9609 -0.463788 0
M  V30 3136 O 300.726 -2.21801 -1.20667 0
M  V30 3137 C 302.039 -2.21905 2.02925 0
M  V30 3138 C 303.587 -2.35367 2.06329 0
M  V30 3139 C 304.062 -3.28245 3.19405 0
M  V30 3140 N 305.553 -3.35824 3.19024 0
M  V30 3141 C 306.288 -4.07739 4.03158 0
M  V30 3142 N 305.784 -4.82306 4.97346 0
M  V30 3143 N 307.577 -4.03635 3.91197 0
M  V30 3144 H 299.728 -0.648039 2.02273 0
M  V30 3145 H 301.991 -0.348149 0.881757 0
M  V30 3146 H 301.697 -1.82342 3.0074 0
M  V30 3147 H 301.571 -3.22407 1.95789 0
M  V30 3148 H 303.958 -2.74186 1.09116 0
M  V30 3149 H 304.039 -1.34585 2.17533 0
M  V30 3150 H 303.683 -2.90146 4.16867 0
M  V30 3151 H 303.613 -4.28971 3.05437 0
M  V30 3152 H 306.104 -2.8267 2.50811 0
M  V30 3153 H 306.417 -5.34661 5.57994 0
M  V30 3154 H 304.762 -4.81337 5.01338 0
M  V30 3155 H 307.953 -3.44491 3.16928 0
M  V30 3156 H 308.126 -4.59417 4.5699 0
M  V30 3157 N 301.532 -0.945985 -1.26051 0
M  V30 3158 C 302.442 -0.465633 -2.29933 0
M  V30 3159 C 303.458 0.462761 -1.67733 0
M  V30 3160 O 304.634 0.341118 -1.9849 0
M  V30 3161 C 301.699 0.256994 -3.45746 0
M  V30 3162 C 300.76 -0.708549 -4.23412 0
M  V30 3163 C 299.993 -0.0203135 -5.33696 0
M  V30 3164 O 300.216 1.19571 -5.57726 0
M  V30 3165 O 299.15 -0.701459 -5.97799 0
M  V30 3166 H 302.976 -1.32866 -2.73094 0
M  V30 3167 H 300.561 -0.712071 -1.31339 0
M  V30 3168 H 302.443 0.663852 -4.16138 0
M  V30 3169 H 301.118 1.09533 -3.04605 0
M  V30 3170 H 300.025 -1.16545 -3.55483 0
M  V30 3171 H 301.358 -1.51465 -4.68315 0
M  V30 3172 N 303.011 1.40521 -0.713556 0
M  V30 3173 C 303.958 2.30723 -0.059684 0
M  V30 3174 C 304.928 1.48079 0.752448 0
M  V30 3175 O 306.113 1.76823 0.71681 0
M  V30 3176 C 303.253 3.34274 0.857594 0
M  V30 3177 C 302.366 4.31986 0.0351536 0
M  V30 3178 C 301.501 5.22605 0.951724 0
M  V30 3179 C 300.54 6.11976 0.123253 0
M  V30 3180 N 299.677 6.9502 0.99459 0
M  V30 3181 H 304.517 2.86074 -0.834596 0
M  V30 3182 H 302.054 1.40879 -0.42326 0
M  V30 3183 H 304.012 3.92879 1.40364 0
M  V30 3184 H 302.642 2.8043 1.59871 0
M  V30 3185 H 301.694 3.7518 -0.628052 0
M  V30 3186 H 303.006 4.95101 -0.606347 0
M  V30 3187 H 302.16 5.86131 1.56638 0
M  V30 3188 H 300.899 4.59759 1.62705 0
M  V30 3189 H 299.904 5.47482 -0.50435 0
M  V30 3190 H 301.129 6.76881 -0.548539 0
M  V30 3191 H 299.075 6.34764 1.6556 0
M  V30 3192 H 298.992 7.54892 0.40908 0
M  V30 3193 H 300.26 7.62997 1.59549 0
M  V30 3194 N 304.489 0.459591 1.5075 0
M  V30 3195 C 305.737 -0.0991532 2.01857 0
M  V30 3196 C 306.058 -1.41247 1.34441 0
M  V30 3197 O 305.328 -1.89775 0.486022 0
M  V30 3198 H 303.908 -0.039633 0.745948 0
M  V30 3199 H 306.57 0.607387 1.85194 0
M  V30 3200 H 305.666 -0.258998 3.11023 0
M  V30 3201 N 305.967 -1.56429 0.191757 0
M  V30 3202 C 307.192 -2.02309 -0.456706 0
M  V30 3203 C 307.617 -1.07103 -1.5463 0
M  V30 3204 O 306.975 -0.0539677 -1.8122 0
M  V30 3205 C 307.023 -3.46654 -0.993159 0
M  V30 3206 O 306.127 -3.54559 -2.10622 0
M  V30 3207 H 305.468 -0.655303 -0.107114 0
M  V30 3208 H 307.998 -2.02364 0.301653 0
M  V30 3209 H 308.008 -3.86377 -1.31061 0
M  V30 3210 H 306.683 -4.1544 -0.195504 0
M  V30 3211 H 305.26 -3.26708 -1.79767 0
M  V30 3212 N 307.445 0.0818655 -1.57387 0
M  V30 3213 C 308.67 0.799946 -1.91352 0
M  V30 3214 C 309.095 1.70833 -0.787258 0
M  V30 3215 O 308.453 1.79419 0.26048 0
M  V30 3216 C 308.501 1.57812 -3.24234 0
M  V30 3217 O 307.605 2.68806 -3.12757 0
M  V30 3218 H 306.946 0.21891 -0.626877 0
M  V30 3219 H 309.476 0.0531256 -2.04531 0
M  V30 3220 H 309.486 1.95952 -3.57864 0
M  V30 3221 H 308.161 0.911548 -4.05788 0
M  V30 3222 H 306.738 2.33597 -2.90666 0
M  V30 3223 N 308.923 1.53595 0.353017 0
M  V30 3224 C 309.886 1.80232 1.41594 0
M  V30 3225 C 310.886 0.673081 1.46035 0
M  V30 3226 O 312.076 0.941335 1.46576 0
M  V30 3227 C 309.208 1.93578 2.80607 0
M  V30 3228 H 310.401 2.75174 1.19244 0
M  V30 3229 H 307.954 1.44864 0.586872 0
M  V30 3230 H 308.689 1.00746 3.08254 0
M  V30 3231 H 308.474 2.75724 2.78781 0
M  V30 3232 H 309.964 2.15735 3.57558 0
M  V30 3233 N 310.401 -0.613514 1.45168 0
M  V30 3234 C 311.65 -1.36874 1.4815 0
M  V30 3235 C 311.963 -1.952 0.124982 0
M  V30 3236 O 313.169 -2.71481 0.0324176 0
M  V30 3237 C 311.625 -2.47905 2.60904 0
M  V30 3238 C 311.233 -1.96016 4.02842 0
M  V30 3239 C 312.977 -3.24965 2.73126 0
M  V30 3240 C 310.884 -3.04494 5.06988 0
M  V30 3241 H 309.814 -0.514428 0.551253 0
M  V30 3242 H 312.465 -0.658182 1.7129 0
M  V30 3243 H 310.847 -3.21618 2.31037 0
M  V30 3244 H 312.021 -1.29051 4.4236 0
M  V30 3245 H 310.336 -1.31719 3.95018 0
M  V30 3246 H 312.933 -4.05865 3.48106 0
M  V30 3247 H 313.276 -3.75588 1.79553 0
M  V30 3248 H 313.809 -2.5835 3.0249 0
M  V30 3249 H 310.548 -2.58795 6.0225 0
M  V30 3250 H 310.068 -3.70044 4.72046 0
M  V30 3251 H 311.747 -3.68976 5.31475 0
M  V30 3252 N 311.879 -1.3236 -0.855495 0
M  V30 3253 C 313.125 -1.23054 -1.612 0
M  V30 3254 C 313.458 0.207404 -1.93089 0
M  V30 3255 O 312.733 1.14432 -1.57275 0
M  V30 3256 C 313.016 -2.08937 -2.93287 0
M  V30 3257 C 312.869 -3.61105 -2.68185 0
M  V30 3258 C 314.188 -1.94986 -3.94549 0
M  V30 3259 H 311.307 -0.448364 -0.584926 0
M  V30 3260 H 313.949 -1.62297 -0.987917 0
M  V30 3261 H 312.099 -1.75599 -3.46551 0
M  V30 3262 H 313.771 -4.04652 -2.21483 0
M  V30 3263 H 312.014 -3.83813 -2.02164 0
M  V30 3264 H 312.685 -4.16522 -3.62234 0
M  V30 3265 H 315.161 -2.24189 -3.5054 0
M  V30 3266 H 314.037 -2.57356 -4.84829 0
M  V30 3267 H 314.298 -0.917263 -4.3248 0
M  V30 3268 N 313.357 1.07166 -1.15556 0
M  V30 3269 C 314.603 1.80065 -0.932984 0
M  V30 3270 C 314.936 1.86586 0.53845 0
M  V30 3271 O 314.211 1.35098 1.39924 0
M  V30 3272 C 314.494 3.25022 -1.55025 0
M  V30 3273 C 314.347 3.26634 -3.09242 0
M  V30 3274 C 315.666 4.22341 -1.2376 0
M  V30 3275 H 312.785 0.653697 -0.340366 0
M  V30 3276 H 315.427 1.25389 -1.4275 0
M  V30 3277 H 313.577 3.71712 -1.12972 0
M  V30 3278 H 315.249 2.88173 -3.60214 0
M  V30 3279 H 313.492 2.65539 -3.43033 0
M  V30 3280 H 314.163 4.28854 -3.47546 0
M  V30 3281 H 316.639 3.8405 -1.60139 0
M  V30 3282 H 315.515 5.22053 -1.69564 0
M  V30 3283 H 315.776 4.41828 -0.154938 0
M  V30 3284 N 314.835 0.952656 1.25548 0
M  V30 3285 C 316.083 0.605176 1.92826 0
M  V30 3286 C 316.404 -0.860261 1.74999 0
M  V30 3287 O 315.674 -1.6125 1.11244 0
M  V30 3288 H 314.254 0.220832 0.713612 0
M  V30 3289 H 316.916 1.21047 1.52754 0
M  V30 3290 H 316.012 0.832798 3.00784 0
M  V30 3291 N 316.313 -1.40141 0.720998 0
M  V30 3292 C 317.729 -1.54632 0.395113 0
M  V30 3293 C 317.929 -1.69115 -1.09555 0
M  V30 3294 O 316.985 -1.68377 -1.88163 0
M  V30 3295 C 318.298 -2.77177 1.1659 0
M  V30 3296 C 319.846 -2.91 1.15274 0
M  V30 3297 C 320.321 -4.16465 1.90579 0
M  V30 3298 N 321.812 -4.23476 1.87675 0
M  V30 3299 C 322.547 -5.19475 2.42762 0
M  V30 3300 N 322.043 -6.21348 3.06428 0
M  V30 3301 N 323.836 -5.11592 2.32874 0
M  V30 3302 H 315.987 -1.28986 1.68749 0
M  V30 3303 H 318.25 -0.62412 0.713567 0
M  V30 3304 H 317.956 -2.72771 2.22011 0
M  V30 3305 H 317.83 -3.69442 0.76108 0
M  V30 3306 H 320.217 -2.94907 0.106702 0
M  V30 3307 H 320.298 -1.99838 1.59682 0
M  V30 3308 H 319.942 -4.1332 2.95176 0
M  V30 3309 H 319.872 -5.06646 1.43587 0
M  V30 3310 H 322.363 -3.50497 1.41281 0
M  V30 3311 H 322.676 -6.91034 3.45965 0
M  V30 3312 H 321.021 -6.21777 3.10514 0
M  V30 3313 H 324.212 -4.30936 1.82789 0
M  V30 3314 H 324.385 -5.86233 2.76106 0
M  V30 3315 N 317.792 -0.46758 -1.50504 0
M  V30 3316 C 319.017 0.0886943 -2.0721 0
M  V30 3317 C 319.442 1.33057 -1.32956 0
M  V30 3318 O 318.8 1.77354 -0.376197 0
M  V30 3319 C 318.848 0.359202 -3.58806 0
M  V30 3320 O 317.952 1.44034 -3.8643 0
M  V30 3321 H 317.293 -0.0114349 -0.663902 0
M  V30 3322 H 319.823 -0.657613 -1.93744 0
M  V30 3323 H 319.833 0.600742 -4.03553 0
M  V30 3324 H 318.508 -0.548311 -4.1227 0
M  V30 3325 H 317.085 1.18638 -3.53524 0
M  V30 3326 N 319.27 1.56325 -0.20005 0
M  V30 3327 C 320.519 1.96895 0.437652 0
M  V30 3328 C 320.832 1.08999 1.62415 0
M  V30 3329 O 322.038 1.39372 2.32997 0
M  V30 3330 C 320.494 3.50198 0.830025 0
M  V30 3331 C 320.102 4.46765 -0.332461 0
M  V30 3332 C 321.846 3.99526 1.43453 0
M  V30 3333 C 319.753 5.91344 0.0811468 0
M  V30 3334 H 318.683 0.735209 0.167282 0
M  V30 3335 H 321.334 1.81148 -0.292853 0
M  V30 3336 H 319.716 3.61467 1.61734 0
M  V30 3337 H 320.89 4.47231 -1.11 0
M  V30 3338 H 319.205 4.07657 -0.848789 0
M  V30 3339 H 321.802 5.05025 1.75652 0
M  V30 3340 H 322.145 3.44122 2.34277 0
M  V30 3341 H 322.678 3.91393 0.71109 0
M  V30 3342 H 319.417 6.50685 -0.793033 0
M  V30 3343 H 318.937 5.94121 0.823445 0
M  V30 3344 H 320.616 6.44945 0.515252 0
M  V30 3345 N 320.748 -0.0735177 1.57428 0
M  V30 3346 C 321.976 -0.785969 1.9139 0
M  V30 3347 C 322.391 -1.71207 0.795847 0
M  V30 3348 O 321.748 -1.81033 -0.230915 0
M  V30 3349 C 321.799 -1.58107 3.25091 0
M  V30 3350 O 321.52 -0.6922 4.32597 0
M  V30 3351 C 323.021 -2.39467 3.73055 0
M  V30 3352 H 320.241 -0.223558 0.632663 0
M  V30 3353 H 322.785 -0.044302 2.04452 0
M  V30 3354 H 320.94 -2.27503 3.13562 0
M  V30 3355 H 321.354 -1.24504 5.09508 0
M  V30 3356 H 322.828 -2.90716 4.69242 0
M  V30 3357 H 323.305 -3.18913 3.01979 0
M  V30 3358 H 323.911 -1.7523 3.87523 0
M  V30 3359 N 322.226 -1.5378 -0.344866 0
M  V30 3360 C 323.173 -1.81676 -1.42346 0
M  V30 3361 C 324.143 -0.662376 -1.52321 0
M  V30 3362 O 325.328 -0.906675 -1.67881 0
M  V30 3363 C 322.468 -2.03087 -2.79015 0
M  V30 3364 C 321.581 -3.30799 -2.77842 0
M  V30 3365 C 320.716 -3.42285 -4.0622 0
M  V30 3366 C 319.755 -4.6395 -3.9927 0
M  V30 3367 N 318.892 -4.72477 -5.19336 0
M  V30 3368 H 323.732 -2.73703 -1.17858 0
M  V30 3369 H 321.269 -1.35568 -0.570949 0
M  V30 3370 H 323.227 -2.1349 -3.58438 0
M  V30 3371 H 321.857 -1.14375 -3.01858 0
M  V30 3372 H 320.909 -3.29244 -1.90533 0
M  V30 3373 H 322.221 -4.20314 -2.68584 0
M  V30 3374 H 321.375 -3.52113 -4.94066 0
M  V30 3375 H 320.114 -2.50823 -4.18258 0
M  V30 3376 H 319.119 -4.54201 -3.09809 0
M  V30 3377 H 320.344 -5.56775 -3.88817 0
M  V30 3378 H 318.29 -3.83924 -5.3192 0
M  V30 3379 H 318.207 -5.55927 -5.12329 0
M  V30 3380 H 319.475 -4.86613 -6.08957 0
M  V30 3381 N 323.704 0.605807 -1.45491 0
M  V30 3382 C 324.667 1.69836 -1.5391 0
M  V30 3383 C 325.667 1.55261 -0.418424 0
M  V30 3384 O 326.857 1.60296 -0.681965 0
M  V30 3385 C 323.989 3.09117 -1.43734 0
M  V30 3386 H 325.182 1.63738 -2.51257 0
M  V30 3387 H 322.735 0.821689 -1.32959 0
M  V30 3388 H 323.47 3.20791 -0.475788 0
M  V30 3389 H 323.255 3.21104 -2.25021 0
M  V30 3390 H 324.745 3.88696 -1.52661 0
M  V30 3391 N 325.182 1.32811 0.848464 0
M  V30 3392 C 326.092 1.24278 1.98978 0
M  V30 3393 C 327.108 0.155176 1.73307 0
M  V30 3394 O 328.284 0.376999 1.9784 0
M  V30 3395 C 325.349 0.972444 3.32783 0
M  V30 3396 C 324.41 2.14911 3.71634 0
M  V30 3397 C 323.643 1.89157 4.99054 0
M  V30 3398 O 323.866 0.837165 5.64223 0
M  V30 3399 O 322.8 2.75433 5.35183 0
M  V30 3400 H 326.626 2.20238 2.09115 0
M  V30 3401 H 324.211 1.12762 0.980052 0
M  V30 3402 H 326.093 0.838432 4.12975 0
M  V30 3403 H 324.768 0.043051 3.23671 0
M  V30 3404 H 323.675 2.33862 2.91992 0
M  V30 3405 H 325.008 3.06151 3.85399 0
M  V30 3406 N 326.66 -1.06551 1.16123 0
M  V30 3407 C 327.937 -1.76097 0.85142 0
M  V30 3408 C 328.317 -2.00802 -0.6513 0
M  V30 3409 O 327.665 -1.63302 -1.59827 0
M  V30 3410 C 327.875 -3.06384 1.67122 0
M  V30 3411 C 329.223 -3.80585 1.88255 0
M  V30 3412 O 330.247 -3.16218 1.63966 0
M  V30 3413 O 329.106 -4.96212 2.2899 0
M  V30 3414 H 326.2 -0.765102 0.313923 0
M  V30 3415 H 328.746 -1.12844 1.26745 0
M  V30 3416 H 327.518 -2.84071 2.69108 0
M  V30 3417 H 327.141 -3.77371 1.25206 0
M  V30 3418 N 328.138 -0.959301 -1.25041 0
M  V30 3419 C 329.549 -0.65667 -1.74771 0
M  V30 3420 C 329.9 0.827852 -1.77879 0
M  V30 3421 O 329.025 1.64783 -1.40269 0
M  V30 3422 C 329.62 -1.1853 -3.1739 0
M  V30 3423 C 328.179 -0.932734 -3.6466 0
M  V30 3424 C 327.326 -1.32558 -2.43564 0
M  V30 3425 H 330.277 -1.13558 -1.10862 0
M  V30 3426 H 330.298 -0.547582 -3.76539 0
M  V30 3427 H 329.81 -2.26576 -3.15095 0
M  V30 3428 H 327.911 0.13257 -3.72364 0
M  V30 3429 H 328.024 -1.57248 -4.52559 0
M  V30 3430 H 326.388 -0.743956 -2.43593 0
M  V30 3431 H 327.171 -2.41537 -2.43957 0
M  V30 3432 N 329.616 1.39756 -0.72842 0
M  V30 3433 C 330.862 2.00942 -0.273892 0
M  V30 3434 C 331.195 1.57656 1.13394 0
M  V30 3435 O 330.47 0.802434 1.77176 0
M  V30 3436 C 330.753 3.58211 -0.368346 0
M  V30 3437 C 330.606 4.11534 -1.81548 0
M  V30 3438 C 331.925 4.39372 0.253054 0
M  V30 3439 H 329.044 0.730047 -0.100996 0
M  V30 3440 H 331.686 1.66056 -0.923337 0
M  V30 3441 H 329.836 3.88061 0.184588 0
M  V30 3442 H 331.508 3.92431 -2.42478 0
M  V30 3443 H 329.751 3.65341 -2.33898 0
M  V30 3444 H 330.422 5.20682 -1.83288 0
M  V30 3445 H 332.898 4.15527 -0.218224 0
M  V30 3446 H 331.774 5.48677 0.156585 0
M  V30 3447 H 332.035 4.21358 1.33826 0
M  V30 3448 N 331.094 0.475555 1.50254 0
M  V30 3449 C 332.041 -0.316293 2.28622 0
M  V30 3450 C 333.011 -0.983227 1.33873 0
M  V30 3451 O 334.196 -0.994805 1.62814 0
M  V30 3452 C 331.336 -1.38975 3.1588 0
M  V30 3453 C 330.449 -0.737146 4.25664 0
M  V30 3454 C 329.584 -1.78887 5.00173 0
M  V30 3455 C 328.623 -1.11676 6.01826 0
M  V30 3456 N 327.76 -2.11154 6.69596 0
M  V30 3457 H 332.6 0.358297 2.95838 0
M  V30 3458 H 330.137 0.188541 1.45887 0
M  V30 3459 H 332.095 -2.02383 3.64825 0
M  V30 3460 H 330.725 -2.03344 2.50701 0
M  V30 3461 H 329.777 0.0096065 3.80399 0
M  V30 3462 H 331.089 -0.206816 4.98371 0
M  V30 3463 H 330.243 -2.49865 5.52859 0
M  V30 3464 H 328.982 -2.35302 4.27182 0
M  V30 3465 H 327.987 -0.392633 5.48396 0
M  V30 3466 H 329.212 -0.55945 6.76792 0
M  V30 3467 H 327.158 -2.66577 5.99394 0
M  V30 3468 H 327.075 -1.63118 7.38193 0
M  V30 3469 H 328.343 -2.81497 7.26897 0
M  V30 3470 N 332.573 -1.56217 0.208337 0
M  V30 3471 C 333.536 -2.18455 -0.693557 0
M  V30 3472 C 334.536 -1.14268 -1.13135 0
M  V30 3473 O 335.726 -1.39577 -1.0423 0
M  V30 3474 C 332.858 -2.79727 -1.94848 0
M  V30 3475 H 334.051 -2.99519 -0.15114 0
M  V30 3476 H 331.604 -1.56245 -0.041287 0
M  V30 3477 H 332.339 -2.02497 -2.53309 0
M  V30 3478 H 332.124 -3.56009 -1.64316 0
M  V30 3479 H 333.614 -3.27475 -2.59133 0
M  V30 3480 N 334.051 0.0651679 -1.57465 0
M  V30 3481 C 335.281 0.774683 -1.91526 0
M  V30 3482 C 335.689 1.71305 -0.803196 0
M  V30 3483 O 335.032 1.82231 0.231881 0
M  V30 3484 C 335.094 1.61645 -3.21109 0
M  V30 3485 C 334.758 0.846753 -4.49087 0
M  V30 3486 C 335.755 0.163024 -5.19644 0
M  V30 3487 C 333.44 0.811966 -4.95694 0
M  V30 3488 C 335.434 -0.54519 -6.35064 0
M  V30 3489 C 333.121 0.0999836 -6.11018 0
M  V30 3490 C 334.119 -0.577388 -6.80555 0
M  V30 3491 O 333.807 -1.27789 -7.93678 0
M  V30 3492 H 333.539 0.225031 -0.637446 0
M  V30 3493 H 336.093 0.0377134 -2.05365 0
M  V30 3494 H 334.323 2.39638 -3.03497 0
M  V30 3495 H 336.012 2.20525 -3.40769 0
M  V30 3496 H 336.778 0.181163 -4.84662 0
M  V30 3497 H 332.657 1.32867 -4.41438 0
M  V30 3498 H 336.201 -1.07446 -6.89276 0
M  V30 3499 H 332.098 0.0797945 -6.45451 0
M  V30 3500 H 332.866 -1.18784 -8.09835 0
M  V30 3501 N 335.529 1.53961 0.336706 0
M  V30 3502 C 336.476 1.82428 1.41381 0
M  V30 3503 C 337.446 0.670444 1.51968 0
M  V30 3504 O 338.631 0.915565 1.67398 0
M  V30 3505 C 335.771 2.04564 2.77934 0
M  V30 3506 C 334.884 3.32267 2.76084 0
M  V30 3507 C 334.019 3.44434 4.04399 0
M  V30 3508 C 333.058 4.66061 3.96804 0
M  V30 3509 N 332.195 4.75224 5.16823 0
M  V30 3510 H 337.035 2.74324 1.16405 0
M  V30 3511 H 334.572 1.35869 0.563752 0
M  V30 3512 H 336.53 2.15388 3.57301 0
M  V30 3513 H 335.16 1.15974 3.01247 0
M  V30 3514 H 334.212 3.3025 1.88784 0
M  V30 3515 H 335.524 4.21733 2.66351 0
M  V30 3516 H 334.678 3.54728 4.92192 0
M  V30 3517 H 333.417 2.53037 4.16921 0
M  V30 3518 H 332.422 4.55838 3.07396 0
M  V30 3519 H 333.647 5.58829 3.85858 0
M  V30 3520 H 331.593 3.86739 5.29876 0
M  V30 3521 H 331.51 5.58636 5.09374 0
M  V30 3522 H 332.778 4.89835 6.06367 0
M  V30 3523 N 337.007 -0.598083 1.45811 0
M  V30 3524 C 337.97 -1.69018 1.54808 0
M  V30 3525 C 338.97 -1.55037 0.426652 0
M  V30 3526 O 340.16 -1.59932 0.690456 0
M  V30 3527 C 337.292 -3.0835 1.45371 0
M  V30 3528 H 338.485 -1.62403 2.52121 0
M  V30 3529 H 336.038 -0.814626 1.33392 0
M  V30 3530 H 336.773 -3.20534 0.492793 0
M  V30 3531 H 336.558 -3.19907 2.26721 0
M  V30 3532 H 338.048 -3.8788 1.54721 0
M  V30 3533 N 338.485 -1.33259 -0.841409 0
M  V30 3534 C 339.731 -1.24757 -1.59886 0
M  V30 3535 C 340.064 0.186913 -1.93298 0
M  V30 3536 O 339.339 1.12757 -1.5848 0
M  V30 3537 C 339.622 -2.12036 -2.91055 0
M  V30 3538 C 339.475 -3.63929 -2.6434 0
M  V30 3539 C 340.794 -1.9916 -3.92458 0
M  V30 3540 H 337.913 -0.454542 -0.580138 0
M  V30 3541 H 340.555 -1.63335 -0.970647 0
M  V30 3542 H 338.705 -1.79265 -3.44669 0
M  V30 3543 H 340.377 -4.06978 -2.17178 0
M  V30 3544 H 338.62 -3.85935 -1.98082 0
M  V30 3545 H 339.291 -4.20341 -3.57796 0
M  V30 3546 H 341.767 -2.27895 -3.48143 0
M  V30 3547 H 340.643 -2.62484 -4.82072 0
M  V30 3548 H 340.904 -0.963082 -4.31482 0
M  V30 3549 N 339.963 1.05934 -1.16686 0
M  V30 3550 C 341.379 1.30938 -0.912542 0
M  V30 3551 C 341.579 1.96803 0.432533 0
M  V30 3552 O 340.635 2.23693 1.17123 0
M  V30 3553 C 341.948 2.18649 -2.06429 0
M  V30 3554 C 343.496 2.32055 -2.10047 0
M  V30 3555 C 343.971 3.23122 -3.24586 0
M  V30 3556 N 345.462 3.30706 -3.24327 0
M  V30 3557 C 346.197 4.01273 -4.09594 0
M  V30 3558 N 345.693 4.74332 -5.04956 0
M  V30 3559 N 347.486 3.97361 -3.97569 0
M  V30 3560 H 339.637 0.615777 -2.03278 0
M  V30 3561 H 341.9 0.334077 -0.887185 0
M  V30 3562 H 341.606 1.77534 -3.03603 0
M  V30 3563 H 341.48 3.19252 -2.00894 0
M  V30 3564 H 343.867 2.72415 -1.13464 0
M  V30 3565 H 343.948 1.31107 -2.19647 0
M  V30 3566 H 343.592 2.83477 -4.2143 0
M  V30 3567 H 343.522 4.24057 -3.12223 0
M  V30 3568 H 346.013 2.78644 -2.55276 0
M  V30 3569 H 346.326 5.25716 -5.6643 0
M  V30 3570 H 344.671 4.733 -5.08933 0
M  V30 3571 H 347.862 3.39405 -3.22369 0
M  V30 3572 H 348.035 4.52089 -4.64241 0
M  V30 3573 N 341.441 0.965919 1.2453 0
M  V30 3574 C 342.371 0.513476 2.27784 0
M  V30 3575 C 343.352 -0.445974 1.6415 0
M  V30 3576 O 344.537 -0.342485 1.91156 0
M  V30 3577 C 341.667 -0.198839 3.4673 0
M  V30 3578 C 340.621 0.676456 4.2262 0
M  V30 3579 C 339.947 -0.167248 5.34438 0
M  V30 3580 C 341.247 1.96017 4.84123 0
M  V30 3581 H 342.941 1.3765 2.65881 0
M  V30 3582 H 340.487 0.663321 1.27813 0
M  V30 3583 H 342.44 -0.526567 4.18097 0
M  V30 3584 H 341.164 -1.0962 3.07654 0
M  V30 3585 H 339.823 0.98743 3.53052 0
M  V30 3586 H 339.471 -1.0647 4.91603 0
M  V30 3587 H 339.171 0.415181 5.86131 0
M  V30 3588 H 340.695 -0.489688 6.08633 0
M  V30 3589 H 342.109 1.69814 5.47573 0
M  V30 3590 H 340.506 2.48918 5.4604 0
M  V30 3591 H 341.576 2.65622 4.05676 0
M  V30 3592 N 342.919 -1.39368 0.735821 0
M  V30 3593 C 343.829 -2.34395 0.0979693 0
M  V30 3594 C 344.845 -1.58361 -0.720968 0
M  V30 3595 O 346.021 -1.90648 -0.649245 0
M  V30 3596 C 343.086 -3.37393 -0.797916 0
M  V30 3597 C 342.147 -4.29287 0.0333662 0
M  V30 3598 C 341.38 -5.27365 -0.819854 0
M  V30 3599 O 341.603 -5.31959 -2.05855 0
M  V30 3600 O 340.537 -6.01389 -0.248079 0
M  V30 3601 H 344.363 -2.90601 0.882315 0
M  V30 3602 H 341.948 -1.40909 0.4965 0
M  V30 3603 H 343.83 -4.00505 -1.31048 0
M  V30 3604 H 342.505 -2.83571 -1.56106 0
M  V30 3605 H 341.412 -3.69395 0.591475 0
M  V30 3606 H 342.745 -4.86317 0.758752 0
M  V30 3607 N 344.397 -0.483516 -1.5 0
M  V30 3608 C 345.643 0.0593261 -2.03313 0
M  V30 3609 C 345.998 1.36288 -1.35806 0
M  V30 3610 O 345.291 1.85519 -0.478897 0
M  V30 3611 C 345.485 0.286226 -3.56252 0
M  V30 3612 C 345.314 -0.993788 -4.38582 0
M  V30 3613 C 344.084 -1.54064 -4.81241 0
M  V30 3614 C 346.282 -1.89249 -4.78215 0
M  V30 3615 N 344.264 -2.76838 -5.47936 0
M  V30 3616 C 345.635 -2.96606 -5.44449 0
M  V30 3617 C 347.69 -1.90138 -4.60165 0
M  V30 3618 C 346.393 -4.04857 -5.94544 0
M  V30 3619 C 348.419 -2.97353 -5.1121 0
M  V30 3620 C 347.781 -4.03429 -5.77429 0
M  V30 3621 H 343.88 -0.0186322 -0.781778 0
M  V30 3622 H 346.464 -0.654489 -1.8337 0
M  V30 3623 H 344.635 0.969086 -3.76116 0
M  V30 3624 H 346.367 0.824515 -3.96212 0
M  V30 3625 H 343.122 -1.08813 -4.6093 0
M  V30 3626 H 343.546 -3.39221 -5.85882 0
M  V30 3627 H 348.188 -1.09441 -4.0839 0
M  V30 3628 H 345.906 -4.86363 -6.4535 0
M  V30 3629 H 349.492 -2.99039 -4.99066 0
M  V30 3630 H 348.372 -4.85025 -6.16214 0
M  V30 3631 N 345.875 1.56104 -0.216619 0
M  V30 3632 C 346.785 2.23694 0.706982 0
M  V30 3633 C 347.801 1.24295 1.21765 0
M  V30 3634 O 348.977 1.57094 1.2603 0
M  V30 3635 C 346.042 2.8998 1.90033 0
M  V30 3636 C 345.103 4.04708 1.43213 0
M  V30 3637 C 344.336 4.67824 2.56859 0
M  V30 3638 O 344.559 4.29913 3.74874 0
M  V30 3639 O 343.493 5.56905 2.28343 0
M  V30 3640 H 347.319 3.03272 0.161235 0
M  V30 3641 H 344.904 1.49394 0.0136177 0
M  V30 3642 H 346.786 3.31837 2.59735 0
M  V30 3643 H 345.461 2.13365 2.43428 0
M  V30 3644 H 344.368 3.6743 0.70327 0
M  V30 3645 H 345.701 4.83051 0.944615 0
M  V30 3646 N 347.353 -0.0568162 1.57498 0
M  V30 3647 C 348.601 -0.751617 1.87604 0
M  V30 3648 C 348.922 -1.77351 0.81066 0
M  V30 3649 O 348.192 -1.95254 -0.159018 0
M  V30 3650 H 346.772 -0.280583 0.692302 0
M  V30 3651 H 349.434 -0.0293483 1.94878 0
M  V30 3652 H 348.53 -1.25852 2.856 0
M  V30 3653 N 348.832 -1.54138 -0.328536 0
M  V30 3654 C 350.081 -1.71318 -1.06456 0
M  V30 3655 C 350.394 -0.491109 -1.89334 0
M  V30 3656 O 351.6 -0.54416 -2.65991 0
M  V30 3657 C 350.056 -3.03 -1.94214 0
M  V30 3658 C 349.664 -4.32595 -1.16471 0
M  V30 3659 C 351.408 -3.29544 -2.67583 0
M  V30 3660 C 349.315 -5.55341 -2.03347 0
M  V30 3661 H 348.245 -0.638429 -0.401155 0
M  V30 3662 H 350.896 -1.80633 -0.323106 0
M  V30 3663 H 349.278 -2.87579 -2.72239 0
M  V30 3664 H 350.452 -4.58766 -0.432525 0
M  V30 3665 H 348.767 -4.12777 -0.548063 0
M  V30 3666 H 351.364 -4.18444 -3.3288 0
M  V30 3667 H 351.707 -2.47206 -3.34955 0
M  V30 3668 H 352.24 -3.45809 -1.96623 0
M  V30 3669 H 348.979 -6.40268 -1.40491 0
M  V30 3670 H 348.499 -5.33397 -2.74313 0
M  V30 3671 H 350.178 -5.91557 -2.62049 0
M  V30 3672 N 350.31 0.590341 -1.46126 0
M  V30 3673 C 351.257 1.69994 -1.56111 0
M  V30 3674 C 352.227 1.61065 -0.405867 0
M  V30 3675 O 353.412 1.8039 -0.621613 0
M  V30 3676 C 350.552 3.08326 -1.55013 0
M  V30 3677 C 349.665 3.27936 -2.81215 0
M  V30 3678 C 348.8 4.56473 -2.71673 0
M  V30 3679 C 347.839 4.694 -3.92849 0
M  V30 3680 N 346.976 5.89254 -3.81738 0
M  V30 3681 H 351.816 1.60797 -2.50895 0
M  V30 3682 H 349.353 0.783799 -1.24479 0
M  V30 3683 H 351.311 3.88383 -1.52362 0
M  V30 3684 H 349.941 3.16439 -0.637667 0
M  V30 3685 H 348.993 2.41536 -2.93879 0
M  V30 3686 H 350.305 3.33357 -3.71045 0
M  V30 3687 H 349.459 5.44748 -2.67085 0
M  V30 3688 H 348.198 4.53477 -1.7947 0
M  V30 3689 H 347.203 3.79544 -3.97777 0
M  V30 3690 H 348.428 4.7418 -4.86138 0
M  V30 3691 H 346.374 5.87271 -2.92317 0
M  V30 3692 H 346.291 5.95911 -4.65217 0
M  V30 3693 H 347.559 6.79981 -3.81112 0
M  V30 3694 N 351.788 1.33704 0.83433 0
M  V30 3695 C 353.013 1.28615 1.62705 0
M  V30 3696 C 353.438 -0.139242 1.87584 0
M  V30 3697 O 352.796 -1.09734 1.4432 0
M  V30 3698 C 352.844 2.07139 2.95171 0
M  V30 3699 O 351.948 1.4331 3.86699 0
M  V30 3700 H 351.289 0.44226 0.49528 0
M  V30 3701 H 353.819 1.76335 1.03766 0
M  V30 3702 H 353.829 2.18073 3.44831 0
M  V30 3703 H 352.504 3.10779 2.76386 0
M  V30 3704 H 351.081 1.4105 3.45195 0
M  V30 3705 O 353.305 -0.972346 1.28948 0
M  V30 3706 H 353.996 -1.59791 1.09484 0
M  V30 END ATOM
M  V30 BEGIN BOND
M  V30 END BOND
M  V30 END CTAB
M  END
$$$$
