drugbank_target|P78508 ATP-sensitive inward rectifier potassium channel 10 (DB01392; DB11148)
 OpenBabel12092121003D

  0  0  0     0  0            999 V3000
M  V30 BEGIN CTAB
M  V30 COUNTS 6048 6112 0 0 0
M  V30 BEGIN ATOM
M  V30 1 H -0.908 1.98254 -0.117106 0
M  V30 2 N 0 1.576 0 0
M  V30 3 C 0.933 2.03868 1.02534 0
M  V30 4 C 1.911 0.928543 1.3348 0
M  V30 5 O 3.095 1.19667 1.45644 0
M  V30 6 C 0.222 2.43627 2.35294 0
M  V30 7 C -0.732 3.65373 2.2001 0
M  V30 8 S 0.101 5.13292 1.52614 0
M  V30 9 C 1.257 5.56322 2.86805 0
M  V30 10 H 1.49 2.90518 0.631377 0
M  V30 11 H -0.977 1.52953 0.210867 0
M  V30 12 H 0.981 2.67203 3.11629 0
M  V30 13 H -0.358 1.57376 2.7183 0
M  V30 14 H -1.165 3.90944 3.18086 0
M  V30 15 H -1.563 3.418 1.51819 0
M  V30 16 H 0.729 5.58782 3.83104 0
M  V30 17 H 1.672 6.56266 2.65933 0
M  V30 18 H 2.08 4.83886 2.90714 0
M  V30 19 N 1.4781 -0.272755 1.55222 0
M  V30 20 C 2.7061 -1.02255 1.79865 0
M  V30 21 C 3.1211 -1.79924 0.572088 0
M  V30 22 O 2.4781 -1.76638 -0.458842 0
M  V30 23 C 2.5291 -1.98094 3.02392 0
M  V30 24 O 2.2501 -1.23572 4.20311 0
M  V30 25 C 3.7511 -2.84884 3.39641 0
M  V30 26 H 0.9711 -0.302057 0.599168 0
M  V30 27 H 3.5151 -0.303465 2.02236 0
M  V30 28 H 1.6701 -2.65465 2.82147 0
M  V30 29 H 2.0841 -1.88172 4.89583 0
M  V30 30 H 3.5581 -3.47927 4.28545 0
M  V30 31 H 4.0351 -3.54665 2.59055 0
M  V30 32 H 4.6411 -2.23003 3.62146 0
M  V30 33 N 2.9562 -1.48159 -0.537278 0
M  V30 34 C 4.1812 -1.59707 -1.32319 0
M  V30 35 C 4.6062 -0.254859 -1.86365 0
M  V30 36 O 3.9642 0.772378 -1.64024 0
M  V30 37 C 4.0122 -2.6412 -2.45505 0
M  V30 38 O 3.1162 -2.20774 -3.48328 0
M  V30 39 H 2.4572 -0.535791 -0.392204 0
M  V30 40 H 4.9872 -1.94092 -0.647268 0
M  V30 41 H 4.9972 -2.85166 -2.91795 0
M  V30 42 H 3.6722 -3.61567 -2.05528 0
M  V30 43 H 2.2492 -2.09911 -3.08207 0
M  V30 44 N 4.4343 0.785586 -1.36625 0
M  V30 45 C 5.6803 1.54591 -1.31261 0
M  V30 46 C 6.0133 1.93906 0.106823 0
M  V30 47 O 5.2883 1.63007 1.06108 0
M  V30 48 C 5.5713 2.82038 -2.23889 0
M  V30 49 C 5.4243 2.49066 -3.74548 0
M  V30 50 C 6.7433 3.83887 -2.15217 0
M  V30 51 H 3.8623 0.560846 -0.478143 0
M  V30 52 H 6.5043 0.902278 -1.67209 0
M  V30 53 H 4.6543 3.36961 -1.93363 0
M  V30 54 H 6.3263 2.00164 -4.15611 0
M  V30 55 H 4.5693 1.81954 -3.93796 0
M  V30 56 H 5.2403 3.40109 -4.34776 0
M  V30 57 H 7.7163 3.38421 -2.42096 0
M  V30 58 H 6.5923 4.70806 -2.82193 0
M  V30 59 H 6.8533 4.27131 -1.14068 0
M  V30 60 N 5.9124 1.20967 1.01018 0
M  V30 61 C 6.8754 0.965918 2.07853 0
M  V30 62 C 7.8754 -0.0610545 1.60684 0
M  V30 63 O 9.0654 0.175681 1.73312 0
M  V30 64 C 6.1974 0.455513 3.37843 0
M  V30 65 H 7.3904 1.91365 2.3091 0
M  V30 66 H 4.9434 1.02594 1.17916 0
M  V30 67 H 5.6784 -0.497381 3.20463 0
M  V30 68 H 5.4634 1.19622 3.73407 0
M  V30 69 H 6.9534 0.304667 4.16487 0
M  V30 70 N 7.3905 -1.2043 1.01659 0
M  V30 71 C 8.3375 -2.23215 0.586822 0
M  V30 72 C 9.3075 -1.61382 -0.393085 0
M  V30 73 O 10.4925 -1.88544 -0.292525 0
M  V30 74 C 7.6325 -3.45032 -0.0687464 0
M  V30 75 C 6.7455 -4.21296 0.955724 0
M  V30 76 C 5.8805 -5.30507 0.271208 0
M  V30 77 C 4.9195 -5.98515 1.28244 0
M  V30 78 N 4.0565 -6.99316 0.62459 0
M  V30 79 H 8.8965 -2.59336 1.46796 0
M  V30 80 H 6.4335 -1.27431 0.734836 0
M  V30 81 H 8.3915 -4.1459 -0.465965 0
M  V30 82 H 7.0215 -3.09604 -0.913529 0
M  V30 83 H 6.0735 -3.50803 1.4711 0
M  V30 84 H 7.3855 -4.6803 1.72479 0
M  V30 85 H 6.5395 -6.06428 -0.18151 0
M  V30 86 H 5.2785 -4.8481 -0.530163 0
M  V30 87 H 4.2835 -5.21355 1.74554 0
M  V30 88 H 5.5085 -6.46298 2.08509 0
M  V30 89 H 3.4545 -6.55812 -0.156914 0
M  V30 90 H 3.3715 -7.44178 1.33172 0
M  V30 91 H 4.6395 -7.79255 0.195462 0
M  V30 92 N 8.8686 -0.792821 -1.36206 0
M  V30 93 C 10.1146 -0.36733 -1.99446 0
M  V30 94 C 10.4476 1.05917 -1.62774 0
M  V30 95 O 9.7226 1.7324 -0.88421 0
M  V30 96 C 10.0056 -0.535044 -3.56103 0
M  V30 97 C 9.8586 -2.00548 -4.02617 0
M  V30 98 C 11.1776 0.0478191 -4.40074 0
M  V30 99 H 8.2966 -0.134941 -0.724541 0
M  V30 100 H 10.9386 -0.999794 -1.61568 0
M  V30 101 H 9.0886 0.00336329 -3.885 0
M  V30 102 H 10.7606 -2.60521 -3.80692 0
M  V30 103 H 9.0036 -2.50686 -3.54032 0
M  V30 104 H 9.6746 -2.07377 -5.11565 0
M  V30 105 H 12.1506 -0.411822 -4.14057 0
M  V30 106 H 11.0266 -0.0995336 -5.4881 0
M  V30 107 H 11.2876 1.14025 -4.27142 0
M  V30 108 N 10.3467 1.47872 -0.545128 0
M  V30 109 C 11.5767 2.06589 -0.0210534 0
M  V30 110 C 11.9847 1.39997 1.27269 0
M  V30 111 O 11.3277 0.486421 1.77143 0
M  V30 112 C 11.3897 3.58574 0.257933 0
M  V30 113 C 11.0537 4.47132 -0.944573 0
M  V30 114 C 12.0507 4.85986 -1.84699 0
M  V30 115 C 9.7357 4.88821 -1.15584 0
M  V30 116 C 11.7297 5.65314 -2.94446 0
M  V30 117 C 9.4167 5.67916 -2.25642 0
M  V30 118 C 10.4147 6.06073 -3.14905 0
M  V30 119 O 10.1027 6.83578 -4.23057 0
M  V30 120 H 9.8347 0.674971 -0.0372899 0
M  V30 121 H 12.3887 1.91037 -0.754599 0
M  V30 122 H 10.6187 3.72295 1.04564 0
M  V30 123 H 12.3077 3.99356 0.72592 0
M  V30 124 H 13.0737 4.54388 -1.69577 0
M  V30 125 H 8.9527 4.58595 -0.470279 0
M  V30 126 H 12.4967 5.95016 -3.64145 0
M  V30 127 H 8.3937 5.98927 -2.40742 0
M  V30 128 H 9.1617 7.01954 -4.20954 0
M  V30 129 N 11.8248 0.280983 1.55075 0
M  V30 130 C 13.0548 -0.336804 2.03836 0
M  V30 131 C 13.4628 -1.49577 1.15859 0
M  V30 132 O 12.8058 -1.82888 0.172503 0
M  V30 133 C 12.8678 -0.874616 3.48699 0
M  V30 134 C 12.5318 0.156478 4.56732 0
M  V30 135 C 13.5288 0.978032 5.10618 0
M  V30 136 C 11.2138 0.292409 5.01448 0
M  V30 137 C 13.2078 1.92165 6.07743 0
M  V30 138 C 10.8948 1.23949 5.98398 0
M  V30 139 C 11.8928 2.05261 6.51427 0
M  V30 140 O 11.5808 2.98367 7.4648 0
M  V30 141 H 11.3128 -0.0800885 0.671239 0
M  V30 142 H 13.8668 0.412589 2.01213 0
M  V30 143 H 12.0968 -1.67418 3.4858 0
M  V30 144 H 13.7858 -1.40612 3.80766 0
M  V30 145 H 14.5518 0.883782 4.7688 0
M  V30 146 H 10.4308 -0.330498 4.59814 0
M  V30 147 H 13.9748 2.55672 6.49059 0
M  V30 148 H 9.8718 1.33454 6.31554 0
M  V30 149 H 10.6398 2.93116 7.64215 0
M  V30 150 N 13.3029 -1.57598 0.00835791 0
M  V30 151 C 14.5279 -1.95617 -0.689103 0
M  V30 152 C 14.9529 -0.883753 -1.66046 0
M  V30 153 O 14.3109 0.157352 -1.80616 0
M  V30 154 C 14.3589 -3.32736 -1.38994 0
M  V30 155 O 13.4629 -3.27631 -2.50463 0
M  V30 156 H 12.8039 -0.638379 -0.182668 0
M  V30 157 H 15.3339 -2.045 0.064036 0
M  V30 158 H 15.3439 -3.68494 -1.75147 0
M  V30 159 H 14.0189 -4.1034 -0.677778 0
M  V30 160 H 12.5959 -3.03561 -2.16576 0
M  V30 161 N 14.781 0.264519 -1.55364 0
M  V30 162 C 15.713 1.34965 -1.85248 0
M  V30 163 C 16.726 1.45136 -0.737525 0
M  V30 164 O 17.915 1.46801 -1.01547 0
M  V30 165 C 15.015 2.73008 -2.00797 0
M  V30 166 C 14.188 2.85324 -3.31525 0
M  V30 167 C 13.247 4.04097 -3.37034 0
M  V30 168 O 12.273 3.94455 -4.10358 0
M  V30 169 N 13.475 5.16458 -2.65049 0
M  V30 170 H 16.24 1.09672 -2.78913 0
M  V30 171 H 13.801 0.454635 -1.55386 0
M  V30 172 H 15.793 3.50772 -2.01844 0
M  V30 173 H 14.363 2.91087 -1.1396 0
M  V30 174 H 13.583 1.94377 -3.42945 0
M  V30 175 H 14.871 2.9049 -4.17724 0
M  V30 176 H 14.269 5.27181 -2.05175 0
M  V30 177 H 12.826 5.92422 -2.71809 0
M  V30 178 N 16.2591 1.48442 0.529413 0
M  V30 179 C 17.4871 1.60151 1.30994 0
M  V30 180 C 17.9021 0.261985 1.86973 0
M  V30 181 O 17.2591 -0.748805 1.66431 0
M  V30 182 C 17.3101 2.64854 2.46038 0
M  V30 183 O 17.0311 3.93608 1.92365 0
M  V30 184 C 18.5321 2.87007 3.37849 0
M  V30 185 H 15.7521 0.539971 0.398338 0
M  V30 186 H 18.2961 1.94273 0.638597 0
M  V30 187 H 16.4511 2.33589 3.09055 0
M  V30 188 H 16.8651 4.51055 2.67675 0
M  V30 189 H 18.3391 3.64068 4.14919 0
M  V30 190 H 18.8161 1.95852 3.93114 0
M  V30 191 H 19.4221 3.19579 2.80623 0
M  V30 192 N 17.7372 -0.778329 1.37039 0
M  V30 193 C 18.9652 -1.56734 1.35063 0
M  V30 194 C 19.3802 -1.88686 -0.0655597 0
M  V30 195 O 18.7372 -1.5096 -1.02554 0
M  V30 196 C 18.7882 -2.88163 2.18276 0
M  V30 197 O 18.5092 -2.57583 3.54376 0
M  V30 198 C 20.0102 -3.82422 2.24206 0
M  V30 199 H 17.2302 -0.485778 0.462883 0
M  V30 200 H 19.7742 -0.965185 1.8029 0
M  V30 201 H 17.9292 -3.44818 1.76576 0
M  V30 202 H 18.3432 -3.41699 3.97922 0
M  V30 203 H 19.8172 -4.71667 2.86765 0
M  V30 204 H 20.2942 -4.21078 1.24861 0
M  V30 205 H 20.9002 -3.31697 2.6619 0
M  V30 206 N 19.2153 -1.21501 -1.00376 0
M  V30 207 C 20.1473 -0.933174 -2.09343 0
M  V30 208 C 21.1603 0.0840896 -1.62583 0
M  V30 209 O 22.3493 -0.148563 -1.77881 0
M  V30 210 C 19.4493 -0.379869 -3.36764 0
M  V30 211 C 18.6223 -1.45176 -4.12605 0
M  V30 212 C 17.6813 -0.907476 -5.18316 0
M  V30 213 O 16.7073 -1.5912 -5.46507 0
M  V30 214 N 17.9093 0.276649 -5.7984 0
M  V30 215 H 20.6743 -1.87124 -2.34104 0
M  V30 216 H 18.2353 -1.12043 -1.16867 0
M  V30 217 H 20.2273 -0.00131488 -4.047 0
M  V30 218 H 18.7973 0.463048 -3.09151 0
M  V30 219 H 18.0173 -2.00411 -3.39454 0
M  V30 220 H 19.3053 -2.17328 -4.6005 0
M  V30 221 H 18.7033 0.849147 -5.59291 0
M  V30 222 H 17.2603 0.596702 -6.49063 0
M  V30 223 N 20.6934 1.19889 -1.02296 0
M  V30 224 C 21.9214 1.9339 -0.735399 0
M  V30 225 C 22.3364 1.75148 0.704887 0
M  V30 226 O 21.6934 1.06954 1.47875 0
M  V30 227 C 21.7444 3.45313 -1.06962 0
M  V30 228 O 21.4654 3.62964 -2.45334 0
M  V30 229 C 22.9664 4.35948 -0.804021 0
M  V30 230 H 20.1864 0.61448 -0.269546 0
M  V30 231 H 22.7304 1.522 -1.36585 0
M  V30 232 H 20.8854 3.84359 -0.484455 0
M  V30 233 H 21.2994 4.56886 -2.57595 0
M  V30 234 H 22.7734 5.41174 -1.0879 0
M  V30 235 H 23.2504 4.3842 0.261691 0
M  V30 236 H 23.8564 4.02574 -1.37164 0
M  V30 237 N 22.1715 0.800033 1.35784 0
M  V30 238 C 23.0815 0.207204 2.33683 0
M  V30 239 C 24.0975 -0.64631 1.61551 0
M  V30 240 O 25.2735 -0.559604 1.93469 0
M  V30 241 C 22.3385 -0.639659 3.40748 0
M  V30 242 C 21.3995 0.233585 4.28664 0
M  V30 243 C 20.6325 -0.572954 5.30616 0
M  V30 244 O 20.8555 -1.80816 5.40982 0
M  V30 245 O 19.7895 0.0327285 6.01891 0
M  V30 246 H 23.6155 1.01692 2.86169 0
M  V30 247 H 21.2005 0.561691 1.38439 0
M  V30 248 H 23.0825 -1.12223 4.06182 0
M  V30 249 H 21.7575 -1.42708 2.90544 0
M  V30 250 H 20.6645 0.763147 3.66233 0
M  V30 251 H 21.9975 0.984784 4.82248 0
M  V30 252 N 23.6496 -1.47581 0.552962 0
M  V30 253 C 24.8746 -2.07378 0.0300593 0
M  V30 254 C 25.2996 -1.40355 -1.25229 0
M  V30 255 O 24.6576 -0.477099 -1.7491 0
M  V30 256 C 24.7056 -3.60274 -0.153231 0
M  V30 257 O 23.8096 -3.94041 -1.21678 0
M  V30 258 H 23.1506 -0.662158 0.0494182 0
M  V30 259 H 25.6806 -1.89662 0.767434 0
M  V30 260 H 25.6906 -4.0633 -0.368761 0
M  V30 261 H 24.3656 -4.08455 0.783397 0
M  V30 262 H 22.9426 -3.59735 -0.982079 0
M  V30 263 N 25.1277 -0.289203 -1.54924 0
M  V30 264 C 26.5437 0.0645403 -1.59469 0
M  V30 265 C 26.7437 1.53419 -1.30632 0
M  V30 266 O 25.7997 2.2852 -1.074 0
M  V30 267 C 27.1127 -0.32278 -2.98963 0
M  V30 268 C 28.6607 -0.270564 -3.11828 0
M  V30 269 C 29.1357 -0.632532 -4.53611 0
M  V30 270 N 30.6267 -0.584617 -4.59496 0
M  V30 271 C 31.3617 -0.837314 -5.67254 0
M  V30 272 N 30.8577 -1.15536 -6.83098 0
M  V30 273 N 32.6507 -0.765166 -5.56868 0
M  V30 274 H 24.8017 -1.24714 -1.71931 0
M  V30 275 H 27.0647 -0.504809 -0.802416 0
M  V30 276 H 26.7707 -1.34541 -3.24948 0
M  V30 277 H 26.6447 0.32944 -3.75759 0
M  V30 278 H 29.0317 0.742805 -2.85598 0
M  V30 279 H 29.1127 -0.957242 -2.37214 0
M  V30 280 H 28.7567 -1.64365 -4.80569 0
M  V30 281 H 28.6867 0.07609 -5.26545 0
M  V30 282 H 31.1777 -0.349248 -3.76283 0
M  V30 283 H 31.4907 -1.33447 -7.61191 0
M  V30 284 H 29.8357 -1.19328 -6.84679 0
M  V30 285 H 33.0267 -0.516432 -4.65243 0
M  V30 286 H 33.1997 -0.965477 -6.40767 0
M  V30 287 N 26.6058 1.57591 -0.0167156 0
M  V30 288 C 28.0168 1.79201 0.523834 0
M  V30 289 C 28.3678 0.925796 1.72984 0
M  V30 290 O 27.4928 0.132792 2.15992 0
M  V30 291 C 28.0878 3.25 0.957091 0
M  V30 292 C 26.6468 3.47648 1.44283 0
M  V30 293 C 25.7938 2.74374 0.401757 0
M  V30 294 H 28.7448 1.56831 -0.242816 0
M  V30 295 H 28.7658 3.34031 1.82219 0
M  V30 296 H 28.2778 3.88019 0.0791415 0
M  V30 297 H 26.3788 2.89866 2.34113 0
M  V30 298 H 26.4918 4.56352 1.45877 0
M  V30 299 H 24.8558 2.39485 0.867121 0
M  V30 300 H 25.6388 3.40102 -0.467513 0
M  V30 301 N 28.0839 -0.256276 1.55502 0
M  V30 302 C 29.0139 -1.32102 1.92539 0
M  V30 303 C 29.9949 -1.50684 0.789194 0
M  V30 304 O 31.1799 -1.63449 1.04872 0
M  V30 305 C 28.3099 -2.67752 2.21192 0
M  V30 306 C 27.2639 -2.63878 3.36975 0
M  V30 307 C 26.5899 -4.03236 3.51147 0
M  V30 308 C 27.8899 -2.21682 4.72921 0
M  V30 309 H 29.5839 -1.01351 2.81724 0
M  V30 310 H 27.1299 -0.486105 1.35547 0
M  V30 311 H 29.0829 -3.42365 2.45691 0
M  V30 312 H 27.8069 -3.0012 1.28824 0
M  V30 313 H 26.4659 -1.91722 3.12471 0
M  V30 314 H 26.1139 -4.32854 2.56216 0
M  V30 315 H 25.8139 -4.01535 4.29003 0
M  V30 316 H 27.3379 -4.79563 3.77957 0
M  V30 317 H 28.7519 -2.86023 4.96854 0
M  V30 318 H 27.1489 -2.3111 5.53812 0
M  V30 319 H 28.2189 -1.16833 4.70615 0
M  V30 320 N 29.562 -1.4872 -0.521534 0
M  V30 321 C 30.495 -1.58451 -1.64221 0
M  V30 322 C 31.473 -0.434513 -1.56687 0
M  V30 323 O 32.657 -0.647275 -1.77038 0
M  V30 324 C 29.784 -1.52037 -3.02659 0
M  V30 325 C 28.83 -2.71981 -3.28525 0
M  V30 326 S 29.663 -4.33869 -3.13876 0
M  V30 327 C 30.819 -4.30067 -4.54745 0
M  V30 328 H 31.052 -2.53256 -1.55719 0
M  V30 329 H 28.585 -1.37358 -0.705143 0
M  V30 330 H 30.543 -1.49023 -3.82495 0
M  V30 331 H 29.204 -0.585541 -3.08594 0
M  V30 332 H 28.397 -2.63656 -4.29536 0
M  V30 333 H 27.999 -2.72302 -2.56374 0
M  V30 334 H 30.291 -4.00521 -5.46433 0
M  V30 335 H 31.234 -5.31287 -4.68123 0
M  V30 336 H 31.642 -3.60419 -4.34463 0
M  V30 337 N 31.0401 0.771051 -1.3745 0
M  V30 338 C 32.2881 1.52661 -1.32435 0
M  V30 339 C 32.6091 1.9479 0.0905024 0
M  V30 340 O 31.8791 1.66348 1.03466 0
M  V30 341 H 30.4591 0.566218 -0.487244 0
M  V30 342 H 33.1211 0.917636 -1.71946 0
M  V30 343 H 32.2171 2.42568 -1.96385 0
M  V30 344 N 32.5182 1.22032 0.997298 0
M  V30 345 C 33.9292 1.0397 1.55071 0
M  V30 346 C 34.2802 -0.398192 1.92117 0
M  V30 347 O 33.4052 -1.28254 1.74298 0
M  V30 348 C 34.0002 1.88109 2.81781 0
M  V30 349 C 32.5592 1.74357 3.33581 0
M  V30 350 C 31.7062 1.84846 2.06706 0
M  V30 351 H 34.6572 1.35941 0.818883 0
M  V30 352 H 34.6782 1.39589 3.53971 0
M  V30 353 H 34.1902 2.92754 2.54787 0
M  V30 354 H 32.2912 0.72427 3.65493 0
M  V30 355 H 32.4042 2.56772 4.04481 0
M  V30 356 H 30.7682 1.28238 2.20062 0
M  V30 357 H 31.5512 2.91014 1.82114 0
M  V30 358 N 33.9963 -1.19345 1.0293 0
M  V30 359 C 35.2443 -1.88665 0.724574 0
M  V30 360 C 35.5653 -1.80036 -0.749144 0
M  V30 361 O 34.8353 -1.2111 -1.53978 0
M  V30 362 H 33.4153 -0.698406 0.265025 0
M  V30 363 H 36.0773 -1.44885 1.30362 0
M  V30 364 H 35.1733 -2.94987 1.01926 0
M  V30 365 N 35.4744 -0.807222 -1.35358 0
M  V30 366 C 36.7234 -0.384376 -1.98004 0
M  V30 367 C 37.0364 1.0543 -1.64754 0
M  V30 368 O 38.2424 1.58029 -2.20769 0
M  V30 369 C 36.6984 -0.636326 -3.5423 0
M  V30 370 C 36.3064 -2.08759 -3.96388 0
M  V30 371 C 38.0504 -0.278869 -4.23583 0
M  V30 372 C 35.9574 -2.28525 -5.45463 0
M  V30 373 H 34.8874 -0.139986 -0.740891 0
M  V30 374 H 37.5384 -0.991369 -1.54415 0
M  V30 375 H 35.9204 0.0406256 -3.95979 0
M  V30 376 H 37.0944 -2.8024 -3.6579 0
M  V30 377 H 35.4094 -2.40497 -3.39926 0
M  V30 378 H 38.0064 -0.404599 -5.33167 0
M  V30 379 H 38.3494 0.775012 -4.09022 0
M  V30 380 H 38.8824 -0.909764 -3.87257 0
M  V30 381 H 35.6214 -3.32361 -5.64992 0
M  V30 382 H 35.1414 -1.61569 -5.77629 0
M  V30 383 H 36.8204 -2.10109 -6.11934 0
M  V30 384 N 36.9525 1.47285 -0.560781 0
M  V30 385 C 38.3685 1.58065 -0.22081 0
M  V30 386 C 38.5685 1.55892 1.27671 0
M  V30 387 O 37.6245 1.46422 2.0571 0
M  V30 388 C 38.9375 2.88418 -0.850625 0
M  V30 389 C 40.4855 3.02009 -0.822184 0
M  V30 390 C 40.9605 4.35066 -1.43113 0
M  V30 391 N 42.4515 4.41711 -1.39448 0
M  V30 392 C 43.1865 5.43237 -1.83525 0
M  V30 393 N 42.6825 6.51555 -2.35474 0
M  V30 394 N 44.4755 5.34304 -1.74574 0
M  V30 395 H 36.6265 1.46941 -1.53369 0
M  V30 396 H 38.8895 0.699558 -0.639783 0
M  V30 397 H 38.5955 2.95755 -1.9032 0
M  V30 398 H 38.4695 3.75612 -0.345773 0
M  V30 399 H 40.8565 2.94266 0.221714 0
M  V30 400 H 40.9375 2.16347 -1.36483 0
M  V30 401 H 40.5815 4.43565 -2.47412 0
M  V30 402 H 40.5115 5.19465 -0.863899 0
M  V30 403 H 43.0025 3.64027 -1.01452 0
M  V30 404 H 43.3155 7.25203 -2.67021 0
M  V30 405 H 41.6605 6.52435 -2.39487 0
M  V30 406 H 44.8515 4.48581 -1.33763 0
M  V30 407 H 45.0245 6.13288 -2.09242 0
M  V30 408 N 38.4306 0.297415 1.54768 0
M  V30 409 C 39.8466 -0.0560823 1.59501 0
M  V30 410 C 40.0466 -1.52725 1.31444 0
M  V30 411 O 39.1026 -2.27947 1.08611 0
M  V30 412 C 40.4156 0.338631 2.98787 0
M  V30 413 C 41.9636 0.287097 3.11681 0
M  V30 414 C 42.4386 0.656579 4.53269 0
M  V30 415 N 43.9296 0.608977 4.59179 0
M  V30 416 C 44.6646 0.867385 5.66802 0
M  V30 417 N 44.1606 1.19157 6.82476 0
M  V30 418 N 45.9536 0.794687 5.56454 0
M  V30 419 H 38.1046 1.25624 1.71267 0
M  V30 420 H 40.3676 0.509057 0.799728 0
M  V30 421 H 40.0736 1.36263 3.2423 0
M  V30 422 H 39.9476 -0.309508 3.75928 0
M  V30 423 H 42.3346 -0.727649 2.85988 0
M  V30 424 H 42.4156 0.969809 2.36703 0
M  V30 425 H 42.0596 1.66912 4.7969 0
M  V30 426 H 41.9896 -0.0481649 5.26578 0
M  V30 427 H 44.4806 0.369198 3.76092 0
M  V30 428 H 44.7936 1.37482 7.60473 0
M  V30 429 H 43.1386 1.22958 6.84037 0
M  V30 430 H 46.3296 0.541098 4.64962 0
M  V30 431 H 46.5026 0.999445 6.40246 0
M  V30 432 N 39.9087 -1.5758 0.0250728 0
M  V30 433 C 41.3247 -1.56124 -0.331282 0
M  V30 434 C 41.5247 -1.03029 -1.73169 0
M  V30 435 O 40.5807 -0.675215 -2.43305 0
M  V30 436 C 41.8937 -3.00139 -0.183584 0
M  V30 437 C 43.4417 -3.11946 -0.256654 0
M  V30 438 C 43.9167 -4.57793 -0.137792 0
M  V30 439 N 45.4077 -4.6279 -0.194904 0
M  V30 440 C 46.1427 -5.7326 -0.126655 0
M  V30 441 N 45.6387 -6.928 -0.00755288 0
M  V30 442 N 47.4317 -5.61811 -0.180348 0
M  V30 443 H 39.5827 -1.90424 0.94087 0
M  V30 444 H 41.8457 -0.875761 0.362968 0
M  V30 445 H 41.5517 -3.4292 0.780927 0
M  V30 446 H 41.4257 -3.64899 -0.955448 0
M  V30 447 H 43.8127 -2.69079 -1.21162 0
M  V30 448 H 43.8937 -2.49915 0.545517 0
M  V30 449 H 43.5377 -5.01339 0.813739 0
M  V30 450 H 43.4677 -5.17798 -0.958775 0
M  V30 451 H 45.9587 -3.76807 -0.287267 0
M  V30 452 H 46.2717 -7.72791 0.0379428 0
M  V30 453 H 44.6167 -6.94995 0.0271731 0
M  V30 454 H 47.8077 -4.6731 -0.271767 0
M  V30 455 H 47.9807 -6.47882 -0.123697 0
M  V30 456 N 41.3868 0.248026 -1.55636 0
M  V30 457 C 42.8028 0.596483 -1.48035 0
M  V30 458 C 43.0028 1.88386 -0.715039 0
M  V30 459 O 42.0588 2.51319 -0.243944 0
M  V30 460 C 43.3718 0.700258 -2.92433 0
M  V30 461 C 44.9198 0.792659 -3.02797 0
M  V30 462 C 45.3948 0.928005 -4.485 0
M  V30 463 N 46.8858 0.992903 -4.52433 0
M  V30 464 C 47.6208 1.11687 -5.62418 0
M  V30 465 N 47.1168 1.20645 -6.82214 0
M  V30 466 N 48.9098 1.14994 -5.50212 0
M  V30 467 H 41.0608 -0.597109 -2.03834 0
M  V30 468 H 43.3238 -0.205925 -0.925364 0
M  V30 469 H 43.0298 -0.175658 -3.51261 0
M  V30 470 H 42.9038 1.57255 -3.42857 0
M  V30 471 H 45.2908 1.65903 -2.4405 0
M  V30 472 H 45.3718 -0.104762 -2.55585 0
M  V30 473 H 45.0158 0.0661971 -5.07857 0
M  V30 474 H 44.9458 1.84045 -4.93391 0
M  V30 475 H 47.4368 0.935064 -3.66149 0
M  V30 476 H 47.7498 1.30008 -7.61786 0
M  V30 477 H 46.0948 1.17605 -6.84977 0
M  V30 478 H 49.2858 1.07643 -4.55555 0
M  V30 479 H 49.4588 1.24311 -6.35965 0
M  V30 480 N 42.8649 1.48995 0.513639 0
M  V30 481 C 44.1109 1.58076 1.27042 0
M  V30 482 C 44.4439 0.261026 1.92438 0
M  V30 483 O 43.7189 -0.734393 1.80103 0
M  V30 484 C 44.0019 2.73091 2.34719 0
M  V30 485 C 43.8549 4.14821 1.73907 0
M  V30 486 C 45.1739 2.83796 3.36375 0
M  V30 487 H 42.2929 0.575391 0.460536 0
M  V30 488 H 44.9349 1.81232 0.570516 0
M  V30 489 H 43.0849 2.53479 2.94416 0
M  V30 490 H 44.7569 4.45917 1.18135 0
M  V30 491 H 42.9999 4.21058 1.0437 0
M  V30 492 H 43.6709 4.91147 2.51949 0
M  V30 493 H 46.1469 3.01611 2.86653 0
M  V30 494 H 45.0229 3.65971 4.09093 0
M  V30 495 H 45.2839 1.92624 3.9793 0
M  V30 496 N 44.343 -0.763751 1.37857 0
M  V30 497 C 45.273 -1.89103 1.36975 0
M  V30 498 C 46.254 -1.68439 0.237152 0
M  V30 499 O 47.439 -1.8918 0.438713 0
M  V30 500 C 44.569 -3.26496 1.18395 0
M  V30 501 C 43.523 -3.61741 2.28751 0
M  V30 502 C 42.849 -4.97762 1.95286 0
M  V30 503 C 44.149 -3.67665 3.70972 0
M  V30 504 H 45.843 -1.90099 2.31307 0
M  V30 505 H 43.389 -0.91319 1.11341 0
M  V30 506 H 45.342 -4.05003 1.16406 0
M  V30 507 H 44.066 -3.25955 0.205215 0
M  V30 508 H 42.725 -2.85547 2.29909 0
M  V30 509 H 42.373 -4.93769 0.959221 0
M  V30 510 H 42.073 -5.22313 2.69189 0
M  V30 511 H 43.597 -5.7866 1.94898 0
M  V30 512 H 45.011 -4.36307 3.719 0
M  V30 513 H 43.408 -4.03718 4.43995 0
M  V30 514 H 44.478 -2.68134 4.0402 0
M  V30 515 N 45.8211 -1.22559 -0.990812 0
M  V30 516 C 47.0491 -1.07779 -1.76611 0
M  V30 517 C 47.4641 0.371513 -1.85109 0
M  V30 518 O 46.8211 1.25737 -1.32274 0
M  V30 519 C 46.8721 -1.68512 -3.19822 0
M  V30 520 O 46.5931 -3.07774 -3.1178 0
M  V30 521 C 48.0941 -1.59035 -4.13791 0
M  V30 522 H 45.3141 -0.377729 -0.554583 0
M  V30 523 H 47.8581 -1.62195 -1.24551 0
M  V30 524 H 46.0131 -1.18154 -3.68942 0
M  V30 525 H 46.4271 -3.37062 -4.01858 0
M  V30 526 H 47.9011 -2.0625 -5.1202 0
M  V30 527 H 48.3781 -0.547273 -4.35777 0
M  V30 528 H 48.9841 -2.08709 -3.70568 0
M  V30 529 N 47.2992 1.18797 -1.03562 0
M  V30 530 C 48.2462 2.22253 -0.622259 0
M  V30 531 C 49.2162 1.61987 0.36736 0
M  V30 532 O 50.4012 1.88986 0.262492 0
M  V30 533 C 47.5412 3.45097 0.0138462 0
M  V30 534 C 46.6542 4.19722 -1.02263 0
M  V30 535 C 45.7892 5.30009 -0.355573 0
M  V30 536 C 44.8282 5.96399 -1.37749 0
M  V30 537 N 43.9652 6.98234 -0.735766 0
M  V30 538 H 48.8052 2.56968 -1.50903 0
M  V30 539 H 46.3422 1.26245 -0.755017 0
M  V30 540 H 48.3002 4.15279 0.399948 0
M  V30 541 H 46.9302 3.11018 0.864158 0
M  V30 542 H 45.9822 3.48418 -1.52673 0
M  V30 543 H 47.2942 4.65227 -1.79903 0
M  V30 544 H 46.4482 6.0664 0.0850095 0
M  V30 545 H 45.1872 4.85592 0.452967 0
M  V30 546 H 44.1922 5.18512 -1.82826 0
M  V30 547 H 45.4172 6.42899 -2.18764 0
M  V30 548 H 43.3632 6.55979 0.0525597 0
M  V30 549 H 43.2802 7.41965 -1.44995 0
M  V30 550 H 44.5482 7.78845 -0.31941 0
M  V30 551 N 48.7773 0.814389 1.34928 0
M  V30 552 C 50.0543 0.321363 1.92942 0
M  V30 553 C 50.4343 -1.19014 1.74353 0
M  V30 554 O 49.7823 -1.99328 1.11716 0
M  V30 555 C 49.9923 0.741323 3.41036 0
M  V30 556 C 51.3403 0.735266 4.18185 0
M  V30 557 O 52.3643 0.68336 3.49584 0
M  V30 558 O 51.2233 0.800703 5.40602 0
M  V30 559 H 48.3173 0.0858893 0.822528 0
M  V30 560 H 50.8633 0.898609 1.43955 0
M  V30 561 H 49.6353 1.78276 3.4833 0
M  V30 562 H 49.2583 0.139307 3.97356 0
M  V30 563 N 50.2554 -1.46986 0.568584 0
M  V30 564 C 51.5034 -2.02041 0.0487022 0
M  V30 565 C 51.8244 -1.44408 -1.31039 0
M  V30 566 O 51.0944 -0.623477 -1.85714 0
M  V30 567 H 49.6744 -0.746849 0.015014 0
M  V30 568 H 52.3364 -1.80257 0.741168 0
M  V30 569 H 51.4324 -3.12085 -0.0308961 0
M  V30 570 N 51.7335 -0.305618 -1.54608 0
M  V30 571 C 53.1495 0.0476228 -1.59529 0
M  V30 572 C 53.3495 1.52025 -1.32252 0
M  V30 573 O 52.4055 2.27368 -1.09818 0
M  V30 574 C 53.7185 -0.354471 -2.98603 0
M  V30 575 C 55.2665 -0.303622 -3.11524 0
M  V30 576 C 55.7415 -0.680608 -4.52915 0
M  V30 577 N 57.2325 -0.63332 -4.5885 0
M  V30 578 C 57.9675 -0.897432 -5.66334 0
M  V30 579 N 57.4635 -1.22775 -6.81834 0
M  V30 580 N 59.2565 -0.824186 -5.56025 0
M  V30 581 H 51.4075 -1.2653 -1.70599 0
M  V30 582 H 53.6705 -0.513291 -0.797017 0
M  V30 583 H 53.3765 -1.3798 -3.23503 0
M  V30 584 H 53.2505 0.289568 -3.76087 0
M  V30 585 H 55.6375 0.712472 -2.8637 0
M  V30 586 H 55.7185 -0.982348 -2.36185 0
M  V30 587 H 55.3625 -1.69453 -4.78799 0
M  V30 588 H 55.2925 0.0202385 -5.26596 0
M  V30 589 H 57.7835 -0.389138 -3.75891 0
M  V30 590 H 58.0965 -1.41513 -7.59733 0
M  V30 591 H 56.4415 -1.26583 -6.83375 0
M  V30 592 H 59.6325 -0.565748 -4.64669 0
M  V30 593 H 59.8055 -1.03338 -6.39707 0
M  V30 594 N 53.2116 1.57565 -0.0334293 0
M  V30 595 C 54.4366 1.96689 0.657895 0
M  V30 596 C 54.8616 0.910057 1.64619 0
M  V30 597 O 54.2196 -0.128598 1.80843 0
M  V30 598 C 54.2676 3.34905 1.33683 0
M  V30 599 O 53.3716 3.31574 2.45219 0
M  V30 600 H 52.7126 0.641205 0.172489 0
M  V30 601 H 55.2426 2.04372 -0.0965621 0
M  V30 602 H 55.2526 3.71234 1.69262 0
M  V30 603 H 53.9276 4.11366 0.612411 0
M  V30 604 H 52.5046 3.06968 2.11719 0
M  V30 605 N 54.6897 -0.239769 1.55765 0
M  V30 606 C 55.6377 -1.31668 1.91745 0
M  V30 607 C 56.6317 -1.49462 0.797338 0
M  V30 608 O 57.8377 -1.50852 0.982021 0
M  V30 609 H 54.2127 -0.441048 0.609082 0
M  V30 610 H 56.1837 -0.985923 2.81642 0
M  V30 611 C 54.9327 -2.66368 2.2348 0
M  V30 612 H 54.2557 -2.53478 3.09175 0
M  V30 613 H 55.6957 -3.40578 2.52553 0
M  V30 614 C 54.1547 -3.20002 1.05359 0
M  V30 615 O 54.6847 -4.00538 0.305261 0
M  V30 616 N 52.8907 -2.78126 0.842292 0
M  V30 617 H 52.4377 -2.12742 1.45253 0
M  V30 618 H 52.3957 -3.14354 0.053652 0
M  V30 619 N 56.1678 -1.49265 -0.50573 0
M  V30 620 C 57.4138 -1.58748 -1.26202 0
M  V30 621 C 57.7468 -0.271227 -1.92297 0
M  V30 622 O 57.0218 0.724831 -1.80489 0
M  V30 623 C 57.3048 -2.74332 -2.33268 0
M  V30 624 C 57.1578 -4.15737 -1.71705 0
M  V30 625 C 58.4768 -2.85576 -3.34865 0
M  V30 626 H 55.5958 -0.577826 -0.457478 0
M  V30 627 H 58.2378 -1.81532 -0.560897 0
M  V30 628 H 56.3878 -2.55036 -2.93068 0
M  V30 629 H 58.0598 -4.46537 -1.15769 0
M  V30 630 H 56.3028 -4.21605 -1.02135 0
M  V30 631 H 56.9738 -4.92477 -2.49341 0
M  V30 632 H 59.4498 -3.03127 -2.8505 0
M  V30 633 H 58.3258 -3.68135 -4.07146 0
M  V30 634 H 58.5868 -1.94732 -3.96903 0
M  V30 635 N 57.6459 0.756429 -1.3826 0
M  V30 636 C 59.0619 1.0591 -1.19395 0
M  V30 637 C 59.2619 2.01459 -0.0406567 0
M  V30 638 O 58.3179 2.44909 0.614467 0
M  V30 639 C 59.6309 1.64191 -2.51916 0
M  V30 640 C 61.1789 1.76376 -2.58574 0
M  V30 641 C 61.6539 2.38069 -3.91264 0
M  V30 642 N 63.1449 2.45503 -3.92788 0
M  V30 643 C 63.8799 2.94126 -4.92217 0
M  V30 644 N 63.3759 3.42805 -6.02043 0
M  V30 645 N 65.1689 2.9314 -4.7961 0
M  V30 646 H 57.3199 0.122313 -2.12048 0
M  V30 647 H 59.5829 0.116892 -0.940766 0
M  V30 648 H 59.2889 1.01451 -3.3675 0
M  V30 649 H 59.1629 2.6329 -2.70108 0
M  V30 650 H 61.5499 2.38244 -1.74137 0
M  V30 651 H 61.6309 0.759894 -2.44252 0
M  V30 652 H 61.2749 1.76835 -4.76121 0
M  V30 653 H 61.2049 3.39091 -4.02895 0
M  V30 654 H 63.6959 2.1107 -3.13461 0
M  V30 655 H 64.0089 3.78354 -6.73846 0
M  V30 656 H 62.3539 3.4087 -6.05667 0
M  V30 657 H 65.5449 2.54419 -3.92923 0
M  V30 658 H 65.7179 3.30721 -5.5725 0
M  V30 659 N 59.124 1.23083 0.984299 0
M  V30 660 C 60.057 0.951786 2.07404 0
M  V30 661 C 61.035 -0.10848 1.62238 0
M  V30 662 O 62.219 0.0249467 1.88483 0
M  V30 663 C 59.346 0.433142 3.35919 0
M  V30 664 C 58.392 1.47941 4.0002 0
M  V30 665 S 59.225 3.05556 4.39768 0
M  V30 666 C 60.381 2.55351 5.71442 0
M  V30 667 H 60.614 1.87456 2.30754 0
M  V30 668 H 58.147 1.06284 1.11996 0
M  V30 669 H 60.105 0.140506 4.10259 0
M  V30 670 H 58.766 -0.468656 3.10584 0
M  V30 671 H 57.959 1.06658 4.92585 0
M  V30 672 H 57.561 1.7212 3.3204 0
M  V30 673 H 59.853 1.97128 6.48187 0
M  V30 674 H 60.796 3.46441 6.17563 0
M  V30 675 H 61.204 1.96339 5.29255 0
M  V30 676 N 60.6021 -1.18246 1.0419 0
M  V30 677 C 61.5121 -2.25574 0.644476 0
M  V30 678 C 62.5281 -1.70845 -0.329826 0
M  V30 679 O 63.7041 -2.00554 -0.184443 0
M  V30 680 C 60.7691 -3.46697 0.014877 0
M  V30 681 C 59.8301 -4.16554 1.03834 0
M  V30 682 C 59.0631 -5.31894 0.438692 0
M  V30 683 O 59.2861 -5.65385 -0.754752 0
M  V30 684 O 58.2201 -5.90459 1.168 0
M  V30 685 H 62.0461 -2.61836 1.53869 0
M  V30 686 H 59.6311 -1.25352 0.812854 0
M  V30 687 H 61.5131 -4.20062 -0.335538 0
M  V30 688 H 60.1881 -3.12255 -0.853138 0
M  V30 689 H 59.0951 -3.45251 1.44057 0
M  V30 690 H 60.4281 -4.54998 1.87716 0
M  V30 691 N 62.0802 -0.821533 -1.34494 0
M  V30 692 C 63.0302 -0.214793 -2.26986 0
M  V30 693 C 64.0142 0.620125 -1.4847 0
M  V30 694 O 65.2062 0.474933 -1.70509 0
M  V30 695 C 62.3352 0.623566 -3.37589 0
M  V30 696 C 61.4212 -0.221904 -4.23519 0
M  V30 697 N 61.8122 -1.29223 -4.89014 0
M  V30 698 C 60.1102 -0.00600922 -4.46 0
M  V30 699 C 60.8112 -1.80965 -5.52835 0
M  V30 700 N 59.7872 -1.11376 -5.32068 0
M  V30 701 H 63.5892 -1.03354 -2.75128 0
M  V30 702 H 61.1032 -0.6642 -1.48196 0
M  V30 703 H 63.1002 1.0744 -4.02818 0
M  V30 704 H 61.7602 1.44049 -2.90998 0
M  V30 705 H 62.7712 -1.67502 -4.90065 0
M  V30 706 H 59.4482 0.77886 -4.10171 0
M  V30 707 H 60.8382 -2.70502 -6.15043 0
M  V30 708 N 63.5583 1.46682 -0.576371 0
M  V30 709 C 64.8073 2.01619 -0.0572825 0
M  V30 710 C 65.1203 1.45417 1.30818 0
M  V30 711 O 66.3263 1.92133 1.91825 0
M  V30 712 C 64.7823 3.59863 -0.0518371 0
M  V30 713 C 64.3903 4.25059 -1.41523 0
M  V30 714 C 66.1343 4.2248 0.413639 0
M  V30 715 C 64.0413 5.75364 -1.36785 0
M  V30 716 H 62.9713 0.753794 -0.0176448 0
M  V30 717 H 65.6223 1.68481 -0.727076 0
M  V30 718 H 64.0043 3.90048 0.683994 0
M  V30 719 H 65.1783 4.06491 -2.17029 0
M  V30 720 H 63.4933 3.7451 -1.8202 0
M  V30 721 H 66.0903 5.3265 0.467779 0
M  V30 722 H 66.4333 3.90976 1.42982 0
M  V30 723 H 66.9663 3.96897 -0.267929 0
M  V30 724 H 63.7053 6.11518 -2.36063 0
M  V30 725 H 63.2253 5.96214 -0.654895 0
M  V30 726 H 64.9043 6.37955 -1.07805 0
M  V30 727 N 65.0364 0.313813 1.54444 0
M  V30 728 C 65.9994 -0.54379 2.22656 0
M  V30 729 C 66.9994 -1.05124 1.21678 0
M  V30 730 O 68.1894 -0.945225 1.46325 0
M  V30 731 C 65.3214 -1.75427 2.92298 0
M  V30 732 H 66.5144 0.0523599 2.99854 0
M  V30 733 H 64.0674 0.0647834 1.56166 0
M  V30 734 H 64.8024 -2.38991 2.19211 0
M  V30 735 H 64.5874 -1.39791 3.66334 0
M  V30 736 H 66.0774 -2.36325 3.44297 0
M  V30 737 N 66.5145 -1.57545 0.0417849 0
M  V30 738 C 67.7915 -1.83642 -0.673433 0
M  V30 739 C 68.1715 -0.928298 -1.89594 0
M  V30 740 O 67.5195 0.0129955 -2.28496 0
M  V30 741 C 67.7295 -3.33155 -1.03964 0
M  V30 742 C 69.0775 -3.99941 -1.42592 0
M  V30 743 O 70.1015 -3.37725 -1.13226 0
M  V30 744 O 68.9605 -5.09619 -1.9736 0
M  V30 745 H 66.0545 -0.757638 -0.331533 0
M  V30 746 H 68.6005 -1.69554 0.070433 0
M  V30 747 H 67.3725 -3.9093 -0.170098 0
M  V30 748 H 66.9955 -3.52396 -1.84126 0
M  V30 749 N 67.9926 0.231505 -1.5589 0
M  V30 750 C 68.9396 1.28682 -1.91598 0
M  V30 751 C 69.9096 1.47071 -0.771974 0
M  V30 752 O 71.0946 1.60802 -1.027 0
M  V30 753 C 68.2346 2.6342 -2.22944 0
M  V30 754 C 67.3476 2.52912 -3.50228 0
M  V30 755 C 66.4826 3.80106 -3.7107 0
M  V30 756 C 65.5216 3.64279 -4.91902 0
M  V30 757 N 64.6586 4.834 -5.09184 0
M  V30 758 H 69.4986 0.975305 -2.81588 0
M  V30 759 H 67.0356 0.470299 -1.39379 0
M  V30 760 H 68.9936 3.41869 -2.39126 0
M  V30 761 H 67.6236 2.92687 -1.36139 0
M  V30 762 H 66.6756 1.6595 -3.42294 0
M  V30 763 H 67.9876 2.37133 -4.38827 0
M  V30 764 H 67.1416 4.66999 -3.87295 0
M  V30 765 H 65.8806 3.98799 -2.80733 0
M  V30 766 H 64.8856 2.7577 -4.75637 0
M  V30 767 H 66.1106 3.47067 -5.83714 0
M  V30 768 H 64.0566 5.02425 -4.21788 0
M  V30 769 H 63.9736 4.70311 -5.91898 0
M  V30 770 H 65.2416 5.71747 -5.29835 0
M  V30 771 N 69.4707 1.49531 0.497807 0
M  V30 772 C 70.8867 1.36365 0.829266 0
M  V30 773 C 71.0867 0.399184 1.97506 0
M  V30 774 O 70.1427 -0.167977 2.51941 0
M  V30 775 C 71.4557 2.77153 1.16647 0
M  V30 776 C 73.0037 2.85877 1.27449 0
M  V30 777 C 73.4787 4.2744 1.64497 0
M  V30 778 N 74.9697 4.30265 1.7154 0
M  V30 779 C 75.7047 5.3677 2.01656 0
M  V30 780 N 75.2007 6.53516 2.29976 0
M  V30 781 N 76.9937 5.24189 2.02934 0
M  V30 782 H 69.1447 2.10831 -0.257703 0
M  V30 783 H 71.4077 0.946534 -0.0527091 0
M  V30 784 H 71.1137 3.49442 0.397872 0
M  V30 785 H 70.9877 3.12722 2.10915 0
M  V30 786 H 73.3747 2.13824 2.0338 0
M  V30 787 H 73.4557 2.53887 0.312244 0
M  V30 788 H 73.0997 5.00021 0.891151 0
M  V30 789 H 73.0297 4.56896 2.61827 0
M  V30 790 H 75.5207 3.4607 1.51802 0
M  V30 791 H 75.8337 7.30506 2.52153 0
M  V30 792 H 74.1787 6.56737 2.27425 0
M  V30 793 H 77.3697 4.31988 1.80289 0
M  V30 794 H 77.5427 6.07286 2.26071 0
M  V30 795 N 70.9488 -0.749086 1.3866 0
M  V30 796 C 72.1958 -1.50833 1.35114 0
M  V30 797 C 72.5238 -1.94415 -0.0574049 0
M  V30 798 O 71.7788 -1.66065 -1.03541 0
M  V30 799 C 72.0778 -2.7712 2.25697 0
M  V30 800 C 71.7438 -2.52477 3.73585 0
M  V30 801 C 70.4058 -2.45466 4.13884 0
M  V30 802 C 72.7578 -2.31066 4.67181 0
M  V30 803 C 70.0858 -2.15064 5.45861 0
M  V30 804 C 72.4378 -2.02183 5.9942 0
M  V30 805 C 71.1018 -1.93631 6.38798 0
M  V30 806 H 70.3718 -0.551936 0.494416 0
M  V30 807 H 73.0188 -0.860979 1.71054 0
M  V30 808 H 71.3238 -3.46528 1.82827 0
M  V30 809 H 73.0208 -3.35096 2.20254 0
M  V30 810 H 69.6108 -2.58807 3.41638 0
M  V30 811 H 73.7948 -2.35459 4.3689 0
M  V30 812 H 69.0508 -2.06954 5.75308 0
M  V30 813 H 73.2248 -1.8462 6.71482 0
M  V30 814 H 70.8518 -1.69839 7.40985 0
M  V30 815 N 72.4269 -1.23603 -0.977757 0
M  V30 816 C 73.3569 -1.04401 -2.0886 0
M  V30 817 C 74.3379 0.0399052 -1.70053 0
M  V30 818 O 75.5229 -0.125246 -1.93796 0
M  V30 819 C 72.6529 -0.637269 -3.41403 0
M  V30 820 C 71.6069 -1.66883 -3.94124 0
M  V30 821 C 70.9329 -1.11745 -5.22893 0
M  V30 822 C 72.2329 -3.06247 -4.23096 0
M  V30 823 H 73.9269 -1.97316 -2.25182 0
M  V30 824 H 71.4729 -0.950096 -1.08209 0
M  V30 825 H 73.4259 -0.48998 -4.18542 0
M  V30 826 H 72.1499 0.327557 -3.24953 0
M  V30 827 H 70.8089 -1.80416 -3.19133 0
M  V30 828 H 70.4569 -0.143527 -5.02795 0
M  V30 829 H 70.1569 -1.80672 -5.59134 0
M  V30 830 H 71.6809 -0.982067 -6.02651 0
M  V30 831 H 73.0949 -2.96001 -4.90975 0
M  V30 832 H 71.4919 -3.72436 -4.70544 0
M  V30 833 H 72.5619 -3.55041 -3.30263 0
M  V30 834 N 73.905 1.17692 -1.04816 0
M  V30 835 C 75.135 1.91508 -0.775128 0
M  V30 836 C 75.543 1.76844 0.67253 0
M  V30 837 O 74.886 1.10057 1.47082 0
M  V30 838 C 74.948 3.43167 -1.0713 0
M  V30 839 C 74.612 3.81612 -2.51438 0
M  V30 840 C 75.609 3.84772 -3.49638 0
M  V30 841 C 73.294 4.12687 -2.86348 0
M  V30 842 C 75.288 4.18469 -4.80794 0
M  V30 843 C 72.975 4.46053 -4.17708 0
M  V30 844 C 73.973 4.48921 -5.14741 0
M  V30 845 O 73.661 4.81504 -6.43746 0
M  V30 846 H 73.393 0.614575 -0.281555 0
M  V30 847 H 75.947 1.50206 -1.40098 0
M  V30 848 H 74.177 3.84745 -0.388342 0
M  V30 849 H 75.866 3.98239 -0.784883 0
M  V30 850 H 76.632 3.60893 -3.24008 0
M  V30 851 H 72.511 4.09627 -2.11486 0
M  V30 852 H 76.055 4.20623 -5.56527 0
M  V30 853 H 71.952 4.69393 -4.43103 0
M  V30 854 H 72.72 4.99377 -6.4851 0
M  V30 855 N 75.3831 0.828654 1.34056 0
M  V30 856 C 76.3131 0.269443 2.3194 0
M  V30 857 C 77.2941 -0.617247 1.58506 0
M  V30 858 O 78.4791 -0.542931 1.86456 0
M  V30 859 C 75.6091 -0.564793 3.42677 0
M  V30 860 C 74.5631 0.225241 4.27407 0
M  V30 861 C 73.8891 -0.7321 5.29664 0
M  V30 862 C 75.1891 1.43663 5.02154 0
M  V30 863 H 76.8831 1.08728 2.7896 0
M  V30 864 H 74.4291 0.524283 1.34117 0
M  V30 865 H 76.3821 -0.966233 4.10173 0
M  V30 866 H 75.1061 -1.41574 2.9432 0
M  V30 867 H 73.7651 0.608117 3.61521 0
M  V30 868 H 73.4131 -1.57916 4.77568 0
M  V30 869 H 73.1131 -0.20767 5.87233 0
M  V30 870 H 74.6371 -1.13128 6.00029 0
M  V30 871 H 76.0511 1.1089 5.62473 0
M  V30 872 H 74.4481 1.89711 5.69324 0
M  V30 873 H 75.5181 2.21181 4.31517 0
M  V30 874 N 76.8612 -1.46375 0.584142 0
M  V30 875 C 77.8082 -2.30323 -0.148286 0
M  V30 876 C 78.7782 -1.40703 -0.882713 0
M  V30 877 O 79.9632 -1.69651 -0.873099 0
M  V30 878 C 77.1032 -3.25196 -1.15507 0
M  V30 879 C 76.2162 -4.29915 -0.423943 0
M  V30 880 C 75.3512 -5.11914 -1.41838 0
M  V30 881 C 74.3902 -6.08381 -0.673736 0
M  V30 882 N 73.5272 -6.83242 -1.6163 0
M  V30 883 H 78.3672 -2.92427 0.573644 0
M  V30 884 H 75.9042 -1.44118 0.294703 0
M  V30 885 H 77.8622 -3.78646 -1.75166 0
M  V30 886 H 76.4922 -2.64898 -1.8447 0
M  V30 887 H 75.5442 -3.7931 0.287714 0
M  V30 888 H 76.8562 -4.98549 0.158128 0
M  V30 889 H 76.0102 -5.69648 -2.08773 0
M  V30 890 H 74.7492 -4.43243 -2.03438 0
M  V30 891 H 73.7542 -5.49799 0.00938483 0
M  V30 892 H 74.9792 -6.79071 -0.0631082 0
M  V30 893 H 72.9252 -6.1728 -2.22038 0
M  V30 894 H 72.8422 -7.48144 -1.08707 0
M  V30 895 H 74.1102 -7.45534 -2.27596 0
M  V30 896 N 78.3393 -0.321999 -1.54275 0
M  V30 897 C 79.6163 0.335232 -1.92706 0
M  V30 898 C 79.9963 1.70006 -1.25145 0
M  V30 899 O 79.3443 2.25067 -0.394596 0
M  V30 900 C 79.5543 0.429008 -3.46353 0
M  V30 901 C 80.9023 0.690029 -4.18956 0
M  V30 902 O 81.9263 0.511992 -3.52501 0
M  V30 903 O 80.7853 1.03338 -5.36641 0
M  V30 904 H 77.8793 0.191143 -0.804608 0
M  V30 905 H 80.4253 -0.3716 -1.65581 0
M  V30 906 H 79.1973 -0.529611 -3.87699 0
M  V30 907 H 78.8203 1.18348 -3.79578 0
M  V30 908 N 79.8174 1.5752 -0.0501392 0
M  V30 909 C 80.7474 2.14502 0.922566 0
M  V30 910 C 81.7284 1.06642 1.3252 0
M  V30 911 O 82.9134 1.34577 1.4001 0
M  V30 912 C 80.0434 2.68916 2.19776 0
M  V30 913 C 78.9974 3.8175 1.93523 0
M  V30 914 C 78.3234 4.22677 3.27487 0
M  V30 915 C 79.6234 5.06932 1.25765 0
M  V30 916 H 81.3174 2.9603 0.447952 0
M  V30 917 H 78.8634 1.42401 0.214024 0
M  V30 918 H 80.8164 3.07419 2.88222 0
M  V30 919 H 79.5404 1.84578 2.69441 0
M  V30 920 H 78.1994 3.43718 1.27489 0
M  V30 921 H 77.8474 3.35291 3.74952 0
M  V30 922 H 77.5474 4.98725 3.1072 0
M  V30 923 H 79.0714 4.63779 3.97166 0
M  V30 924 H 80.4854 5.42888 1.84244 0
M  V30 925 H 78.8824 5.88116 1.19328 0
M  V30 926 H 79.9524 4.84337 0.233536 0
M  V30 927 N 81.2955 -0.223234 1.56011 0
M  V30 928 C 82.5415 -0.944891 1.8012 0
M  V30 929 C 82.8965 -1.82039 0.622862 0
M  V30 930 O 82.1895 -1.8773 -0.383143 0
M  V30 931 C 82.3835 -1.81948 3.0762 0
M  V30 932 C 82.2125 -1.03014 4.37742 0
M  V30 933 C 80.9825 -0.72574 5.00061 0
M  V30 934 C 83.1805 -0.396256 5.12771 0
M  V30 935 N 81.1625 0.0851816 6.13841 0
M  V30 936 C 82.5335 0.278137 6.19376 0
M  V30 937 C 84.5885 -0.309117 4.9694 0
M  V30 938 C 83.2915 1.03133 7.11868 0
M  V30 939 C 85.3175 0.430607 5.8983 0
M  V30 940 C 84.6795 1.09355 6.9586 0
M  V30 941 H 80.7785 -0.326081 0.710771 0
M  V30 942 H 83.3625 -0.215914 1.93499 0
M  V30 943 H 81.5335 -2.52029 2.95527 0
M  V30 944 H 83.2655 -2.47848 3.19927 0
M  V30 945 H 80.0205 -1.04335 4.61964 0
M  V30 946 H 80.4445 0.479428 6.753 0
M  V30 947 H 85.0865 -0.807313 4.15021 0
M  V30 948 H 82.8045 1.54105 7.9327 0
M  V30 949 H 86.3905 0.499012 5.79656 0
M  V30 950 H 85.2705 1.65679 7.66499 0
M  V30 951 N 82.7736 -1.49793 -0.48987 0
M  V30 952 C 84.0016 -1.63568 -1.26701 0
M  V30 953 C 84.4166 -0.311465 -1.86213 0
M  V30 954 O 83.7736 0.704416 -1.68357 0
M  V30 955 C 83.8246 -2.71284 -2.38929 0
M  V30 956 O 83.5456 -3.9857 -1.81861 0
M  V30 957 C 85.0466 -2.95864 -3.3012 0
M  V30 958 H 82.2666 -0.550342 -0.383881 0
M  V30 959 H 84.8106 -1.95898 -0.586864 0
M  V30 960 H 82.9656 -2.417 -3.02753 0
M  V30 961 H 83.3796 -4.57993 -2.55622 0
M  V30 962 H 84.8536 -3.74941 -4.05121 0
M  V30 963 H 85.3306 -2.06206 -3.87783 0
M  V30 964 H 85.9366 -3.26907 -2.72051 0
M  V30 965 N 84.2517 0.741722 -1.39055 0
M  V30 966 C 85.4797 1.53098 -1.39171 0
M  V30 967 C 85.8947 1.88794 0.0155099 0
M  V30 968 O 85.2517 1.53626 0.985159 0
M  V30 969 C 85.3027 2.82274 -2.2584 0
M  V30 970 O 85.0237 2.48097 -3.61081 0
M  V30 971 C 86.5247 3.76343 -2.34266 0
M  V30 972 H 83.7447 0.473335 -0.4756 0
M  V30 973 H 86.2887 0.917045 -1.82785 0
M  V30 974 H 84.4437 3.40015 -1.85656 0
M  V30 975 H 84.8577 3.31029 -4.06842 0
M  V30 976 H 86.3317 4.63898 -2.9917 0
M  V30 977 H 86.8087 4.17619 -1.35982 0
M  V30 978 H 87.4147 3.24523 -2.74891 0
M  V30 979 N 85.7298 1.2412 0.971189 0
M  V30 980 C 86.9768 1.07881 1.71371 0
M  V30 981 C 87.3048 -0.382901 1.90694 0
M  V30 982 O 86.5598 -1.29945 1.46331 0
M  V30 983 C 86.8588 1.75983 3.11071 0
M  V30 984 C 86.5248 3.25909 3.11599 0
M  V30 985 C 85.1868 3.66813 3.11451 0
M  V30 986 C 87.5388 4.21771 3.062 0
M  V30 987 C 84.8668 5.02021 3.03631 0
M  V30 988 C 87.2188 5.56982 2.99923 0
M  V30 989 C 85.8828 5.97237 2.98102 0
M  V30 990 H 85.1528 0.394764 0.62709 0
M  V30 991 H 87.7998 1.54176 1.13587 0
M  V30 992 H 86.1048 1.22072 3.72298 0
M  V30 993 H 87.8018 1.60887 3.6731 0
M  V30 994 H 84.3918 2.93353 3.12477 0
M  V30 995 H 88.5758 3.91172 3.05447 0
M  V30 996 H 83.8318 5.32411 3.0058 0
M  V30 997 H 88.0058 6.30969 2.94704 0
M  V30 998 H 85.6328 7.01967 2.91798 0
M  V30 999 N 87.2079 -1.17134 1.05439 0
M  V30 1000 C 88.4569 -1.86791 0.761049 0
M  V30 1001 C 88.7699 -1.82072 -0.714795 0
M  V30 1002 O 89.9759 -2.47223 -1.12218 0
M  V30 1003 C 88.4319 -3.35166 1.31117 0
M  V30 1004 C 88.0399 -3.48381 2.81664 0
M  V30 1005 C 89.7839 -4.10134 1.09499 0
M  V30 1006 C 87.6909 -4.90793 3.29964 0
M  V30 1007 H 86.6209 -0.699681 0.281002 0
M  V30 1008 H 89.2719 -1.3226 1.27199 0
M  V30 1009 H 87.6539 -3.8925 0.72803 0
M  V30 1010 H 88.8279 -3.04502 3.45855 0
M  V30 1011 H 87.1429 -2.86836 3.01851 0
M  V30 1012 H 89.7399 -5.152 1.43084 0
M  V30 1013 H 90.0829 -4.16287 0.0328772 0
M  V30 1014 H 90.6159 -3.62264 1.64346 0
M  V30 1015 H 87.3549 -4.89816 4.35616 0
M  V30 1016 H 86.8749 -5.35333 2.70516 0
M  V30 1017 H 88.5539 -5.59573 3.24787 0
M  V30 1018 N 88.686 -0.835752 -1.33615 0
M  V30 1019 C 89.963 -0.352017 -1.92406 0
M  V30 1020 C 90.343 1.16225 -1.76224 0
M  V30 1021 O 89.691 1.97526 -1.14873 0
M  V30 1022 C 89.901 -0.795485 -3.39813 0
M  V30 1023 C 91.249 -0.801703 -4.16963 0
M  V30 1024 O 92.273 -0.738889 -3.48452 0
M  V30 1025 O 91.132 -0.886607 -5.3926 0
M  V30 1026 H 88.226 -0.0989641 -0.821057 0
M  V30 1027 H 90.772 -0.921397 -1.42507 0
M  V30 1028 H 89.544 -1.83795 -3.45449 0
M  V30 1029 H 89.167 -0.202505 -3.97084 0
M  V30 1030 N 90.1641 1.46063 -0.591896 0
M  V30 1031 C 91.0971 2.27452 0.184617 0
M  V30 1032 C 92.0751 1.36188 0.888351 0
M  V30 1033 O 93.2591 1.65606 0.90039 0
M  V30 1034 C 90.3861 3.14162 1.26571 0
M  V30 1035 C 89.4321 4.21255 0.666814 0
M  V30 1036 S 90.2651 5.33034 -0.513345 0
M  V30 1037 C 91.4211 6.23311 0.56872 0
M  V30 1038 H 91.6541 2.92963 -0.505939 0
M  V30 1039 H 89.1871 1.49676 -0.379014 0
M  V30 1040 H 91.1451 3.6468 1.88463 0
M  V30 1041 H 89.8061 2.47946 1.92826 0
M  V30 1042 H 88.9991 4.81788 1.47974 0
M  V30 1043 H 88.6011 3.73797 0.123359 0
M  V30 1044 H 90.8931 6.61758 1.45198 0
M  V30 1045 H 91.8361 7.081 -7.23824e-05 0
M  V30 1046 H 92.2441 5.57646 0.876996 0
M  V30 1047 N 91.6422 0.330177 1.54103 0
M  V30 1048 C 92.5742 -0.566902 2.22079 0
M  V30 1049 C 93.5872 -1.07462 1.22294 0
M  V30 1050 O 94.7762 -0.987065 1.48726 0
M  V30 1051 C 91.8762 -1.79138 2.87685 0
M  V30 1052 C 91.0492 -1.42123 4.13666 0
M  V30 1053 C 90.1082 -2.50394 4.62806 0
M  V30 1054 O 89.1342 -2.14261 5.27334 0
M  V30 1055 N 90.3362 -3.81433 4.37595 0
M  V30 1056 H 93.1012 0.0151844 2.99696 0
M  V30 1057 H 90.6622 0.153681 1.61169 0
M  V30 1058 H 92.6542 -2.50975 3.1748 0
M  V30 1059 H 91.2242 -2.28115 2.13734 0
M  V30 1060 H 90.4442 -0.534201 3.90564 0
M  V30 1061 H 91.7322 -1.14971 4.9564 0
M  V30 1062 H 91.1302 -4.13584 3.8596 0
M  V30 1063 H 89.6872 -4.4948 4.72029 0
M  V30 1064 N 93.1203 -1.57491 0.0584922 0
M  V30 1065 C 94.3663 -1.94081 -0.608617 0
M  V30 1066 C 94.7213 -0.937438 -1.68017 0
M  V30 1067 O 94.0143 0.0423034 -1.91553 0
M  V30 1068 C 94.2083 -3.3513 -1.24188 0
M  V30 1069 C 94.0373 -4.49095 -0.233187 0
M  V30 1070 C 92.8073 -5.04988 0.177439 0
M  V30 1071 C 95.0053 -5.1162 0.524306 0
M  V30 1072 N 92.9873 -6.02487 1.17823 0
M  V30 1073 C 94.3583 -6.04493 1.37796 0
M  V30 1074 C 96.4133 -4.94489 0.581822 0
M  V30 1075 C 95.1163 -6.82075 2.28399 0
M  V30 1076 C 97.1423 -5.72703 1.47531 0
M  V30 1077 C 96.5043 -6.65214 2.31667 0
M  V30 1078 H 92.6033 -0.75752 -0.194134 0
M  V30 1079 H 95.1873 -1.94248 0.132533 0
M  V30 1080 H 93.3583 -3.35726 -1.95302 0
M  V30 1081 H 95.0903 -3.5899 -1.86838 0
M  V30 1082 H 91.8453 -4.73165 -0.203004 0
M  V30 1083 H 92.2693 -6.55933 1.67573 0
M  V30 1084 H 96.9113 -4.22765 -0.054443 0
M  V30 1085 H 94.6293 -7.53085 2.93067 0
M  V30 1086 H 98.2153 -5.61472 1.52448 0
M  V30 1087 H 97.0953 -7.24679 2.99683 0
M  V30 1088 N 94.5984 0.214957 -1.56127 0
M  V30 1089 C 96.0144 0.564948 -1.49267 0
M  V30 1090 C 96.2144 1.86827 -0.754838 0
M  V30 1091 O 95.2704 2.50745 -0.297198 0
M  V30 1092 C 96.5834 0.638071 -2.93852 0
M  V30 1093 C 98.1314 0.728253 -3.0441 0
M  V30 1094 C 98.6064 0.832663 -4.50367 0
M  V30 1095 N 100.097 0.896712 -4.54437 0
M  V30 1096 C 100.832 0.997324 -5.6466 0
M  V30 1097 N 100.328 1.06147 -6.8462 0
M  V30 1098 N 102.121 1.03297 -5.52527 0
M  V30 1099 H 94.2724 -0.640211 -2.02522 0
M  V30 1100 H 96.5354 -0.225507 -0.920788 0
M  V30 1101 H 96.2414 -0.250126 -3.50809 0
M  V30 1102 H 96.1154 1.49947 -3.46115 0
M  V30 1103 H 98.5024 1.60689 -2.47514 0
M  V30 1104 H 98.5834 -0.158952 -2.55306 0
M  V30 1105 H 98.2274 -0.0415417 -5.07883 0
M  V30 1106 H 98.1574 1.73538 -4.97184 0
M  V30 1107 H 100.648 0.857188 -3.6805 0
M  V30 1108 H 100.961 1.1382 -7.64372 0
M  V30 1109 H 99.3064 1.03049 -6.87318 0
M  V30 1110 H 102.497 0.979558 -4.57736 0
M  V30 1111 H 102.67 1.10793 -6.38458 0
M  V30 1112 N 96.0765 1.50051 0.48192 0
M  V30 1113 C 97.3065 1.63999 1.2565 0
M  V30 1114 C 97.7145 0.318288 1.86504 0
M  V30 1115 O 97.0575 -0.708534 1.69486 0
M  V30 1116 C 97.1195 2.66504 2.4128 0
M  V30 1117 C 96.7835 4.10352 2.01148 0
M  V30 1118 C 97.7805 4.96562 1.54021 0
M  V30 1119 C 95.4655 4.56203 2.10199 0
M  V30 1120 C 97.4595 6.26668 1.16473 0
M  V30 1121 C 95.1465 5.86318 1.72264 0
M  V30 1122 C 96.1445 6.71375 1.25477 0
M  V30 1123 O 95.8325 7.99062 0.880626 0
M  V30 1124 H 95.5645 0.55456 0.386574 0
M  V30 1125 H 98.1185 1.96954 0.582944 0
M  V30 1126 H 96.3485 2.28769 3.11772 0
M  V30 1127 H 98.0375 2.69783 3.03268 0
M  V30 1128 H 98.8035 4.62358 1.46458 0
M  V30 1129 H 94.6825 3.90152 2.45566 0
M  V30 1130 H 98.2265 6.93011 0.798841 0
M  V30 1131 H 94.1235 6.20046 1.79482 0
M  V30 1132 H 94.8915 8.12239 1.01043 0
M  V30 1133 N 97.5546 -0.734337 1.39446 0
M  V30 1134 C 98.5016 -1.84835 1.38219 0
M  V30 1135 C 99.4716 -1.64331 0.24179 0
M  V30 1136 O 100.657 -1.85728 0.437002 0
M  V30 1137 C 97.7966 -3.22355 1.23212 0
M  V30 1138 C 96.9096 -3.5456 2.46801 0
M  V30 1139 C 96.0446 -4.81485 2.24377 0
M  V30 1140 C 95.0836 -5.06536 3.43639 0
M  V30 1141 N 94.2206 -6.24665 3.20528 0
M  V30 1142 H 99.0606 -1.85219 2.33448 0
M  V30 1143 H 96.5976 -0.905039 1.15963 0
M  V30 1144 H 98.5556 -4.0174 1.12522 0
M  V30 1145 H 97.1856 -3.21248 0.316121 0
M  V30 1146 H 96.2376 -2.69872 2.68092 0
M  V30 1147 H 97.5496 -3.6899 3.3563 0
M  V30 1148 H 96.7036 -5.68852 2.10933 0
M  V30 1149 H 95.4426 -4.6923 1.32944 0
M  V30 1150 H 94.4476 -4.17632 3.5758 0
M  V30 1151 H 95.6726 -5.20676 4.35974 0
M  V30 1152 H 93.6186 -6.13696 2.3176 0
M  V30 1153 H 93.5356 -6.39685 4.02913 0
M  V30 1154 H 94.8036 -7.14868 3.10779 0
M  V30 1155 N 99.0327 -1.24633 -0.964593 0
M  V30 1156 C 99.9627 -1.06611 -2.07741 0
M  V30 1157 C 100.944 0.0218666 -1.70086 0
M  V30 1158 O 102.129 -0.145793 -1.93652 0
M  V30 1159 C 99.2587 -0.673444 -3.40708 0
M  V30 1160 C 98.2127 -1.71054 -3.92332 0
M  V30 1161 C 97.5387 -1.17285 -5.21678 0
M  V30 1162 C 98.8387 -3.10718 -4.19824 0
M  V30 1163 H 100.533 -1.99693 -2.23076 0
M  V30 1164 H 98.0787 -0.96152 -1.07195 0
M  V30 1165 H 100.032 -0.534345 -4.17998 0
M  V30 1166 H 98.7557 0.293073 -3.25282 0
M  V30 1167 H 97.4147 -1.83791 -3.17201 0
M  V30 1168 H 97.0627 -0.196847 -5.02615 0
M  V30 1169 H 96.7627 -1.86592 -5.57187 0
M  V30 1170 H 98.2867 -1.04593 -6.01575 0
M  V30 1171 H 99.7007 -3.01192 -4.87808 0
M  V30 1172 H 98.0977 -3.77406 -4.66567 0
M  V30 1173 H 99.1677 -3.58524 -3.26479 0
M  V30 1174 N 100.511 1.16574 -1.06058 0
M  V30 1175 C 101.441 2.23057 -0.690488 0
M  V30 1176 C 102.422 1.67141 0.315901 0
M  V30 1177 O 103.607 1.93253 0.191556 0
M  V30 1178 C 100.737 3.47222 -0.073625 0
M  V30 1179 C 99.6908 4.16016 -1.00573 0
M  V30 1180 C 99.0168 5.34104 -0.252289 0
M  V30 1181 C 100.317 4.67264 -2.33371 0
M  V30 1182 H 102.011 2.54271 -1.58072 0
M  V30 1183 H 99.5568 1.22218 -0.76149 0
M  V30 1184 H 101.51 4.20939 0.19714 0
M  V30 1185 H 100.234 3.15302 0.85161 0
M  V30 1186 H 98.8928 3.44223 -1.2612 0
M  V30 1187 H 98.5408 4.98437 0.675988 0
M  V30 1188 H 98.2408 5.81072 -0.873455 0
M  V30 1189 H 99.7648 6.10599 0.0109857 0
M  V30 1190 H 101.179 5.32573 -2.12223 0
M  V30 1191 H 99.5758 5.24843 -2.90963 0
M  V30 1192 H 100.646 3.83602 -2.96611 0
M  V30 1193 N 101.989 0.842826 1.3317 0
M  V30 1194 C 102.919 0.294028 2.31641 0
M  V30 1195 C 103.9 -0.600401 1.59151 0
M  V30 1196 O 105.085 -0.523124 1.87022 0
M  V30 1197 C 102.215 -0.528416 3.43257 0
M  V30 1198 C 101.169 0.27056 4.27144 0
M  V30 1199 C 100.495 -0.675881 5.30411 0
M  V30 1200 C 101.795 1.48981 5.00602 0
M  V30 1201 H 103.489 1.11681 2.77791 0
M  V30 1202 H 101.035 0.538478 1.33553 0
M  V30 1203 H 102.988 -0.922674 4.11175 0
M  V30 1204 H 101.712 -1.38445 2.95805 0
M  V30 1205 H 100.371 0.646427 3.60856 0
M  V30 1206 H 100.019 -1.52842 4.79216 0
M  V30 1207 H 99.7189 -0.145374 5.8742 0
M  V30 1208 H 101.243 -1.06757 6.01195 0
M  V30 1209 H 102.657 1.16849 5.61266 0
M  V30 1210 H 101.054 1.95739 5.6728 0
M  V30 1211 H 102.124 2.25746 4.29147 0
M  V30 1212 N 103.467 -1.45747 0.599634 0
M  V30 1213 C 104.714 -2.02292 0.0917284 0
M  V30 1214 C 105.042 -1.46906 -1.27472 0
M  V30 1215 O 104.297 -0.630652 -1.8526 0
M  V30 1216 C 104.596 -3.57399 -0.00602758 0
M  V30 1217 C 104.262 -4.31902 1.29503 0
M  V30 1218 C 102.924 -4.51974 1.65144 0
M  V30 1219 C 105.276 -4.74551 2.15525 0
M  V30 1220 C 102.604 -5.11949 2.86574 0
M  V30 1221 C 104.956 -5.35868 3.36196 0
M  V30 1222 C 103.62 -5.54165 3.72099 0
M  V30 1223 H 102.89 -0.740239 0.0335658 0
M  V30 1224 H 105.537 -1.7491 0.779661 0
M  V30 1225 H 103.842 -3.84014 -0.777183 0
M  V30 1226 H 105.539 -3.98846 -0.415038 0
M  V30 1227 H 102.129 -4.16588 1.00761 0
M  V30 1228 H 106.313 -4.58784 1.8929 0
M  V30 1229 H 101.569 -5.24305 3.14507 0
M  V30 1230 H 105.743 -5.6787 4.03109 0
M  V30 1231 H 103.37 -6.00406 4.6628 0
M  V30 1232 N 104.945 -0.338344 -1.53925 0
M  V30 1233 C 106.17 0.263987 -2.05713 0
M  V30 1234 C 106.595 1.43847 -1.21201 0
M  V30 1235 O 105.953 1.79904 -0.224535 0
M  V30 1236 C 106.001 0.662 -3.54471 0
M  V30 1237 O 105.105 1.76265 -3.72833 0
M  V30 1238 H 104.446 0.0448722 -0.662482 0
M  V30 1239 H 106.976 -0.491048 -1.9862 0
M  V30 1240 H 106.986 0.940594 -3.9701 0
M  V30 1241 H 105.661 -0.196937 -4.15433 0
M  V30 1242 H 104.238 1.48173 -3.42198 0
M  V30 1243 N 106.423 1.57458 -0.0668435 0
M  V30 1244 C 107.386 2.11323 0.887422 0
M  V30 1245 C 108.386 1.03618 1.22964 0
M  V30 1246 O 109.576 1.29626 1.16373 0
M  V30 1247 C 106.708 2.61048 2.19242 0
M  V30 1248 H 107.901 2.96942 0.420194 0
M  V30 1249 H 105.454 1.55239 0.181793 0
M  V30 1250 H 106.189 1.78868 2.70512 0
M  V30 1251 H 105.974 3.39769 1.95702 0
M  V30 1252 H 107.464 3.02814 2.87565 0
M  V30 1253 N 107.901 -0.206675 1.56239 0
M  V30 1254 C 109.129 -0.945345 1.8404 0
M  V30 1255 C 109.544 -1.77336 0.647885 0
M  V30 1256 O 108.901 -1.78425 -0.383511 0
M  V30 1257 C 108.952 -1.8509 3.10522 0
M  V30 1258 O 108.673 -1.05634 4.25174 0
M  V30 1259 C 110.174 -2.70222 3.51418 0
M  V30 1260 H 107.394 -0.276372 0.61144 0
M  V30 1261 H 109.938 -0.217417 2.03341 0
M  V30 1262 H 108.093 -2.53259 2.93153 0
M  V30 1263 H 108.507 -1.67238 4.97124 0
M  V30 1264 H 109.981 -3.29438 4.42916 0
M  V30 1265 H 110.458 -3.43358 2.73864 0
M  V30 1266 H 111.064 -2.07443 3.71278 0
M  V30 1267 N 109.379 -1.50304 -0.473955 0
M  V30 1268 C 110.626 -1.6115 -1.22625 0
M  V30 1269 C 110.954 -0.310517 -1.92005 0
M  V30 1270 O 110.209 0.703419 -1.82621 0
M  V30 1271 C 110.508 -2.73938 -2.29549 0
M  V30 1272 C 110.174 -4.14519 -1.7744 0
M  V30 1273 C 108.836 -4.5277 -1.62949 0
M  V30 1274 C 111.188 -5.02392 -1.3875 0
M  V30 1275 C 108.516 -5.76639 -1.08187 0
M  V30 1276 C 110.868 -6.26805 -0.854309 0
M  V30 1277 C 109.532 -6.63861 -0.696011 0
M  V30 1278 H 108.802 -0.589691 -0.448715 0
M  V30 1279 H 111.449 -1.84228 -0.522705 0
M  V30 1280 H 109.754 -2.44937 -3.05799 0
M  V30 1281 H 111.451 -2.79534 -2.87509 0
M  V30 1282 H 108.041 -3.8434 -1.89685 0
M  V30 1283 H 112.225 -4.73474 -1.4878 0
M  V30 1284 H 107.481 -6.04027 -0.946666 0
M  V30 1285 H 111.655 -6.94258 -0.545843 0
M  V30 1286 H 109.282 -7.59722 -0.26952 0
M  V30 1287 N 110.857 0.726932 -1.39834 0
M  V30 1288 C 111.82 1.82269 -1.38962 0
M  V30 1289 C 112.82 1.58248 -0.285334 0
M  V30 1290 O 114.01 1.65499 -0.54366 0
M  V30 1291 C 111.142 3.20186 -1.17019 0
M  V30 1292 H 112.335 1.84443 -2.36476 0
M  V30 1293 H 109.888 0.931416 -1.25516 0
M  V30 1294 H 110.623 3.23669 -0.202204 0
M  V30 1295 H 110.408 3.3902 -1.96998 0
M  V30 1296 H 111.898 4.00235 -1.1917 0
M  V30 1297 N 112.336 1.25143 0.95797 0
M  V30 1298 C 113.584 1.09476 1.69881 0
M  V30 1299 C 113.905 -0.365502 1.91544 0
M  V30 1300 O 113.175 -1.25985 1.50015 0
M  V30 1301 H 111.755 0.402128 0.629525 0
M  V30 1302 H 114.417 1.57214 1.15194 0
M  V30 1303 H 113.513 1.60046 2.6794 0
M  V30 1304 N 113.814 -1.1601 1.06675 0
M  V30 1305 C 115.042 -1.90527 0.806667 0
M  V30 1306 C 115.457 -1.77643 -0.639396 0
M  V30 1307 O 114.814 -1.12369 -1.43803 0
M  V30 1308 C 114.865 -3.41106 1.19705 0
M  V30 1309 O 114.586 -3.53608 2.58636 0
M  V30 1310 C 116.087 -4.32663 0.965266 0
M  V30 1311 H 113.307 -0.604053 0.292166 0
M  V30 1312 H 115.851 -1.47026 1.4214 0
M  V30 1313 H 114.006 -3.82296 0.626774 0
M  V30 1314 H 114.42 -4.47011 2.74375 0
M  V30 1315 H 115.894 -5.36763 1.288 0
M  V30 1316 H 116.371 -4.39089 -0.0987936 0
M  V30 1317 H 116.977 -3.97206 1.52011 0
M  V30 1318 N 115.292 -0.849877 -1.32721 0
M  V30 1319 C 116.538 -0.460855 -1.9811 0
M  V30 1320 C 116.893 0.971716 -1.66059 0
M  V30 1321 O 116.186 1.67184 -0.935944 0
M  V30 1322 C 116.38 -0.631272 -3.51781 0
M  V30 1323 C 116.209 -2.07886 -3.98765 0
M  V30 1324 C 114.979 -2.71637 -4.26077 0
M  V30 1325 C 117.177 -3.04889 -4.14182 0
M  V30 1326 N 115.159 -4.07356 -4.59276 0
M  V30 1327 C 116.53 -4.25583 -4.50865 0
M  V30 1328 C 118.585 -3.01148 -3.96503 0
M  V30 1329 C 117.288 -5.43027 -4.71714 0
M  V30 1330 C 119.314 -4.17832 -4.18533 0
M  V30 1331 C 118.676 -5.37284 -4.55528 0
M  V30 1332 H 114.775 -0.217283 -0.751207 0
M  V30 1333 H 117.359 -1.10026 -1.60631 0
M  V30 1334 H 115.53 -0.0215966 -3.88394 0
M  V30 1335 H 117.262 -0.212614 -4.04141 0
M  V30 1336 H 114.017 -2.22705 -4.17971 0
M  V30 1337 H 114.441 -4.77351 -4.80068 0
M  V30 1338 H 119.083 -2.0992 -3.67006 0
M  V30 1339 H 116.801 -6.34791 -5.00066 0
M  V30 1340 H 120.387 -4.16368 -4.06361 0
M  V30 1341 H 119.267 -6.26071 -4.72234 0
M  V30 1342 N 116.77 1.45427 -0.607355 0
M  V30 1343 C 118.017 2.02241 -0.102455 0
M  V30 1344 C 118.345 1.4758 1.26691 0
M  V30 1345 O 117.6 0.640468 1.84923 0
M  V30 1346 C 117.899 3.57398 -0.0129263 0
M  V30 1347 C 117.565 4.3121 -1.31792 0
M  V30 1348 C 116.227 4.51092 -1.67539 0
M  V30 1349 C 118.579 4.73401 -2.18039 0
M  V30 1350 C 115.907 5.10422 -2.89285 0
M  V30 1351 C 118.259 5.34078 -3.39034 0
M  V30 1352 C 116.923 5.52184 -3.75033 0
M  V30 1353 H 116.193 0.740051 -0.037491 0
M  V30 1354 H 118.84 1.74494 -0.788926 0
M  V30 1355 H 117.145 3.84421 0.756806 0
M  V30 1356 H 118.842 3.99061 0.393881 0
M  V30 1357 H 115.432 4.16047 -1.02968 0
M  V30 1358 H 119.616 4.57774 -1.91721 0
M  V30 1359 H 114.872 5.22629 -3.17283 0
M  V30 1360 H 119.046 5.65724 -4.06115 0
M  V30 1361 H 116.673 5.97925 -4.69457 0
M  V30 1362 N 118.248 0.346503 1.53744 0
M  V30 1363 C 119.178 -0.501193 2.28058 0
M  V30 1364 C 120.159 -1.10014 1.29734 0
M  V30 1365 O 121.344 -1.12097 1.58581 0
M  V30 1366 C 118.474 -1.65078 3.05559 0
M  V30 1367 C 117.428 -1.18003 4.11411 0
M  V30 1368 C 116.754 -2.41837 4.76884 0
M  V30 1369 C 118.054 -0.278394 5.21558 0
M  V30 1370 H 119.748 0.11875 2.99164 0
M  V30 1371 H 117.294 0.0585531 1.43881 0
M  V30 1372 H 119.247 -2.25028 3.56287 0
M  V30 1373 H 117.971 -2.29767 2.32109 0
M  V30 1374 H 116.63 -0.603331 3.61601 0
M  V30 1375 H 116.278 -3.0494 4.00026 0
M  V30 1376 H 115.978 -2.1102 5.48402 0
M  V30 1377 H 117.502 -3.02508 5.30397 0
M  V30 1378 H 118.916 -0.784823 5.67903 0
M  V30 1379 H 117.313 -0.0619707 6.00068 0
M  V30 1380 H 118.383 0.684677 4.80042 0
M  V30 1381 N 119.726 -1.57421 0.075193 0
M  V30 1382 C 120.973 -1.93618 -0.593146 0
M  V30 1383 C 121.301 -0.955484 -1.69413 0
M  V30 1384 O 120.556 0.0283251 -1.9568 0
M  V30 1385 C 120.855 -3.36428 -1.20626 0
M  V30 1386 C 120.521 -4.50307 -0.231078 0
M  V30 1387 C 119.183 -4.81186 0.0371936 0
M  V30 1388 C 121.535 -5.19374 0.435888 0
M  V30 1389 C 118.863 -5.78466 0.979461 0
M  V30 1390 C 121.215 -6.17665 1.3665 0
M  V30 1391 C 119.879 -6.46958 1.6432 0
M  V30 1392 H 119.149 -0.708499 -0.217047 0
M  V30 1393 H 121.796 -1.90937 0.146793 0
M  V30 1394 H 120.101 -3.35592 -2.02201 0
M  V30 1395 H 121.798 -3.61727 -1.73073 0
M  V30 1396 H 118.388 -4.26227 -0.450357 0
M  V30 1397 H 122.572 -4.95711 0.241748 0
M  V30 1398 H 117.828 -5.99487 1.20106 0
M  V30 1399 H 122.002 -6.70284 1.88924 0
M  V30 1400 H 119.629 -7.2215 2.37494 0
M  V30 1401 N 121.204 0.198386 -1.56346 0
M  V30 1402 C 122.452 0.91747 -1.80075 0
M  V30 1403 C 122.773 1.83929 -0.647692 0
M  V30 1404 O 122.043 1.93029 0.334166 0
M  V30 1405 H 120.623 0.341774 -0.664228 0
M  V30 1406 H 123.285 0.204684 -1.93822 0
M  V30 1407 H 122.381 1.51055 -2.7311 0
M  V30 1408 N 122.682 1.50554 0.465978 0
M  V30 1409 C 123.928 1.62038 1.21949 0
M  V30 1410 C 124.261 0.322116 1.9151 0
M  V30 1411 O 123.536 -0.676723 1.82348 0
M  V30 1412 C 123.819 2.80421 2.25912 0
M  V30 1413 C 123.672 4.20144 1.60622 0
M  V30 1414 C 124.991 2.94354 3.27176 0
M  V30 1415 H 122.11 0.589752 0.441998 0
M  V30 1416 H 124.752 1.82956 0.51257 0
M  V30 1417 H 122.902 2.62717 2.86203 0
M  V30 1418 H 124.574 4.49449 1.03889 0
M  V30 1419 H 122.817 4.24165 0.909211 0
M  V30 1420 H 123.488 4.98914 2.36196 0
M  V30 1421 H 125.964 3.10578 2.76913 0
M  V30 1422 H 124.84 3.788 3.97242 0
M  V30 1423 H 125.101 2.05186 3.916 0
M  V30 1424 N 124.16 -0.719506 1.40217 0
M  V30 1425 C 125.406 -1.48152 1.38488 0
M  V30 1426 C 125.739 -1.94195 -0.0141867 0
M  V30 1427 O 125.014 -1.67884 -0.982096 0
M  V30 1428 C 125.297 -2.71035 2.37091 0
M  V30 1429 C 125.15 -2.30912 3.86005 0
M  V30 1430 C 126.469 -3.73182 2.33288 0
M  V30 1431 H 123.588 -0.537395 0.504357 0
M  V30 1432 H 126.23 -0.821472 1.71324 0
M  V30 1433 H 124.38 -3.27352 2.0922 0
M  V30 1434 H 126.052 -1.80107 4.24687 0
M  V30 1435 H 124.295 -1.62958 4.02029 0
M  V30 1436 H 124.966 -3.18978 4.50508 0
M  V30 1437 H 127.442 -3.26485 2.57966 0
M  V30 1438 H 126.318 -4.56806 3.04334 0
M  V30 1439 H 126.579 -4.21202 1.34317 0
M  V30 1440 N 125.638 -1.25649 -0.95132 0
M  V30 1441 C 126.884 -1.11766 -1.69941 0
M  V30 1442 C 127.239 0.33735 -1.89419 0
M  V30 1443 O 126.532 1.24491 -1.45645 0
M  V30 1444 C 126.726 -1.80909 -3.08231 0
M  V30 1445 C 126.555 -3.32984 -3.02245 0
M  V30 1446 C 125.325 -4.02247 -3.05819 0
M  V30 1447 C 127.523 -4.29332 -2.83157 0
M  V30 1448 N 125.505 -5.41072 -2.90024 0
M  V30 1449 C 126.876 -5.55265 -2.75828 0
M  V30 1450 C 128.931 -4.19707 -2.67863 0
M  V30 1451 C 127.634 -6.72671 -2.54767 0
M  V30 1452 C 129.66 -5.36809 -2.48173 0
M  V30 1453 C 129.022 -6.61683 -2.41567 0
M  V30 1454 H 125.121 -0.463708 -0.629682 0
M  V30 1455 H 127.705 -1.58796 -1.12659 0
M  V30 1456 H 125.876 -1.36369 -3.63673 0
M  V30 1457 H 127.608 -1.59739 -3.71841 0
M  V30 1458 H 124.363 -3.53531 -3.15139 0
M  V30 1459 H 124.787 -6.13938 -2.85323 0
M  V30 1460 H 129.429 -3.23907 -2.71743 0
M  V30 1461 H 127.147 -7.68577 -2.49629 0
M  V30 1462 H 130.733 -5.31224 -2.37259 0
M  V30 1463 H 129.613 -7.50768 -2.26531 0
M  V30 1464 N 127.117 1.15442 -1.07289 0
M  V30 1465 C 128.347 1.89821 -0.815576 0
M  V30 1466 C 128.755 1.7823 0.634867 0
M  V30 1467 O 128.098 1.13152 1.44715 0
M  V30 1468 C 128.16 3.40817 -1.14385 0
M  V30 1469 C 127.824 3.76193 -2.59476 0
M  V30 1470 C 128.821 3.77269 -3.57721 0
M  V30 1471 C 126.506 4.0652 -2.95037 0
M  V30 1472 C 128.5 4.08176 -4.89562 0
M  V30 1473 C 126.187 4.37092 -4.27076 0
M  V30 1474 C 127.185 4.37902 -5.24148 0
M  V30 1475 O 126.873 4.67741 -6.53815 0
M  V30 1476 H 126.605 0.608465 -0.294528 0
M  V30 1477 H 129.159 1.472 -1.43252 0
M  V30 1478 H 127.389 3.83835 -0.469865 0
M  V30 1479 H 129.078 3.96485 -0.869179 0
M  V30 1480 H 129.844 3.5394 -3.3159 0
M  V30 1481 H 125.723 4.05049 -2.20128 0
M  V30 1482 H 129.267 4.08723 -5.65324 0
M  V30 1483 H 125.164 4.59889 -4.5296 0
M  V30 1484 H 125.932 4.85509 -6.58957 0
M  V30 1485 N 128.595 0.856903 1.32268 0
M  V30 1486 C 129.525 0.31858 2.31316 0
M  V30 1487 C 130.506 -0.583487 1.59779 0
M  V30 1488 O 131.691 -0.503259 1.87566 0
M  V30 1489 C 128.821 -0.491979 3.43798 0
M  V30 1490 C 127.775 0.315849 4.26833 0
M  V30 1491 C 127.101 -0.619586 5.31098 0
M  V30 1492 C 128.401 1.54282 4.98993 0
M  V30 1493 H 130.095 1.14621 2.76591 0
M  V30 1494 H 127.641 0.552613 1.32974 0
M  V30 1495 H 129.594 -0.879012 4.1213 0
M  V30 1496 H 128.318 -1.35299 2.97257 0
M  V30 1497 H 126.977 0.684664 3.6015 0
M  V30 1498 H 126.625 -1.47751 4.8081 0
M  V30 1499 H 126.325 -0.0830621 5.87541 0
M  V30 1500 H 127.849 -1.00375 6.02293 0
M  V30 1501 H 129.263 1.22796 5.59995 0
M  V30 1502 H 127.66 2.01745 5.65172 0
M  V30 1503 H 128.73 2.30285 4.26728 0
M  V30 1504 N 130.073 -1.45103 0.615059 0
M  V30 1505 C 131.319 -2.02483 0.113347 0
M  V30 1506 C 131.652 -1.48146 -1.25564 0
M  V30 1507 O 130.927 -0.659104 -1.82992 0
M  V30 1508 C 131.21 -3.60005 0.0825278 0
M  V30 1509 C 131.063 -4.2466 1.48271 0
M  V30 1510 C 132.382 -4.35972 -0.601401 0
M  V30 1511 H 129.501 -0.735764 0.0426632 0
M  V30 1512 H 132.143 -1.72868 0.788461 0
M  V30 1513 H 130.293 -3.85367 -0.492378 0
M  V30 1514 H 131.965 -4.10458 2.10527 0
M  V30 1515 H 130.208 -3.82772 2.04127 0
M  V30 1516 H 130.879 -5.336 1.41332 0
M  V30 1517 H 133.355 -4.15947 -0.112666 0
M  V30 1518 H 132.231 -5.45697 -0.592097 0
M  V30 1519 H 132.492 -4.09391 -1.66887 0
M  V30 1520 N 131.551 -0.354651 -1.53558 0
M  V30 1521 C 132.514 0.484566 -2.24019 0
M  V30 1522 C 133.514 1.01861 -1.24422 0
M  V30 1523 O 134.704 0.906097 -1.4878 0
M  V30 1524 C 131.836 1.67615 -2.96847 0
M  V30 1525 H 133.029 -0.131843 -2.9961 0
M  V30 1526 H 130.582 -0.106165 -1.55939 0
M  V30 1527 H 131.317 2.33095 -2.25471 0
M  V30 1528 H 131.102 1.30029 -3.69912 0
M  V30 1529 H 132.592 2.27114 -3.50441 0
M  V30 1530 N 133.029 1.57378 -0.0835403 0
M  V30 1531 C 134.275 1.94217 0.583733 0
M  V30 1532 C 134.608 0.964653 1.68547 0
M  V30 1533 O 133.883 -0.00422258 1.945 0
M  V30 1534 C 134.166 3.41253 1.14972 0
M  V30 1535 C 134.019 4.49768 0.0538277 0
M  V30 1536 C 135.338 3.89352 2.05166 0
M  V30 1537 H 132.457 0.706233 0.210724 0
M  V30 1538 H 135.099 1.89392 -0.1519 0
M  V30 1539 H 133.249 3.45496 1.77665 0
M  V30 1540 H 134.921 4.57641 -0.579851 0
M  V30 1541 H 133.164 4.29432 -0.614068 0
M  V30 1542 H 133.835 5.49817 0.490452 0
M  V30 1543 H 136.311 3.87189 1.52393 0
M  V30 1544 H 135.187 4.92822 2.41698 0
M  V30 1545 H 135.448 3.27973 2.96456 0
M  V30 1546 N 134.507 -0.190092 1.56449 0
M  V30 1547 C 135.47 -1.21925 1.9408 0
M  V30 1548 C 136.47 -1.38176 0.822431 0
M  V30 1549 O 137.66 -1.35903 1.08977 0
M  V30 1550 C 134.792 -2.58773 2.21922 0
M  V30 1551 H 135.985 -0.897464 2.86157 0
M  V30 1552 H 133.538 -0.43181 1.50217 0
M  V30 1553 H 134.273 -2.95998 1.32499 0
M  V30 1554 H 134.058 -2.48348 3.03424 0
M  V30 1555 H 135.548 -3.32978 2.52022 0
M  V30 1556 N 135.985 -1.50799 -0.457987 0
M  V30 1557 C 136.935 -1.67003 -1.55222 0
M  V30 1558 C 137.919 -0.52434 -1.52117 0
M  V30 1559 O 139.111 -0.779345 -1.58919 0
M  V30 1560 C 136.24 -1.77956 -2.93576 0
M  V30 1561 C 135.326 -2.98243 -3.01516 0
M  V30 1562 N 135.717 -4.21732 -2.79241 0
M  V30 1563 C 134.015 -2.97072 -3.32662 0
M  V30 1564 C 134.716 -5.02817 -2.92489 0
M  V30 1565 N 133.692 -4.37038 -3.23262 0
M  V30 1566 H 137.494 -2.60163 -1.36721 0
M  V30 1567 H 135.008 -1.48163 -0.664952 0
M  V30 1568 H 137.005 -1.87671 -3.72271 0
M  V30 1569 H 135.665 -0.859634 -3.13114 0
M  V30 1570 H 136.676 -4.51016 -2.54567 0
M  V30 1571 H 133.353 -2.14631 -3.58106 0
M  V30 1572 H 134.743 -6.11054 -2.79396 0
M  V30 1573 N 137.463 0.71206 -1.40597 0
M  V30 1574 C 138.711 1.46907 -1.38791 0
M  V30 1575 C 139.032 1.94998 0.00780391 0
M  V30 1576 O 138.302 1.70587 0.963174 0
M  V30 1577 H 136.882 0.545043 -0.51082 0
M  V30 1578 H 139.544 0.843882 -1.75683 0
M  V30 1579 H 138.64 2.34021 -2.06496 0
M  V30 1580 N 138.941 1.26152 0.944643 0
M  V30 1581 C 140.218 1.02247 1.66748 0
M  V30 1582 C 140.598 -0.448202 2.06287 0
M  V30 1583 O 139.946 -1.42779 1.78399 0
M  V30 1584 C 140.156 1.96788 2.88228 0
M  V30 1585 C 141.504 2.25201 3.59958 0
M  V30 1586 O 142.528 1.94626 2.98327 0
M  V30 1587 O 141.387 2.77242 4.70956 0
M  V30 1588 H 138.481 0.388517 0.730057 0
M  V30 1589 H 141.027 1.37348 0.99668 0
M  V30 1590 H 139.799 2.96047 2.55875 0
M  V30 1591 H 139.422 1.62145 3.63035 0
M  V30 1592 N 140.419 -1.14872 1.07899 0
M  V30 1593 C 141.349 -2.2193 0.725887 0
M  V30 1594 C 142.33 -1.67622 -0.28927 0
M  V30 1595 O 143.515 -1.93533 -0.160787 0
M  V30 1596 C 140.645 -3.47061 0.128856 0
M  V30 1597 C 139.599 -4.14363 1.07178 0
M  V30 1598 C 138.925 -5.33636 0.337229 0
M  V30 1599 C 140.225 -4.63492 2.40775 0
M  V30 1600 H 141.919 -2.51724 1.62097 0
M  V30 1601 H 139.465 -1.20991 0.780838 0
M  V30 1602 H 141.418 -4.21199 -0.130147 0
M  V30 1603 H 140.142 -3.16617 -0.80134 0
M  V30 1604 H 138.801 -3.42173 1.3158 0
M  V30 1605 H 138.449 -4.99449 -0.596606 0
M  V30 1606 H 138.149 -5.79609 0.965788 0
M  V30 1607 H 139.673 -6.10539 0.0861567 0
M  V30 1608 H 141.087 -5.2913 2.20669 0
M  V30 1609 H 139.484 -5.20148 2.99276 0
M  V30 1610 H 140.554 -3.78834 3.02676 0
M  V30 1611 N 141.898 -0.863906 -1.31812 0
M  V30 1612 C 142.828 -0.330843 -2.31144 0
M  V30 1613 C 143.809 0.575005 -1.60087 0
M  V30 1614 O 144.994 0.493304 -1.8783 0
M  V30 1615 C 142.124 0.47374 -3.44054 0
M  V30 1616 C 141.078 -0.338481 -4.26659 0
M  V30 1617 C 140.404 0.591412 -5.31419 0
M  V30 1618 C 141.704 -1.56926 -4.98168 0
M  V30 1619 H 143.398 -1.16086 -2.75979 0
M  V30 1620 H 140.944 -0.559657 -1.32679 0
M  V30 1621 H 142.897 0.857143 -4.12591 0
M  V30 1622 H 141.621 1.33721 -2.9797 0
M  V30 1623 H 140.28 -0.703754 -3.59782 0
M  V30 1624 H 139.928 1.45199 -4.81587 0
M  V30 1625 H 139.628 0.0519022 -5.87577 0
M  V30 1626 H 141.152 0.97179 -6.02817 0
M  V30 1627 H 142.566 -1.25764 -5.59336 0
M  V30 1628 H 140.963 -2.04739 -5.64094 0
M  V30 1629 H 142.033 -2.32544 -4.25501 0
M  V30 1630 N 143.376 1.44774 -0.622745 0
M  V30 1631 C 144.286 2.34433 0.0886031 0
M  V30 1632 C 145.302 1.52131 0.844529 0
M  V30 1633 O 146.478 1.84886 0.798691 0
M  V30 1634 C 143.543 3.29986 1.0635 0
M  V30 1635 C 142.604 4.28195 0.307873 0
M  V30 1636 C 141.837 5.19183 1.23633 0
M  V30 1637 O 142.06 5.13918 2.47476 0
M  V30 1638 O 140.994 5.97515 0.725189 0
M  V30 1639 H 144.82 2.96693 -0.648599 0
M  V30 1640 H 142.405 1.44408 -0.382957 0
M  V30 1641 H 144.287 3.88825 1.6246 0
M  V30 1642 H 142.962 2.70269 1.78146 0
M  V30 1643 H 141.869 3.72927 -0.296064 0
M  V30 1644 H 143.202 4.90808 -0.3699 0
M  V30 1645 N 144.854 0.36279 1.53368 0
M  V30 1646 C 145.784 -0.476976 2.28576 0
M  V30 1647 C 146.765 -1.08631 1.30894 0
M  V30 1648 O 147.95 -1.10409 1.59761 0
M  V30 1649 C 145.08 -1.61828 3.07293 0
M  V30 1650 C 144.034 -1.13633 4.1264 0
M  V30 1651 C 143.36 -2.36766 4.79423 0
M  V30 1652 C 144.66 -0.223061 5.21823 0
M  V30 1653 H 146.354 0.150474 2.99022 0
M  V30 1654 H 143.9 0.0738103 1.43811 0
M  V30 1655 H 145.853 -2.21237 3.58653 0
M  V30 1656 H 144.577 -2.27292 2.34533 0
M  V30 1657 H 143.236 -0.564945 3.62221 0
M  V30 1658 H 142.884 -3.0068 4.03238 0
M  V30 1659 H 142.584 -2.05192 5.50609 0
M  V30 1660 H 144.108 -2.96865 5.33576 0
M  V30 1661 H 145.522 -0.724545 5.68703 0
M  V30 1662 H 143.919 0.001678 6.001 0
M  V30 1663 H 144.989 0.735553 4.79289 0
M  V30 1664 N 146.332 -1.57332 0.0918853 0
M  V30 1665 C 147.609 -1.85691 -0.614668 0
M  V30 1666 C 147.989 -0.988146 -1.86545 0
M  V30 1667 O 147.337 -0.0597055 -2.28422 0
M  V30 1668 C 147.547 -3.36294 -0.933126 0
M  V30 1669 C 148.895 -4.04275 -1.29796 0
M  V30 1670 O 149.919 -3.41157 -1.02424 0
M  V30 1671 O 148.778 -5.1564 -1.81047 0
M  V30 1672 H 145.872 -0.767802 -0.307261 0
M  V30 1673 H 148.418 -1.69244 0.12434 0
M  V30 1674 H 147.19 -3.91273 -0.0456404 0
M  V30 1675 H 146.813 -3.58076 -1.72822 0
M  V30 1676 N 147.81 0.181792 -1.56548 0
M  V30 1677 C 149.221 0.745244 -1.71181 0
M  V30 1678 C 149.572 1.83262 -0.70068 0
M  V30 1679 O 148.697 2.15946 0.140154 0
M  V30 1680 C 149.292 1.35859 -3.10367 0
M  V30 1681 C 147.851 1.86898 -3.2672 0
M  V30 1682 C 146.998 0.743942 -2.67134 0
M  V30 1683 H 149.949 -0.0434661 -1.5864 0
M  V30 1684 H 149.97 2.22817 -3.08436 0
M  V30 1685 H 149.482 0.566948 -3.83937 0
M  V30 1686 H 147.583 2.68738 -2.5809 0
M  V30 1687 H 147.696 2.02162 -4.34359 0
M  V30 1688 H 146.06 1.16169 -2.26665 0
M  V30 1689 H 146.843 -0.035676 -3.43281 0
M  V30 1690 N 149.288 1.51039 0.449983 0
M  V30 1691 C 150.699 1.557 1.03026 0
M  V30 1692 C 151.05 0.372939 1.92623 0
M  V30 1693 O 150.175 -0.511771 2.10261 0
M  V30 1694 C 150.77 2.82171 1.87523 0
M  V30 1695 C 149.329 2.89444 2.40622 0
M  V30 1696 C 148.476 2.50228 1.19504 0
M  V30 1697 H 151.427 1.56999 0.231745 0
M  V30 1698 H 151.448 2.65219 2.72835 0
M  V30 1699 H 150.96 3.68331 1.22286 0
M  V30 1700 H 149.061 2.07685 3.0935 0
M  V30 1701 H 149.174 3.92816 2.74285 0
M  V30 1702 H 147.538 2.03139 1.53644 0
M  V30 1703 H 148.321 3.38719 0.558972 0
M  V30 1704 N 150.766 -0.704594 1.40972 0
M  V30 1705 C 151.729 -1.80035 1.41845 0
M  V30 1706 C 152.729 -1.57774 0.310474 0
M  V30 1707 O 153.919 -1.64613 0.56992 0
M  V30 1708 C 151.051 -3.18284 1.22098 0
M  V30 1709 H 152.244 -1.80658 2.3938 0
M  V30 1710 H 149.797 -0.911329 1.26982 0
M  V30 1711 H 150.532 -3.23306 0.253672 0
M  V30 1712 H 150.317 -3.35843 2.02366 0
M  V30 1713 H 151.807 -3.98289 1.25522 0
M  V30 1714 N 152.244 -1.26651 -0.937939 0
M  V30 1715 C 153.192 -1.08308 -2.05845 0
M  V30 1716 C 154.186 -0.0090757 -1.69398 0
M  V30 1717 O 155.392 -0.166007 -1.79233 0
M  V30 1718 H 151.767 -0.333416 -0.674046 0
M  V30 1719 H 153.738 -2.03261 -2.18467 0
M  V30 1720 C 152.487 -0.736229 -3.39816 0
M  V30 1721 H 151.81 -1.55453 -3.6834 0
M  V30 1722 H 153.25 -0.64769 -4.19024 0
M  V30 1723 C 151.709 0.558824 -3.32233 0
M  V30 1724 O 152.239 1.59621 -3.68624 0
M  V30 1725 N 150.445 0.550657 -2.85335 0
M  V30 1726 H 149.992 -0.293943 -2.55917 0
M  V30 1727 H 149.95 1.41726 -2.80644 0
M  V30 1728 N 153.722 1.14298 -1.08507 0
M  V30 1729 C 154.672 2.17449 -0.685569 0
M  V30 1730 C 155.656 1.58167 0.295315 0
M  V30 1731 O 156.848 1.76675 0.107172 0
M  V30 1732 C 153.977 3.43161 -0.0975318 0
M  V30 1733 C 153.063 4.09471 -1.10426 0
M  V30 1734 N 153.454 4.51089 -2.28806 0
M  V30 1735 C 151.752 4.35976 -0.940258 0
M  V30 1736 C 152.453 5.02654 -2.9277 0
M  V30 1737 N 151.429 4.96927 -2.20374 0
M  V30 1738 H 155.231 2.47369 -1.587 0
M  V30 1739 H 152.745 1.30992 -0.959936 0
M  V30 1740 H 154.742 4.16388 0.20664 0
M  V30 1741 H 153.402 3.14719 0.798872 0
M  V30 1742 H 154.413 4.44097 -2.66455 0
M  V30 1743 H 151.09 4.17386 -0.0977441 0
M  V30 1744 H 152.48 5.44723 -3.93352 0
M  V30 1745 N 155.201 0.870884 1.31352 0
M  V30 1746 C 156.429 0.49677 2.00848 0
M  V30 1747 C 156.844 -0.910998 1.65367 0
M  V30 1748 O 156.201 -1.59696 0.883374 0
M  V30 1749 C 156.252 0.645308 3.55694 0
M  V30 1750 O 155.973 1.99764 3.89905 0
M  V30 1751 C 157.474 0.272326 4.42463 0
M  V30 1752 H 154.694 0.193462 0.642506 0
M  V30 1753 H 157.238 1.1723 1.67563 0
M  V30 1754 H 155.393 0.0173176 3.87396 0
M  V30 1755 H 155.807 2.00607 4.84621 0
M  V30 1756 H 157.281 0.427208 5.50344 0
M  V30 1757 H 157.758 -0.788587 4.32062 0
M  V30 1758 H 158.364 0.876054 4.1618 0
M  V30 1759 N 156.679 -1.44442 0.630414 0
M  V30 1760 C 158.09 -1.85434 0.217063 0
M  V30 1761 C 158.441 -1.52748 -1.23136 0
M  V30 1762 O 157.566 -0.965205 -1.93682 0
M  V30 1763 C 158.161 -3.36581 0.387168 0
M  V30 1764 C 156.72 -3.76389 0.0283297 0
M  V30 1765 C 155.867 -2.68296 0.700889 0
M  V30 1766 H 158.818 -1.34919 0.83562 0
M  V30 1767 H 158.839 -3.78657 -0.374086 0
M  V30 1768 H 158.351 -3.60339 1.44144 0
M  V30 1769 H 156.452 -3.58246 -1.02423 0
M  V30 1770 H 156.565 -4.77095 0.437892 0
M  V30 1771 H 154.929 -2.54335 0.136267 0
M  V30 1772 H 155.712 -2.94887 1.75774 0
M  V30 1773 N 158.157 -0.370918 -1.53173 0
M  V30 1774 C 159.397 0.217106 -2.03244 0
M  V30 1775 C 159.761 1.45558 -1.25207 0
M  V30 1776 O 160.962 2.11957 -1.65311 0
M  V30 1777 C 159.233 0.496664 -3.53932 0
M  V30 1778 S 160.792 1.0576 -4.25864 0
M  V30 1779 H 157.61 0.0627827 -0.708223 0
M  V30 1780 H 160.212 -0.515019 -1.88594 0
M  V30 1781 H 158.916 -0.412096 -4.08326 0
M  V30 1782 H 158.447 1.25772 -3.72753 0
M  V30 1783 H 160.462 2.34145 -4.37482 0
M  V30 1784 N 159.635 1.57281 -0.100228 0
M  V30 1785 C 160.881 1.94826 0.563101 0
M  V30 1786 C 161.214 0.982475 1.67514 0
M  V30 1787 O 160.489 0.0164069 1.94493 0
M  V30 1788 C 160.772 3.42453 1.11346 0
M  V30 1789 C 160.625 4.498 0.00612081 0
M  V30 1790 C 161.944 3.91506 2.01024 0
M  V30 1791 H 159.063 0.708428 0.203221 0
M  V30 1792 H 161.705 1.8922 -0.171979 0
M  V30 1793 H 159.855 3.47361 1.7399 0
M  V30 1794 H 161.527 4.57 -0.628357 0
M  V30 1795 H 159.77 4.28756 -0.659581 0
M  V30 1796 H 160.441 5.50306 0.432109 0
M  V30 1797 H 162.917 3.88784 1.48278 0
M  V30 1798 H 161.793 4.95358 2.36457 0
M  V30 1799 H 162.054 3.31099 2.92961 0
M  V30 1800 N 161.113 -0.173488 1.56642 0
M  V30 1801 C 162.359 -0.891784 1.8214 0
M  V30 1802 C 162.692 -1.8199 0.677736 0
M  V30 1803 O 161.967 -1.91842 -0.320446 0
M  V30 1804 C 162.25 -1.68933 3.18015 0
M  V30 1805 C 162.103 -0.784487 4.42906 0
M  V30 1806 C 163.422 -2.65748 3.50808 0
M  V30 1807 H 160.541 -0.322761 0.662567 0
M  V30 1808 H 163.183 -0.158095 1.89341 0
M  V30 1809 H 161.333 -2.31482 3.12007 0
M  V30 1810 H 163.005 -0.172046 4.60979 0
M  V30 1811 H 161.248 -0.0924117 4.33702 0
M  V30 1812 H 161.919 -1.37799 5.34524 0
M  V30 1813 H 164.395 -2.13327 3.57255 0
M  V30 1814 H 163.271 -3.18619 4.4696 0
M  V30 1815 H 163.532 -3.45842 2.75401 0
M  V30 1816 N 162.591 -1.51276 -0.441967 0
M  V30 1817 C 163.523 -1.68444 -1.55433 0
M  V30 1818 C 164.536 -0.565187 -1.52674 0
M  V30 1819 O 165.725 -0.839356 -1.57534 0
M  V30 1820 C 162.825 -1.67966 -2.94348 0
M  V30 1821 C 161.998 -2.964 -3.21661 0
M  V30 1822 C 161.057 -2.88171 -4.40277 0
M  V30 1823 O 160.083 -3.62119 -4.39157 0
M  V30 1824 N 161.285 -2.03706 -5.43584 0
M  V30 1825 H 164.05 -2.644 -1.41112 0
M  V30 1826 H 161.611 -1.49104 -0.630838 0
M  V30 1827 H 163.603 -1.60035 -3.71713 0
M  V30 1828 H 162.173 -0.796225 -3.0229 0
M  V30 1829 H 161.393 -3.18234 -2.32638 0
M  V30 1830 H 162.681 -3.81427 -3.36736 0
M  V30 1831 H 162.079 -1.42995 -5.47329 0
M  V30 1832 H 160.636 -2.01658 -6.1982 0
M  V30 1833 N 164.069 0.697108 -1.41344 0
M  V30 1834 C 165.315 1.4593 -1.40827 0
M  V30 1835 C 165.648 1.94193 -0.0167098 0
M  V30 1836 O 164.923 1.69425 0.955263 0
M  V30 1837 C 165.206 2.67229 -2.41373 0
M  V30 1838 C 165.059 2.24741 -3.8963 0
M  V30 1839 C 166.378 3.69423 -2.39196 0
M  V30 1840 H 163.497 0.529303 -0.512842 0
M  V30 1841 H 166.139 0.794112 -1.72609 0
M  V30 1842 H 164.289 3.23982 -2.14401 0
M  V30 1843 H 165.961 1.73327 -4.27499 0
M  V30 1844 H 164.204 1.56542 -4.0457 0
M  V30 1845 H 164.875 3.1177 -4.55525 0
M  V30 1846 H 167.351 3.2234 -2.63128 0
M  V30 1847 H 166.227 4.51907 -3.11563 0
M  V30 1848 H 166.488 4.19012 -1.41001 0
M  V30 1849 N 165.547 1.27147 0.931209 0
M  V30 1850 C 166.497 1.06227 2.01742 0
M  V30 1851 C 167.481 -0.00859065 1.60898 0
M  V30 1852 O 168.673 0.209537 1.75755 0
M  V30 1853 C 165.802 0.707787 3.35924 0
M  V30 1854 C 164.888 1.81661 3.83223 0
M  V30 1855 N 165.279 3.05564 4.03069 0
M  V30 1856 C 163.577 1.70249 4.12227 0
M  V30 1857 C 164.278 3.77697 4.42403 0
M  V30 1858 N 163.254 3.0544 4.49675 0
M  V30 1859 H 167.056 2.00261 2.15111 0
M  V30 1860 H 164.57 1.1781 1.11779 0
M  V30 1861 H 166.567 0.539043 4.134 0
M  V30 1862 H 165.227 -0.224964 3.2392 0
M  V30 1863 H 166.238 3.41363 3.89476 0
M  V30 1864 H 162.915 0.840329 4.08956 0
M  V30 1865 H 164.305 4.84168 4.65866 0
M  V30 1866 N 167.025 -1.13721 1.09112 0
M  V30 1867 C 168.253 -1.88773 0.846899 0
M  V30 1868 C 168.668 -1.7896 -0.601572 0
M  V30 1869 O 168.025 -1.15394 -1.41388 0
M  V30 1870 C 168.076 -3.3849 1.26913 0
M  V30 1871 O 167.797 -3.48043 2.66079 0
M  V30 1872 C 169.298 -4.30518 1.05682 0
M  V30 1873 H 166.518 -0.59772 0.304914 0
M  V30 1874 H 169.062 -1.43977 1.45227 0
M  V30 1875 H 167.217 -3.80881 0.707723 0
M  V30 1876 H 167.631 -4.4109 2.83795 0
M  V30 1877 H 169.105 -5.3391 1.40156 0
M  V30 1878 H 169.582 -4.392 -0.00563416 0
M  V30 1879 H 170.188 -3.93893 1.60402 0
M  V30 1880 N 168.503 -0.877838 -1.30888 0
M  V30 1881 C 169.433 -0.35534 -2.3078 0
M  V30 1882 C 170.414 0.557994 -1.60687 0
M  V30 1883 O 171.599 0.473355 -1.88343 0
M  V30 1884 C 168.729 0.437221 -3.44537 0
M  V30 1885 C 167.683 -0.383715 -4.26276 0
M  V30 1886 C 167.009 0.535014 -5.32017 0
M  V30 1887 C 168.309 -1.62201 -4.96476 0
M  V30 1888 H 170.003 -1.19007 -2.74732 0
M  V30 1889 H 167.549 -0.573698 -1.32078 0
M  V30 1890 H 169.502 0.813334 -4.13477 0
M  V30 1891 H 168.226 1.30553 -2.99372 0
M  V30 1892 H 166.885 -0.741874 -3.59015 0
M  V30 1893 H 166.533 1.40083 -4.831 0
M  V30 1894 H 166.233 -0.0104211 -5.87599 0
M  V30 1895 H 167.757 0.907799 -6.03814 0
M  V30 1896 H 169.171 -1.31689 -5.5797 0
M  V30 1897 H 167.568 -2.10711 -5.61891 0
M  V30 1898 H 168.638 -2.37044 -4.23011 0
M  V30 1899 N 169.982 1.44106 -0.638065 0
M  V30 1900 C 171.21 2.06336 -0.152615 0
M  V30 1901 C 171.625 1.47731 1.17563 0
M  V30 1902 O 170.982 0.602806 1.72257 0
M  V30 1903 C 171.033 3.61479 -0.0391491 0
M  V30 1904 O 170.754 4.17903 -1.31487 0
M  V30 1905 C 172.255 4.40757 0.474176 0
M  V30 1906 H 169.475 0.665862 -0.0828776 0
M  V30 1907 H 172.019 1.84862 -0.87443 0
M  V30 1908 H 170.174 3.82191 0.633142 0
M  V30 1909 H 170.588 5.11416 -1.16421 0
M  V30 1910 H 172.062 5.49707 0.502562 0
M  V30 1911 H 172.539 4.12697 1.50258 0
M  V30 1912 H 173.145 4.24979 -0.165102 0
M  V30 1913 N 171.46 0.379036 1.52974 0
M  V30 1914 C 172.708 -0.206014 2.01047 0
M  V30 1915 C 173.029 -1.48175 1.26765 0
M  V30 1916 O 172.299 -1.92085 0.384743 0
M  V30 1917 H 170.879 -0.0791184 0.742798 0
M  V30 1918 H 173.541 0.508366 1.88153 0
M  V30 1919 H 172.637 -0.423501 3.09213 0
M  V30 1920 N 172.938 -1.57226 0.108567 0
M  V30 1921 C 173.901 -2.13602 -0.831082 0
M  V30 1922 C 174.901 -1.06841 -1.20173 0
M  V30 1923 O 176.091 -1.32666 -1.12895 0
M  V30 1924 C 173.223 -2.66769 -2.12243 0
M  V30 1925 H 174.416 -2.97951 -0.341317 0
M  V30 1926 H 171.969 -1.55667 -0.14057 0
M  V30 1927 H 172.704 -1.85977 -2.65675 0
M  V30 1928 H 172.489 -3.44839 -1.86625 0
M  V30 1929 H 173.979 -3.10332 -2.79435 0
M  V30 1930 N 174.416 0.165178 -1.56732 0
M  V30 1931 C 175.663 0.880807 -1.8234 0
M  V30 1932 C 175.991 1.81977 -0.686621 0
M  V30 1933 O 175.246 1.92971 0.325697 0
M  V30 1934 C 175.545 1.70405 -3.1416 0
M  V30 1935 C 175.211 0.913475 -4.4155 0
M  V30 1936 C 173.873 0.695303 -4.7615 0
M  V30 1937 C 176.225 0.359349 -5.1996 0
M  V30 1938 C 173.553 -0.0879947 -5.86634 0
M  V30 1939 C 175.905 -0.410893 -6.31264 0
M  V30 1940 C 174.569 -0.639808 -6.64427 0
M  V30 1941 H 173.839 0.32231 -0.667231 0
M  V30 1942 H 176.486 0.145402 -1.90947 0
M  V30 1943 H 174.791 2.50903 -3.00923 0
M  V30 1944 H 176.488 2.26091 -3.31186 0
M  V30 1945 H 173.078 1.09357 -4.14414 0
M  V30 1946 H 177.262 0.515228 -4.93618 0
M  V30 1947 H 172.518 -0.27503 -6.10781 0
M  V30 1948 H 176.692 -0.847494 -6.91224 0
M  V30 1949 H 174.319 -1.24864 -7.49875 0
M  V30 1950 N 175.894 1.51508 0.433938 0
M  V30 1951 C 176.824 1.76016 1.53429 0
M  V30 1952 C 177.805 0.610112 1.58782 0
M  V30 1953 O 178.99 0.853177 1.74455 0
M  V30 1954 C 176.12 1.88831 2.9148 0
M  V30 1955 C 175.074 3.04288 3.00987 0
M  V30 1956 C 174.4 3.0229 4.4105 0
M  V30 1957 C 175.7 4.44193 2.74754 0
M  V30 1958 H 177.394 2.68152 1.33171 0
M  V30 1959 H 174.94 1.29035 0.639214 0
M  V30 1960 H 176.893 2.04559 3.6842 0
M  V30 1961 H 175.617 0.933455 3.12976 0
M  V30 1962 H 174.276 2.8827 2.26486 0
M  V30 1963 H 173.924 2.04576 4.59519 0
M  V30 1964 H 173.624 3.79822 4.4834 0
M  V30 1965 H 175.148 3.20116 5.1996 0
M  V30 1966 H 176.562 4.60544 3.41426 0
M  V30 1967 H 174.959 5.23457 2.9345 0
M  V30 1968 H 176.029 4.53996 1.70339 0
M  V30 1969 N 177.372 -0.689602 1.41712 0
M  V30 1970 C 178.619 -1.44966 1.4139 0
M  V30 1971 C 178.947 -1.94484 0.025105 0
M  V30 1972 O 178.202 -1.70307 -0.964048 0
M  V30 1973 C 178.501 -2.67298 2.37247 0
M  V30 1974 C 178.167 -2.36405 3.83958 0
M  V30 1975 C 176.829 -2.27691 4.23923 0
M  V30 1976 C 179.181 -2.11043 4.76561 0
M  V30 1977 C 176.509 -1.91719 5.54492 0
M  V30 1978 C 178.861 -1.76578 6.07456 0
M  V30 1979 C 177.525 -1.66363 6.46436 0
M  V30 1980 H 176.795 -0.53047 0.517381 0
M  V30 1981 H 179.442 -0.787655 1.74552 0
M  V30 1982 H 177.747 -3.38461 1.9736 0
M  V30 1983 H 179.444 -3.25452 2.34269 0
M  V30 1984 H 176.034 -2.44085 3.52308 0
M  V30 1985 H 180.218 -2.16717 4.46483 0
M  V30 1986 H 175.474 -1.82367 5.83568 0
M  V30 1987 H 179.648 -1.55974 6.78708 0
M  V30 1988 H 177.275 -1.38258 7.47522 0
M  V30 1989 N 178.85 -1.27639 -0.924453 0
M  V30 1990 C 180.075 -1.17101 -1.71179 0
M  V30 1991 C 180.5 0.268134 -1.86179 0
M  V30 1992 O 179.858 1.19415 -1.36418 0
M  V30 1993 C 179.906 -1.86313 -3.08739 0
M  V30 1994 O 179.01 -1.16331 -3.95652 0
M  V30 1995 H 178.351 -0.407091 -0.524569 0
M  V30 1996 H 180.881 -1.68767 -1.15666 0
M  V30 1997 H 180.891 -1.938 -3.59034 0
M  V30 1998 H 179.566 -2.91001 -2.97138 0
M  V30 1999 H 178.143 -1.16935 -3.54091 0
M  V30 2000 N 180.328 1.1314 -1.09713 0
M  V30 2001 C 181.258 2.20748 -0.761102 0
M  V30 2002 C 182.239 1.68061 0.262566 0
M  V30 2003 O 183.424 1.93765 0.129977 0
M  V30 2004 C 180.554 3.46812 -0.184054 0
M  V30 2005 C 179.508 4.12606 -1.13757 0
M  V30 2006 C 178.834 5.33031 -0.422083 0
M  V30 2007 C 180.134 4.59603 -2.48118 0
M  V30 2008 H 181.828 2.49113 -1.66082 0
M  V30 2009 H 179.374 1.19734 -0.799987 0
M  V30 2010 H 181.327 4.21353 0.0631215 0
M  V30 2011 H 180.051 3.17851 0.750868 0
M  V30 2012 H 178.71 3.40036 -1.37007 0
M  V30 2013 H 178.358 5.00335 0.517072 0
M  V30 2014 H 178.058 5.77999 -1.05788 0
M  V30 2015 H 179.582 6.10325 -0.183277 0
M  V30 2016 H 180.996 5.25552 -2.29059 0
M  V30 2017 H 179.393 5.15321 -3.07514 0
M  V30 2018 H 180.463 3.73971 -3.08665 0
M  V30 2019 N 181.806 0.884767 1.30421 0
M  V30 2020 C 182.716 0.355398 2.31892 0
M  V30 2021 C 183.732 -0.542261 1.65335 0
M  V30 2022 O 184.908 -0.435432 1.96637 0
M  V30 2023 C 181.973 -0.421661 3.44126 0
M  V30 2024 C 181.034 0.505727 4.26311 0
M  V30 2025 C 180.267 -0.234343 5.33185 0
M  V30 2026 O 180.49 -1.46045 5.51386 0
M  V30 2027 O 179.424 0.415443 6.00465 0
M  V30 2028 H 183.25 1.19685 2.79122 0
M  V30 2029 H 180.835 0.648596 1.34587 0
M  V30 2030 H 182.717 -0.861641 4.12497 0
M  V30 2031 H 181.392 -1.23942 2.99032 0
M  V30 2032 H 180.299 0.994513 3.60639 0
M  V30 2033 H 181.632 1.28948 4.75009 0
M  V30 2034 N 183.284 -1.43765 0.645699 0
M  V30 2035 C 184.509 -2.06767 0.161883 0
M  V30 2036 C 184.934 -1.48034 -1.16049 0
M  V30 2037 O 184.292 -0.587369 -1.71522 0
M  V30 2038 C 184.34 -3.60519 0.0762003 0
M  V30 2039 O 183.444 -4.00982 -0.963721 0
M  V30 2040 H 182.785 -0.657675 0.091429 0
M  V30 2041 H 185.315 -1.84397 0.886499 0
M  V30 2042 H 185.325 -4.07853 -0.109604 0
M  V30 2043 H 184 -4.02646 1.04157 0
M  V30 2044 H 182.577 -3.65253 -0.751312 0
M  V30 2045 N 184.763 -0.387143 -1.52771 0
M  V30 2046 C 185.695 0.484089 -2.2403 0
M  V30 2047 C 186.708 1.02849 -1.26198 0
M  V30 2048 O 187.897 0.931186 -1.52286 0
M  V30 2049 C 184.997 1.68337 -2.94136 0
M  V30 2050 C 184.17 1.26672 -4.18656 0
M  V30 2051 C 183.229 2.33045 -4.7178 0
M  V30 2052 O 182.255 1.94541 -5.34923 0
M  V30 2053 N 183.457 3.64929 -4.5145 0
M  V30 2054 H 186.222 -0.126404 -2.99433 0
M  V30 2055 H 183.783 -0.213392 -1.60488 0
M  V30 2056 H 185.775 2.39019 -3.26577 0
M  V30 2057 H 184.345 2.20025 -2.22053 0
M  V30 2058 H 183.565 0.388878 -3.92277 0
M  V30 2059 H 184.853 0.964964 -4.99566 0
M  V30 2060 H 184.251 3.98974 -4.01044 0
M  V30 2061 H 182.808 4.31651 -4.88386 0
M  V30 2062 N 186.241 1.57166 -0.116904 0
M  V30 2063 C 187.469 1.99473 0.549383 0
M  V30 2064 C 187.884 0.996541 1.60357 0
M  V30 2065 O 187.241 -0.0108731 1.82497 0
M  V30 2066 C 187.292 3.41788 1.17741 0
M  V30 2067 O 187.013 4.37788 0.165362 0
M  V30 2068 C 188.514 3.99216 1.92722 0
M  V30 2069 H 185.734 0.655009 0.145616 0
M  V30 2070 H 188.278 2.03494 -0.202625 0
M  V30 2071 H 186.433 3.38713 1.88021 0
M  V30 2072 H 186.847 5.20806 0.621403 0
M  V30 2073 H 188.321 5.00882 2.31995 0
M  V30 2074 H 188.798 3.3824 2.80161 0
M  V30 2075 H 189.404 4.0583 1.27209 0
M  V30 2076 N 187.719 -0.156864 1.56817 0
M  V30 2077 C 188.947 -0.886316 1.86955 0
M  V30 2078 C 189.362 -1.75185 0.703975 0
M  V30 2079 O 188.719 -1.79555 -0.326552 0
M  V30 2080 C 188.77 -1.75117 3.16253 0
M  V30 2081 O 188.491 -0.920537 4.2832 0
M  V30 2082 C 189.992 -2.58905 3.59837 0
M  V30 2083 H 187.212 -0.25678 0.619923 0
M  V30 2084 H 189.756 -0.152615 2.0393 0
M  V30 2085 H 187.911 -2.43805 3.01062 0
M  V30 2086 H 188.325 -1.51337 5.02192 0
M  V30 2087 H 189.799 -3.1518 4.53172 0
M  V30 2088 H 190.276 -3.34472 2.84649 0
M  V30 2089 H 190.882 -1.95526 3.7769 0
M  V30 2090 N 189.197 -1.51736 -0.425897 0
M  V30 2091 C 190.446 -1.64201 -1.17136 0
M  V30 2092 C 190.759 -0.369705 -1.92074 0
M  V30 2093 O 191.965 -0.373898 -2.68913 0
M  V30 2094 C 190.421 -2.90035 -2.13091 0
M  V30 2095 C 190.029 -4.24312 -1.43747 0
M  V30 2096 C 191.773 -3.1186 -2.87999 0
M  V30 2097 C 189.68 -5.41285 -2.38253 0
M  V30 2098 H 188.61 -0.611624 -0.440944 0
M  V30 2099 H 191.261 -1.78212 -0.437328 0
M  V30 2100 H 189.643 -2.69684 -2.89977 0
M  V30 2101 H 190.817 -4.55086 -0.723408 0
M  V30 2102 H 189.132 -4.08456 -0.809465 0
M  V30 2103 H 191.729 -3.96427 -3.58817 0
M  V30 2104 H 192.072 -2.25403 -3.49999 0
M  V30 2105 H 192.605 -3.32605 -2.18217 0
M  V30 2106 H 189.344 -6.30037 -1.80925 0
M  V30 2107 H 188.864 -5.14872 -3.0768 0
M  V30 2108 H 190.543 -5.73694 -2.99139 0
M  V30 2109 N 190.675 0.682077 -1.42076 0
M  V30 2110 C 191.923 1.4393 -1.41876 0
M  V30 2111 C 192.244 1.94971 -0.0335599 0
M  V30 2112 O 191.514 1.72591 0.926773 0
M  V30 2113 H 190.094 0.534085 -0.522267 0
M  V30 2114 H 192.756 0.806427 -1.77434 0
M  V30 2115 H 191.852 2.29588 -2.11414 0
M  V30 2116 N 192.153 1.28127 0.917671 0
M  V30 2117 C 193.383 1.17722 1.6978 0
M  V30 2118 C 193.791 -0.267261 1.87303 0
M  V30 2119 O 193.134 -1.19286 1.39702 0
M  V30 2120 C 193.196 1.79958 3.11216 0
M  V30 2121 C 192.86 3.29187 3.16993 0
M  V30 2122 C 193.857 4.25679 2.98485 0
M  V30 2123 C 191.542 3.70075 3.39632 0
M  V30 2124 C 193.536 5.61035 3.02521 0
M  V30 2125 C 191.223 5.05557 3.433 0
M  V30 2126 C 192.221 6.00847 3.24764 0
M  V30 2127 O 191.909 7.33859 3.28187 0
M  V30 2128 H 191.641 0.409788 0.537634 0
M  V30 2129 H 194.195 1.69694 1.15728 0
M  V30 2130 H 192.425 1.22475 3.66793 0
M  V30 2131 H 194.114 1.64125 3.71238 0
M  V30 2132 H 194.88 3.95426 2.80826 0
M  V30 2133 H 190.759 2.96373 3.53106 0
M  V30 2134 H 194.303 6.35388 2.87971 0
M  V30 2135 H 190.2 5.35462 3.60486 0
M  V30 2136 H 190.968 7.42436 3.44575 0
M  V30 2137 N 193.631 -1.12557 1.10312 0
M  V30 2138 C 194.879 -1.83675 0.843091 0
M  V30 2139 C 195.2 -1.84435 -0.633131 0
M  V30 2140 O 194.47 -1.30657 -1.45964 0
M  V30 2141 H 193.05 -0.680138 0.308904 0
M  V30 2142 H 195.712 -1.36301 1.39313 0
M  V30 2143 H 194.808 -2.87908 1.2048 0
M  V30 2144 N 195.109 -0.891671 -1.2995 0
M  V30 2145 C 196.356 -0.513501 -1.95881 0
M  V30 2146 C 196.684 0.938655 -1.70351 0
M  V30 2147 O 195.939 1.67936 -1.00478 0
M  V30 2148 C 196.238 -0.742868 -3.49594 0
M  V30 2149 C 195.904 -2.17114 -3.95186 0
M  V30 2150 C 194.566 -2.56169 -4.07346 0
M  V30 2151 C 196.918 -3.10162 -4.18866 0
M  V30 2152 C 194.246 -3.87469 -4.4055 0
M  V30 2153 C 196.598 -4.41001 -4.53542 0
M  V30 2154 C 195.262 -4.79941 -4.63911 0
M  V30 2155 H 194.532 -0.187903 -0.71678 0
M  V30 2156 H 197.179 -1.1288 -1.54694 0
M  V30 2157 H 195.484 -0.044586 -3.91775 0
M  V30 2158 H 197.181 -0.429767 -3.9869 0
M  V30 2159 H 193.771 -1.85801 -3.86233 0
M  V30 2160 H 197.955 -2.81206 -4.08946 0
M  V30 2161 H 193.211 -4.17371 -4.46779 0
M  V30 2162 H 197.385 -5.13133 -4.70815 0
M  V30 2163 H 195.012 -5.81719 -4.89395 0
M  V30 2164 N 196.587 1.43421 -0.653314 0
M  V30 2165 C 198.003 1.56341 -0.320886 0
M  V30 2166 C 198.203 1.63696 1.17499 0
M  V30 2167 O 197.259 1.59208 1.95982 0
M  V30 2168 C 198.572 2.82424 -1.03233 0
M  V30 2169 C 200.12 2.96168 -1.01259 0
M  V30 2170 C 200.595 4.25084 -1.70492 0
M  V30 2171 N 202.086 4.31948 -1.67257 0
M  V30 2172 C 202.821 5.30466 -2.17701 0
M  V30 2173 N 202.317 6.35261 -2.76434 0
M  V30 2174 N 204.11 5.2212 -2.082 0
M  V30 2175 H 196.261 1.3689 -1.62403 0
M  V30 2176 H 198.524 0.657455 -0.682977 0
M  V30 2177 H 198.23 2.83053 -2.08744 0
M  V30 2178 H 198.104 3.72653 -0.583948 0
M  V30 2179 H 200.491 2.9508 0.0341235 0
M  V30 2180 H 200.572 2.07229 -1.49966 0
M  V30 2181 H 200.216 4.26932 -2.7512 0
M  V30 2182 H 200.146 5.1292 -1.19251 0
M  V30 2183 H 202.637 3.56838 -1.24398 0
M  V30 2184 H 202.95 7.06754 -3.12601 0
M  V30 2185 H 201.295 6.35884 -2.80495 0
M  V30 2186 H 204.486 4.39166 -1.62021 0
M  V30 2187 H 204.659 5.98739 -2.47822 0
M  V30 2188 N 198.065 0.39524 1.52563 0
M  V30 2189 C 199.295 -0.184675 2.05773 0
M  V30 2190 C 199.703 -1.40571 1.26635 0
M  V30 2191 O 199.046 -1.81105 0.30769 0
M  V30 2192 C 199.108 -0.613551 3.54226 0
M  V30 2193 C 198.772 0.49484 4.54313 0
M  V30 2194 C 199.769 1.3541 5.01956 0
M  V30 2195 C 197.454 0.663565 4.97898 0
M  V30 2196 C 199.448 2.36716 5.91814 0
M  V30 2197 C 197.135 1.67996 5.87555 0
M  V30 2198 C 198.133 2.53017 6.34406 0
M  V30 2199 O 197.821 3.52917 7.22291 0
M  V30 2200 H 197.553 -0.030077 0.675331 0
M  V30 2201 H 200.107 0.560708 1.97599 0
M  V30 2202 H 198.337 -1.411 3.60038 0
M  V30 2203 H 200.026 -1.11981 3.90148 0
M  V30 2204 H 200.792 1.23509 4.6901 0
M  V30 2205 H 196.671 0.0114913 4.60999 0
M  V30 2206 H 200.215 3.03113 6.28306 0
M  V30 2207 H 196.112 1.79933 6.19915 0
M  V30 2208 H 196.88 3.48996 7.40367 0
M  V30 2209 N 199.544 -1.57102 0.125237 0
M  V30 2210 C 200.793 -1.94582 -0.531095 0
M  V30 2211 C 201.106 -1.01126 -1.6743 0
M  V30 2212 O 202.312 -1.28097 -2.39381 0
M  V30 2213 C 200.768 -3.45839 -0.996164 0
M  V30 2214 C 200.376 -4.47842 0.118926 0
M  V30 2215 C 202.12 -3.92227 -1.62352 0
M  V30 2216 C 200.027 -5.90284 -0.363192 0
M  V30 2217 H 198.957 -0.726391 -0.20217 0
M  V30 2218 H 201.608 -1.82339 0.206092 0
M  V30 2219 H 199.99 -3.53338 -1.78796 0
M  V30 2220 H 201.164 -4.52018 0.895358 0
M  V30 2221 H 199.479 -4.11243 0.653324 0
M  V30 2222 H 202.076 -4.96069 -1.99548 0
M  V30 2223 H 202.419 -3.32552 -2.50429 0
M  V30 2224 H 202.952 -3.87554 -0.897019 0
M  V30 2225 H 199.691 -6.53728 0.481679 0
M  V30 2226 H 199.211 -5.89515 -1.10597 0
M  V30 2227 H 200.89 -6.41752 -0.822377 0
M  V30 2228 N 201.022 0.148545 -1.56898 0
M  V30 2229 C 202.247 0.880385 -1.87787 0
M  V30 2230 C 202.672 1.74018 -0.714093 0
M  V30 2231 O 202.03 1.78153 0.336343 0
M  V30 2232 C 202.078 1.71422 -3.17249 0
M  V30 2233 O 201.182 2.8183 -3.01074 0
M  V30 2234 H 200.523 0.245301 -0.617028 0
M  V30 2235 H 203.053 0.139826 -2.04122 0
M  V30 2236 H 203.063 2.10954 -3.49231 0
M  V30 2237 H 201.738 1.08284 -4.01556 0
M  V30 2238 H 200.315 2.45715 -2.80497 0
M  V30 2239 N 202.5 1.5196 0.417844 0
M  V30 2240 C 203.41 1.77554 1.53336 0
M  V30 2241 C 204.426 0.660655 1.6097 0
M  V30 2242 O 205.602 0.945099 1.77848 0
M  V30 2243 C 202.667 1.91291 2.89152 0
M  V30 2244 C 201.728 3.15183 2.91475 0
M  V30 2245 C 200.961 3.28256 4.20813 0
M  V30 2246 O 201.184 2.46798 5.14244 0
M  V30 2247 O 200.118 4.21356 4.29817 0
M  V30 2248 H 203.944 2.7222 1.34647 0
M  V30 2249 H 201.529 1.36698 0.602828 0
M  V30 2250 H 203.411 2.02199 3.69721 0
M  V30 2251 H 202.086 0.998129 3.07927 0
M  V30 2252 H 200.993 3.09739 2.09791 0
M  V30 2253 H 202.326 4.06414 2.77648 0
M  V30 2254 N 203.978 -0.674533 1.42435 0
M  V30 2255 C 204.888 -1.81751 1.48337 0
M  V30 2256 C 205.904 -1.69975 0.372099 0
M  V30 2257 O 207.08 -1.91521 0.62304 0
M  V30 2258 C 204.145 -3.17895 1.38361 0
M  V30 2259 C 203.206 -3.41625 2.59982 0
M  V30 2260 C 202.439 -4.71274 2.50473 0
M  V30 2261 O 202.662 -5.49197 1.54075 0
M  V30 2262 O 201.596 -4.96254 3.4061 0
M  V30 2263 H 205.422 -1.79728 2.44809 0
M  V30 2264 H 203.007 -0.830312 1.24202 0
M  V30 2265 H 204.889 -3.99136 1.35161 0
M  V30 2266 H 203.564 -3.20555 0.450144 0
M  V30 2267 H 202.471 -2.60231 2.68757 0
M  V30 2268 H 203.804 -3.43796 3.52229 0
M  V30 2269 N 205.456 -1.28612 -0.910864 0
M  V30 2270 C 206.696 -1.1719 -1.67469 0
M  V30 2271 C 207.06 0.274441 -1.90028 0
M  V30 2272 O 208.261 0.511425 -2.6389 0
M  V30 2273 C 206.532 -1.95137 -2.99427 0
M  V30 2274 S 208.091 -2.00122 -3.90508 0
M  V30 2275 H 204.909 -0.41806 -0.575106 0
M  V30 2276 H 207.511 -1.6275 -1.08317 0
M  V30 2277 H 206.215 -2.99381 -2.80712 0
M  V30 2278 H 205.746 -1.50137 -3.63624 0
M  V30 2279 H 207.761 -1.10981 -4.8363 0
M  V30 2280 N 206.934 1.1197 -1.10907 0
M  V30 2281 C 208.345 1.65114 -0.871446 0
M  V30 2282 C 208.696 1.86885 0.597353 0
M  V30 2283 O 207.821 1.59896 1.45816 0
M  V30 2284 C 208.416 2.99944 -1.5754 0
M  V30 2285 C 206.975 3.50018 -1.38435 0
M  V30 2286 C 206.122 2.24941 -1.62164 0
M  V30 2287 H 209.073 0.956851 -1.2661 0
M  V30 2288 H 209.094 3.66651 -1.01721 0
M  V30 2289 H 208.606 2.84067 -2.64438 0
M  V30 2290 H 206.707 3.71071 -0.337214 0
M  V30 2291 H 206.82 4.29165 -2.12965 0
M  V30 2292 H 205.184 2.3229 -1.04467 0
M  V30 2293 H 205.967 2.11612 -2.70324 0
M  V30 2294 N 208.412 0.89855 1.29475 0
M  V30 2295 C 209.342 0.39201 2.30186 0
M  V30 2296 C 210.323 -0.532359 1.61555 0
M  V30 2297 O 211.508 -0.443331 1.89072 0
M  V30 2298 C 208.638 -0.382353 3.45189 0
M  V30 2299 C 207.592 0.451483 4.25612 0
M  V30 2300 C 206.918 -0.450307 5.328 0
M  V30 2301 C 208.218 1.70079 4.93832 0
M  V30 2302 H 209.912 1.23362 2.72804 0
M  V30 2303 H 207.458 0.594638 1.31149 0
M  V30 2304 H 209.411 -0.747451 4.14718 0
M  V30 2305 H 208.135 -1.25774 3.01411 0
M  V30 2306 H 206.794 0.798897 3.57789 0
M  V30 2307 H 206.442 -1.32379 4.85268 0
M  V30 2308 H 206.142 0.103902 5.87508 0
M  V30 2309 H 207.666 -0.811623 6.05182 0
M  V30 2310 H 209.08 1.40549 5.55805 0
M  V30 2311 H 207.477 2.19623 5.58467 0
M  V30 2312 H 208.547 2.43744 4.19186 0
M  V30 2313 N 209.89 -1.43072 0.660911 0
M  V30 2314 C 210.853 -2.29194 -0.0166406 0
M  V30 2315 C 211.853 -1.42609 -0.742912 0
M  V30 2316 O 213.043 -1.64155 -0.583004 0
M  V30 2317 C 210.175 -3.24831 -1.0343 0
M  V30 2318 H 211.368 -2.90596 0.741208 0
M  V30 2319 H 208.921 -1.5048 0.422532 0
M  V30 2320 H 209.656 -2.68339 -1.82111 0
M  V30 2321 H 209.441 -3.88676 -0.517082 0
M  V30 2322 H 210.931 -3.89451 -1.50723 0
M  V30 2323 N 211.368 -0.403325 -1.52352 0
M  V30 2324 C 212.617 0.175668 -2.00934 0
M  V30 2325 C 212.93 1.46718 -1.29356 0
M  V30 2326 O 214.136 2.12708 -1.68724 0
M  V30 2327 C 212.592 0.363612 -3.58058 0
M  V30 2328 C 212.2 -0.915472 -4.38547 0
M  V30 2329 C 213.944 0.89821 -4.14888 0
M  V30 2330 C 211.851 -0.695035 -5.87302 0
M  V30 2331 H 210.781 0.0694234 -0.750797 0
M  V30 2332 H 213.432 -0.527879 -1.75743 0
M  V30 2333 H 211.814 1.12935 -3.79555 0
M  V30 2334 H 212.988 -1.68691 -4.28812 0
M  V30 2335 H 211.303 -1.37606 -3.93006 0
M  V30 2336 H 213.9 1.07907 -5.23699 0
M  V30 2337 H 214.243 1.87126 -3.71873 0
M  V30 2338 H 214.776 0.191681 -3.97338 0
M  V30 2339 H 211.515 -1.63948 -6.34666 0
M  V30 2340 H 211.035 0.0372116 -5.99788 0
M  V30 2341 H 212.714 -0.33497 -6.46132 0
M  V30 2342 N 212.846 1.57033 -0.133567 0
M  V30 2343 C 214.092 1.95976 0.521649 0
M  V30 2344 C 214.425 1.01779 1.65393 0
M  V30 2345 O 213.7 0.0576581 1.94415 0
M  V30 2346 C 213.983 3.44738 1.04057 0
M  V30 2347 C 213.836 4.49711 -0.0892897 0
M  V30 2348 C 215.155 3.95682 1.92675 0
M  V30 2349 H 212.274 0.712579 0.188149 0
M  V30 2350 H 214.916 1.88813 -0.212076 0
M  V30 2351 H 213.066 3.50973 1.66583 0
M  V30 2352 H 214.738 4.55565 -0.725152 0
M  V30 2353 H 212.981 4.27261 -0.750378 0
M  V30 2354 H 213.652 5.51099 0.315284 0
M  V30 2355 H 216.128 3.91841 1.39998 0
M  V30 2356 H 215.004 5.00262 2.25897 0
M  V30 2357 H 215.265 3.37239 2.85872 0
M  V30 2358 N 214.325 -0.140222 1.56975 0
M  V30 2359 C 215.255 -1.17456 2.01808 0
M  V30 2360 C 216.236 -1.44415 0.898794 0
M  V30 2361 O 217.421 -1.5522 1.16707 0
M  V30 2362 C 214.551 -2.50607 2.40444 0
M  V30 2363 C 213.505 -2.38155 3.55621 0
M  V30 2364 C 212.831 -3.76078 3.80091 0
M  V30 2365 C 214.131 -1.85991 4.88062 0
M  V30 2366 H 215.825 -0.801743 2.88466 0
M  V30 2367 H 213.371 -0.38422 1.38779 0
M  V30 2368 H 215.324 -3.23197 2.7041 0
M  V30 2369 H 214.048 -2.89737 1.50732 0
M  V30 2370 H 212.707 -1.68016 3.25832 0
M  V30 2371 H 212.355 -4.12656 2.87618 0
M  V30 2372 H 212.055 -3.68606 4.57606 0
M  V30 2373 H 213.579 -4.50206 4.12488 0
M  V30 2374 H 214.993 -2.4838 5.16701 0
M  V30 2375 H 213.39 -1.89393 5.6943 0
M  V30 2376 H 214.46 -0.816023 4.77984 0
M  V30 2377 N 215.803 -1.52179 -0.40978 0
M  V30 2378 C 216.733 -1.78435 -1.5061 0
M  V30 2379 C 217.714 -0.635295 -1.57791 0
M  V30 2380 O 218.899 -0.880823 -1.73076 0
M  V30 2381 C 216.029 -1.93444 -2.88439 0
M  V30 2382 C 214.983 -3.09038 -2.96108 0
M  V30 2383 C 214.309 -3.09268 -4.36185 0
M  V30 2384 C 215.609 -4.48508 -2.67652 0
M  V30 2385 H 217.303 -2.70237 -1.28889 0
M  V30 2386 H 214.849 -1.30036 -0.618605 0
M  V30 2387 H 216.802 -2.10394 -3.65119 0
M  V30 2388 H 215.526 -0.983129 -3.11452 0
M  V30 2389 H 214.185 -2.91837 -2.21872 0
M  V30 2390 H 213.833 -2.11861 -4.56206 0
M  V30 2391 H 213.533 -3.86907 -4.42241 0
M  V30 2392 H 215.057 -3.28348 -5.14801 0
M  V30 2393 H 216.471 -4.65918 -3.34056 0
M  V30 2394 H 214.868 -5.28059 -2.85085 0
M  V30 2395 H 215.938 -4.56649 -1.63095 0
M  V30 2396 N 217.281 0.66697 -1.42791 0
M  V30 2397 C 218.53 1.42278 -1.42968 0
M  V30 2398 C 218.843 1.9553 -0.0524489 0
M  V30 2399 O 220.049 2.71414 0.068363 0
M  V30 2400 C 218.505 2.57418 -2.51524 0
M  V30 2401 C 218.113 2.10832 -3.9529 0
M  V30 2402 C 219.857 3.34878 -2.60877 0
M  V30 2403 C 217.764 3.23101 -4.95338 0
M  V30 2404 H 216.694 0.534533 -0.531781 0
M  V30 2405 H 219.345 0.721302 -1.68729 0
M  V30 2406 H 217.727 3.29971 -2.18941 0
M  V30 2407 H 218.901 1.4538 -4.37266 0
M  V30 2408 H 217.216 1.46289 -3.89857 0
M  V30 2409 H 219.813 4.18505 -3.32802 0
M  V30 2410 H 220.156 3.81993 -1.6549 0
M  V30 2411 H 220.689 2.69398 -2.92693 0
M  V30 2412 H 217.428 2.80969 -5.9223 0
M  V30 2413 H 216.948 3.87309 -4.57987 0
M  V30 2414 H 218.627 3.88447 -5.17415 0
M  V30 2415 N 218.759 1.29093 0.90403 0
M  V30 2416 C 219.722 1.1386 1.98919 0
M  V30 2417 C 220.722 0.0753457 1.60623 0
M  V30 2418 O 221.912 0.321931 1.71199 0
M  V30 2419 C 219.044 0.740198 3.32767 0
M  V30 2420 H 220.237 2.10246 2.13861 0
M  V30 2421 H 217.79 1.12218 1.08797 0
M  V30 2422 H 218.525 -0.223997 3.23525 0
M  V30 2423 H 218.31 1.50838 3.61926 0
M  V30 2424 H 219.8 0.656546 4.12407 0
M  V30 2425 N 220.237 -1.11381 1.11499 0
M  V30 2426 C 221.169 -2.17207 0.731704 0
M  V30 2427 C 222.182 -1.61066 -0.236957 0
M  V30 2428 O 223.371 -1.78489 -0.0197591 0
M  V30 2429 C 220.471 -3.38846 0.0607624 0
M  V30 2430 C 219.644 -4.24451 1.0564 0
M  V30 2431 C 218.703 -5.24562 0.4149 0
M  V30 2432 O 217.729 -5.59071 1.069 0
M  V30 2433 N 218.931 -5.74651 -0.821943 0
M  V30 2434 H 221.696 -2.50699 1.64225 0
M  V30 2435 H 219.257 -1.26908 1.00529 0
M  V30 2436 H 221.249 -4.02911 -0.380139 0
M  V30 2437 H 219.819 -3.03411 -0.752376 0
M  V30 2438 H 219.039 -3.56833 1.67524 0
M  V30 2439 H 220.327 -4.78486 1.72998 0
M  V30 2440 H 219.725 -5.48797 -1.37252 0
M  V30 2441 H 218.282 -6.40549 -1.20582 0
M  V30 2442 N 221.715 -0.905404 -1.28997 0
M  V30 2443 C 222.645 -0.404212 -2.29975 0
M  V30 2444 C 223.626 0.523784 -1.61835 0
M  V30 2445 O 224.811 0.433298 -1.89304 0
M  V30 2446 C 221.941 0.364042 -3.45387 0
M  V30 2447 C 220.895 -0.474048 -4.25367 0
M  V30 2448 C 220.221 0.422045 -5.33032 0
M  V30 2449 C 221.521 -1.72696 -4.92923 0
M  V30 2450 H 223.215 -1.24807 -2.72146 0
M  V30 2451 H 220.761 -0.601585 -1.30832 0
M  V30 2452 H 222.714 0.725447 -4.15109 0
M  V30 2453 H 221.438 1.24174 -3.02074 0
M  V30 2454 H 220.097 -0.81786 -3.57361 0
M  V30 2455 H 219.745 1.29804 -4.85963 0
M  V30 2456 H 219.445 -0.135057 -5.87445 0
M  V30 2457 H 220.969 0.779517 -6.05604 0
M  V30 2458 H 222.383 -1.43495 -5.55051 0
M  V30 2459 H 220.78 -2.22582 -5.57295 0
M  V30 2460 H 221.85 -2.45964 -4.17887 0
M  V30 2461 N 223.193 1.4272 -0.668489 0
M  V30 2462 C 224.439 2.01923 -0.188419 0
M  V30 2463 C 224.772 1.52704 1.19979 0
M  V30 2464 O 224.047 0.726566 1.8042 0
M  V30 2465 C 224.33 3.59451 -0.216085 0
M  V30 2466 C 224.183 4.18864 -1.6393 0
M  V30 2467 C 225.502 4.37903 0.439179 0
M  V30 2468 H 222.621 0.733674 -0.0699412 0
M  V30 2469 H 225.263 1.69822 -0.852076 0
M  V30 2470 H 223.413 3.86929 0.349012 0
M  V30 2471 H 225.085 4.02362 -2.25616 0
M  V30 2472 H 223.328 3.74933 -2.18193 0
M  V30 2473 H 223.999 5.27987 -1.61039 0
M  V30 2474 H 226.475 4.16079 -0.0417878 0
M  V30 2475 H 225.351 5.47519 0.389157 0
M  V30 2476 H 225.612 4.15303 1.51577 0
M  V30 2477 N 224.671 0.411399 1.52136 0
M  V30 2478 C 225.601 -0.404015 2.29978 0
M  V30 2479 C 226.582 -1.04412 1.34284 0
M  V30 2480 O 227.767 -1.0527 1.63192 0
M  V30 2481 C 224.897 -1.5197 3.12286 0
M  V30 2482 C 223.851 -1.00448 4.16046 0
M  V30 2483 C 223.177 -2.21393 4.86712 0
M  V30 2484 C 224.477 -0.0569336 5.22269 0
M  V30 2485 H 226.171 0.245529 2.98392 0
M  V30 2486 H 223.717 0.119525 1.43503 0
M  V30 2487 H 225.67 -2.09715 3.6551 0
M  V30 2488 H 224.394 -2.19716 2.41646 0
M  V30 2489 H 223.053 -0.449421 3.63835 0
M  V30 2490 H 222.701 -2.87699 4.12599 0
M  V30 2491 H 222.401 -1.87571 5.56858 0
M  V30 2492 H 223.925 -2.7974 5.4275 0
M  V30 2493 H 225.339 -0.54325 5.7072 0
M  V30 2494 H 223.736 0.192594 5.99791 0
M  V30 2495 H 224.806 0.887663 4.76706 0
M  V30 2496 N 226.149 -1.5696 0.141893 0
M  V30 2497 C 227.377 -2.00322 -0.517579 0
M  V30 2498 C 227.792 -1.02193 -1.58752 0
M  V30 2499 O 227.149 -0.0181619 -1.82491 0
M  V30 2500 C 227.2 -3.43618 -1.12289 0
M  V30 2501 O 226.921 -4.37995 -0.0956929 0
M  V30 2502 C 228.422 -4.02231 -1.86347 0
M  V30 2503 H 225.642 -0.657243 -0.135177 0
M  V30 2504 H 228.186 -2.03146 0.234973 0
M  V30 2505 H 226.341 -3.41662 -1.82609 0
M  V30 2506 H 226.755 -5.21729 -0.538469 0
M  V30 2507 H 228.229 -5.04509 -2.23997 0
M  V30 2508 H 228.706 -3.42655 -2.74744 0
M  V30 2509 H 229.312 -4.07802 -1.20737 0
M  V30 2510 N 227.627 0.131896 -1.57047 0
M  V30 2511 C 228.855 0.856461 -1.88341 0
M  V30 2512 C 229.27 1.74042 -0.731757 0
M  V30 2513 O 228.627 1.80051 0.297945 0
M  V30 2514 C 228.678 1.70064 -3.18999 0
M  V30 2515 O 228.399 0.852278 -4.2973 0
M  V30 2516 C 229.9 2.53148 -3.63911 0
M  V30 2517 H 227.12 0.246885 -0.62393 0
M  V30 2518 H 229.664 0.120152 -2.04147 0
M  V30 2519 H 227.819 2.38984 -3.04902 0
M  V30 2520 H 228.233 1.43329 -5.04537 0
M  V30 2521 H 229.707 3.07931 -4.58129 0
M  V30 2522 H 230.184 3.29901 -2.89935 0
M  V30 2523 H 230.79 1.89492 -3.80753 0
M  V30 2524 N 229.106 1.52395 0.401703 0
M  V30 2525 C 230.355 1.66044 1.14509 0
M  V30 2526 C 230.668 0.400216 1.91462 0
M  V30 2527 O 231.874 0.416632 2.68284 0
M  V30 2528 C 230.33 2.93388 2.0845 0
M  V30 2529 C 229.938 4.26545 1.36978 0
M  V30 2530 C 231.682 3.16402 2.83001 0
M  V30 2531 C 229.589 5.45007 2.29611 0
M  V30 2532 H 228.519 0.618562 0.431158 0
M  V30 2533 H 231.17 1.78886 0.40892 0
M  V30 2534 H 229.552 2.74263 2.8565 0
M  V30 2535 H 230.726 4.56179 0.650916 0
M  V30 2536 H 229.041 4.09692 0.74438 0
M  V30 2537 H 231.638 4.02085 3.52465 0
M  V30 2538 H 231.981 2.30943 3.46368 0
M  V30 2539 H 232.514 3.36034 2.12898 0
M  V30 2540 H 229.253 6.32835 1.70879 0
M  V30 2541 H 228.773 5.19702 2.9945 0
M  V30 2542 H 230.452 5.7838 2.89974 0
M  V30 2543 N 230.584 -0.659388 1.43143 0
M  V30 2544 C 231.514 -1.78422 1.50625 0
M  V30 2545 C 232.495 -1.66216 0.361443 0
M  V30 2546 O 233.68 -1.85404 0.577834 0
M  V30 2547 C 230.81 -3.16815 1.42287 0
M  V30 2548 C 229.764 -3.43777 2.54954 0
M  V30 2549 C 229.09 -4.81905 2.31671 0
M  V30 2550 C 230.39 -3.39134 3.97222 0
M  V30 2551 H 232.084 -1.72417 2.44771 0
M  V30 2552 H 229.63 -0.828084 1.17808 0
M  V30 2553 H 231.583 -3.95253 1.46127 0
M  V30 2554 H 230.307 -3.23534 0.446435 0
M  V30 2555 H 228.966 -2.67707 2.50457 0
M  V30 2556 H 228.614 -4.85294 1.32284 0
M  V30 2557 H 228.314 -5.00906 3.07192 0
M  V30 2558 H 229.838 -5.62609 2.37284 0
M  V30 2559 H 231.252 -4.07518 4.03239 0
M  V30 2560 H 229.649 -3.69671 4.72719 0
M  V30 2561 H 230.719 -2.37426 4.22797 0
M  V30 2562 N 232.062 -1.29571 -0.897171 0
M  V30 2563 C 232.972 -1.16808 -2.03453 0
M  V30 2564 C 233.988 -0.0907471 -1.73763 0
M  V30 2565 O 235.164 -0.303312 -1.99103 0
M  V30 2566 C 232.229 -0.848264 -3.36163 0
M  V30 2567 C 231.29 -2.0097 -3.79354 0
M  V30 2568 C 230.523 -1.70505 -5.05731 0
M  V30 2569 O 230.746 -0.62718 -5.66941 0
M  V30 2570 O 229.68 -2.5538 -5.45036 0
M  V30 2571 H 233.506 -2.12325 -2.17144 0
M  V30 2572 H 231.091 -1.09047 -1.02123 0
M  V30 2573 H 232.973 -0.684581 -4.15802 0
M  V30 2574 H 231.648 0.0771071 -3.23608 0
M  V30 2575 H 230.555 -2.22863 -3.00471 0
M  V30 2576 H 231.888 -2.91636 -3.96496 0
M  V30 2577 N 233.54 1.10788 -1.12088 0
M  V30 2578 C 234.789 1.82036 -0.868659 0
M  V30 2579 C 235.102 1.85929 0.607426 0
M  V30 2580 O 236.308 2.53346 0.97613 0
M  V30 2581 C 234.764 3.26951 -1.50435 0
M  V30 2582 C 234.372 3.31367 -3.01496 0
M  V30 2583 C 236.116 4.03053 -1.33225 0
M  V30 2584 C 234.023 4.7072 -3.58017 0
M  V30 2585 H 232.953 0.682108 -0.321318 0
M  V30 2586 H 235.604 1.24618 -1.34694 0
M  V30 2587 H 233.986 3.84343 -0.953735 0
M  V30 2588 H 235.16 2.83819 -3.6302 0
M  V30 2589 H 233.475 2.6875 -3.18061 0
M  V30 2590 H 236.072 5.05981 -1.72878 0
M  V30 2591 H 236.415 4.15387 -0.275529 0
M  V30 2592 H 236.948 3.52066 -1.85188 0
M  V30 2593 H 233.687 4.63585 -4.63432 0
M  V30 2594 H 233.207 5.1865 -3.01268 0
M  V30 2595 H 234.886 5.39685 -3.56859 0
M  V30 2596 N 235.018 0.912232 1.28515 0
M  V30 2597 C 236.265 0.544599 1.95039 0
M  V30 2598 C 236.593 -0.911435 1.71823 0
M  V30 2599 O 235.848 -1.66317 1.03137 0
M  V30 2600 C 236.147 0.798392 3.48368 0
M  V30 2601 C 235.813 2.23374 3.91682 0
M  V30 2602 C 234.475 2.62617 4.03219 0
M  V30 2603 C 236.827 3.16786 4.13879 0
M  V30 2604 C 234.155 3.94429 4.3433 0
M  V30 2605 C 236.507 4.48161 4.46469 0
M  V30 2606 C 235.171 4.8726 4.56217 0
M  V30 2607 H 234.441 0.199283 0.7137 0
M  V30 2608 H 237.088 1.15327 1.52879 0
M  V30 2609 H 235.393 0.106908 3.91654 0
M  V30 2610 H 237.09 0.493141 3.97956 0
M  V30 2611 H 233.68 1.91922 3.83228 0
M  V30 2612 H 237.864 2.87677 4.0442 0
M  V30 2613 H 233.12 4.24426 4.40082 0
M  V30 2614 H 237.294 5.20559 4.62592 0
M  V30 2615 H 234.921 5.89431 4.80078 0
M  V30 2616 N 236.496 -1.42363 0.676048 0
M  V30 2617 C 237.745 -2.00745 0.196037 0
M  V30 2618 C 238.058 -1.54083 -1.20489 0
M  V30 2619 O 239.264 -2.04891 -1.78134 0
M  V30 2620 C 237.72 -3.58651 0.299616 0
M  V30 2621 C 237.328 -4.143 1.70468 0
M  V30 2622 C 239.072 -4.24326 -0.121619 0
M  V30 2623 C 236.979 -5.64574 1.76096 0
M  V30 2624 H 235.909 -0.750787 0.0695301 0
M  V30 2625 H 238.56 -1.63072 0.841412 0
M  V30 2626 H 236.942 -3.93833 -0.413673 0
M  V30 2627 H 238.116 -3.90575 2.44515 0
M  V30 2628 H 236.431 -3.61081 2.07387 0
M  V30 2629 H 239.028 -5.34607 -0.0997362 0
M  V30 2630 H 239.371 -3.99897 -1.15708 0
M  V30 2631 H 239.904 -3.94108 0.540706 0
M  V30 2632 H 236.643 -5.93804 2.77628 0
M  V30 2633 H 236.163 -5.90286 1.06406 0
M  V30 2634 H 237.842 -6.29013 1.51496 0
M  V30 2635 N 237.974 -0.419461 -1.51915 0
M  V30 2636 C 239.202 0.152136 -2.0634 0
M  V30 2637 C 239.617 1.37988 -1.28859 0
M  V30 2638 O 238.974 1.79243 -0.343232 0
M  V30 2639 C 239.025 0.492266 -3.58133 0
M  V30 2640 O 238.746 -0.686736 -4.32684 0
M  V30 2641 C 240.247 1.11648 -4.2901 0
M  V30 2642 H 237.467 0.0158325 -0.670813 0
M  V30 2643 H 240.011 -0.593394 -1.95702 0
M  V30 2644 H 238.166 1.18769 -3.68745 0
M  V30 2645 H 238.58 -0.400341 -5.2297 0
M  V30 2646 H 240.054 1.3046 -5.36362 0
M  V30 2647 H 240.531 2.09251 -3.86148 0
M  V30 2648 H 241.137 0.460958 -4.22795 0
M  V30 2649 N 239.452 1.56882 -0.150215 0
M  V30 2650 C 240.7 1.9584 0.499105 0
M  V30 2651 C 241.021 1.03623 1.65188 0
M  V30 2652 O 240.291 0.0984084 1.95653 0
M  V30 2653 H 238.871 0.723119 0.187373 0
M  V30 2654 H 241.533 1.9358 -0.226466 0
M  V30 2655 H 240.629 2.99638 0.873122 0
M  V30 2656 N 240.93 -0.123565 1.57115 0
M  V30 2657 C 242.158 -0.846461 1.88793 0
M  V30 2658 C 242.573 -1.73652 0.740976 0
M  V30 2659 O 241.93 -1.80207 -0.288393 0
M  V30 2660 C 241.981 -1.6837 3.19897 0
M  V30 2661 O 241.702 -0.829477 4.30176 0
M  V30 2662 C 243.203 -2.51214 3.65248 0
M  V30 2663 H 240.423 -0.243573 0.625231 0
M  V30 2664 H 242.967 -0.109324 2.04208 0
M  V30 2665 H 241.122 -2.37364 3.06165 0
M  V30 2666 H 241.536 -1.40651 5.0529 0
M  V30 2667 H 243.01 -3.05497 4.59756 0
M  V30 2668 H 243.487 -3.28359 2.9168 0
M  V30 2669 H 244.093 -1.8747 3.81752 0
M  V30 2670 N 242.408 -1.52605 -0.393616 0
M  V30 2671 C 243.655 -1.67424 -1.1391 0
M  V30 2672 C 243.983 -0.411859 -1.90089 0
M  V30 2673 O 243.238 0.605626 -1.86093 0
M  V30 2674 C 243.537 -2.85721 -2.14705 0
M  V30 2675 C 243.203 -4.23342 -1.55218 0
M  V30 2676 C 241.865 -4.60771 -1.3872 0
M  V30 2677 C 244.217 -5.09041 -1.11924 0
M  V30 2678 C 241.545 -5.81563 -0.774689 0
M  V30 2679 C 243.897 -6.30452 -0.520853 0
M  V30 2680 C 242.561 -6.66617 -0.343134 0
M  V30 2681 H 241.831 -0.612648 -0.416826 0
M  V30 2682 H 244.478 -1.8674 -0.424315 0
M  V30 2683 H 242.783 -2.60803 -2.92385 0
M  V30 2684 H 244.48 -2.94382 -2.72288 0
M  V30 2685 H 241.07 -3.93855 -1.69045 0
M  V30 2686 H 245.254 -4.80695 -1.23473 0
M  V30 2687 H 240.51 -6.08196 -0.625154 0
M  V30 2688 H 244.684 -6.96175 -0.177065 0
M  V30 2689 H 242.311 -7.60083 0.133571 0
M  V30 2690 N 243.887 0.651787 -1.4349 0
M  V30 2691 C 244.817 1.77621 -1.51569 0
M  V30 2692 C 245.798 1.66022 -0.370253 0
M  V30 2693 O 246.983 1.85095 -0.587658 0
M  V30 2694 C 244.113 3.16056 -1.43966 0
M  V30 2695 C 243.067 3.4242 -2.56774 0
M  V30 2696 C 242.393 4.8067 -2.34223 0
M  V30 2697 C 243.693 3.37023 -3.99015 0
M  V30 2698 H 245.387 1.71117 -2.45681 0
M  V30 2699 H 242.933 0.821825 -1.18246 0
M  V30 2700 H 244.886 3.94472 -1.48221 0
M  V30 2701 H 243.61 3.23293 -0.463586 0
M  V30 2702 H 242.269 2.66375 -2.51873 0
M  V30 2703 H 241.917 4.84585 -1.34856 0
M  V30 2704 H 241.617 4.9927 -3.09844 0
M  V30 2705 H 243.141 5.61342 -2.40265 0
M  V30 2706 H 244.555 4.05374 -4.05395 0
M  V30 2707 H 242.952 3.67159 -4.74673 0
M  V30 2708 H 244.022 2.3518 -4.2405 0
M  V30 2709 N 245.365 1.30045 0.890287 0
M  V30 2710 C 246.328 1.15963 1.977 0
M  V30 2711 C 247.328 0.0923777 1.60534 0
M  V30 2712 O 248.518 0.340071 1.70848 0
M  V30 2713 C 245.65 0.775451 3.31963 0
M  V30 2714 H 246.843 2.12502 2.11619 0
M  V30 2715 H 244.396 1.13366 1.07601 0
M  V30 2716 H 245.131 -0.189671 3.23745 0
M  V30 2717 H 244.916 1.54668 3.60306 0
M  V30 2718 H 246.406 0.700251 4.11687 0
M  V30 2719 N 246.843 -1.10192 1.12674 0
M  V30 2720 C 247.79 -2.16606 0.796906 0
M  V30 2721 C 248.76 -1.64394 -0.237476 0
M  V30 2722 O 249.945 -1.90474 -0.111484 0
M  V30 2723 C 247.085 -3.44116 0.26043 0
M  V30 2724 C 246.198 -4.10268 1.35293 0
M  V30 2725 C 245.333 -5.25507 0.775621 0
M  V30 2726 C 244.372 -5.83567 1.84706 0
M  V30 2727 N 243.509 -6.90179 1.28829 0
M  V30 2728 H 248.349 -2.44163 1.70846 0
M  V30 2729 H 245.886 -1.19846 0.85295 0
M  V30 2730 H 247.844 -4.17143 -0.0686814 0
M  V30 2731 H 246.474 -3.16901 -0.614274 0
M  V30 2732 H 245.526 -3.35184 1.79877 0
M  V30 2733 H 246.838 -4.4946 2.16303 0
M  V30 2734 H 245.992 -6.05398 0.397327 0
M  V30 2735 H 244.731 -4.87656 -0.0656581 0
M  V30 2736 H 243.736 -5.02344 2.23452 0
M  V30 2737 H 244.961 -6.23482 2.69161 0
M  V30 2738 H 242.907 -6.54322 0.468881 0
M  V30 2739 H 242.824 -7.28097 2.03497 0
M  V30 2740 H 244.092 -7.73844 0.937311 0
M  V30 2741 N 248.321 -0.919034 -1.28029 0
M  V30 2742 C 249.57 -0.550802 -1.94034 0
M  V30 2743 C 249.883 0.910877 -1.73096 0
M  V30 2744 O 251.089 1.3875 -2.33368 0
M  V30 2745 C 249.545 -0.934249 -3.47563 0
M  V30 2746 C 249.153 -2.41602 -3.7727 0
M  V30 2747 C 250.897 -0.636854 -4.19696 0
M  V30 2748 C 248.804 -2.73932 -5.24133 0
M  V30 2749 H 247.734 -0.202273 -0.726362 0
M  V30 2750 H 250.385 -1.11867 -1.45458 0
M  V30 2751 H 248.767 -0.295115 -3.94899 0
M  V30 2752 H 249.941 -3.10233 -3.40723 0
M  V30 2753 H 248.256 -2.68441 -3.18321 0
M  V30 2754 H 250.853 -0.855005 -5.2782 0
M  V30 2755 H 251.196 0.425575 -4.14119 0
M  V30 2756 H 251.729 -1.23469 -3.78154 0
M  V30 2757 H 248.468 -3.79049 -5.34792 0
M  V30 2758 H 247.988 -2.09942 -5.61858 0
M  V30 2759 H 249.667 -2.61215 -5.91925 0
M  V30 2760 N 249.799 1.42003 -0.683588 0
M  V30 2761 C 250.762 2.29191 -0.0198243 0
M  V30 2762 C 251.762 1.43773 0.72013 0
M  V30 2763 O 252.952 1.65061 0.556815 0
M  V30 2764 C 250.084 3.26435 0.982487 0
M  V30 2765 H 251.277 2.8938 -0.787345 0
M  V30 2766 H 248.83 1.49789 -0.446418 0
M  V30 2767 H 249.565 2.71203 1.77819 0
M  V30 2768 H 249.35 3.89449 0.455182 0
M  V30 2769 H 250.84 3.918 1.44508 0
M  V30 2770 N 251.277 0.427512 1.51691 0
M  V30 2771 C 252.693 0.0792977 1.59403 0
M  V30 2772 C 252.893 -1.41035 1.43914 0
M  V30 2773 O 251.949 -2.17922 1.27539 0
M  V30 2774 C 253.262 0.590636 2.94842 0
M  V30 2775 C 254.81 0.550215 3.08126 0
M  V30 2776 C 255.285 1.03836 4.46074 0
M  V30 2777 N 256.776 0.995943 4.52366 0
M  V30 2778 C 257.511 1.34463 5.57411 0
M  V30 2779 N 257.007 1.76569 6.69922 0
M  V30 2780 N 258.8 1.26343 5.47717 0
M  V30 2781 H 250.951 1.39687 1.60004 0
M  V30 2782 H 253.214 0.575003 0.753708 0
M  V30 2783 H 252.92 1.63251 3.11516 0
M  V30 2784 H 252.794 0.0102061 3.77199 0
M  V30 2785 H 255.181 -0.482654 2.91126 0
M  V30 2786 H 255.262 1.16693 2.27632 0
M  V30 2787 H 254.906 2.06965 4.63819 0
M  V30 2788 H 254.836 0.398286 5.25092 0
M  V30 2789 H 257.327 0.68661 3.7161 0
M  V30 2790 H 257.64 2.01438 7.46085 0
M  V30 2791 H 255.985 1.80488 6.71155 0
M  V30 2792 H 259.176 0.933209 4.58703 0
M  V30 2793 H 259.349 1.53846 6.29472 0
M  V30 2794 N 252.755 -1.56801 0.158532 0
M  V30 2795 C 254.166 -1.83189 -0.360366 0
M  V30 2796 C 254.517 -1.07778 -1.63946 0
M  V30 2797 O 253.642 -0.326718 -2.13919 0
M  V30 2798 C 254.237 -3.32297 -0.660595 0
M  V30 2799 C 252.796 -3.59227 -1.12398 0
M  V30 2800 C 251.943 -2.76877 -0.153097 0
M  V30 2801 H 254.894 -1.54008 0.383031 0
M  V30 2802 H 254.915 -3.4908 -1.51405 0
M  V30 2803 H 254.427 -3.87156 0.270527 0
M  V30 2804 H 252.528 -3.09766 -2.07064 0
M  V30 2805 H 252.641 -4.67632 -1.04197 0
M  V30 2806 H 251.005 -2.46319 -0.647983 0
M  V30 2807 H 251.788 -3.34511 0.77182 0
M  V30 2808 N 254.233 0.115231 -1.57178 0
M  V30 2809 C 255.18 1.14115 -2.00615 0
M  V30 2810 C 256.15 1.40939 -0.878941 0
M  V30 2811 O 257.335 1.52741 -1.14345 0
M  V30 2812 C 254.475 2.46156 -2.4187 0
M  V30 2813 C 253.588 2.26236 -3.68024 0
M  V30 2814 C 252.723 3.51534 -3.98243 0
M  V30 2815 C 251.762 3.26787 -5.17568 0
M  V30 2816 N 250.899 4.44298 -5.43639 0
M  V30 2817 H 255.739 0.763743 -2.88047 0
M  V30 2818 H 253.276 0.365615 -1.42484 0
M  V30 2819 H 255.234 3.23189 -2.63827 0
M  V30 2820 H 253.864 2.81783 -1.57475 0
M  V30 2821 H 252.916 1.40102 -3.5366 0
M  V30 2822 H 254.228 2.03929 -4.55208 0
M  V30 2823 H 253.382 4.36984 -4.20868 0
M  V30 2824 H 252.121 3.76876 -3.09541 0
M  V30 2825 H 251.126 2.39729 -4.94783 0
M  V30 2826 H 252.351 3.02812 -6.0785 0
M  V30 2827 H 250.297 4.69754 -4.57895 0
M  V30 2828 H 250.214 4.25109 -6.25154 0
M  V30 2829 H 251.482 5.3087 -5.70786 0
M  V30 2830 N 255.711 1.52812 0.385517 0
M  V30 2831 C 256.658 1.77838 1.47113 0
M  V30 2832 C 257.628 0.621757 1.54024 0
M  V30 2833 O 258.813 0.861846 1.70226 0
M  V30 2834 C 255.953 1.95618 2.84302 0
M  V30 2835 C 255.066 3.23316 2.86515 0
M  V30 2836 C 254.201 3.31394 4.15152 0
M  V30 2837 C 253.24 4.53201 4.1143 0
M  V30 2838 N 252.377 4.58542 5.3168 0
M  V30 2839 H 257.217 2.70482 1.25073 0
M  V30 2840 H 254.754 1.34006 0.606692 0
M  V30 2841 H 256.712 2.03912 3.63972 0
M  V30 2842 H 255.342 1.06331 3.04784 0
M  V30 2843 H 254.394 3.24076 1.99195 0
M  V30 2844 H 255.706 4.13045 2.79634 0
M  V30 2845 H 254.86 3.3889 5.03228 0
M  V30 2846 H 253.599 2.39645 4.24761 0
M  V30 2847 H 252.604 4.45827 3.21742 0
M  V30 2848 H 253.829 5.46271 4.03442 0
M  V30 2849 H 251.775 3.69686 5.41912 0
M  V30 2850 H 251.692 5.42148 5.26889 0
M  V30 2851 H 252.96 4.70296 6.21644 0
M  V30 2852 N 257.189 -0.644168 1.43834 0
M  V30 2853 C 258.605 -0.960875 1.27434 0
M  V30 2854 C 258.805 -2.00499 0.200618 0
M  V30 2855 O 257.861 -2.49018 -0.417906 0
M  V30 2856 C 259.174 -1.43653 2.64167 0
M  V30 2857 C 260.722 -1.55271 2.71772 0
M  V30 2858 C 261.197 -2.06224 4.08944 0
M  V30 2859 N 262.688 -2.13513 4.11055 0
M  V30 2860 C 263.423 -2.54081 5.14033 0
M  V30 2861 N 262.919 -2.9388 6.27381 0
M  V30 2862 N 264.712 -2.54101 5.01387 0
M  V30 2863 H 256.863 0.0465779 2.12349 0
M  V30 2864 H 259.126 -0.0417638 0.94708 0
M  V30 2865 H 258.832 -0.743706 3.43747 0
M  V30 2866 H 258.706 -2.40993 2.90176 0
M  V30 2867 H 261.093 -2.23653 1.92519 0
M  V30 2868 H 261.174 -0.563395 2.49519 0
M  V30 2869 H 260.818 -1.38441 4.88668 0
M  V30 2870 H 260.748 -3.06003 4.28567 0
M  V30 2871 H 263.239 -1.85493 3.29242 0
M  V30 2872 H 263.552 -3.2361 7.01781 0
M  V30 2873 H 261.897 -2.91663 6.30839 0
M  V30 2874 H 265.088 -2.22391 4.11898 0
M  V30 2875 H 265.261 -2.85394 5.81768 0
M  V30 2876 N 258.668 -1.30515 -0.883378 0
M  V30 2877 C 259.631 -1.1701 -1.97082 0
M  V30 2878 C 260.631 -0.10089 -1.60483 0
M  V30 2879 O 261.821 -0.349127 -1.70666 0
M  V30 2880 C 258.953 -0.793045 -3.31547 0
M  V30 2881 H 260.146 -2.13622 -2.10489 0
M  V30 2882 H 257.699 -1.13935 -1.06998 0
M  V30 2883 H 258.434 0.172499 -3.23841 0
M  V30 2884 H 258.219 -1.56576 -3.5948 0
M  V30 2885 H 259.709 -0.722073 -4.1131 0
M  V30 2886 N 260.146 1.09593 -1.13257 0
M  V30 2887 C 261.056 2.19739 -0.821691 0
M  V30 2888 C 262.072 1.72926 0.19302 0
M  V30 2889 O 263.248 2.01385 0.0244895 0
M  V30 2890 C 260.313 3.45482 -0.290333 0
M  V30 2891 C 259.374 4.06985 -1.36607 0
M  V30 2892 C 258.607 5.26726 -0.859975 0
M  V30 2893 O 258.83 5.69594 0.303082 0
M  V30 2894 O 257.764 5.7931 -1.63351 0
M  V30 2895 H 261.59 2.48781 -1.74189 0
M  V30 2896 H 259.175 1.18496 -0.909894 0
M  V30 2897 H 261.057 4.214 0.000674022 0
M  V30 2898 H 259.732 3.18047 0.602306 0
M  V30 2899 H 258.639 3.32712 -1.71037 0
M  V30 2900 H 259.972 4.38643 -2.23279 0
M  V30 2901 N 261.624 0.925811 1.2754 0
M  V30 2902 C 262.852 0.581509 1.9856 0
M  V30 2903 C 263.267 -0.840041 1.69082 0
M  V30 2904 O 262.624 -1.55805 0.950312 0
M  V30 2905 C 262.675 0.795589 3.52637 0
M  V30 2906 O 262.396 2.16121 3.81082 0
M  V30 2907 C 263.897 0.459744 4.4091 0
M  V30 2908 H 261.117 0.220538 0.633722 0
M  V30 2909 H 263.661 1.24232 1.6244 0
M  V30 2910 H 261.816 0.18161 3.86974 0
M  V30 2911 H 262.23 2.2098 4.75676 0
M  V30 2912 H 263.704 0.660244 5.48037 0
M  V30 2913 H 264.181 -0.604625 4.35018 0
M  V30 2914 H 264.787 1.05178 4.12089 0
M  V30 2915 N 263.102 -1.41638 0.69111 0
M  V30 2916 C 264.351 -2.00526 0.217318 0
M  V30 2917 C 264.664 -1.55353 -1.18848 0
M  V30 2918 O 265.87 -2.06769 -1.75951 0
M  V30 2919 C 264.326 -3.58313 0.337639 0
M  V30 2920 C 263.934 -4.12469 1.74852 0
M  V30 2921 C 265.678 -4.24431 -0.0766066 0
M  V30 2922 C 263.585 -5.62675 1.82074 0
M  V30 2923 H 262.515 -0.750008 0.0774893 0
M  V30 2924 H 265.166 -1.6217 0.858661 0
M  V30 2925 H 263.548 -3.9425 -0.371879 0
M  V30 2926 H 264.722 -3.8796 2.48644 0
M  V30 2927 H 263.037 -3.58861 2.11205 0
M  V30 2928 H 265.634 -5.34683 -0.0430284 0
M  V30 2929 H 265.977 -4.01101 -1.1146 0
M  V30 2930 H 266.51 -3.93512 0.582476 0
M  V30 2931 H 263.249 -5.90826 2.83911 0
M  V30 2932 H 262.769 -5.89124 1.12661 0
M  V30 2933 H 264.448 -6.27371 1.58159 0
M  V30 2934 N 264.58 -0.43555 -1.51462 0
M  V30 2935 C 265.996 -0.0877501 -1.59359 0
M  V30 2936 C 266.196 1.4027 -1.4466 0
M  V30 2937 O 265.252 2.17243 -1.28693 0
M  V30 2938 C 266.565 -0.606264 -2.94525 0
M  V30 2939 C 268.113 -0.566548 -3.0783 0
M  V30 2940 C 268.588 -1.06201 -4.45517 0
M  V30 2941 N 270.079 -1.01992 -4.51832 0
M  V30 2942 C 270.814 -1.37417 -5.5669 0
M  V30 2943 N 270.31 -1.80119 -6.68976 0
M  V30 2944 N 272.103 -1.29245 -5.47039 0
M  V30 2945 H 264.254 -1.40533 -1.59261 0
M  V30 2946 H 266.517 -0.578992 -0.750648 0
M  V30 2947 H 266.223 -1.64901 -3.10645 0
M  V30 2948 H 266.097 -0.0302097 -3.77188 0
M  V30 2949 H 268.484 0.467208 -2.91378 0
M  V30 2950 H 268.565 -1.17898 -2.2701 0
M  V30 2951 H 268.209 -2.09422 -4.62715 0
M  V30 2952 H 268.139 -0.426127 -5.24873 0
M  V30 2953 H 270.63 -0.706308 -3.71241 0
M  V30 2954 H 270.943 -2.05392 -7.45006 0
M  V30 2955 H 269.288 -1.84044 -6.70189 0
M  V30 2956 H 272.479 -0.957522 -4.58202 0
M  V30 2957 H 272.652 -1.57182 -6.28648 0
M  V30 2958 N 266.058 1.56714 -0.166846 0
M  V30 2959 C 267.305 1.96747 0.479252 0
M  V30 2960 C 267.633 1.05263 1.63554 0
M  V30 2961 O 266.888 0.0858098 1.95512 0
M  V30 2962 C 267.187 3.42889 1.00806 0
M  V30 2963 C 266.853 4.50889 -0.0318574 0
M  V30 2964 C 265.515 4.8015 -0.317675 0
M  V30 2965 C 267.867 5.15949 -0.737956 0
M  V30 2966 C 265.195 5.71772 -1.31506 0
M  V30 2967 C 267.547 6.08647 -1.72429 0
M  V30 2968 C 266.211 6.36277 -2.0176 0
M  V30 2969 H 265.481 0.719949 0.175371 0
M  V30 2970 H 268.128 1.89756 -0.257864 0
M  V30 2971 H 266.433 3.4681 1.82291 0
M  V30 2972 H 268.13 3.71203 1.51689 0
M  V30 2973 H 264.72 4.28128 0.201088 0
M  V30 2974 H 268.904 4.93458 -0.530351 0
M  V30 2975 H 264.16 5.91465 -1.54853 0
M  V30 2976 H 268.334 6.58129 -2.27682 0
M  V30 2977 H 265.961 7.07075 -2.79194 0
M  V30 2978 N 267.536 -0.106894 1.57237 0
M  V30 2979 C 268.761 -0.830287 1.90055 0
M  V30 2980 C 269.186 -1.72064 0.75998 0
M  V30 2981 O 268.544 -1.78982 -0.288991 0
M  V30 2982 C 268.592 -1.6295 3.21683 0
M  V30 2983 O 267.696 -2.73748 3.08441 0
M  V30 2984 H 267.037 -0.228855 0.623315 0
M  V30 2985 H 269.567 -0.085658 2.04421 0
M  V30 2986 H 269.577 -2.01621 3.54701 0
M  V30 2987 H 268.252 -0.975989 4.04286 0
M  V30 2988 H 266.829 -2.38192 2.86913 0
M  V30 2989 N 269.014 -1.53014 -0.377408 0
M  V30 2990 C 269.946 -1.74884 -1.48149 0
M  V30 2991 C 270.959 -0.629433 -1.5014 0
M  V30 2992 O 272.148 -0.905416 -1.53833 0
M  V30 2993 C 269.248 -1.80299 -2.86959 0
M  V30 2994 C 268.421 -3.09776 -3.08801 0
M  V30 2995 C 267.48 -3.06586 -4.27658 0
M  V30 2996 O 266.506 -3.80419 -4.23403 0
M  V30 2997 N 267.708 -2.26578 -5.34455 0
M  V30 2998 H 270.473 -2.70147 -1.29771 0
M  V30 2999 H 268.034 -1.51646 -0.56703 0
M  V30 3000 H 270.026 -1.75657 -3.64591 0
M  V30 3001 H 268.596 -0.92372 -2.98641 0
M  V30 3002 H 267.816 -3.27815 -2.18931 0
M  V30 3003 H 269.104 -3.95366 -3.20255 0
M  V30 3004 H 268.502 -1.66081 -5.40771 0
M  V30 3005 H 267.059 -2.27766 -6.10709 0
M  V30 3006 N 270.492 0.636531 -1.44174 0
M  V30 3007 C 271.442 1.74233 -1.47061 0
M  V30 3008 C 272.426 1.57331 -0.337034 0
M  V30 3009 O 273.618 1.67159 -0.581973 0
M  V30 3010 C 270.747 3.12897 -1.41246 0
M  V30 3011 C 269.833 3.35288 -2.59698 0
M  V30 3012 N 270.224 3.2807 -3.84972 0
M  V30 3013 C 268.522 3.66065 -2.54778 0
M  V30 3014 C 269.223 3.51001 -4.63867 0
M  V30 3015 N 268.199 3.73616 -3.94857 0
M  V30 3016 H 272.001 1.67103 -2.41773 0
M  V30 3017 H 269.515 0.838806 -1.3906 0
M  V30 3018 H 271.512 3.92189 -1.41398 0
M  V30 3019 H 270.172 3.21197 -0.47569 0
M  V30 3020 H 271.183 3.07109 -4.17019 0
M  V30 3021 H 267.86 3.81379 -1.6987 0
M  V30 3022 H 269.25 3.51059 -5.72894 0
M  V30 3023 N 271.97 1.30982 0.876444 0
M  V30 3024 C 272.933 1.18054 1.96459 0
M  V30 3025 C 273.933 0.109399 1.60427 0
M  V30 3026 O 275.123 0.358173 1.70478 0
M  V30 3027 C 272.255 0.810616 3.31122 0
M  V30 3028 H 273.448 2.14735 2.09354 0
M  V30 3029 H 271.001 1.145 1.06392 0
M  V30 3030 H 271.736 -0.155322 3.23928 0
M  V30 3031 H 271.521 1.58481 3.58645 0
M  V30 3032 H 273.011 0.743876 4.10921 0
M  V30 3033 N 273.449 -1.08991 1.13837 0
M  V30 3034 C 274.695 -1.81526 0.90422 0
M  V30 3035 C 275.028 -1.85706 -0.568066 0
M  V30 3036 O 274.303 -1.32855 -1.42056 0
M  V30 3037 C 274.586 -3.27447 1.49835 0
M  V30 3038 C 274.439 -3.31512 3.04006 0
M  V30 3039 C 275.758 -4.24256 1.17025 0
M  V30 3040 H 272.877 -0.659029 0.329923 0
M  V30 3041 H 275.519 -1.27644 1.40737 0
M  V30 3042 H 273.669 -3.73462 1.07044 0
M  V30 3043 H 275.341 -2.93867 3.55584 0
M  V30 3044 H 273.584 -2.70963 3.38765 0
M  V30 3045 H 274.255 -4.34329 3.40679 0
M  V30 3046 H 276.731 -3.86549 1.54009 0
M  V30 3047 H 275.607 -5.24684 1.61237 0
M  V30 3048 H 275.868 -4.42019 0.0846274 0
M  V30 3049 N 274.927 -0.932562 -1.27047 0
M  V30 3050 C 276.173 -0.576412 -1.94436 0
M  V30 3051 C 276.506 0.880891 -1.73072 0
M  V30 3052 O 275.781 1.62905 -1.06264 0
M  V30 3053 C 276.064 -0.909031 -3.48437 0
M  V30 3054 C 275.917 -2.42044 -3.79123 0
M  V30 3055 C 277.236 -0.418341 -4.38107 0
M  V30 3056 H 274.355 -0.210888 -0.706184 0
M  V30 3057 H 276.997 -1.16522 -1.50075 0
M  V30 3058 H 275.147 -0.407947 -3.86352 0
M  V30 3059 H 276.819 -2.99359 -3.50973 0
M  V30 3060 H 275.062 -2.86758 -3.25503 0
M  V30 3061 H 275.733 -2.6037 -4.86736 0
M  V30 3062 H 278.209 -0.847856 -4.0737 0
M  V30 3063 H 277.085 -0.679981 -5.44672 0
M  V30 3064 H 277.346 0.681642 -4.36814 0
M  V30 3065 N 276.405 1.4127 -0.698611 0
M  V30 3066 C 277.368 2.29158 -0.044132 0
M  V30 3067 C 278.368 1.44529 0.704841 0
M  V30 3068 O 279.558 1.65643 0.539276 0
M  V30 3069 C 276.69 3.27459 0.947809 0
M  V30 3070 H 277.883 2.88529 -0.817994 0
M  V30 3071 H 275.436 1.49307 -0.46228 0
M  V30 3072 H 276.171 2.73073 1.74933 0
M  V30 3073 H 275.956 3.8991 0.41385 0
M  V30 3074 H 277.446 3.93311 1.40344 0
M  V30 3075 N 277.883 0.443576 1.51229 0
M  V30 3076 C 279.108 -0.121648 2.07043 0
M  V30 3077 C 279.533 -1.35156 1.30823 0
M  V30 3078 O 278.891 -1.7793 0.347934 0
M  V30 3079 C 278.939 -0.41624 3.5819 0
M  V30 3080 O 278.043 -1.50163 3.8409 0
M  V30 3081 H 277.384 0.000871367 0.663999 0
M  V30 3082 H 279.914 0.626706 1.94765 0
M  V30 3083 H 279.924 -0.664867 4.02546 0
M  V30 3084 H 278.599 0.482653 4.1309 0
M  V30 3085 H 277.176 -1.24248 3.51592 0
M  V30 3086 N 279.361 -1.56624 0.175154 0
M  V30 3087 C 280.311 -2.14747 -0.766004 0
M  V30 3088 C 281.295 -1.08275 -1.19018 0
M  V30 3089 O 282.487 -1.34388 -1.15191 0
M  V30 3090 C 279.616 -2.79478 -1.99366 0
M  V30 3091 C 278.702 -3.93114 -1.5913 0
M  V30 3092 N 279.093 -4.97752 -0.89872 0
M  V30 3093 C 277.391 -4.04345 -1.88204 0
M  V30 3094 C 278.092 -5.77473 -0.700012 0
M  V30 3095 N 277.068 -5.29207 -1.24263 0
M  V30 3096 H 280.87 -2.93015 -0.22793 0
M  V30 3097 H 278.384 -1.6238 -0.0253843 0
M  V30 3098 H 280.381 -3.19498 -2.67818 0
M  V30 3099 H 279.041 -2.02692 -2.53665 0
M  V30 3100 H 280.052 -5.14903 -0.556347 0
M  V30 3101 H 276.729 -3.38667 -2.44153 0
M  V30 3102 H 278.119 -6.71728 -0.152047 0
M  V30 3103 N 280.839 0.0985539 -1.57292 0
M  V30 3104 C 281.787 1.1387 -2.02821 0
M  V30 3105 C 282.781 1.41676 -0.928666 0
M  V30 3106 O 283.987 1.41398 -1.11385 0
M  V30 3107 H 280.362 0.384419 -0.646317 0
M  V30 3108 H 282.333 0.728347 -2.89375 0
M  V30 3109 C 281.082 2.45166 -2.46554 0
M  V30 3110 H 280.405 2.24613 -3.3074 0
M  V30 3111 H 281.845 3.16456 -2.8219 0
M  V30 3112 C 280.304 3.09216 -1.33742 0
M  V30 3113 O 280.834 3.96163 -0.66464 0
M  V30 3114 N 279.04 2.69413 -1.08928 0
M  V30 3115 H 278.587 1.98801 -1.63817 0
M  V30 3116 H 278.545 3.12594 -0.336458 0
M  V30 3117 N 282.317 1.53212 0.369288 0
M  V30 3118 C 283.565 1.68881 1.11012 0
M  V30 3119 C 283.886 0.441285 1.89941 0
M  V30 3120 O 283.156 -0.544623 1.88177 0
M  V30 3121 H 281.736 0.622569 0.412816 0
M  V30 3122 H 284.398 1.90391 0.416802 0
M  V30 3123 H 283.494 2.54822 1.80201 0
M  V30 3124 N 283.795 -0.628877 1.44509 0
M  V30 3125 C 284.742 -1.74074 1.51549 0
M  V30 3126 C 285.712 -1.62084 0.363021 0
M  V30 3127 O 286.897 -1.81975 0.573567 0
M  V30 3128 C 284.037 -3.12328 1.46784 0
M  V30 3129 C 283.15 -3.35277 2.72422 0
M  V30 3130 C 282.285 -4.63515 2.59475 0
M  V30 3131 C 281.324 -4.7965 3.80266 0
M  V30 3132 N 280.461 -5.99168 3.65981 0
M  V30 3133 H 285.301 -1.67392 2.46544 0
M  V30 3134 H 282.838 -0.816527 1.22357 0
M  V30 3135 H 284.796 -3.92286 1.42012 0
M  V30 3136 H 283.426 -3.18018 0.553544 0
M  V30 3137 H 282.478 -2.49242 2.87372 0
M  V30 3138 H 283.79 -3.43078 3.62076 0
M  V30 3139 H 282.944 -5.51638 2.52548 0
M  V30 3140 H 281.683 -4.58076 1.67384 0
M  V30 3141 H 280.688 -3.89957 3.87574 0
M  V30 3142 H 281.913 -4.86902 4.73395 0
M  V30 3143 H 279.859 -5.94814 2.76644 0
M  V30 3144 H 279.776 -6.08035 4.49254 0
M  V30 3145 H 281.044 -6.89846 3.6295 0
M  V30 3146 N 285.273 -1.31445 -0.869486 0
M  V30 3147 C 286.684 -1.19042 -1.43826 0
M  V30 3148 C 287.035 0.202919 -1.95148 0
M  V30 3149 O 286.16 1.10071 -1.86315 0
M  V30 3150 C 286.755 -2.15499 -2.6143 0
M  V30 3151 C 285.314 -2.07028 -3.14351 0
M  V30 3152 C 284.461 -2.04701 -1.87063 0
M  V30 3153 H 287.412 -1.43489 -0.677984 0
M  V30 3154 H 287.433 -1.74488 -3.38134 0
M  V30 3155 H 286.945 -3.16899 -2.24046 0
M  V30 3156 H 285.046 -1.08825 -3.56354 0
M  V30 3157 H 285.159 -2.96157 -3.766 0
M  V30 3158 H 283.523 -1.49724 -2.06046 0
M  V30 3159 H 284.306 -3.07857 -1.51917 0
M  V30 3160 N 286.751 1.08385 -1.14413 0
M  V30 3161 C 287.991 1.8238 -0.922868 0
M  V30 3162 C 288.355 1.84225 0.540842 0
M  V30 3163 O 289.556 2.53985 0.880058 0
M  V30 3164 C 287.827 3.24048 -1.50757 0
M  V30 3165 S 289.386 4.14917 -1.4279 0
M  V30 3166 H 286.204 0.628524 -0.332384 0
M  V30 3167 H 288.806 1.30278 -1.45766 0
M  V30 3168 H 287.51 3.20288 -2.56601 0
M  V30 3169 H 287.041 3.81224 -0.971178 0
M  V30 3170 H 289.056 4.94473 -0.413582 0
M  V30 3171 N 288.23 0.939286 1.26551 0
M  V30 3172 C 289.16 0.465044 2.28822 0
M  V30 3173 C 290.141 -0.480692 1.63167 0
M  V30 3174 O 291.326 -0.382955 1.90387 0
M  V30 3175 C 288.456 -0.27234 3.46231 0
M  V30 3176 C 287.41 0.58666 4.2396 0
M  V30 3177 C 286.736 -0.280573 5.33963 0
M  V30 3178 C 288.036 1.85704 4.88171 0
M  V30 3179 H 289.73 1.31979 2.68741 0
M  V30 3180 H 287.276 0.636061 1.29191 0
M  V30 3181 H 289.229 -0.615133 4.16886 0
M  V30 3182 H 287.953 -1.16121 3.0526 0
M  V30 3183 H 286.612 0.91232 3.55067 0
M  V30 3184 H 286.26 -1.16874 4.89234 0
M  V30 3185 H 285.96 0.29076 5.8688 0
M  V30 3186 H 287.484 -0.618678 6.07458 0
M  V30 3187 H 288.898 1.58161 5.51052 0
M  V30 3188 H 287.295 2.37279 5.51197 0
M  V30 3189 H 288.365 2.56957 4.11219 0
M  V30 3190 N 289.708 -1.40897 0.706093 0
M  V30 3191 C 290.641 -2.282 -0.00328781 0
M  V30 3192 C 291.619 -1.42816 -0.77732 0
M  V30 3193 O 292.803 -1.72237 -0.765944 0
M  V30 3194 C 289.93 -3.23226 -1.01205 0
M  V30 3195 C 288.976 -4.25222 -0.329955 0
M  V30 3196 S 289.809 -5.27269 0.935298 0
M  V30 3197 C 290.965 -6.25859 -0.0716061 0
M  V30 3198 H 291.198 -2.88016 0.737143 0
M  V30 3199 H 288.731 -1.46191 0.496756 0
M  V30 3200 H 290.689 -3.78503 -1.58888 0
M  V30 3201 H 289.35 -2.62485 -1.72513 0
M  V30 3202 H 288.543 -4.92023 -1.09221 0
M  V30 3203 H 288.145 -3.73595 0.174069 0
M  V30 3204 H 290.437 -6.71204 -0.921521 0
M  V30 3205 H 291.38 -7.0586 0.562765 0
M  V30 3206 H 291.788 -5.62852 -0.431088 0
M  V30 3207 N 291.186 -0.45159 -1.50991 0
M  V30 3208 C 292.435 0.111653 -2.01391 0
M  V30 3209 C 292.748 1.42529 -1.33959 0
M  V30 3210 O 293.954 2.07232 -1.75405 0
M  V30 3211 C 292.41 0.249514 -3.59034 0
M  V30 3212 C 292.018 -1.05453 -4.35412 0
M  V30 3213 C 293.762 0.765762 -4.17536 0
M  V30 3214 C 291.669 -0.881529 -5.84793 0
M  V30 3215 H 290.599 0.0455022 -0.752626 0
M  V30 3216 H 293.25 -0.583524 -1.73975 0
M  V30 3217 H 291.632 1.00803 -3.82955 0
M  V30 3218 H 292.806 -1.82248 -4.23229 0
M  V30 3219 H 291.121 -1.50039 -3.88429 0
M  V30 3220 H 293.718 0.911913 -5.26866 0
M  V30 3221 H 294.061 1.75201 -3.77638 0
M  V30 3222 H 294.594 0.0651744 -3.97747 0
M  V30 3223 H 291.333 -1.84057 -6.29129 0
M  V30 3224 H 290.853 -0.153625 -5.99603 0
M  V30 3225 H 292.532 -0.540363 -6.4474 0
M  V30 3226 N 292.664 1.56529 -0.183458 0
M  V30 3227 C 294.08 1.58664 0.172554 0
M  V30 3228 C 294.28 1.19925 1.61926 0
M  V30 3229 O 293.336 0.916534 2.35278 0
M  V30 3230 C 294.649 3.00463 -0.119262 0
M  V30 3231 C 296.197 3.12945 -0.0584396 0
M  V30 3232 C 296.672 4.56857 -0.323408 0
M  V30 3233 N 298.163 4.62403 -0.271612 0
M  V30 3234 C 298.898 5.71626 -0.450639 0
M  V30 3235 N 298.394 6.89362 -0.689384 0
M  V30 3236 N 300.187 5.60775 -0.385701 0
M  V30 3237 H 292.338 1.79994 -1.12765 0
M  V30 3238 H 294.601 0.834808 -0.449222 0
M  V30 3239 H 294.307 3.33326 -1.12192 0
M  V30 3240 H 294.181 3.72659 0.583544 0
M  V30 3241 H 296.568 2.79902 0.934805 0
M  V30 3242 H 296.649 2.4316 -0.794144 0
M  V30 3243 H 296.293 4.9061 -1.31392 0
M  V30 3244 H 296.223 5.24816 0.43305 0
M  V30 3245 H 298.714 3.77785 -0.0932256 0
M  V30 3246 H 299.027 7.68489 -0.815113 0
M  V30 3247 H 297.372 6.91196 -0.726142 0
M  V30 3248 H 300.563 4.67674 -0.199687 0
M  V30 3249 H 300.736 6.4584 -0.528646 0
M  V30 3250 N 294.142 -0.090211 1.57342 0
M  V30 3251 C 295.388 -0.793982 1.86611 0
M  V30 3252 C 295.721 -1.78142 0.773252 0
M  V30 3253 O 294.996 -1.93271 -0.218304 0
M  V30 3254 C 295.279 -1.51839 3.26523 0
M  V30 3255 C 295.132 -0.548609 4.46442 0
M  V30 3256 C 296.451 -2.46779 3.64401 0
M  V30 3257 H 293.57 -0.287186 0.678744 0
M  V30 3258 H 296.212 -0.0575076 1.89913 0
M  V30 3259 H 294.362 -2.14617 3.23839 0
M  V30 3260 H 296.034 0.0725513 4.61243 0
M  V30 3261 H 294.277 0.137614 4.33582 0
M  V30 3262 H 294.948 -1.09271 5.41076 0
M  V30 3263 H 297.424 -1.94089 3.68061 0
M  V30 3264 H 296.3 -2.94479 4.63221 0
M  V30 3265 H 296.561 -3.30758 2.93346 0
M  V30 3266 N 295.62 -1.53406 -0.361157 0
M  V30 3267 C 296.583 -1.79479 -1.42548 0
M  V30 3268 C 297.583 -0.665327 -1.4639 0
M  V30 3269 O 298.773 -0.933549 -1.47073 0
M  V30 3270 C 295.905 -1.92087 -2.8163 0
M  V30 3271 H 297.098 -2.74538 -1.20701 0
M  V30 3272 H 294.651 -1.4455 -0.594546 0
M  V30 3273 H 295.386 -0.991099 -3.08784 0
M  V30 3274 H 295.171 -2.74241 -2.80239 0
M  V30 3275 H 296.661 -2.13836 -3.58697 0
M  V30 3276 N 297.098 0.621204 -1.44841 0
M  V30 3277 C 298.046 1.75385 -1.52784 0
M  V30 3278 C 299.04 1.64639 -0.398779 0
M  V30 3279 O 300.246 1.70598 -0.574137 0
M  V30 3280 H 296.621 0.579193 -0.479625 0
M  V30 3281 H 298.592 1.6581 -2.48092 0
M  V30 3282 C 297.341 3.13742 -1.4987 0
M  V30 3283 H 296.664 3.22663 -2.36069 0
M  V30 3284 H 298.104 3.92861 -1.59487 0
M  V30 3285 C 296.563 3.36175 -0.220973 0
M  V30 3286 O 297.093 3.95469 0.704782 0
M  V30 3287 N 295.299 2.90348 -0.120963 0
M  V30 3288 H 294.846 2.42278 -0.875162 0
M  V30 3289 H 294.804 3.05732 0.733168 0
M  V30 3290 N 298.576 1.31904 0.862503 0
M  V30 3291 C 299.509 1.14514 1.97388 0
M  V30 3292 C 300.487 0.0466493 1.62533 0
M  V30 3293 O 301.671 0.204484 1.87388 0
M  V30 3294 C 298.798 0.751347 3.30261 0
M  V30 3295 C 297.844 1.85395 3.84098 0
M  V30 3296 S 298.677 3.46081 4.08642 0
M  V30 3297 C 299.833 3.08655 5.44502 0
M  V30 3298 H 300.066 2.08597 2.11836 0
M  V30 3299 H 297.599 1.16475 1.01356 0
M  V30 3300 H 299.557 0.530901 4.07052 0
M  V30 3301 H 298.218 -0.170493 3.13637 0
M  V30 3302 H 297.411 1.53122 4.80177 0
M  V30 3303 H 297.013 2.02984 3.14123 0
M  V30 3304 H 299.305 2.58012 6.26447 0
M  V30 3305 H 300.248 4.03726 5.81731 0
M  V30 3306 H 300.656 2.45891 5.08132 0
M  V30 3307 N 300.054 -1.07777 1.14986 0
M  V30 3308 C 301.47 -1.32373 0.891596 0
M  V30 3309 C 301.67 -1.9609 -0.463788 0
M  V30 3310 O 300.726 -2.21801 -1.20667 0
M  V30 3311 C 302.039 -2.21905 2.02925 0
M  V30 3312 C 303.587 -2.35367 2.06329 0
M  V30 3313 C 304.062 -3.28245 3.19405 0
M  V30 3314 N 305.553 -3.35824 3.19024 0
M  V30 3315 C 306.288 -4.07739 4.03158 0
M  V30 3316 N 305.784 -4.82306 4.97346 0
M  V30 3317 N 307.577 -4.03635 3.91197 0
M  V30 3318 H 299.728 -0.648039 2.02273 0
M  V30 3319 H 301.991 -0.348149 0.881757 0
M  V30 3320 H 301.697 -1.82342 3.0074 0
M  V30 3321 H 301.571 -3.22407 1.95789 0
M  V30 3322 H 303.958 -2.74186 1.09116 0
M  V30 3323 H 304.039 -1.34585 2.17533 0
M  V30 3324 H 303.683 -2.90146 4.16867 0
M  V30 3325 H 303.613 -4.28971 3.05437 0
M  V30 3326 H 306.104 -2.8267 2.50811 0
M  V30 3327 H 306.417 -5.34661 5.57994 0
M  V30 3328 H 304.762 -4.81337 5.01338 0
M  V30 3329 H 307.953 -3.44491 3.16928 0
M  V30 3330 H 308.126 -4.59417 4.5699 0
M  V30 3331 N 301.532 -0.945985 -1.26051 0
M  V30 3332 C 302.479 -0.45809 -2.26208 0
M  V30 3333 C 303.449 0.484816 -1.58867 0
M  V30 3334 O 304.634 0.399969 -1.86561 0
M  V30 3335 C 301.774 0.266131 -3.44072 0
M  V30 3336 C 300.887 -0.713005 -4.26075 0
M  V30 3337 C 300.022 0.0329013 -5.3119 0
M  V30 3338 C 299.061 -0.93774 -6.04874 0
M  V30 3339 N 298.198 -0.223274 -7.01745 0
M  V30 3340 H 303.038 -1.3171 -2.67313 0
M  V30 3341 H 300.575 -0.66069 -1.31428 0
M  V30 3342 H 302.533 0.702514 -4.11243 0
M  V30 3343 H 301.163 1.08925 -3.03867 0
M  V30 3344 H 300.215 -1.26789 -3.58648 0
M  V30 3345 H 301.527 -1.45406 -4.77136 0
M  V30 3346 H 300.681 0.528335 -6.04395 0
M  V30 3347 H 299.42 0.806801 -4.8098 0
M  V30 3348 H 298.425 -1.44425 -5.30492 0
M  V30 3349 H 299.65 -1.71172 -6.57173 0
M  V30 3350 H 297.596 0.532046 -6.53839 0
M  V30 3351 H 297.513 -0.90357 -7.50581 0
M  V30 3352 H 298.781 0.250907 -7.79096 0
M  V30 3353 N 303.011 1.40521 -0.713556 0
M  V30 3354 C 304.236 2.05759 -0.26035 0
M  V30 3355 C 304.661 1.53403 1.08854 0
M  V30 3356 O 304.019 0.668535 1.68524 0
M  V30 3357 C 304.067 3.59745 -0.248122 0
M  V30 3358 O 303.171 4.05123 0.77131 0
M  V30 3359 H 302.512 0.652564 -0.122703 0
M  V30 3360 H 305.042 1.79958 -0.973467 0
M  V30 3361 H 305.052 4.07911 -0.0851129 0
M  V30 3362 H 303.727 3.97218 -1.2325 0
M  V30 3363 H 302.304 3.68422 0.57619 0
M  V30 3364 N 304.489 0.459591 1.5075 0
M  V30 3365 C 305.419 -0.330644 2.31147 0
M  V30 3366 C 306.4 -1.00087 1.37538 0
M  V30 3367 O 307.585 -1.00025 1.66459 0
M  V30 3368 C 304.715 -1.41958 3.16962 0
M  V30 3369 C 303.669 -0.871608 4.19031 0
M  V30 3370 C 302.995 -2.05797 4.9351 0
M  V30 3371 C 304.295 0.109251 5.22186 0
M  V30 3372 H 305.989 0.340336 2.97459 0
M  V30 3373 H 303.535 0.165119 1.4305 0
M  V30 3374 H 305.488 -1.9798 3.71997 0
M  V30 3375 H 304.212 -2.11917 2.48513 0
M  V30 3376 H 302.871 -0.333442 3.6508 0
M  V30 3377 H 302.519 -2.74427 4.21544 0
M  V30 3378 H 302.219 -1.6976 5.62544 0
M  V30 3379 H 303.743 -2.62331 5.51375 0
M  V30 3380 H 305.157 -0.361405 5.7216 0
M  V30 3381 H 303.554 0.383316 5.98875 0
M  V30 3382 H 304.624 1.03887 4.73641 0
M  V30 3383 N 305.967 -1.56429 0.191757 0
M  V30 3384 C 306.897 -2.21937 -0.725696 0
M  V30 3385 C 307.878 -1.1814 -1.2238 0
M  V30 3386 O 309.063 -1.46636 -1.27325 0
M  V30 3387 C 306.193 -2.87611 -1.94672 0
M  V30 3388 C 305.147 -3.97623 -1.58366 0
M  V30 3389 C 304.473 -4.50446 -2.88102 0
M  V30 3390 C 305.773 -5.16197 -0.796133 0
M  V30 3391 H 307.467 -2.98861 -0.179606 0
M  V30 3392 H 305.013 -1.43749 -0.0849464 0
M  V30 3393 H 306.966 -3.3212 -2.59373 0
M  V30 3394 H 305.69 -2.08087 -2.51728 0
M  V30 3395 H 304.349 -3.53801 -0.960247 0
M  V30 3396 H 303.997 -3.67688 -3.43241 0
M  V30 3397 H 303.697 -5.24675 -2.64556 0
M  V30 3398 H 305.221 -4.97654 -3.53798 0
M  V30 3399 H 306.635 -5.57271 -1.34618 0
M  V30 3400 H 305.032 -5.96471 -0.658928 0
M  V30 3401 H 306.102 -4.84473 0.203478 0
M  V30 3402 N 307.445 0.0818655 -1.57387 0
M  V30 3403 C 308.694 0.781681 -1.85937 0
M  V30 3404 C 309.007 1.79246 -0.782957 0
M  V30 3405 O 310.213 2.54112 -0.955987 0
M  V30 3406 C 308.669 1.44109 -3.29789 0
M  V30 3407 C 308.277 0.469396 -4.45534 0
M  V30 3408 C 310.021 2.12386 -3.67549 0
M  V30 3409 C 307.928 1.13415 -5.80423 0
M  V30 3410 H 306.858 0.295682 -0.693605 0
M  V30 3411 H 309.509 0.0348051 -1.83467 0
M  V30 3412 H 307.891 2.23588 -3.2684 0
M  V30 3413 H 309.065 -0.294856 -4.59856 0
M  V30 3414 H 307.38 -0.108383 -4.16259 0
M  V30 3415 H 309.977 2.62878 -4.65617 0
M  V30 3416 H 310.32 2.91877 -2.96839 0
M  V30 3417 H 310.853 1.39751 -3.72444 0
M  V30 3418 H 307.592 0.379771 -6.54399 0
M  V30 3419 H 307.112 1.8695 -5.69921 0
M  V30 3420 H 308.791 1.65686 -6.25426 0
M  V30 3421 N 308.923 1.53595 0.353017 0
M  V30 3422 C 310.171 1.70049 1.09215 0
M  V30 3423 C 310.492 0.461406 1.89463 0
M  V30 3424 O 309.762 -0.524633 1.88744 0
M  V30 3425 H 308.342 0.626912 0.40619 0
M  V30 3426 H 311.004 1.90822 0.396585 0
M  V30 3427 H 310.1 2.56718 1.77488 0
M  V30 3428 N 310.401 -0.613514 1.45168 0
M  V30 3429 C 311.641 -1.38405 1.5041 0
M  V30 3430 C 312.005 -1.91489 0.139922 0
M  V30 3431 O 313.206 -2.68716 0.067033 0
M  V30 3432 C 311.477 -2.50552 2.5487 0
M  V30 3433 S 313.036 -3.38439 2.79292 0
M  V30 3434 H 309.854 -0.471945 0.531779 0
M  V30 3435 H 312.456 -0.708518 1.82209 0
M  V30 3436 H 311.16 -2.09894 3.52665 0
M  V30 3437 H 310.691 -3.22913 2.24701 0
M  V30 3438 H 312.706 -4.48527 2.12222 0
M  V30 3439 N 311.879 -1.3236 -0.855495 0
M  V30 3440 C 312.811 -1.17052 -1.97057 0
M  V30 3441 C 313.824 -0.10574 -1.62456 0
M  V30 3442 O 315.013 -0.354619 -1.74942 0
M  V30 3443 C 312.113 -0.769305 -3.30053 0
M  V30 3444 C 311.286 -1.9222 -3.929 0
M  V30 3445 C 310.345 -1.50466 -5.04228 0
M  V30 3446 O 309.371 -2.21655 -5.24269 0
M  V30 3447 N 310.573 -0.400209 -5.79119 0
M  V30 3448 H 313.338 -2.13103 -2.1073 0
M  V30 3449 H 310.899 -1.24885 -1.0303 0
M  V30 3450 H 312.891 -0.472407 -4.01933 0
M  V30 3451 H 311.461 0.100025 -3.1244 0
M  V30 3452 H 310.681 -2.38563 -3.13817 0
M  V30 3453 H 311.969 -2.69403 -4.31624 0
M  V30 3454 H 311.367 0.192319 -5.65373 0
M  V30 3455 H 309.924 -0.162912 -6.51596 0
M  V30 3456 N 313.357 1.07166 -1.15556 0
M  V30 3457 C 314.603 1.80065 -0.932984 0
M  V30 3458 C 314.936 1.86586 0.53845 0
M  V30 3459 O 314.211 1.35098 1.39924 0
M  V30 3460 C 314.494 3.25022 -1.55025 0
M  V30 3461 C 314.347 3.26634 -3.09242 0
M  V30 3462 C 315.666 4.22341 -1.2376 0
M  V30 3463 H 312.785 0.653697 -0.340366 0
M  V30 3464 H 315.427 1.25389 -1.4275 0
M  V30 3465 H 313.577 3.71712 -1.12972 0
M  V30 3466 H 315.249 2.88173 -3.60214 0
M  V30 3467 H 313.492 2.65539 -3.43033 0
M  V30 3468 H 314.163 4.28854 -3.47546 0
M  V30 3469 H 316.639 3.8405 -1.60139 0
M  V30 3470 H 315.515 5.22053 -1.69564 0
M  V30 3471 H 315.776 4.41828 -0.154938 0
M  V30 3472 N 314.835 0.952656 1.25548 0
M  V30 3473 C 316.063 0.623496 1.97282 0
M  V30 3474 C 316.478 -0.803987 1.70826 0
M  V30 3475 O 315.835 -1.53755 0.983147 0
M  V30 3476 C 315.886 0.870209 3.5087 0
M  V30 3477 O 315.607 2.24156 3.76412 0
M  V30 3478 C 317.108 0.553164 4.39835 0
M  V30 3479 H 314.328 0.233931 0.628902 0
M  V30 3480 H 316.872 1.27649 1.59768 0
M  V30 3481 H 315.027 0.263652 3.86502 0
M  V30 3482 H 315.441 2.31021 4.70882 0
M  V30 3483 H 316.915 0.776342 5.46513 0
M  V30 3484 H 317.392 -0.512215 4.36203 0
M  V30 3485 H 317.998 1.13896 4.09766 0
M  V30 3486 N 316.313 -1.40141 0.720998 0
M  V30 3487 C 317.561 -2.0039 0.262323 0
M  V30 3488 C 317.882 -1.57469 -1.15015 0
M  V30 3489 O 317.152 -0.816582 -1.78069 0
M  V30 3490 H 315.732 -0.741063 0.093996 0
M  V30 3491 H 318.394 -1.71398 0.927835 0
M  V30 3492 H 317.49 -3.10658 0.299671 0
M  V30 3493 N 317.792 -0.46758 -1.50504 0
M  V30 3494 C 318.739 0.328413 -2.28452 0
M  V30 3495 C 319.709 0.990313 -1.33349 0
M  V30 3496 O 320.894 1.00343 -1.62284 0
M  V30 3497 C 318.034 1.40648 -3.15138 0
M  V30 3498 C 317.147 0.759709 -4.25267 0
M  V30 3499 C 316.282 1.81537 -4.99217 0
M  V30 3500 C 315.321 1.14866 -6.01226 0
M  V30 3501 N 314.458 2.14702 -6.68467 0
M  V30 3502 H 319.298 -0.342603 -2.96024 0
M  V30 3503 H 316.835 -0.180801 -1.45985 0
M  V30 3504 H 318.793 2.04315 -3.63746 0
M  V30 3505 H 317.423 2.04671 -2.49619 0
M  V30 3506 H 316.475 0.0105671 -3.80399 0
M  V30 3507 H 317.787 0.233243 -4.98254 0
M  V30 3508 H 316.941 2.52793 -5.51526 0
M  V30 3509 H 315.68 2.37564 -4.25928 0
M  V30 3510 H 314.685 0.42171 -5.4818 0
M  V30 3511 H 315.91 0.595334 -6.76485 0
M  V30 3512 H 313.856 2.69752 -5.97972 0
M  V30 3513 H 313.773 1.6703 -7.37317 0
M  V30 3514 H 315.041 2.85348 -7.25394 0
M  V30 3515 N 319.27 1.56325 -0.20005 0
M  V30 3516 C 320.2 2.22318 0.713916 0
M  V30 3517 C 321.181 1.18788 1.21752 0
M  V30 3518 O 322.366 1.47309 1.26545 0
M  V30 3519 C 319.496 2.88639 1.93144 0
M  V30 3520 C 318.45 3.98457 1.56255 0
M  V30 3521 C 317.776 4.51967 2.85709 0
M  V30 3522 C 319.076 5.16612 0.768747 0
M  V30 3523 H 320.77 2.98952 0.163755 0
M  V30 3524 H 318.316 1.43792 0.0773219 0
M  V30 3525 H 320.269 3.33491 2.57608 0
M  V30 3526 H 318.993 2.09419 2.50621 0
M  V30 3527 H 317.652 3.54305 0.941471 0
M  V30 3528 H 317.3 3.69503 3.41287 0
M  V30 3529 H 317 5.26071 2.6177 0
M  V30 3530 H 318.524 4.99523 3.51154 0
M  V30 3531 H 319.938 5.57977 1.3166 0
M  V30 3532 H 318.335 5.96812 0.627286 0
M  V30 3533 H 319.405 4.84358 -0.229168 0
M  V30 3534 N 320.748 -0.0735177 1.57428 0
M  V30 3535 C 321.678 -1.0879 2.06608 0
M  V30 3536 C 322.659 -1.40473 0.959237 0
M  V30 3537 O 323.844 -1.5013 1.23185 0
M  V30 3538 C 320.974 -2.40183 2.50857 0
M  V30 3539 C 319.928 -2.22858 3.65402 0
M  V30 3540 C 319.254 -3.59619 3.957 0
M  V30 3541 C 320.554 -1.65123 4.95511 0
M  V30 3542 H 322.248 -0.678673 2.91607 0
M  V30 3543 H 319.794 -0.325013 1.40284 0
M  V30 3544 H 321.747 -3.11437 2.83874 0
M  V30 3545 H 320.471 -2.83083 1.62885 0
M  V30 3546 H 319.13 -1.54045 3.32664 0
M  V30 3547 H 318.778 -4.00086 3.04861 0
M  V30 3548 H 318.478 -3.48866 4.72828 0
M  V30 3549 H 320.002 -4.32306 4.31212 0
M  V30 3550 H 321.416 -2.26241 5.26771 0
M  V30 3551 H 319.813 -1.65071 5.7695 0
M  V30 3552 H 320.883 -0.612559 4.81015 0
M  V30 3553 N 322.226 -1.5378 -0.344866 0
M  V30 3554 C 323.158 -1.77988 -1.44406 0
M  V30 3555 C 324.171 -0.661138 -1.48771 0
M  V30 3556 O 325.36 -0.937842 -1.51877 0
M  V30 3557 C 322.46 -1.86345 -2.8307 0
M  V30 3558 C 321.633 -3.16256 -3.0216 0
M  V30 3559 C 320.692 -3.15588 -4.21059 0
M  V30 3560 O 319.718 -3.89314 -4.15239 0
M  V30 3561 N 320.92 -2.37864 -5.29529 0
M  V30 3562 H 323.685 -2.72839 -1.24012 0
M  V30 3563 H 321.246 -1.52814 -0.534737 0
M  V30 3564 H 323.238 -1.83351 -3.60783 0
M  V30 3565 H 321.808 -0.986858 -2.96614 0
M  V30 3566 H 321.028 -3.32385 -2.11929 0
M  V30 3567 H 322.316 -4.0207 -3.11797 0
M  V30 3568 H 321.714 -1.77514 -5.37127 0
M  V30 3569 H 320.271 -2.40668 -6.05741 0
M  V30 3570 N 323.704 0.605807 -1.45491 0
M  V30 3571 C 324.932 1.39136 -1.5313 0
M  V30 3572 C 325.347 1.88082 -0.164507 0
M  V30 3573 O 324.704 1.62316 0.834247 0
M  V30 3574 C 324.755 2.59463 -2.51716 0
M  V30 3575 O 324.476 2.12551 -3.83084 0
M  V30 3576 C 325.977 3.52301 -2.6907 0
M  V30 3577 H 323.197 0.425849 -0.51855 0
M  V30 3578 H 325.741 0.73865 -1.90694 0
M  V30 3579 H 323.896 3.20772 -2.17219 0
M  V30 3580 H 324.31 2.90744 -4.36541 0
M  V30 3581 H 325.784 4.33271 -3.42024 0
M  V30 3582 H 326.261 4.02757 -1.75167 0
M  V30 3583 H 326.867 2.96845 -3.04571 0
M  V30 3584 N 325.182 1.32811 0.848464 0
M  V30 3585 C 326.132 1.18842 1.94578 0
M  V30 3586 C 327.116 0.0937517 1.60627 0
M  V30 3587 O 328.308 0.320887 1.74067 0
M  V30 3588 C 325.437 0.91999 3.30743 0
M  V30 3589 C 324.523 2.05665 3.70894 0
M  V30 3590 N 324.914 3.30579 3.8282 0
M  V30 3591 C 323.212 1.9612 4.00566 0
M  V30 3592 C 323.913 4.05067 4.17487 0
M  V30 3593 N 322.889 3.33419 4.2934 0
M  V30 3594 H 326.691 2.13536 2.0194 0
M  V30 3595 H 324.205 1.2468 1.0406 0
M  V30 3596 H 326.202 0.800859 4.09136 0
M  V30 3597 H 324.862 -0.0185076 3.24695 0
M  V30 3598 H 325.873 3.65441 3.66978 0
M  V30 3599 H 322.55 1.09871 4.02784 0
M  V30 3600 H 323.94 5.12815 4.34131 0
M  V30 3601 N 326.66 -1.06551 1.16123 0
M  V30 3602 C 327.592 -2.13908 0.823171 0
M  V30 3603 C 328.605 -1.61926 -0.16843 0
M  V30 3604 O 329.794 -1.78412 0.055962 0
M  V30 3605 C 326.894 -3.38283 0.204424 0
M  V30 3606 C 326.067 -4.19589 1.23548 0
M  V30 3607 C 325.126 -5.2233 0.637011 0
M  V30 3608 O 324.152 -5.54034 1.30516 0
M  V30 3609 N 325.354 -5.77621 -0.577474 0
M  V30 3610 H 328.119 -2.43508 1.74711 0
M  V30 3611 H 325.68 -1.2253 1.05821 0
M  V30 3612 H 327.672 -4.0416 -0.208909 0
M  V30 3613 H 326.242 -3.06329 -0.623012 0
M  V30 3614 H 325.462 -3.49406 1.82507 0
M  V30 3615 H 326.75 -4.70718 1.93137 0
M  V30 3616 H 326.148 -5.54125 -1.13853 0
M  V30 3617 H 324.705 -6.45087 -0.933053 0
M  V30 3618 N 328.138 -0.959301 -1.25041 0
M  V30 3619 C 329.366 -0.633949 -1.96948 0
M  V30 3620 C 329.781 0.794916 -1.7125 0
M  V30 3621 O 329.138 1.53231 -0.991287 0
M  V30 3622 C 329.189 -0.888805 -3.50403 0
M  V30 3623 O 328.91 -2.26149 -3.75218 0
M  V30 3624 C 330.411 -0.576482 -4.39536 0
M  V30 3625 H 327.631 -0.237263 -0.627652 0
M  V30 3626 H 330.175 -1.28495 -1.59089 0
M  V30 3627 H 328.33 -0.284145 -3.86357 0
M  V30 3628 H 328.744 -2.33514 -4.6965 0
M  V30 3629 H 330.218 -0.805314 -5.46094 0
M  V30 3630 H 330.695 0.489075 -4.36468 0
M  V30 3631 H 331.301 -1.16067 -4.09156 0
M  V30 3632 N 329.616 1.39756 -0.72842 0
M  V30 3633 C 330.563 2.30647 -0.0841519 0
M  V30 3634 C 331.533 1.48869 0.7367 0
M  V30 3635 O 332.718 1.77574 0.698015 0
M  V30 3636 C 329.858 3.35165 0.822091 0
M  V30 3637 C 328.971 4.31999 -0.0106663 0
M  V30 3638 C 328.106 5.23585 0.896241 0
M  V30 3639 C 327.145 6.12072 0.0583381 0
M  V30 3640 N 326.282 6.96035 0.920818 0
M  V30 3641 H 331.122 2.85173 -0.864891 0
M  V30 3642 H 328.659 1.40422 -0.438179 0
M  V30 3643 H 330.617 3.94345 1.36189 0
M  V30 3644 H 329.247 2.8211 1.56888 0
M  V30 3645 H 328.299 3.74492 -0.66781 0
M  V30 3646 H 329.611 4.9443 -0.658825 0
M  V30 3647 H 328.765 5.87759 1.50412 0
M  V30 3648 H 327.504 4.61459 1.57819 0
M  V30 3649 H 326.509 5.46916 -0.562389 0
M  V30 3650 H 327.734 6.76261 -0.6203 0
M  V30 3651 H 325.68 6.36485 1.58818 0
M  V30 3652 H 325.597 7.55284 0.32899 0
M  V30 3653 H 326.865 7.64646 1.51447 0
M  V30 3654 N 331.094 0.475555 1.50254 0
M  V30 3655 C 332.004 -0.321501 2.32387 0
M  V30 3656 C 333.02 -0.991755 1.42969 0
M  V30 3657 O 334.196 -0.978747 1.76018 0
M  V30 3658 C 331.261 -1.38667 3.17762 0
M  V30 3659 C 330.322 -0.732538 4.23004 0
M  V30 3660 C 329.555 -1.74695 5.04299 0
M  V30 3661 O 329.778 -2.97399 4.86734 0
M  V30 3662 O 328.712 -1.31631 5.8733 0
M  V30 3663 H 332.538 0.350071 3.01676 0
M  V30 3664 H 330.123 0.237321 1.47503 0
M  V30 3665 H 332.005 -2.00354 3.70724 0
M  V30 3666 H 330.68 -2.04163 2.51196 0
M  V30 3667 H 329.587 -0.0765902 3.74022 0
M  V30 3668 H 330.92 -0.120452 4.92053 0
M  V30 3669 N 332.573 -1.56217 0.208337 0
M  V30 3670 C 333.821 -1.97558 -0.426076 0
M  V30 3671 C 334.142 -1.09683 -1.61229 0
M  V30 3672 O 333.412 -0.170956 -1.95153 0
M  V30 3673 H 331.992 -0.729575 -0.160405 0
M  V30 3674 H 334.654 -1.92606 0.298155 0
M  V30 3675 H 333.75 -3.02672 -0.761312 0
M  V30 3676 N 334.051 0.0651679 -1.57465 0
M  V30 3677 C 334.961 1.09448 -2.07505 0
M  V30 3678 C 335.977 1.41974 -1.00595 0
M  V30 3679 O 337.153 1.52018 -1.32107 0
M  V30 3680 C 334.218 2.38689 -2.51453 0
M  V30 3681 C 333.279 2.13073 -3.72691 0
M  V30 3682 C 332.512 3.36152 -4.14533 0
M  V30 3683 O 332.735 4.45517 -3.56189 0
M  V30 3684 O 331.669 3.23974 -5.07272 0
M  V30 3685 H 335.495 0.69935 -2.95538 0
M  V30 3686 H 333.08 0.279752 -1.46757 0
M  V30 3687 H 334.962 3.14736 -2.80212 0
M  V30 3688 H 333.637 2.77568 -1.66546 0
M  V30 3689 H 332.544 1.34709 -3.49005 0
M  V30 3690 H 333.877 1.79071 -4.5847 0
M  V30 3691 N 335.529 1.53961 0.336706 0
M  V30 3692 C 336.477 1.83136 1.43401 0
M  V30 3693 C 337.471 0.702313 1.54156 0
M  V30 3694 O 338.677 0.885765 1.56698 0
M  V30 3695 H 335.052 0.580309 0.478273 0
M  V30 3696 H 337.023 2.74925 1.16012 0
M  V30 3697 C 335.772 2.06385 2.79822 0
M  V30 3698 H 335.095 2.92718 2.72316 0
M  V30 3699 H 336.535 2.30761 3.55704 0
M  V30 3700 C 334.994 0.851414 3.25964 0
M  V30 3701 O 335.524 0.0541904 4.01663 0
M  V30 3702 N 333.73 0.66672 2.82848 0
M  V30 3703 H 333.277 1.31665 2.21409 0
M  V30 3704 H 333.235 -0.143032 3.14074 0
M  V30 3705 N 337.007 -0.598083 1.45811 0
M  V30 3706 C 338.256 -1.35295 1.49594 0
M  V30 3707 C 338.569 -1.95057 0.145679 0
M  V30 3708 O 339.775 -2.71431 0.0612099 0
M  V30 3709 C 338.231 -2.45124 2.63519 0
M  V30 3710 C 337.839 -1.91732 4.04899 0
M  V30 3711 C 339.583 -3.2205 2.76558 0
M  V30 3712 C 337.49 -2.991 5.1019 0
M  V30 3713 H 336.42 -0.508552 0.556679 0
M  V30 3714 H 339.071 -0.639977 1.71978 0
M  V30 3715 H 337.453 -3.19149 2.34435 0
M  V30 3716 H 338.627 -1.24352 4.43704 0
M  V30 3717 H 336.942 -1.27522 3.96393 0
M  V30 3718 H 339.539 -4.0215 3.52391 0
M  V30 3719 H 339.882 -3.73663 1.83526 0
M  V30 3720 H 340.415 -2.55127 3.05213 0
M  V30 3721 H 337.154 -2.52393 6.04961 0
M  V30 3722 H 336.674 -3.65017 4.75944 0
M  V30 3723 H 338.353 -3.63318 5.35359 0
M  V30 3724 N 338.485 -1.33259 -0.841409 0
M  V30 3725 C 339.901 -1.12538 -1.13169 0
M  V30 3726 C 340.101 0.0854037 -2.01319 0
M  V30 3727 O 339.157 0.766417 -2.40587 0
M  V30 3728 C 340.47 -2.41156 -1.79623 0
M  V30 3729 C 342.018 -2.47038 -1.922 0
M  V30 3730 C 342.493 -3.7561 -2.6207 0
M  V30 3731 N 343.984 -3.76667 -2.69585 0
M  V30 3732 C 344.719 -4.72861 -3.2433 0
M  V30 3733 N 344.215 -5.79428 -3.79783 0
M  V30 3734 N 346.008 -4.6034 -3.22558 0
M  V30 3735 H 338.159 -2.10868 -0.254676 0
M  V30 3736 H 340.422 -0.931615 -0.175493 0
M  V30 3737 H 340.128 -3.29747 -1.22311 0
M  V30 3738 H 340.002 -2.53114 -2.79666 0
M  V30 3739 H 342.389 -1.58898 -2.48667 0
M  V30 3740 H 342.47 -2.39022 -0.911148 0
M  V30 3741 H 342.114 -4.64131 -2.06263 0
M  V30 3742 H 342.044 -3.80902 -3.63622 0
M  V30 3743 H 344.535 -2.99648 -2.30259 0
M  V30 3744 H 344.848 -6.48867 -4.19752 0
M  V30 3745 H 343.193 -5.83166 -3.78078 0
M  V30 3746 H 346.384 -3.76244 -2.78492 0
M  V30 3747 H 346.557 -5.35478 -3.64921 0
M  V30 3748 N 339.963 1.05934 -1.16686 0
M  V30 3749 C 340.893 2.1546 -0.899949 0
M  V30 3750 C 341.874 1.69391 0.155154 0
M  V30 3751 O 343.059 1.94199 0.00648693 0
M  V30 3752 C 340.189 3.44939 -0.404241 0
M  V30 3753 C 339.143 4.04536 -1.39767 0
M  V30 3754 C 338.469 5.29268 -0.760216 0
M  V30 3755 C 339.769 4.42893 -2.76845 0
M  V30 3756 H 341.463 2.38046 -1.81588 0
M  V30 3757 H 339.009 1.14404 -0.874514 0
M  V30 3758 H 340.962 4.20901 -0.204971 0
M  V30 3759 H 339.686 3.21983 0.547206 0
M  V30 3760 H 338.345 3.30635 -1.58355 0
M  V30 3761 H 337.993 5.02611 0.197831 0
M  V30 3762 H 337.693 5.70101 -1.42332 0
M  V30 3763 H 339.217 6.07924 -0.57105 0
M  V30 3764 H 340.631 5.09921 -2.62019 0
M  V30 3765 H 339.028 4.94721 -3.39663 0
M  V30 3766 H 340.098 3.53584 -3.31823 0
M  V30 3767 N 341.441 0.965919 1.2453 0
M  V30 3768 C 342.389 0.486506 2.27455 0
M  V30 3769 C 343.383 -0.449041 1.6334 0
M  V30 3770 O 344.589 -0.324527 1.7705 0
M  V30 3771 H 340.964 0.138857 0.739069 0
M  V30 3772 H 342.935 1.3666 2.65267 0
M  V30 3773 C 341.684 -0.209481 3.47068 0
M  V30 3774 H 341.007 0.50129 3.96645 0
M  V30 3775 H 342.447 -0.508775 4.20936 0
M  V30 3776 C 340.906 -1.43586 3.0477 0
M  V30 3777 O 341.436 -2.53299 3.11773 0
M  V30 3778 N 339.642 -1.30126 2.59838 0
M  V30 3779 H 339.189 -0.408583 2.54339 0
M  V30 3780 H 339.147 -2.12294 2.31902 0
M  V30 3781 N 342.919 -1.39368 0.735821 0
M  V30 3782 C 343.851 -2.2913 0.0567723 0
M  V30 3783 C 344.864 -1.46859 -0.702589 0
M  V30 3784 O 346.053 -1.69925 -0.546616 0
M  V30 3785 C 343.153 -3.25492 -0.943823 0
M  V30 3786 C 342.326 -4.36709 -0.24581 0
M  V30 3787 C 341.385 -5.13376 -1.15463 0
M  V30 3788 O 340.411 -5.65683 -0.631803 0
M  V30 3789 N 341.613 -5.24656 -2.48427 0
M  V30 3790 H 344.378 -2.88047 0.827582 0
M  V30 3791 H 341.939 -1.50957 0.585112 0
M  V30 3792 H 343.931 -3.73657 -1.55443 0
M  V30 3793 H 342.501 -2.676 -1.61583 0
M  V30 3794 H 341.721 -3.9041 0.545286 0
M  V30 3795 H 343.009 -5.08244 0.237891 0
M  V30 3796 H 342.407 -4.83679 -2.93379 0
M  V30 3797 H 340.964 -5.76258 -3.04582 0
M  V30 3798 N 344.397 -0.483516 -1.5 0
M  V30 3799 C 345.643 0.0672592 -2.02688 0
M  V30 3800 C 345.976 1.38247 -1.36387 0
M  V30 3801 O 345.251 1.88131 -0.493675 0
M  V30 3802 C 345.534 0.238109 -3.59312 0
M  V30 3803 C 345.387 -1.099 -4.36168 0
M  V30 3804 C 346.706 0.986916 -4.28892 0
M  V30 3805 H 343.825 0.0229696 -0.736642 0
M  V30 3806 H 346.467 -0.631527 -1.79197 0
M  V30 3807 H 344.617 0.8333 -3.79458 0
M  V30 3808 H 346.289 -1.73172 -4.27562 0
M  V30 3809 H 344.532 -1.69261 -3.99416 0
M  V30 3810 H 345.203 -0.932954 -5.44059 0
M  V30 3811 H 347.679 0.482302 -4.13295 0
M  V30 3812 H 346.555 1.07527 -5.38265 0
M  V30 3813 H 346.816 2.0265 -3.92919 0
M  V30 3814 N 345.875 1.56104 -0.216619 0
M  V30 3815 C 346.823 2.21434 0.712036 0
M  V30 3816 C 347.817 1.19218 1.20348 0
M  V30 3817 O 349.023 1.3731 1.16387 0
M  V30 3818 H 345.398 0.70992 0.248026 0
M  V30 3819 H 347.369 2.98083 0.137558 0
M  V30 3820 C 346.118 2.90434 1.91163 0
M  V30 3821 H 345.441 3.68842 1.54258 0
M  V30 3822 H 346.881 3.39552 2.5393 0
M  V30 3823 C 345.34 1.92635 2.76394 0
M  V30 3824 O 345.87 1.44017 3.74996 0
M  V30 3825 N 344.076 1.60392 2.42328 0
M  V30 3826 H 343.623 2.00122 1.622 0
M  V30 3827 H 343.581 0.952159 2.99635 0
M  V30 3828 N 347.353 -0.0568162 1.57498 0
M  V30 3829 C 348.599 -0.75422 1.88253 0
M  V30 3830 C 348.932 -1.76461 0.810865 0
M  V30 3831 O 348.207 -1.93691 -0.177259 0
M  V30 3832 C 348.49 -1.44878 3.2967 0
M  V30 3833 C 348.343 -0.453789 4.47505 0
M  V30 3834 C 349.662 -2.38994 3.69554 0
M  V30 3835 H 346.781 -0.272724 0.684683 0
M  V30 3836 H 349.423 -0.0172113 1.89992 0
M  V30 3837 H 347.573 -2.077 3.28318 0
M  V30 3838 H 349.245 0.170371 4.60985 0
M  V30 3839 H 347.488 0.229552 4.33192 0
M  V30 3840 H 348.159 -0.977699 5.43273 0
M  V30 3841 H 350.635 -1.86239 3.72095 0
M  V30 3842 H 349.511 -2.84587 4.69363 0
M  V30 3843 H 349.772 -3.24461 3.00296 0
M  V30 3844 N 348.832 -1.54138 -0.328536 0
M  V30 3845 C 350.06 -1.76062 -1.08673 0
M  V30 3846 C 350.475 -0.506852 -1.81869 0
M  V30 3847 O 349.832 0.522223 -1.74869 0
M  V30 3848 C 349.883 -2.95054 -2.08866 0
M  V30 3849 O 349.604 -4.15583 -1.38644 0
M  V30 3850 C 351.105 -3.2915 -2.96943 0
M  V30 3851 H 348.325 -0.587889 -0.323461 0
M  V30 3852 H 350.869 -2.0101 -0.376175 0
M  V30 3853 H 349.024 -2.72394 -2.75464 0
M  V30 3854 H 349.438 -4.82481 -2.05699 0
M  V30 3855 H 350.912 -4.15723 -3.63151 0
M  V30 3856 H 351.389 -2.461 -3.63774 0
M  V30 3857 H 351.995 -3.53871 -2.35914 0
M  V30 3858 N 350.31 0.590341 -1.46126 0
M  V30 3859 C 351.557 1.34882 -1.5104 0
M  V30 3860 C 351.885 1.93849 -0.159021 0
M  V30 3861 O 351.14 1.76544 0.844436 0
M  V30 3862 C 351.439 2.5032 -2.55097 0
M  V30 3863 C 351.105 2.09394 -3.99331 0
M  V30 3864 C 349.767 1.97947 -4.38601 0
M  V30 3865 C 352.119 1.77712 -4.89967 0
M  V30 3866 C 349.447 1.53065 -5.66381 0
M  V30 3867 C 351.799 1.34312 -6.18177 0
M  V30 3868 C 350.463 1.21436 -6.56361 0
M  V30 3869 H 349.733 0.493568 -0.552695 0
M  V30 3870 H 352.38 0.665539 -1.79563 0
M  V30 3871 H 350.685 3.24062 -2.20207 0
M  V30 3872 H 352.382 3.08541 -2.56132 0
M  V30 3873 H 348.972 2.19235 -3.68285 0
M  V30 3874 H 353.156 1.85445 -4.60352 0
M  V30 3875 H 348.412 1.41733 -5.94745 0
M  V30 3876 H 352.586 1.08849 -6.87841 0
M  V30 3877 H 350.213 0.864345 -7.5527 0
M  V30 3878 N 351.788 1.33704 0.83433 0
M  V30 3879 C 352.72 1.20172 1.9517 0
M  V30 3880 C 353.733 0.131572 1.62267 0
M  V30 3881 O 354.922 0.382406 1.74356 0
M  V30 3882 C 352.022 0.821716 3.28787 0
M  V30 3883 C 351.195 1.98446 3.89792 0
M  V30 3884 C 350.254 1.58469 5.01771 0
M  V30 3885 O 349.28 2.29968 5.20676 0
M  V30 3886 N 350.482 0.492291 5.78409 0
M  V30 3887 H 353.247 2.16429 2.07313 0
M  V30 3888 H 350.808 1.26509 1.0103 0
M  V30 3889 H 352.8 0.536291 4.01131 0
M  V30 3890 H 351.37 -0.0503058 3.1256 0
M  V30 3891 H 350.59 2.43526 3.09982 0
M  V30 3892 H 351.878 2.76236 4.27283 0
M  V30 3893 H 351.276 -0.102349 5.65607 0
M  V30 3894 H 349.833 0.266555 6.51255 0
M  V30 3895 N 353.266 -1.05314 1.17247 0
M  V30 3896 C 354.512 -1.78557 0.961513 0
M  V30 3897 C 354.845 -1.87419 -0.508697 0
M  V30 3898 O 354.12 -1.37307 -1.37757 0
M  V30 3899 C 354.403 -3.22514 1.60176 0
M  V30 3900 C 354.256 -3.21673 3.14399 0
M  V30 3901 C 355.575 -4.20318 1.30463 0
M  V30 3902 H 352.694 -0.6482 0.350723 0
M  V30 3903 H 355.336 -1.23102 1.44727 0
M  V30 3904 H 353.486 -3.69867 1.18871 0
M  V30 3905 H 355.158 -2.82405 3.64753 0
M  V30 3906 H 353.401 -2.60048 3.47214 0
M  V30 3907 H 354.072 -4.23271 3.54324 0
M  V30 3908 H 356.548 -3.81454 1.66229 0
M  V30 3909 H 355.424 -5.19289 1.77848 0
M  V30 3910 H 355.685 -4.41526 0.22521 0
M  V30 3911 N 354.744 -0.972509 -1.24016 0
M  V30 3912 C 356.021 -0.553733 -1.87598 0
M  V30 3913 C 356.401 0.969158 -1.87538 0
M  V30 3914 O 355.749 1.84255 -1.35139 0
M  V30 3915 C 355.959 -1.15076 -3.29482 0
M  V30 3916 C 357.307 -1.23862 -4.06132 0
M  V30 3917 O 358.331 -1.10363 -3.38672 0
M  V30 3918 O 357.19 -1.45252 -5.26844 0
M  V30 3919 H 354.284 -0.185331 -0.805966 0
M  V30 3920 H 356.83 -1.06709 -1.31952 0
M  V30 3921 H 355.602 -2.19333 -3.2405 0
M  V30 3922 H 355.225 -0.621746 -3.92709 0
M  V30 3923 N 356.222 1.38976 -0.743202 0
M  V30 3924 C 357.45 2.04636 -0.30525 0
M  V30 3925 C 357.865 1.56044 1.06281 0
M  V30 3926 O 357.222 0.728921 1.67311 0
M  V30 3927 C 357.273 3.60193 -0.307177 0
M  V30 3928 O 356.994 4.06998 -1.62124 0
M  V30 3929 C 358.495 4.4306 0.145928 0
M  V30 3930 H 355.715 0.65788 -0.132041 0
M  V30 3931 H 358.259 1.77866 -1.00915 0
M  V30 3932 H 356.414 3.85835 0.347898 0
M  V30 3933 H 356.828 5.01371 -1.54036 0
M  V30 3934 H 358.302 5.51921 0.0934183 0
M  V30 3935 H 358.779 4.22706 1.19231 0
M  V30 3936 H 359.385 4.22584 -0.479886 0
M  V30 3937 N 357.7 0.491464 1.49741 0
M  V30 3938 C 358.663 -0.280906 2.27472 0
M  V30 3939 C 359.663 -0.902454 1.33088 0
M  V30 3940 O 360.853 -0.768465 1.56334 0
M  V30 3941 C 357.985 -1.40209 3.10732 0
M  V30 3942 H 359.178 0.401056 2.97206 0
M  V30 3943 H 356.731 0.246131 1.5435 0
M  V30 3944 H 357.466 -2.11849 2.45541 0
M  V30 3945 H 357.251 -0.961969 3.80117 0
M  V30 3946 H 358.741 -1.9464 3.69466 0
M  V30 3947 N 359.178 -1.55987 0.224894 0
M  V30 3948 C 360.403 -2.03232 -0.41369 0
M  V30 3949 C 360.828 -1.10359 -1.52323 0
M  V30 3950 O 360.186 -0.092395 -1.81064 0
M  V30 3951 C 360.234 -3.48682 -0.919405 0
M  V30 3952 O 359.338 -3.58947 -2.03054 0
M  V30 3953 H 358.679 -0.657428 -0.0931903 0
M  V30 3954 H 361.209 -2.01679 0.34451 0
M  V30 3955 H 361.219 -3.8907 -1.22835 0
M  V30 3956 H 359.894 -4.15761 -0.107339 0
M  V30 3957 H 358.471 -3.30448 -1.72796 0
M  V30 3958 N 360.656 0.0484629 -1.57525 0
M  V30 3959 C 361.933 0.777447 -1.79486 0
M  V30 3960 C 362.313 1.94597 -0.818251 0
M  V30 3961 O 361.661 2.28047 0.143767 0
M  V30 3962 C 361.871 1.22864 -3.26658 0
M  V30 3963 C 363.219 1.65251 -3.91123 0
M  V30 3964 O 364.243 1.32372 -3.3069 0
M  V30 3965 O 363.102 2.26207 -4.97486 0
M  V30 3966 H 360.196 0.374357 -0.737419 0
M  V30 3967 H 362.742 0.0267359 -1.69679 0
M  V30 3968 H 361.514 0.393589 -3.89316 0
M  V30 3969 H 361.137 2.03996 -3.41279 0
M  V30 3970 N 362.134 1.5431 0.320358 0
M  V30 3971 C 363.359 1.76954 1.08175 0
M  V30 3972 C 363.784 0.518193 1.80821 0
M  V30 3973 O 363.142 -0.530411 1.73368 0
M  V30 3974 C 363.19 2.96451 2.05303 0
M  V30 3975 O 362.294 2.68221 3.13259 0
M  V30 3976 H 361.635 0.586275 0.311733 0
M  V30 3977 H 364.165 2.01342 0.363676 0
M  V30 3978 H 364.175 3.23887 2.48116 0
M  V30 3979 H 362.85 3.87196 1.51829 0
M  V30 3980 H 361.427 2.51744 2.75099 0
M  V30 3981 N 363.613 -0.582584 1.46437 0
M  V30 3982 C 365.024 -1.1647 1.45916 0
M  V30 3983 C 365.375 -1.95177 0.200077 0
M  V30 3984 O 364.5 -2.04874 -0.696819 0
M  V30 3985 C 365.095 -2.11885 2.64367 0
M  V30 3986 C 363.654 -2.65421 2.66887 0
M  V30 3987 C 362.801 -1.41294 2.38603 0
M  V30 3988 H 365.752 -0.370514 1.54314 0
M  V30 3989 H 365.773 -2.9535 2.39892 0
M  V30 3990 H 365.285 -1.54573 3.5599 0
M  V30 3991 H 363.386 -3.26602 1.79338 0
M  V30 3992 H 363.499 -3.08147 3.66854 0
M  V30 3993 H 361.863 -1.71109 1.88663 0
M  V30 3994 H 362.646 -0.858125 3.32402 0
M  V30 3995 N 365.091 -1.34144 -0.827227 0
M  V30 3996 C 366.338 -1.26258 -1.58319 0
M  V30 3997 C 366.666 0.168595 -1.93768 0
M  V30 3998 O 365.921 1.12877 -1.59866 0
M  V30 3999 C 366.22 -2.09464 -2.89585 0
M  V30 4000 C 365.886 -3.58521 -2.73448 0
M  V30 4001 C 364.548 -3.99155 -2.68754 0
M  V30 4002 C 366.9 -4.53189 -2.57428 0
M  V30 4003 C 364.228 -5.32656 -2.45957 0
M  V30 4004 C 366.58 -5.86864 -2.36163 0
M  V30 4005 C 365.244 -6.26667 -2.29879 0
M  V30 4006 H 364.514 -0.462013 -0.579332 0
M  V30 4007 H 367.161 -1.65845 -0.95748 0
M  V30 4008 H 365.466 -1.62692 -3.56425 0
M  V30 4009 H 367.163 -2.00712 -3.47154 0
M  V30 4010 H 363.753 -3.26264 -2.77939 0
M  V30 4011 H 367.937 -4.22696 -2.60081 0
M  V30 4012 H 363.193 -5.62519 -2.39546 0
M  V30 4013 H 367.367 -6.59813 -2.22754 0
M  V30 4014 H 364.994 -7.30049 -2.11975 0
M  V30 4015 N 366.569 1.04691 -1.17803 0
M  V30 4016 C 367.499 2.14494 -0.92275 0
M  V30 4017 C 368.48 1.69546 0.137179 0
M  V30 4018 O 369.665 1.94195 -0.0141108 0
M  V30 4019 C 366.795 3.44491 -0.440803 0
M  V30 4020 C 365.749 4.03031 -1.4405 0
M  V30 4021 C 365.075 5.28432 -0.81631 0
M  V30 4022 C 366.375 4.39932 -2.81527 0
M  V30 4023 H 368.069 2.36107 -1.84103 0
M  V30 4024 H 365.615 1.1347 -0.886599 0
M  V30 4025 H 367.568 4.2066 -0.249602 0
M  V30 4026 H 366.292 3.22546 0.513025 0
M  V30 4027 H 364.951 3.28937 -1.61853 0
M  V30 4028 H 364.599 5.02792 0.144511 0
M  V30 4029 H 364.299 5.68559 -1.48371 0
M  V30 4030 H 365.823 6.07284 -0.635496 0
M  V30 4031 H 367.237 5.07113 -2.67412 0
M  V30 4032 H 365.634 4.9109 -3.44892 0
M  V30 4033 H 366.704 3.50045 -3.35554 0
M  V30 4034 N 368.047 0.979072 1.23499 0
M  V30 4035 C 369.296 0.642751 1.91185 0
M  V30 4036 C 369.609 -0.827253 1.77245 0
M  V30 4037 O 370.815 -1.27458 2.39722 0
M  V30 4038 C 369.271 1.09901 3.42709 0
M  V30 4039 C 368.879 2.59327 3.65313 0
M  V30 4040 C 370.623 0.836371 4.16179 0
M  V30 4041 C 368.53 2.98627 5.10467 0
M  V30 4042 H 367.46 0.236698 0.715884 0
M  V30 4043 H 370.111 1.1868 1.39955 0
M  V30 4044 H 368.493 0.48319 3.93041 0
M  V30 4045 H 369.667 3.26136 3.25533 0
M  V30 4046 H 367.982 2.83323 3.05151 0
M  V30 4047 H 370.579 1.10586 5.23139 0
M  V30 4048 H 370.922 -0.227509 4.15678 0
M  V30 4049 H 371.455 1.41371 3.71832 0
M  V30 4050 H 368.194 4.04133 5.16098 0
M  V30 4051 H 367.714 2.3651 5.51201 0
M  V30 4052 H 369.393 2.89159 5.78788 0
M  V30 4053 N 369.525 -1.3858 0.750561 0
M  V30 4054 C 370.455 -2.33102 0.136237 0
M  V30 4055 C 371.436 -1.54713 -0.706965 0
M  V30 4056 O 372.621 -1.83043 -0.648769 0
M  V30 4057 C 369.751 -3.38882 -0.760017 0
M  V30 4058 C 368.705 -4.27995 -0.0197785 0
M  V30 4059 C 368.031 -5.24605 -1.03408 0
M  V30 4060 C 369.331 -5.09554 1.14684 0
M  V30 4061 H 371.025 -2.84726 0.925822 0
M  V30 4062 H 368.571 -1.36898 0.446654 0
M  V30 4063 H 370.524 -4.0397 -1.19943 0
M  V30 4064 H 369.248 -2.85734 -1.58189 0
M  V30 4065 H 367.907 -3.64409 0.400184 0
M  V30 4066 H 367.555 -4.67746 -1.84994 0
M  V30 4067 H 367.255 -5.85081 -0.543464 0
M  V30 4068 H 368.779 -5.9257 -1.47288 0
M  V30 4069 H 370.193 -5.67899 0.785118 0
M  V30 4070 H 368.59 -5.7925 1.56812 0
M  V30 4071 H 369.66 -4.4347 1.96118 0
M  V30 4072 N 371.003 -0.499398 -1.49478 0
M  V30 4073 C 372.414 -0.051215 -1.8663 0
M  V30 4074 C 372.765 1.36238 -1.41186 0
M  V30 4075 O 371.89 2.01502 -0.789051 0
M  V30 4076 C 372.485 -0.0861651 -3.3869 0
M  V30 4077 C 371.044 0.30667 -3.75149 0
M  V30 4078 C 370.191 -0.459397 -2.73468 0
M  V30 4079 H 373.142 -0.712264 -1.41818 0
M  V30 4080 H 373.163 0.709507 -3.73826 0
M  V30 4081 H 372.675 -1.11512 -3.71735 0
M  V30 4082 H 370.776 1.33892 -3.47712 0
M  V30 4083 H 370.889 -0.0116669 -4.79099 0
M  V30 4084 H 369.253 0.0905645 -2.54539 0
M  V30 4085 H 370.036 -1.4884 -3.09357 0
M  V30 4086 N 372.481 1.55866 -0.233164 0
M  V30 4087 C 373.411 2.23783 0.666599 0
M  V30 4088 C 374.392 1.21343 1.19205 0
M  V30 4089 O 375.577 1.4996 1.23392 0
M  V30 4090 C 372.707 2.92671 1.86978 0
M  V30 4091 C 371.661 4.01682 1.47768 0
M  V30 4092 C 370.987 4.57926 2.76058 0
M  V30 4093 C 372.287 5.18126 0.658993 0
M  V30 4094 H 373.981 2.99232 0.100306 0
M  V30 4095 H 371.527 1.43924 0.046804 0
M  V30 4096 H 373.48 3.3888 2.50476 0
M  V30 4097 H 372.204 2.14688 2.46123 0
M  V30 4098 H 370.863 3.56222 0.866106 0
M  V30 4099 H 370.511 3.76659 3.33372 0
M  V30 4100 H 370.211 5.31505 2.50552 0
M  V30 4101 H 371.735 5.06859 3.40479 0
M  V30 4102 H 373.149 5.60644 1.19795 0
M  V30 4103 H 371.546 5.98009 0.500552 0
M  V30 4104 H 372.616 4.83763 -0.331856 0
M  V30 4105 N 373.959 -0.0401083 1.57549 0
M  V30 4106 C 375.187 -0.745196 1.93014 0
M  V30 4107 C 375.602 -1.6948 0.831984 0
M  V30 4108 O 374.959 -1.81482 -0.192463 0
M  V30 4109 C 375.01 -1.51176 3.28372 0
M  V30 4110 O 374.731 -0.600284 4.33968 0
M  V30 4111 C 376.232 -2.315 3.78051 0
M  V30 4112 H 373.452 -0.210088 0.637263 0
M  V30 4113 H 375.996 -0.000924689 2.045 0
M  V30 4114 H 374.151 -2.20801 3.18317 0
M  V30 4115 H 374.565 -1.13669 5.12035 0
M  V30 4116 H 376.039 -2.80697 4.75303 0
M  V30 4117 H 376.516 -3.12436 3.08675 0
M  V30 4118 H 377.122 -1.66971 3.91153 0
M  V30 4119 N 375.437 -1.54477 -0.31217 0
M  V30 4120 C 376.684 -1.73227 -1.04875 0
M  V30 4121 C 377.012 -0.512042 -1.87639 0
M  V30 4122 O 376.267 0.506131 -1.89042 0
M  V30 4123 C 376.566 -2.967 -1.99258 0
M  V30 4124 C 376.232 -4.30974 -1.32559 0
M  V30 4125 C 374.894 -4.67477 -1.141 0
M  V30 4126 C 377.246 -5.14258 -0.847835 0
M  V30 4127 C 374.574 -5.84852 -0.465326 0
M  V30 4128 C 376.926 -6.32327 -0.185931 0
M  V30 4129 C 375.59 -6.67499 0.0107077 0
M  V30 4130 H 374.86 -0.633881 -0.383765 0
M  V30 4131 H 377.507 -1.88727 -0.324731 0
M  V30 4132 H 375.812 -2.75935 -2.7815 0
M  V30 4133 H 377.509 -3.08401 -2.563 0
M  V30 4134 H 374.099 -4.02262 -1.4793 0
M  V30 4135 H 378.283 -4.86565 -0.978192 0
M  V30 4136 H 373.539 -6.10654 -0.301883 0
M  V30 4137 H 377.713 -6.96135 0.192211 0
M  V30 4138 H 375.34 -7.58306 0.536287 0
M  V30 4139 N 376.915 0.57481 -1.46744 0
M  V30 4140 C 378.145 1.35659 -1.55821 0
M  V30 4141 C 378.553 1.88129 -0.201036 0
M  V30 4142 O 377.896 1.64723 0.813134 0
M  V30 4143 C 377.958 2.57473 -2.50894 0
M  V30 4144 C 377.622 2.26415 -3.9697 0
M  V30 4145 C 378.619 1.84771 -4.85958 0
M  V30 4146 C 376.304 2.38316 -4.42166 0
M  V30 4147 C 378.298 1.55434 -6.18158 0
M  V30 4148 C 375.985 2.08591 -5.74398 0
M  V30 4149 C 376.983 1.67216 -6.62214 0
M  V30 4150 O 376.671 1.37859 -7.91991 0
M  V30 4151 H 376.403 0.420496 -0.529301 0
M  V30 4152 H 378.957 0.704967 -1.92923 0
M  V30 4153 H 377.187 3.25468 -2.08824 0
M  V30 4154 H 378.876 3.19546 -2.50291 0
M  V30 4155 H 379.642 1.75085 -4.52295 0
M  V30 4156 H 375.521 2.69483 -3.74032 0
M  V30 4157 H 379.065 1.23065 -6.86659 0
M  V30 4158 H 374.962 2.17905 -6.07608 0
M  V30 4159 H 375.73 1.51638 -8.04331 0
M  V30 4160 N 378.394 1.34581 0.820102 0
M  V30 4161 C 379.344 1.22943 1.92013 0
M  V30 4162 C 380.328 0.127802 1.60392 0
M  V30 4163 O 381.52 0.357737 1.73347 0
M  V30 4164 C 378.649 0.989938 3.28717 0
M  V30 4165 C 377.735 2.13486 3.66449 0
M  V30 4166 N 378.126 3.38625 3.75722 0
M  V30 4167 C 376.424 2.04573 3.96315 0
M  V30 4168 C 377.125 4.13832 4.08801 0
M  V30 4169 N 376.101 3.42451 4.22171 0
M  V30 4170 H 379.903 2.17771 1.97365 0
M  V30 4171 H 377.417 1.2686 1.01392 0
M  V30 4172 H 379.414 0.887462 4.07345 0
M  V30 4173 H 378.074 0.0503691 3.24661 0
M  V30 4174 H 379.085 3.73143 3.59144 0
M  V30 4175 H 375.762 1.1839 4.00362 0
M  V30 4176 H 377.152 5.21909 4.23156 0
M  V30 4177 N 379.872 -1.04064 1.18357 0
M  V30 4178 C 381.118 -1.77528 0.980397 0
M  V30 4179 C 381.451 -1.87948 -0.48879 0
M  V30 4180 O 380.726 -1.3876 -1.36293 0
M  V30 4181 C 381.009 -3.20797 1.63588 0
M  V30 4182 C 380.862 -3.1832 3.17793 0
M  V30 4183 C 382.181 -4.18911 1.34914 0
M  V30 4184 H 379.3 -0.644443 0.357578 0
M  V30 4185 H 381.942 -1.2156 1.46024 0
M  V30 4186 H 380.092 -3.68586 1.22788 0
M  V30 4187 H 381.764 -2.78521 3.67728 0
M  V30 4188 H 380.007 -2.56351 3.49952 0
M  V30 4189 H 380.678 -4.19489 3.58794 0
M  V30 4190 H 383.154 -3.7967 1.70265 0
M  V30 4191 H 382.03 -5.17374 1.83346 0
M  V30 4192 H 382.291 -4.41262 0.272027 0
M  V30 4193 N 381.35 -0.985608 -1.22978 0
M  V30 4194 C 382.596 -0.65836 -1.91816 0
M  V30 4195 C 382.929 0.806692 -1.76653 0
M  V30 4196 O 382.204 1.58252 -1.13078 0
M  V30 4197 C 382.487 -1.056 -3.44268 0
M  V30 4198 C 382.34 -2.57906 -3.68516 0
M  V30 4199 C 383.659 -0.603781 -4.35939 0
M  V30 4200 H 380.778 -0.24065 -0.696604 0
M  V30 4201 H 383.42 -1.22783 -1.44998 0
M  V30 4202 H 381.57 -0.571445 -3.84274 0
M  V30 4203 H 383.242 -3.13976 -3.3796 0
M  V30 4204 H 381.485 -3.00305 -3.13048 0
M  V30 4205 H 382.156 -2.80779 -4.75255 0
M  V30 4206 H 384.632 -1.01987 -4.03408 0
M  V30 4207 H 383.508 -0.910383 -5.41298 0
M  V30 4208 H 383.769 0.495761 -4.39312 0
M  V30 4209 N 382.828 1.3818 -0.7579 0
M  V30 4210 C 384.105 1.94106 -0.241306 0
M  V30 4211 C 384.485 1.69282 1.26122 0
M  V30 4212 O 383.833 1.03378 2.03777 0
M  V30 4213 C 384.043 3.43809 -0.59967 0
M  V30 4214 C 385.391 4.20868 -0.561717 0
M  V30 4215 O 386.415 3.5211 -0.538222 0
M  V30 4216 O 385.274 5.43451 -0.576478 0
M  V30 4217 H 382.368 0.825376 -0.0518042 0
M  V30 4218 H 384.914 1.47548 -0.838315 0
M  V30 4219 H 383.686 3.55403 -1.6372 0
M  V30 4220 H 383.309 3.97592 0.0251197 0
M  V30 4221 N 384.306 0.507319 1.49211 0
M  V30 4222 C 385.216 -0.272136 2.33016 0
M  V30 4223 C 386.232 -0.961206 1.45041 0
M  V30 4224 O 387.408 -0.941191 1.78055 0
M  V30 4225 C 384.473 -1.31895 3.20631 0
M  V30 4226 C 383.534 -0.642648 4.24463 0
M  V30 4227 C 382.767 -1.63959 5.07891 0
M  V30 4228 O 382.99 -2.87007 4.92933 0
M  V30 4229 O 381.924 -1.19143 5.8999 0
M  V30 4230 H 385.75 0.413982 3.00865 0
M  V30 4231 H 383.335 0.268556 1.46966 0
M  V30 4232 H 385.217 -1.92446 3.7489 0
M  V30 4233 H 383.892 -1.98788 2.5547 0
M  V30 4234 H 382.799 0.00276252 3.741 0
M  V30 4235 H 384.132 -0.0160534 4.92197 0
M  V30 4236 N 385.784 -1.5574 0.241426 0
M  V30 4237 C 387.012 -2.03208 -0.389134 0
M  V30 4238 C 387.427 -1.12082 -1.51931 0
M  V30 4239 O 386.784 -0.134183 -1.82006 0
M  V30 4240 C 386.835 -3.50064 -0.902087 0
M  V30 4241 O 386.556 -4.37717 0.18305 0
M  V30 4242 C 388.057 -4.13268 -1.60389 0
M  V30 4243 H 385.277 -0.664509 -0.0931053 0
M  V30 4244 H 387.821 -2.0124 0.36369 0
M  V30 4245 H 385.976 -3.52583 -1.60511 0
M  V30 4246 H 386.39 -5.24097 -0.205579 0
M  V30 4247 H 387.864 -5.17733 -1.91458 0
M  V30 4248 H 388.341 -3.59434 -2.52397 0
M  V30 4249 H 388.947 -4.14655 -0.945576 0
M  V30 4250 N 387.262 0.0317525 -1.57568 0
M  V30 4251 C 388.487 0.738664 -1.938 0
M  V30 4252 C 388.912 1.68242 -0.841208 0
M  V30 4253 O 388.27 1.80157 0.203267 0
M  V30 4254 C 388.318 1.47417 -3.29091 0
M  V30 4255 O 387.422 2.5872 -3.2115 0
M  V30 4256 H 386.763 0.198856 -0.633524 0
M  V30 4257 H 389.293 -0.0119713 -2.04596 0
M  V30 4258 H 389.303 1.84468 -3.63917 0
M  V30 4259 H 387.978 0.781988 -4.08482 0
M  V30 4260 H 386.555 2.24231 -2.97951 0
M  V30 4261 N 388.74 1.54641 0.303973 0
M  V30 4262 C 390.151 1.64811 0.877163 0
M  V30 4263 C 390.502 0.554838 1.88191 0
M  V30 4264 O 389.627 -0.309033 2.14182 0
M  V30 4265 C 390.222 2.9876 1.59775 0
M  V30 4266 C 388.781 3.11061 2.11938 0
M  V30 4267 C 387.928 2.60479 0.951097 0
M  V30 4268 H 390.879 1.58493 0.0810486 0
M  V30 4269 H 390.9 2.90017 2.46314 0
M  V30 4270 H 390.412 3.7831 0.866226 0
M  V30 4271 H 388.513 2.36225 2.88146 0
M  V30 4272 H 388.626 4.17171 2.35595 0
M  V30 4273 H 386.99 2.16859 1.33583 0
M  V30 4274 H 387.773 3.42504 0.233581 0
M  V30 4275 N 390.218 -0.567019 1.47046 0
M  V30 4276 C 391.148 -1.68482 1.61667 0
M  V30 4277 C 392.129 -1.6358 0.466418 0
M  V30 4278 O 393.314 -1.81354 0.694574 0
M  V30 4279 C 390.444 -3.07124 1.62148 0
M  V30 4280 C 389.398 -3.26867 2.76301 0
M  V30 4281 C 388.724 -4.66196 2.61849 0
M  V30 4282 C 390.024 -3.13186 4.17986 0
M  V30 4283 H 391.718 -1.56502 2.5524 0
M  V30 4284 H 389.264 -0.751486 1.22836 0
M  V30 4285 H 391.217 -3.8516 1.70968 0
M  V30 4286 H 389.941 -3.2004 0.651287 0
M  V30 4287 H 388.6 -2.51237 2.66975 0
M  V30 4288 H 388.248 -4.75898 1.62879 0
M  V30 4289 H 387.948 -4.80356 3.38425 0
M  V30 4290 H 389.472 -5.46379 2.72584 0
M  V30 4291 H 390.886 -3.81049 4.2834 0
M  V30 4292 H 389.283 -3.3886 4.95272 0
M  V30 4293 H 390.353 -2.10057 4.3704 0
M  V30 4294 N 391.696 -1.35014 -0.812953 0
M  V30 4295 C 392.643 -1.27412 -1.92444 0
M  V30 4296 C 393.613 -0.14733 -1.65445 0
M  V30 4297 O 394.798 -0.329974 -1.87925 0
M  V30 4298 C 391.938 -1.04558 -3.28879 0
M  V30 4299 C 391.051 -2.26101 -3.68106 0
M  V30 4300 C 390.186 -1.96449 -4.9354 0
M  V30 4301 C 389.225 -3.14081 -5.25376 0
M  V30 4302 N 388.362 -2.84246 -6.41988 0
M  V30 4303 H 393.202 -2.22463 -1.98278 0
M  V30 4304 H 390.739 -1.10593 -0.969933 0
M  V30 4305 H 392.697 -0.893413 -4.07522 0
M  V30 4306 H 391.327 -0.131719 -3.22531 0
M  V30 4307 H 390.379 -2.52204 -2.84775 0
M  V30 4308 H 391.691 -3.13959 -3.87597 0
M  V30 4309 H 390.845 -1.78026 -5.79993 0
M  V30 4310 H 389.584 -1.05867 -4.76071 0
M  V30 4311 H 388.589 -3.33089 -4.37415 0
M  V30 4312 H 389.814 -4.05455 -5.44778 0
M  V30 4313 H 387.76 -1.96252 -6.25956 0
M  V30 4314 H 387.677 -3.65637 -6.61699 0
M  V30 4315 H 388.945 -2.6935 -7.31485 0
M  V30 4316 N 393.175 1.03435 -1.18907 0
M  V30 4317 C 394.452 1.73778 -0.89781 0
M  V30 4318 C 394.832 2.02458 0.597832 0
M  V30 4319 O 394.18 1.67482 1.55441 0
M  V30 4320 C 394.39 3.01845 -1.75187 0
M  V30 4321 C 395.738 3.7546 -1.9828 0
M  V30 4322 O 396.762 3.11759 -1.72293 0
M  V30 4323 O 395.621 4.89966 -2.42065 0
M  V30 4324 H 392.715 0.75651 -0.334098 0
M  V30 4325 H 395.261 1.09444 -1.29693 0
M  V30 4326 H 394.033 2.76836 -2.76545 0
M  V30 4327 H 393.656 3.73919 -1.35167 0
M  V30 4328 N 394.653 0.992116 1.22453 0
M  V30 4329 C 395.583 0.561677 2.26644 0
M  V30 4330 C 396.564 -0.411055 1.65059 0
M  V30 4331 O 397.749 -0.301861 1.9184 0
M  V30 4332 C 394.879 -0.125247 3.47074 0
M  V30 4333 C 393.833 0.765948 4.21091 0
M  V30 4334 C 393.159 -0.0538484 5.34673 0
M  V30 4335 C 394.459 2.06242 4.79856 0
M  V30 4336 H 396.153 1.43259 2.62902 0
M  V30 4337 H 393.699 0.690283 1.26377 0
M  V30 4338 H 395.652 -0.437764 4.1912 0
M  V30 4339 H 394.376 -1.03069 3.0991 0
M  V30 4340 H 393.035 1.0621 3.50878 0
M  V30 4341 H 392.683 -0.960188 4.9375 0
M  V30 4342 H 392.383 0.539415 5.85119 0
M  V30 4343 H 393.907 -0.360477 6.09535 0
M  V30 4344 H 395.321 1.8139 5.43848 0
M  V30 4345 H 393.718 2.60444 5.40638 0
M  V30 4346 H 394.788 2.74167 3.99951 0
M  V30 4347 N 396.131 -1.37776 0.765217 0
M  V30 4348 C 397.542 -1.82521 0.392819 0
M  V30 4349 C 397.893 -1.63789 -1.08017 0
M  V30 4350 O 397.018 -1.14542 -1.83601 0
M  V30 4351 C 397.613 -3.31358 0.706214 0
M  V30 4352 C 396.172 -3.74406 0.386952 0
M  V30 4353 C 395.319 -2.60394 0.953422 0
M  V30 4354 H 398.27 -1.2634 0.960412 0
M  V30 4355 H 398.291 -3.80498 -0.0114706 0
M  V30 4356 H 397.803 -3.44959 1.77833 0
M  V30 4357 H 395.904 -3.66377 -0.678112 0
M  V30 4358 H 396.017 -4.70749 0.890636 0
M  V30 4359 H 394.381 -2.51878 0.378064 0
M  V30 4360 H 395.164 -2.76791 2.03081 0
M  V30 4361 N 397.609 -0.515225 -1.4894 0
M  V30 4362 C 398.539 0.244628 -2.32215 0
M  V30 4363 C 399.52 0.949136 -1.41157 0
M  V30 4364 O 400.705 0.937783 -1.70057 0
M  V30 4365 C 397.835 1.30096 -3.22013 0
M  V30 4366 C 396.789 0.715486 -4.21977 0
M  V30 4367 C 396.115 1.87339 -5.00808 0
M  V30 4368 C 397.415 -0.302982 -5.2142 0
M  V30 4369 H 399.109 -0.450501 -2.95991 0
M  V30 4370 H 396.655 -0.218098 -1.42339 0
M  V30 4371 H 398.608 1.84037 -3.79089 0
M  V30 4372 H 397.332 2.02547 -2.56207 0
M  V30 4373 H 395.991 0.197715 -3.66066 0
M  V30 4374 H 395.639 2.58592 -4.31438 0
M  V30 4375 H 395.339 1.48764 -5.68457 0
M  V30 4376 H 396.863 2.41686 -5.60732 0
M  V30 4377 H 398.277 0.148802 -5.73107 0
M  V30 4378 H 396.674 -0.60532 -5.97039 0
M  V30 4379 H 397.744 -1.21395 -4.69459 0
M  V30 4380 N 399.087 1.5561 -0.249682 0
M  V30 4381 C 400.503 1.59254 0.105103 0
M  V30 4382 C 400.703 1.26685 1.56694 0
M  V30 4383 O 399.759 1.0155 2.31179 0
M  V30 4384 C 401.072 2.99687 -0.246592 0
M  V30 4385 C 402.62 3.12416 -0.191118 0
M  V30 4386 C 403.095 4.55074 -0.516885 0
M  V30 4387 N 404.586 4.60835 -0.467489 0
M  V30 4388 C 405.321 5.69201 -0.69268 0
M  V30 4389 N 404.817 6.85817 -0.981146 0
M  V30 4390 N 406.61 5.58635 -0.623198 0
M  V30 4391 H 398.761 1.75049 -1.20298 0
M  V30 4392 H 401.024 0.815003 -0.484225 0
M  V30 4393 H 400.73 3.28267 -1.26228 0
M  V30 4394 H 400.604 3.74798 0.424962 0
M  V30 4395 H 402.991 2.83615 0.815247 0
M  V30 4396 H 403.072 2.39573 -0.896563 0
M  V30 4397 H 402.716 4.84596 -1.52082 0
M  V30 4398 H 402.646 5.26181 0.210068 0
M  V30 4399 H 405.137 3.7705 -0.253373 0
M  V30 4400 H 405.45 7.64341 -1.14032 0
M  V30 4401 H 403.795 6.87494 -1.01865 0
M  V30 4402 H 406.986 4.66406 -0.397863 0
M  V30 4403 H 407.159 6.43017 -0.802093 0
M  V30 4404 N 400.565 -0.0233959 1.57583 0
M  V30 4405 C 401.79 -0.728376 1.94189 0
M  V30 4406 C 402.215 -1.67793 0.850119 0
M  V30 4407 O 401.573 -1.80262 -0.19371 0
M  V30 4408 C 401.621 -1.45669 3.29868 0
M  V30 4409 O 400.725 -2.57013 3.22518 0
M  V30 4410 H 400.066 -0.195493 0.63457 0
M  V30 4411 H 402.596 0.0228214 2.04587 0
M  V30 4412 H 402.606 -1.82535 3.6489 0
M  V30 4413 H 401.281 -0.760314 4.08891 0
M  V30 4414 H 399.858 -2.22648 2.99136 0
M  V30 4415 N 402.043 -1.548 -0.295768 0
M  V30 4416 C 403.291 -1.73985 -1.02828 0
M  V30 4417 C 403.612 -0.531406 -1.87619 0
M  V30 4418 O 402.882 0.454221 -1.90561 0
M  V30 4419 H 401.462 -0.641556 -0.382642 0
M  V30 4420 H 404.124 -1.92163 -0.325489 0
M  V30 4421 H 403.22 -2.63129 -1.67838 0
M  V30 4422 N 403.521 0.559213 -1.47345 0
M  V30 4423 C 404.431 1.69388 -1.62311 0
M  V30 4424 C 405.447 1.6648 -0.505993 0
M  V30 4425 O 406.623 1.85964 -0.773262 0
M  V30 4426 C 403.688 3.05894 -1.63185 0
M  V30 4427 C 402.749 3.19885 -2.86307 0
M  V30 4428 C 401.982 4.49879 -2.87131 0
M  V30 4429 O 402.205 5.35217 -1.97229 0
M  V30 4430 O 401.139 4.67618 -3.78968 0
M  V30 4431 H 404.965 1.59706 -2.58317 0
M  V30 4432 H 402.55 0.728989 -1.30407 0
M  V30 4433 H 404.432 3.87133 -1.66451 0
M  V30 4434 H 403.107 3.15964 -0.70345 0
M  V30 4435 H 402.014 2.38052 -2.88587 0
M  V30 4436 H 403.347 3.14718 -3.78435 0
M  V30 4437 N 404.999 1.35443 0.805782 0
M  V30 4438 C 406.247 1.28507 1.55982 0
M  V30 4439 C 406.568 -0.140046 1.94496 0
M  V30 4440 O 405.838 -1.07666 1.63661 0
M  V30 4441 H 404.418 0.472676 0.578434 0
M  V30 4442 H 407.08 1.69555 0.961098 0
M  V30 4443 H 406.176 1.90148 2.47488 0
M  V30 4444 N 406.477 -1.02803 1.19454 0
M  V30 4445 C 407.754 -1.73299 0.907013 0
M  V30 4446 C 408.134 -2.02772 -0.587086 0
M  V30 4447 O 407.482 -1.68304 -1.54551 0
M  V30 4448 C 407.692 -3.00912 1.76785 0
M  V30 4449 C 409.04 -3.74403 2.00268 0
M  V30 4450 O 410.064 -3.10841 1.73943 0
M  V30 4451 O 408.923 -4.88675 2.4466 0
M  V30 4452 H 406.017 -0.754727 0.338106 0
M  V30 4453 H 408.563 -1.08754 1.30271 0
M  V30 4454 H 407.335 -2.75366 2.7801 0
M  V30 4455 H 406.958 -3.73197 1.37149 0
M  V30 4456 N 407.956 -0.998596 -1.21925 0
M  V30 4457 C 409.203 -0.677663 -1.90824 0
M  V30 4458 C 409.531 0.790905 -1.77693 0
M  V30 4459 O 408.786 1.58817 -1.14349 0
M  V30 4460 C 409.085 -1.03648 -3.42041 0
M  V30 4461 C 408.751 -2.49825 -3.75364 0
M  V30 4462 C 407.413 -2.8977 -3.8417 0
M  V30 4463 C 409.765 -3.44545 -3.91073 0
M  V30 4464 C 407.093 -4.23412 -4.06127 0
M  V30 4465 C 409.445 -4.77853 -4.14535 0
M  V30 4466 C 408.109 -5.17531 -4.21566 0
M  V30 4467 H 407.379 -0.247975 -0.698276 0
M  V30 4468 H 410.026 -1.25584 -1.44571 0
M  V30 4469 H 408.331 -0.376457 -3.89987 0
M  V30 4470 H 410.028 -0.766113 -3.93614 0
M  V30 4471 H 406.618 -2.17866 -3.69097 0
M  V30 4472 H 410.802 -3.14853 -3.83642 0
M  V30 4473 H 406.058 -4.53734 -4.09799 0
M  V30 4474 H 410.232 -5.51189 -4.25633 0
M  V30 4475 H 407.859 -6.21102 -4.38333 0
M  V30 4476 N 409.434 1.37368 -0.772513 0
M  V30 4477 C 410.344 2.34053 -0.160081 0
M  V30 4478 C 411.36 1.60216 0.678728 0
M  V30 4479 O 412.536 1.92303 0.59847 0
M  V30 4480 C 409.601 3.3939 0.708182 0
M  V30 4481 C 408.662 4.29048 -0.147172 0
M  V30 4482 C 407.895 5.29354 0.679744 0
M  V30 4483 O 408.118 5.3723 1.91678 0
M  V30 4484 O 407.052 6.01835 0.0885444 0
M  V30 4485 H 410.878 2.88159 -0.959053 0
M  V30 4486 H 408.463 1.39543 -0.533685 0
M  V30 4487 H 410.345 4.03839 1.20384 0
M  V30 4488 H 409.02 2.8761 1.48533 0
M  V30 4489 H 407.927 3.67697 -0.689205 0
M  V30 4490 H 409.26 4.84134 -0.887423 0
M  V30 4491 N 410.912 0.523116 1.48665 0
M  V30 4492 C 411.842 -0.23231 2.32342 0
M  V30 4493 C 412.823 -0.941637 1.41659 0
M  V30 4494 O 414.008 -0.928751 1.70552 0
M  V30 4495 C 411.138 -1.28387 3.22698 0
M  V30 4496 C 410.092 -0.693098 4.22351 0
M  V30 4497 C 409.418 -1.8468 5.01794 0
M  V30 4498 C 410.718 0.33063 5.21252 0
M  V30 4499 H 412.412 0.466192 2.95748 0
M  V30 4500 H 409.958 0.225643 1.42221 0
M  V30 4501 H 411.911 -1.82024 3.80059 0
M  V30 4502 H 410.635 -2.01186 2.57278 0
M  V30 4503 H 409.294 -0.178299 3.66166 0
M  V30 4504 H 408.942 -2.56301 4.32804 0
M  V30 4505 H 408.642 -1.45747 5.69238 0
M  V30 4506 H 410.166 -2.38709 5.62006 0
M  V30 4507 H 411.58 -0.118407 5.73178 0
M  V30 4508 H 409.977 0.636974 5.9671 0
M  V30 4509 H 411.047 1.23883 4.68808 0
M  V30 4510 N 412.39 -1.55475 0.257931 0
M  V30 4511 C 413.636 -1.99502 -0.364266 0
M  V30 4512 C 413.969 -1.146 -1.56782 0
M  V30 4513 O 413.244 -0.211968 -1.93342 0
M  V30 4514 C 413.527 -3.51917 -0.763333 0
M  V30 4515 C 413.38 -4.4758 0.446371 0
M  V30 4516 C 414.699 -4.09742 -1.60623 0
M  V30 4517 H 411.818 -0.725277 -0.130929 0
M  V30 4518 H 414.46 -1.8653 0.361446 0
M  V30 4519 H 412.61 -3.63101 -1.38166 0
M  V30 4520 H 414.282 -4.48362 1.08487 0
M  V30 4521 H 412.525 -4.19947 1.08753 0
M  V30 4522 H 413.196 -5.51862 0.123645 0
M  V30 4523 H 415.672 -4.01727 -1.08418 0
M  V30 4524 H 414.548 -5.16631 -1.85429 0
M  V30 4525 H 414.809 -3.58889 -2.58169 0
M  V30 4526 N 413.868 0.0150385 -1.57593 0
M  V30 4527 C 414.798 1.01047 -2.10503 0
M  V30 4528 C 415.779 1.36816 -1.01071 0
M  V30 4529 O 416.964 1.45455 -1.28672 0
M  V30 4530 C 414.094 2.30708 -2.59598 0
M  V30 4531 C 413.048 2.09142 -3.73421 0
M  V30 4532 C 412.374 3.44685 -4.08774 0
M  V30 4533 C 413.674 1.46619 -5.01298 0
M  V30 4534 H 415.368 0.569978 -2.93925 0
M  V30 4535 H 412.914 0.272724 -1.41394 0
M  V30 4536 H 414.867 3.00687 -2.95238 0
M  V30 4537 H 413.591 2.76843 -1.73279 0
M  V30 4538 H 412.25 1.41592 -3.38153 0
M  V30 4539 H 411.898 3.88495 -3.195 0
M  V30 4540 H 411.598 3.31077 -4.8545 0
M  V30 4541 H 413.122 4.16004 -4.4696 0
M  V30 4542 H 414.536 2.06535 -5.34805 0
M  V30 4543 H 412.933 1.43544 -5.82679 0
M  V30 4544 H 414.003 0.433611 -4.82957 0
M  V30 4545 N 415.346 1.54954 0.287554 0
M  V30 4546 C 416.595 1.74081 1.01877 0
M  V30 4547 C 416.908 0.541135 1.87966 0
M  V30 4548 O 418.114 0.614491 2.64455 0
M  V30 4549 C 416.57 3.08042 1.86113 0
M  V30 4550 C 416.178 4.35531 1.04961 0
M  V30 4551 C 417.922 3.36523 2.58752 0
M  V30 4552 C 415.829 5.60538 1.88551 0
M  V30 4553 H 414.759 0.64884 0.384087 0
M  V30 4554 H 417.41 1.81426 0.275101 0
M  V30 4555 H 415.792 2.94696 2.64519 0
M  V30 4556 H 416.966 4.59751 0.31074 0
M  V30 4557 H 415.281 4.14085 0.43843 0
M  V30 4558 H 417.878 4.27122 3.21668 0
M  V30 4559 H 418.221 2.56 3.28283 0
M  V30 4560 H 418.754 3.50901 1.87386 0
M  V30 4561 H 415.493 6.43767 1.23466 0
M  V30 4562 H 415.013 5.40483 2.60074 0
M  V30 4563 H 416.692 5.98297 2.46273 0
M  V30 4564 N 416.824 -0.551391 1.4764 0
M  V30 4565 C 417.754 -1.66757 1.63445 0
M  V30 4566 C 418.735 -1.63077 0.483742 0
M  V30 4567 O 419.92 -1.80607 0.71377 0
M  V30 4568 C 417.05 -3.05387 1.65396 0
M  V30 4569 C 416.004 -3.23918 2.79752 0
M  V30 4570 C 415.33 -4.63393 2.66779 0
M  V30 4571 C 416.63 -3.08735 4.21284 0
M  V30 4572 H 418.324 -1.53786 2.56886 0
M  V30 4573 H 415.87 -0.738415 1.23626 0
M  V30 4574 H 417.823 -3.83325 1.75043 0
M  V30 4575 H 416.547 -3.19332 0.685195 0
M  V30 4576 H 415.206 -2.48391 2.69625 0
M  V30 4577 H 414.854 -4.74144 1.67918 0
M  V30 4578 H 414.554 -4.7674 3.43501 0
M  V30 4579 H 416.078 -5.43458 2.78364 0
M  V30 4580 H 417.492 -3.76484 4.32357 0
M  V30 4581 H 415.889 -3.33588 4.98838 0
M  V30 4582 H 416.959 -2.0541 4.39243 0
M  V30 4583 N 418.302 -1.35869 -0.798587 0
M  V30 4584 C 419.527 -1.32883 -1.59238 0
M  V30 4585 C 419.952 0.0894587 -1.87887 0
M  V30 4586 O 419.31 1.05869 -1.47178 0
M  V30 4587 C 419.358 -2.14892 -2.89575 0
M  V30 4588 O 418.462 -1.53512 -3.82763 0
M  V30 4589 H 417.803 -0.455236 -0.48338 0
M  V30 4590 H 420.333 -1.79024 -0.990539 0
M  V30 4591 H 420.343 -2.27139 -3.38928 0
M  V30 4592 H 419.018 -3.17998 -2.68049 0
M  V30 4593 H 417.595 -1.50153 -3.41334 0
M  V30 4594 N 419.78 1.02168 -1.19998 0
M  V30 4595 C 421.028 1.75338 -1.00504 0
M  V30 4596 C 421.349 1.89387 0.464506 0
M  V30 4597 O 420.619 1.43268 1.33608 0
M  V30 4598 H 419.199 0.649564 -0.368885 0
M  V30 4599 H 421.861 1.23205 -1.51018 0
M  V30 4600 H 420.957 2.75892 -1.45912 0
M  V30 4601 N 421.258 1.00505 1.21394 0
M  V30 4602 C 422.486 0.706609 1.9446 0
M  V30 4603 C 422.901 -0.73081 1.74082 0
M  V30 4604 O 422.258 -1.49446 1.04747 0
M  V30 4605 C 422.309 1.01824 3.46863 0
M  V30 4606 O 422.03 2.39919 3.66566 0
M  V30 4607 C 423.531 0.739216 4.37093 0
M  V30 4608 H 420.751 0.260394 0.618414 0
M  V30 4609 H 423.295 1.34311 1.54211 0
M  V30 4610 H 421.45 0.427343 3.85036 0
M  V30 4611 H 421.864 2.50784 4.6066 0
M  V30 4612 H 423.338 1.00744 5.42729 0
M  V30 4613 H 423.815 -0.326746 4.37983 0
M  V30 4614 H 424.421 1.31173 4.04566 0
M  V30 4615 N 422.737 -1.36956 0.779787 0
M  V30 4616 C 423.983 -1.99787 0.348281 0
M  V30 4617 C 424.316 -1.61756 -1.07465 0
M  V30 4618 O 423.591 -0.867639 -1.74075 0
M  V30 4619 C 423.874 -3.56597 0.50104 0
M  V30 4620 C 423.727 -4.04513 1.96697 0
M  V30 4621 C 425.046 -4.40008 -0.0898097 0
M  V30 4622 H 422.165 -0.725796 0.128022 0
M  V30 4623 H 424.807 -1.62514 0.984331 0
M  V30 4624 H 422.957 -3.88479 -0.0404347 0
M  V30 4625 H 424.629 -3.83161 2.56876 0
M  V30 4626 H 422.872 -3.56408 2.47297 0
M  V30 4627 H 423.543 -5.1352 2.02486 0
M  V30 4628 H 426.019 -4.14431 0.372293 0
M  V30 4629 H 424.895 -5.4888 0.0471605 0
M  V30 4630 H 425.156 -4.26035 -1.18096 0
M  V30 4631 N 424.215 -0.530993 -1.48385 0
M  V30 4632 C 425.125 0.23503 -2.3342 0
M  V30 4633 C 426.141 0.93801 -1.46552 0
M  V30 4634 O 427.317 0.912745 -1.7953 0
M  V30 4635 C 424.382 1.26778 -3.22689 0
M  V30 4636 C 423.443 0.575038 -4.25431 0
M  V30 4637 C 422.676 1.55858 -5.10435 0
M  V30 4638 O 422.899 2.79129 -4.97437 0
M  V30 4639 O 421.833 1.09742 -5.91811 0
M  V30 4640 H 425.659 -0.461794 -3.00169 0
M  V30 4641 H 423.244 -0.291903 -1.46521 0
M  V30 4642 H 425.126 1.86457 -3.77904 0
M  V30 4643 H 423.801 1.94699 -2.586 0
M  V30 4644 H 422.708 -0.0622782 -3.74048 0
M  V30 4645 H 424.041 -0.062253 -4.92161 0
M  V30 4646 N 425.693 1.55336 -0.266172 0
M  V30 4647 C 426.918 2.04258 0.359661 0
M  V30 4648 C 427.343 1.14359 1.49344 0
M  V30 4649 O 426.701 0.140369 1.80756 0
M  V30 4650 C 426.749 3.50997 0.826635 0
M  V30 4651 O 425.853 3.64204 1.93466 0
M  V30 4652 H 425.194 0.659668 0.075727 0
M  V30 4653 H 427.724 2.00694 -0.39786 0
M  V30 4654 H 427.734 3.9219 1.12477 0
M  V30 4655 H 426.409 4.159 -0.00293032 0
M  V30 4656 H 424.986 3.34913 1.63974 0
M  V30 4657 N 427.171 -0.0066808 1.57599 0
M  V30 4658 C 428.399 -0.704087 1.94551 0
M  V30 4659 C 428.814 -1.67677 0.867746 0
M  V30 4660 O 428.171 -1.8185 -0.153925 0
M  V30 4661 C 428.222 -1.44177 3.31505 0
M  V30 4662 O 427.943 -0.508097 4.35144 0
M  V30 4663 C 429.444 -2.23429 3.82876 0
M  V30 4664 H 426.664 -0.196523 0.641576 0
M  V30 4665 H 429.208 0.042453 2.04456 0
M  V30 4666 H 427.363 -2.13999 3.22929 0
M  V30 4667 H 427.777 -1.02782 5.14331 0
M  V30 4668 H 429.251 -2.70552 4.8115 0
M  V30 4669 H 429.728 -3.05818 3.15233 0
M  V30 4670 H 430.334 -1.58636 3.94607 0
M  V30 4671 N 428.649 -1.55105 -0.279332 0
M  V30 4672 C 429.874 -1.7976 -1.03446 0
M  V30 4673 C 430.299 -0.565952 -1.79384 0
M  V30 4674 O 429.657 0.484259 -1.74713 0
M  V30 4675 C 429.705 -3.0179 -1.97371 0
M  V30 4676 O 428.809 -2.76432 -3.06038 0
M  V30 4677 H 428.15 -0.594334 -0.29608 0
M  V30 4678 H 430.68 -2.02235 -0.310165 0
M  V30 4679 H 430.69 -3.30351 -2.39441 0
M  V30 4680 H 429.365 -3.91085 -1.4151 0
M  V30 4681 H 427.942 -2.58949 -2.68328 0
M  V30 4682 N 430.127 0.543554 -1.4793 0
M  V30 4683 C 431.09 1.63156 -1.60975 0
M  V30 4684 C 432.09 1.53346 -0.483899 0
M  V30 4685 O 433.28 1.5726 -0.749339 0
M  V30 4686 C 430.412 3.02743 -1.56716 0
M  V30 4687 H 431.605 1.52934 -2.57975 0
M  V30 4688 H 429.158 0.764557 -1.36324 0
M  V30 4689 H 429.893 3.18484 -0.611418 0
M  V30 4690 H 429.678 3.11272 -2.38438 0
M  V30 4691 H 431.168 3.81871 -1.6901 0
M  V30 4692 N 431.605 1.3629 0.791371 0
M  V30 4693 C 432.833 1.33562 1.58016 0
M  V30 4694 C 433.248 -0.0835616 1.88615 0
M  V30 4695 O 432.605 -1.0399 1.49974 0
M  V30 4696 C 432.656 2.15517 2.90232 0
M  V30 4697 O 432.377 3.51902 2.60953 0
M  V30 4698 C 433.878 2.20546 3.84544 0
M  V30 4699 H 431.098 0.458226 0.490173 0
M  V30 4700 H 433.642 1.79361 0.982345 0
M  V30 4701 H 431.797 1.73278 3.46487 0
M  V30 4702 H 432.211 3.94644 3.4548 0
M  V30 4703 H 433.685 2.82252 4.74382 0
M  V30 4704 H 434.162 1.20838 4.2225 0
M  V30 4705 H 434.768 2.63013 3.34222 0
M  V30 4706 N 433.083 -1.0153 1.20538 0
M  V30 4707 C 434.323 -1.76689 1.02763 0
M  V30 4708 C 434.687 -1.87065 -0.432513 0
M  V30 4709 O 435.888 -2.58684 -0.730481 0
M  V30 4710 C 434.159 -3.14707 1.69393 0
M  V30 4711 S 435.718 -4.05886 1.66738 0
M  V30 4712 H 432.536 -0.608076 0.368463 0
M  V30 4713 H 435.138 -1.21558 1.53114 0
M  V30 4714 H 433.842 -3.04782 2.74838 0
M  V30 4715 H 433.373 -3.74913 1.19179 0
M  V30 4716 H 435.388 -4.91221 0.70117 0
M  V30 4717 N 434.561 -1.01147 -1.20859 0
M  V30 4718 C 435.493 -0.535546 -2.22855 0
M  V30 4719 C 436.506 0.379323 -1.58319 0
M  V30 4720 O 437.695 0.178489 -1.77605 0
M  V30 4721 C 434.795 0.240962 -3.38042 0
M  V30 4722 C 433.968 -0.674562 -4.32167 0
M  V30 4723 C 433.027 0.053467 -5.26173 0
M  V30 4724 O 432.053 -0.567339 -5.66366 0
M  V30 4725 N 433.255 1.32997 -5.65059 0
M  V30 4726 H 436.02 -1.41268 -2.64317 0
M  V30 4727 H 433.581 -0.888386 -1.35349 0
M  V30 4728 H 435.573 0.737115 -3.97931 0
M  V30 4729 H 434.143 1.01935 -2.95513 0
M  V30 4730 H 433.363 -1.35111 -3.70322 0
M  V30 4731 H 434.651 -1.2974 -4.91981 0
M  V30 4732 H 434.049 1.85536 -5.34409 0
M  V30 4733 H 432.606 1.77095 -6.2728 0
M  V30 4734 N 436.039 1.36541 -0.78704 0
M  V30 4735 C 437.285 1.99599 -0.358872 0
M  V30 4736 C 437.618 1.62323 1.06606 0
M  V30 4737 O 436.893 0.876858 1.73613 0
M  V30 4738 C 437.176 3.56327 -0.519944 0
M  V30 4739 C 437.029 4.03464 -1.98839 0
M  V30 4740 C 438.348 4.4005 0.0664737 0
M  V30 4741 H 435.467 0.725107 -0.131869 0
M  V30 4742 H 438.109 1.6199 -0.992936 0
M  V30 4743 H 436.259 3.88495 0.0198321 0
M  V30 4744 H 437.931 3.81793 -2.58905 0
M  V30 4745 H 436.174 3.55092 -2.49183 0
M  V30 4746 H 436.845 5.12439 -2.05207 0
M  V30 4747 H 439.321 4.14228 -0.394267 0
M  V30 4748 H 438.197 5.48847 -0.0762682 0
M  V30 4749 H 438.458 4.26655 1.15835 0
M  V30 4750 N 437.518 0.538854 1.48102 0
M  V30 4751 C 438.934 0.19732 1.58376 0
M  V30 4752 C 439.134 -1.29971 1.5398 0
M  V30 4753 O 438.19 -2.07861 1.43352 0
M  V30 4754 C 439.503 0.807716 2.89649 0
M  V30 4755 C 441.051 0.77726 3.03196 0
M  V30 4756 C 441.526 1.36639 4.37143 0
M  V30 4757 N 443.017 1.32875 4.43732 0
M  V30 4758 C 443.752 1.7544 5.45901 0
M  V30 4759 N 443.248 2.25776 6.54979 0
M  V30 4760 N 445.041 1.66623 5.36836 0
M  V30 4761 H 437.192 1.5117 1.49202 0
M  V30 4762 H 439.455 0.629327 0.708979 0
M  V30 4763 H 439.161 1.85909 2.98548 0
M  V30 4764 H 439.035 0.289975 3.76084 0
M  V30 4765 H 441.422 -0.265374 2.93904 0
M  V30 4766 H 441.503 1.33256 2.18349 0
M  V30 4767 H 441.147 2.408 4.47189 0
M  V30 4768 H 441.077 0.786689 5.20691 0
M  V30 4769 H 443.568 0.96037 3.65493 0
M  V30 4770 H 443.881 2.56226 7.29087 0
M  V30 4771 H 442.226 2.29775 6.55918 0
M  V30 4772 H 445.417 1.27089 4.50517 0
M  V30 4773 H 445.59 2.00115 6.16326 0
M  V30 4774 N 438.996 -1.55193 0.274407 0
M  V30 4775 C 440.224 -2.03987 -0.345943 0
M  V30 4776 C 440.639 -1.15279 -1.4952 0
M  V30 4777 O 439.996 -0.172759 -1.8168 0
M  V30 4778 C 440.047 -3.51898 -0.827631 0
M  V30 4779 O 439.768 -4.37231 0.275855 0
M  V30 4780 C 441.269 -4.16577 -1.51587 0
M  V30 4781 H 438.489 -0.666335 -0.0789892 0
M  V30 4782 H 441.033 -2.00423 0.406294 0
M  V30 4783 H 439.188 -3.55909 -1.52996 0
M  V30 4784 H 439.602 -5.24415 -0.0943638 0
M  V30 4785 H 441.076 -5.21678 -1.80433 0
M  V30 4786 H 441.553 -3.64707 -2.44716 0
M  V30 4787 H 442.159 -4.16568 -0.857409 0
M  V30 4788 N 440.474 -0.00167713 -1.576 0
M  V30 4789 C 441.699 0.69739 -1.95323 0
M  V30 4790 C 442.124 1.6642 -0.876706 0
M  V30 4791 O 441.482 1.80548 0.165007 0
M  V30 4792 C 441.53 1.40403 -3.32144 0
M  V30 4793 O 440.634 2.5185 -3.26566 0
M  V30 4794 H 439.975 0.185373 -0.637599 0
M  V30 4795 H 442.505 -0.0553665 -2.04525 0
M  V30 4796 H 442.515 1.76707 -3.67748 0
M  V30 4797 H 441.19 0.695167 -4.10049 0
M  V30 4798 H 439.767 2.17861 -3.0264 0
M  V30 4799 N 441.952 1.55251 0.271103 0
M  V30 4800 C 443.182 1.79713 1.01916 0
M  V30 4801 C 443.59 0.571613 1.80359 0
M  V30 4802 O 442.933 -0.468853 1.77616 0
M  V30 4803 C 442.995 2.97138 2.02359 0
M  V30 4804 C 442.659 4.34104 1.42837 0
M  V30 4805 C 443.656 5.13019 0.843071 0
M  V30 4806 C 441.341 4.80765 1.455 0
M  V30 4807 C 443.335 6.36729 0.292333 0
M  V30 4808 C 441.022 6.0443 0.900402 0
M  V30 4809 C 442.02 6.8225 0.32007 0
M  V30 4810 O 441.708 8.03582 -0.226031 0
M  V30 4811 H 441.44 0.602431 0.306681 0
M  V30 4812 H 443.994 2.03097 0.306701 0
M  V30 4813 H 442.224 2.6945 2.77369 0
M  V30 4814 H 443.913 3.08907 2.63309 0
M  V30 4815 H 444.679 4.781 0.815178 0
M  V30 4816 H 440.558 4.20202 1.89609 0
M  V30 4817 H 444.102 6.97414 -0.161274 0
M  V30 4818 H 439.999 6.3883 0.925541 0
M  V30 4819 H 440.767 8.18418 -0.115572 0
M  V30 4820 N 443.43 -0.535701 1.48216 0
M  V30 4821 C 444.36 -1.65014 1.65204 0
M  V30 4822 C 445.341 -1.62554 0.501011 0
M  V30 4823 O 446.526 -1.7984 0.732886 0
M  V30 4824 C 443.656 -3.03616 1.68626 0
M  V30 4825 C 442.61 -3.20932 2.83172 0
M  V30 4826 C 441.936 -4.60537 2.71679 0
M  V30 4827 C 443.236 -3.04249 4.24535 0
M  V30 4828 H 444.93 -1.51053 2.58502 0
M  V30 4829 H 442.476 -0.725262 1.24402 0
M  V30 4830 H 444.429 -3.81446 1.79099 0
M  V30 4831 H 443.153 -3.18587 0.719026 0
M  V30 4832 H 441.812 -2.45517 2.72244 0
M  V30 4833 H 441.46 -4.72336 1.72937 0
M  V30 4834 H 441.16 -4.73069 3.48538 0
M  V30 4835 H 442.684 -5.40475 2.84112 0
M  V30 4836 H 444.098 -3.71877 4.36326 0
M  V30 4837 H 442.495 -3.28278 5.02348 0
M  V30 4838 H 443.565 -2.00739 4.41397 0
M  V30 4839 N 444.908 -1.36708 -0.784132 0
M  V30 4840 C 446.319 -1.27947 -1.35965 0
M  V30 4841 C 446.67 0.0784013 -1.96043 0
M  V30 4842 O 445.795 0.979989 -1.92938 0
M  V30 4843 C 446.39 -2.31689 -2.47195 0
M  V30 4844 C 444.949 -2.26601 -3.00548 0
M  V30 4845 C 444.096 -2.16184 -1.73666 0
M  V30 4846 H 447.047 -1.4751 -0.585358 0
M  V30 4847 H 447.068 -1.95638 -3.26352 0
M  V30 4848 H 446.58 -3.30506 -2.03439 0
M  V30 4849 H 444.681 -1.31268 -3.48711 0
M  V30 4850 H 444.794 -3.19508 -3.57004 0
M  V30 4851 H 443.158 -1.62524 -1.96107 0
M  V30 4852 H 443.941 -3.16896 -1.32031 0
M  V30 4853 N 446.386 1.0089 -1.21074 0
M  V30 4854 C 447.296 2.13039 -0.982425 0
M  V30 4855 C 448.312 1.73881 0.0642161 0
M  V30 4856 O 449.488 2.01012 -0.12496 0
M  V30 4857 C 446.553 3.42377 -0.545803 0
M  V30 4858 C 445.614 3.95731 -1.6642 0
M  V30 4859 C 444.847 5.18896 -1.24832 0
M  V30 4860 O 445.07 5.70273 -0.120265 0
M  V30 4861 O 444.004 5.65597 -2.05873 0
M  V30 4862 H 447.83 2.35175 -1.92163 0
M  V30 4863 H 445.415 1.1142 -0.995285 0
M  V30 4864 H 447.297 4.20244 -0.311912 0
M  V30 4865 H 445.972 3.21639 0.364727 0
M  V30 4866 H 444.879 3.19108 -1.95246 0
M  V30 4867 H 446.212 4.20872 -2.55201 0
M  V30 4868 N 447.864 1.01787 1.20321 0
M  V30 4869 C 448.774 0.598898 2.26827 0
M  V30 4870 C 449.79 -0.36418 1.70146 0
M  V30 4871 O 450.966 -0.224812 2.00141 0
M  V30 4872 C 448.031 -0.0549769 3.46656 0
M  V30 4873 C 447.092 0.954205 4.18561 0
M  V30 4874 C 446.325 0.331439 5.3267 0
M  V30 4875 O 446.548 -0.86851 5.63749 0
M  V30 4876 O 445.482 1.0488 5.92692 0
M  V30 4877 H 449.308 1.48562 2.64883 0
M  V30 4878 H 446.893 0.787434 1.26964 0
M  V30 4879 H 448.775 -0.420102 4.19301 0
M  V30 4880 H 447.45 -0.915876 3.10473 0
M  V30 4881 H 446.357 1.37072 3.48083 0
M  V30 4882 H 447.69 1.78511 4.58688 0
M  V30 4883 N 449.342 -1.36122 0.79427 0
M  V30 4884 C 450.591 -1.98361 0.365464 0
M  V30 4885 C 450.904 -1.6374 -1.06997 0
M  V30 4886 O 452.11 -2.19251 -1.60129 0
M  V30 4887 C 450.566 -3.54821 0.602496 0
M  V30 4888 C 450.174 -3.98362 2.04967 0
M  V30 4889 C 451.918 -4.2383 0.238437 0
M  V30 4890 C 449.825 -5.47619 2.2331 0
M  V30 4891 H 448.755 -0.742193 0.13291 0
M  V30 4892 H 451.406 -1.55354 0.976589 0
M  V30 4893 H 449.788 -3.95922 -0.078409 0
M  V30 4894 H 450.962 -3.68447 2.76737 0
M  V30 4895 H 449.277 -3.42206 2.37243 0
M  V30 4896 H 451.874 -5.33529 0.353705 0
M  V30 4897 H 452.217 -4.08264 -0.814006 0
M  V30 4898 H 452.75 -3.88108 0.872769 0
M  V30 4899 H 449.489 -5.68138 3.26955 0
M  V30 4900 H 449.009 -5.79145 1.5605 0
M  V30 4901 H 450.688 -6.13911 2.0426 0
M  V30 4902 N 450.82 -0.546701 -1.47814 0
M  V30 4903 C 451.75 0.195317 -2.32682 0
M  V30 4904 C 452.731 0.918981 -1.43139 0
M  V30 4905 O 453.916 0.901501 -1.72008 0
M  V30 4906 C 451.046 1.23237 -3.247 0
M  V30 4907 C 450 0.625818 -4.234 0
M  V30 4908 C 449.326 1.76674 -5.04669 0
M  V30 4909 C 450.626 -0.413515 -5.2066 0
M  V30 4910 H 452.32 -0.513184 -2.94969 0
M  V30 4911 H 449.866 -0.248241 -1.41844 0
M  V30 4912 H 451.819 1.75955 -3.82907 0
M  V30 4913 H 450.543 1.97067 -2.60446 0
M  V30 4914 H 449.202 0.120023 -3.66403 0
M  V30 4915 H 448.85 2.49383 -4.36826 0
M  V30 4916 H 448.55 1.36673 -5.71484 0
M  V30 4917 H 450.074 2.29738 -5.65732 0
M  V30 4918 H 451.488 0.0272042 -5.73294 0
M  V30 4919 H 449.885 -0.731825 -5.95621 0
M  V30 4920 H 450.955 -1.31325 -4.66778 0
M  V30 4921 N 452.299 1.55045 -0.282633 0
M  V30 4922 C 453.545 2.0078 0.325436 0
M  V30 4923 C 453.9 1.1676 1.52921 0
M  V30 4924 O 453.193 0.231475 1.90197 0
M  V30 4925 C 453.387 3.49422 0.750938 0
M  V30 4926 C 453.216 4.47827 -0.410056 0
M  V30 4927 C 451.986 4.97288 -0.896239 0
M  V30 4928 C 454.184 4.98903 -1.24902 0
M  V30 4929 N 452.166 5.79508 -2.02591 0
M  V30 4930 C 453.537 5.78644 -2.22646 0
M  V30 4931 C 455.592 4.81126 -1.2815 0
M  V30 4932 C 454.295 6.42502 -3.23393 0
M  V30 4933 C 456.321 5.45789 -2.27745 0
M  V30 4934 C 455.683 6.25348 -3.24222 0
M  V30 4935 H 451.782 0.77747 0.08405 0
M  V30 4936 H 454.366 1.90369 -0.408368 0
M  V30 4937 H 452.537 3.60159 1.45395 0
M  V30 4938 H 454.269 3.81978 1.33698 0
M  V30 4939 H 451.024 4.71219 -0.474277 0
M  V30 4940 H 451.448 6.25308 -2.59459 0
M  V30 4941 H 456.09 4.19215 -0.549397 0
M  V30 4942 H 453.808 7.03558 -3.97533 0
M  V30 4943 H 457.394 5.33972 -2.31009 0
M  V30 4944 H 456.274 6.74498 -4.00027 0
M  V30 4945 N 453.777 0.010035 1.57597 0
M  V30 4946 C 455.025 -0.671371 1.90623 0
M  V30 4947 C 455.346 -1.73753 0.885151 0
M  V30 4948 O 454.616 -1.95752 -0.0760611 0
M  V30 4949 H 453.196 -0.250968 0.703579 0
M  V30 4950 H 455.858 0.0533325 1.94827 0
M  V30 4951 H 454.954 -1.13626 2.90681 0
M  V30 4952 N 455.255 -1.55392 -0.262866 0
M  V30 4953 C 456.485 -1.80251 -1.00961 0
M  V30 4954 C 456.893 -0.58117 -1.80053 0
M  V30 4955 O 456.236 0.459427 -1.77862 0
M  V30 4956 C 456.298 -2.98207 -2.00781 0
M  V30 4957 C 455.962 -4.34856 -1.40533 0
M  V30 4958 C 456.959 -5.13459 -0.815853 0
M  V30 4959 C 454.644 -4.8153 -1.42948 0
M  V30 4960 C 456.638 -6.36875 -0.258562 0
M  V30 4961 C 454.325 -6.04899 -0.868334 0
M  V30 4962 C 455.323 -6.8241 -0.283884 0
M  V30 4963 O 455.011 -8.03451 0.268644 0
M  V30 4964 H 454.743 -0.604049 -0.303482 0
M  V30 4965 H 457.297 -2.03257 -0.295926 0
M  V30 4966 H 455.527 -2.70917 -2.75936 0
M  V30 4967 H 457.216 -3.10299 -2.61667 0
M  V30 4968 H 457.982 -4.78526 -0.789812 0
M  V30 4969 H 453.861 -4.21201 -1.87378 0
M  V30 4970 H 457.405 -6.97318 0.198257 0
M  V30 4971 H 453.302 -6.39312 -0.891649 0
M  V30 4972 H 454.07 -8.18346 0.158974 0
M  V30 4973 N 456.733 0.527833 -1.48498 0
M  V30 4974 C 457.643 1.65907 -1.65867 0
M  V30 4975 C 458.659 1.6537 -0.541192 0
M  V30 4976 O 459.835 1.84282 -0.812534 0
M  V30 4977 C 456.9 3.02364 -1.69637 0
M  V30 4978 C 455.961 3.1374 -2.93028 0
M  V30 4979 C 455.194 4.43688 -2.96609 0
M  V30 4980 O 455.417 5.30913 -2.08538 0
M  V30 4981 O 454.351 4.59475 -3.88802 0
M  V30 4982 H 458.177 1.5419 -2.61647 0
M  V30 4983 H 455.762 0.701163 -1.31924 0
M  V30 4984 H 457.644 3.83515 -1.74625 0
M  V30 4985 H 456.319 3.14401 -0.770312 0
M  V30 4986 H 455.226 2.31877 -2.93571 0
M  V30 4987 H 456.559 3.06621 -3.85026 0
M  V30 4988 N 458.211 1.37122 0.776871 0
M  V30 4989 C 459.458 1.32047 1.53524 0
M  V30 4990 C 459.786 -0.0965631 1.9426 0
M  V30 4991 O 459.041 -1.06866 1.63945 0
M  V30 4992 C 459.34 2.20068 2.81611 0
M  V30 4993 C 459.006 3.68423 2.59953 0
M  V30 4994 C 457.668 4.08854 2.53755 0
M  V30 4995 C 460.02 4.62431 2.40431 0
M  V30 4996 C 457.348 5.41417 2.26018 0
M  V30 4997 C 459.7 5.95225 2.14219 0
M  V30 4998 C 458.364 6.34767 2.06462 0
M  V30 4999 H 457.634 0.483196 0.561785 0
M  V30 5000 H 460.281 1.69284 0.895268 0
M  V30 5001 H 458.586 1.75809 3.50141 0
M  V30 5002 H 460.283 2.13458 3.39465 0
M  V30 5003 H 456.873 3.36354 2.65638 0
M  V30 5004 H 461.057 4.32057 2.44213 0
M  V30 5005 H 456.313 5.71022 2.18504 0
M  V30 5006 H 460.487 6.67626 1.98112 0
M  V30 5007 H 458.114 7.37413 1.84733 0
M  V30 5008 N 459.689 -1.00246 1.21608 0
M  V30 5009 C 460.917 -1.77631 1.06089 0
M  V30 5010 C 461.332 -1.84746 -0.38916 0
M  V30 5011 O 460.689 -1.31068 -1.26994 0
M  V30 5012 C 460.74 -3.21415 1.65453 0
M  V30 5013 O 460.461 -3.14703 3.04785 0
M  V30 5014 C 461.962 -4.15289 1.55079 0
M  V30 5015 H 459.182 -0.558162 0.37242 0
M  V30 5016 H 461.726 -1.26093 1.60999 0
M  V30 5017 H 459.881 -3.70053 1.14629 0
M  V30 5018 H 460.295 -4.05056 3.33212 0
M  V30 5019 H 461.769 -5.13965 2.01355 0
M  V30 5020 H 462.246 -4.36279 0.505665 0
M  V30 5021 H 462.852 -3.72543 2.05163 0
M  V30 5022 N 461.167 -1.02423 -1.1978 0
M  V30 5023 C 462.578 -0.748389 -1.71044 0
M  V30 5024 C 462.929 0.732398 -1.82017 0
M  V30 5025 O 462.054 1.57116 -1.48807 0
M  V30 5026 C 462.649 -1.35187 -3.1066 0
M  V30 5027 C 461.208 -1.12472 -3.59203 0
M  V30 5028 C 460.355 -1.45283 -2.36195 0
M  V30 5029 H 463.306 -1.19275 -1.04686 0
M  V30 5030 H 463.327 -0.746408 -3.73107 0
M  V30 5031 H 462.839 -2.4296 -3.02642 0
M  V30 5032 H 460.94 -0.0649983 -3.72543 0
M  V30 5033 H 461.053 -1.81016 -4.43588 0
M  V30 5034 H 459.417 -0.872034 -2.39307 0
M  V30 5035 H 460.2 -2.54129 -2.30811 0
M  V30 5036 N 462.645 1.35699 -0.801477 0
M  V30 5037 C 463.608 2.28199 -0.213994 0
M  V30 5038 C 464.608 1.49359 0.595691 0
M  V30 5039 O 465.798 1.69186 0.414921 0
M  V30 5040 C 462.93 3.33587 0.702297 0
M  V30 5041 H 464.123 2.81666 -1.02976 0
M  V30 5042 H 461.676 1.45467 -0.571759 0
M  V30 5043 H 462.411 2.85297 1.54195 0
M  V30 5044 H 462.196 3.91906 0.123484 0
M  V30 5045 H 463.686 4.02638 1.10783 0
M  V30 5046 N 464.123 0.554532 1.47522 0
M  V30 5047 C 465.372 0.0273458 2.01681 0
M  V30 5048 C 465.685 -1.32962 1.43459 0
M  V30 5049 O 466.891 -1.94657 1.89265 0
M  V30 5050 C 465.347 -0.00159057 3.599 0
M  V30 5051 C 464.955 1.35197 4.27113 0
M  V30 5052 C 466.699 -0.476311 4.21819 0
M  V30 5053 C 464.606 1.28229 5.77331 0
M  V30 5054 H 463.536 0.00645269 0.753972 0
M  V30 5055 H 466.187 0.701985 1.69542 0
M  V30 5056 H 464.569 -0.741821 3.8899 0
M  V30 5057 H 465.743 2.1097 4.09668 0
M  V30 5058 H 464.058 1.76441 3.77171 0
M  V30 5059 H 466.655 -0.5468 5.31897 0
M  V30 5060 H 466.998 -1.4877 3.8881 0
M  V30 5061 H 467.531 0.20898 3.97251 0
M  V30 5062 H 464.27 2.26959 6.14955 0
M  V30 5063 H 463.79 0.566314 5.97121 0
M  V30 5064 H 465.469 0.983226 6.39485 0
M  V30 5065 N 465.601 -1.54893 0.290851 0
M  V30 5066 C 466.826 -2.04804 -0.32712 0
M  V30 5067 C 467.251 -1.16721 -1.47506 0
M  V30 5068 O 466.609 -0.169107 -1.8051 0
M  V30 5069 C 466.657 -3.52268 -0.770689 0
M  V30 5070 O 465.761 -3.67236 -1.87647 0
M  V30 5071 H 465.102 -0.660789 -0.0652227 0
M  V30 5072 H 467.632 -2.00036 0.429739 0
M  V30 5073 H 467.642 -3.9393 -1.06223 0
M  V30 5074 H 466.317 -4.15843 0.069096 0
M  V30 5075 H 464.894 -3.37479 -1.58626 0
M  V30 5076 N 467.08 -0.0183926 -1.57589 0
M  V30 5077 C 468.01 0.965596 -2.12599 0
M  V30 5078 C 468.991 1.34641 -1.0395 0
M  V30 5079 O 470.176 1.42693 -1.31729 0
M  V30 5080 C 467.306 2.25149 -2.64434 0
M  V30 5081 C 466.26 2.01175 -3.77773 0
M  V30 5082 C 465.586 3.35937 -4.15994 0
M  V30 5083 C 466.886 1.35953 -5.04296 0
M  V30 5084 H 468.58 0.507504 -2.95067 0
M  V30 5085 H 466.126 0.242671 -1.41941 0
M  V30 5086 H 468.079 2.94357 -3.01549 0
M  V30 5087 H 466.803 2.73105 -1.79112 0
M  V30 5088 H 465.462 1.34388 -3.4108 0
M  V30 5089 H 465.11 3.81631 -3.27669 0
M  V30 5090 H 464.81 3.20705 -4.92364 0
M  V30 5091 H 466.334 4.0643 -4.55683 0
M  V30 5092 H 467.748 1.95144 -5.39065 0
M  V30 5093 H 466.145 1.31152 -5.85593 0
M  V30 5094 H 467.215 0.331071 -4.83768 0
M  V30 5095 N 468.558 1.5553 0.254621 0
M  V30 5096 C 469.783 1.81383 1.00573 0
M  V30 5097 C 470.208 0.594419 1.78461 0
M  V30 5098 O 469.566 -0.456403 1.75461 0
M  V30 5099 C 469.614 3.04892 1.92545 0
M  V30 5100 O 468.718 2.81266 3.01601 0
M  V30 5101 H 468.059 0.598969 0.286587 0
M  V30 5102 H 470.589 2.02703 0.277952 0
M  V30 5103 H 470.599 3.34119 2.34155 0
M  V30 5104 H 469.274 3.93287 1.3527 0
M  V30 5105 H 467.851 2.63185 2.64174 0
M  V30 5106 N 470.036 -0.519951 1.48776 0
M  V30 5107 C 470.999 -1.60574 1.6355 0
M  V30 5108 C 471.999 -1.52557 0.508234 0
M  V30 5109 O 473.189 -1.56047 0.774262 0
M  V30 5110 C 470.321 -3.00211 1.61512 0
M  V30 5111 H 471.514 -1.4881 2.60376 0
M  V30 5112 H 469.067 -0.742772 1.37523 0
M  V30 5113 H 469.802 -3.17471 0.662009 0
M  V30 5114 H 469.587 -3.07439 2.43359 0
M  V30 5115 H 471.077 -3.79134 1.75064 0
M  V30 5116 N 471.514 -1.37532 -0.769588 0
M  V30 5117 C 472.739 -1.36231 -1.56384 0
M  V30 5118 C 473.164 0.0495849 -1.88035 0
M  V30 5119 O 472.522 1.02723 -1.49391 0
M  V30 5120 C 472.57 -2.20986 -2.84952 0
M  V30 5121 O 471.674 -1.61597 -3.79421 0
M  V30 5122 H 471.015 -0.465387 -0.473615 0
M  V30 5123 H 473.545 -1.81085 -0.952342 0
M  V30 5124 H 473.555 -2.34277 -3.34034 0
M  V30 5125 H 472.23 -3.23612 -2.61243 0
M  V30 5126 H 470.807 -1.57359 -3.38072 0
M  V30 5127 N 472.992 0.995999 -1.22138 0
M  V30 5128 C 474.24 1.73167 -1.042 0
M  V30 5129 C 474.561 1.90329 0.42423 0
M  V30 5130 O 473.831 1.4607 1.30539 0
M  V30 5131 H 472.411 0.641593 -0.38258 0
M  V30 5132 H 475.073 1.19974 -1.53598 0
M  V30 5133 H 474.169 2.72734 -1.51731 0
M  V30 5134 N 474.47 1.03057 1.19235 0
M  V30 5135 C 475.417 0.612832 2.22515 0
M  V30 5136 C 476.387 -0.374224 1.61829 0
M  V30 5137 O 477.572 -0.270501 1.88873 0
M  V30 5138 C 474.712 -0.028475 3.45088 0
M  V30 5139 C 473.825 1.00483 4.20151 0
M  V30 5140 C 472.96 0.333102 5.30155 0
M  V30 5141 C 471.999 1.3522 5.96977 0
M  V30 5142 N 471.136 0.70616 6.9854 0
M  V30 5143 H 475.976 1.49812 2.57605 0
M  V30 5144 H 473.513 0.749658 1.26564 0
M  V30 5145 H 475.471 -0.417548 4.15105 0
M  V30 5146 H 474.101 -0.877334 3.10649 0
M  V30 5147 H 473.153 1.51194 3.49062 0
M  V30 5148 H 474.465 1.77929 4.65986 0
M  V30 5149 H 473.619 -0.110725 6.06599 0
M  V30 5150 H 472.358 -0.473547 4.85396 0
M  V30 5151 H 471.363 1.80627 5.19282 0
M  V30 5152 H 472.588 2.16037 6.4382 0
M  V30 5153 H 470.534 -0.0803667 6.55951 0
M  V30 5154 H 470.451 1.41848 7.42573 0
M  V30 5155 H 471.719 0.286391 7.78974 0
M  V30 5156 N 475.948 -1.35272 0.808662 0
M  V30 5157 C 477.178 -2.02652 0.401953 0
M  V30 5158 C 477.586 -1.6108 -0.992462 0
M  V30 5159 O 476.929 -0.804984 -1.65123 0
M  V30 5160 C 476.991 -3.57174 0.408246 0
M  V30 5161 C 476.655 -4.22019 1.75353 0
M  V30 5162 C 477.652 -4.43552 2.71215 0
M  V30 5163 C 475.337 -4.59093 2.03811 0
M  V30 5164 C 477.331 -5.01264 3.93717 0
M  V30 5165 C 475.018 -5.16519 3.26576 0
M  V30 5166 C 476.016 -5.37546 4.21347 0
M  V30 5167 O 475.704 -5.93761 5.41944 0
M  V30 5168 H 475.436 -0.656495 0.161216 0
M  V30 5169 H 477.99 -1.73829 1.0942 0
M  V30 5170 H 476.22 -3.85197 -0.340608 0
M  V30 5171 H 477.909 -4.05893 0.0235623 0
M  V30 5172 H 478.675 -4.15288 2.50522 0
M  V30 5173 H 474.554 -4.42039 1.30854 0
M  V30 5174 H 478.098 -5.17592 4.67701 0
M  V30 5175 H 473.995 -5.4421 3.47139 0
M  V30 5176 H 474.763 -6.1221 5.43269 0
M  V30 5177 N 477.426 -0.562348 -1.47226 0
M  V30 5178 C 478.675 -0.038041 -2.01664 0
M  V30 5179 C 478.988 1.32199 -1.44162 0
M  V30 5180 O 480.194 1.9365 -1.90294 0
M  V30 5181 C 478.65 -0.0174958 -3.59896 0
M  V30 5182 C 478.258 -1.3746 -4.2639 0
M  V30 5183 C 480.002 0.453934 -4.22066 0
M  V30 5184 C 477.909 -1.31289 -5.76643 0
M  V30 5185 H 476.839 -0.0104511 -0.753928 0
M  V30 5186 H 479.49 -0.710966 -1.69167 0
M  V30 5187 H 477.872 0.721182 -3.89378 0
M  V30 5188 H 479.046 -2.1314 -4.08544 0
M  V30 5189 H 477.361 -1.78438 -3.7623 0
M  V30 5190 H 479.958 0.518584 -5.32179 0
M  V30 5191 H 480.301 1.46706 -3.89594 0
M  V30 5192 H 480.834 -0.230044 -3.97134 0
M  V30 5193 H 477.573 -2.30217 -6.13743 0
M  V30 5194 H 477.093 -0.597973 -5.96812 0
M  V30 5195 H 478.772 -1.01713 -6.38955 0
M  V30 5196 N 478.904 1.54736 -0.299062 0
M  V30 5197 C 479.867 2.22127 0.565012 0
M  V30 5198 C 480.867 1.20669 1.06281 0
M  V30 5199 O 482.057 1.45417 0.959145 0
M  V30 5200 C 479.189 2.90611 1.78208 0
M  V30 5201 H 480.382 2.99891 -0.0237448 0
M  V30 5202 H 477.935 1.5622 -0.0498788 0
M  V30 5203 H 478.67 2.16921 2.41072 0
M  V30 5204 H 478.455 3.64984 1.43281 0
M  V30 5205 H 479.945 3.42026 2.396 0
M  V30 5206 N 480.382 0.0267497 1.57577 0
M  V30 5207 C 481.659 -0.690926 1.82991 0
M  V30 5208 C 482.039 -1.90471 0.910164 0
M  V30 5209 O 481.387 -2.28474 -0.0347985 0
M  V30 5210 C 481.597 -1.07139 3.32148 0
M  V30 5211 C 482.945 -1.46402 3.98562 0
M  V30 5212 O 483.969 -1.16443 3.36629 0
M  V30 5213 O 482.828 -2.02214 5.07712 0
M  V30 5214 H 479.922 -0.338747 0.75444 0
M  V30 5215 H 482.468 0.0542506 1.69613 0
M  V30 5216 H 481.24 -0.207394 3.9075 0
M  V30 5217 H 480.863 -1.87481 3.50623 0
M  V30 5218 N 481.861 -1.55662 -0.24637 0
M  V30 5219 C 483.108 -1.77519 -0.974335 0
M  V30 5220 C 483.436 -0.591165 -1.85298 0
M  V30 5221 O 482.691 0.425497 -1.91018 0
M  V30 5222 C 482.99 -3.04885 -1.86494 0
M  V30 5223 C 482.656 -4.36209 -1.14161 0
M  V30 5224 C 481.318 -4.71896 -0.941701 0
M  V30 5225 C 483.67 -5.17391 -0.628957 0
M  V30 5226 C 480.998 -5.86299 -0.216852 0
M  V30 5227 C 483.35 -6.32546 0.0824273 0
M  V30 5228 C 482.014 -6.66853 0.293807 0
M  V30 5229 H 481.284 -0.649588 -0.356535 0
M  V30 5230 H 483.931 -1.89934 -0.244394 0
M  V30 5231 H 482.236 -2.87484 -2.66196 0
M  V30 5232 H 483.933 -3.18994 -2.42989 0
M  V30 5233 H 480.523 -4.08174 -1.30736 0
M  V30 5234 H 484.707 -4.90276 -0.770943 0
M  V30 5235 H 479.963 -6.11385 -0.0426124 0
M  V30 5236 H 484.137 -6.94693 0.487292 0
M  V30 5237 H 481.764 -7.55349 0.857428 0
M  V30 5238 N 483.339 0.512053 -1.4905 0
M  V30 5239 C 484.564 1.2959 -1.6193 0
M  V30 5240 C 484.989 1.85906 -0.286454 0
M  V30 5241 O 484.347 1.65312 0.744426 0
M  V30 5242 C 484.395 2.40987 -2.68249 0
M  V30 5243 O 483.499 3.44531 -2.26654 0
M  V30 5244 H 482.84 0.383053 -0.542371 0
M  V30 5245 H 485.37 0.614231 -1.95162 0
M  V30 5246 H 485.38 2.86913 -2.90078 0
M  V30 5247 H 484.055 1.99361 -3.65004 0
M  V30 5248 H 482.632 3.046 -2.15112 0
M  V30 5249 N 484.817 1.37938 0.762283 0
M  V30 5250 C 485.747 1.37176 1.88958 0
M  V30 5251 C 486.728 0.238945 1.68413 0
M  V30 5252 O 487.913 0.440726 1.89133 0
M  V30 5253 C 485.043 1.18742 3.2637 0
M  V30 5254 C 483.997 2.29136 3.61498 0
M  V30 5255 C 483.323 1.95816 4.97554 0
M  V30 5256 C 484.623 3.71363 3.6727 0
M  V30 5257 H 486.317 2.31509 1.89853 0
M  V30 5258 H 483.863 1.11438 0.912005 0
M  V30 5259 H 485.816 1.16837 4.04879 0
M  V30 5260 H 484.54 0.208683 3.25933 0
M  V30 5261 H 483.199 2.30213 2.85303 0
M  V30 5262 H 482.847 0.964475 4.93667 0
M  V30 5263 H 482.547 2.69745 5.22026 0
M  V30 5264 H 484.071 1.95513 5.78452 0
M  V30 5265 H 485.485 3.72364 4.35911 0
M  V30 5266 H 483.882 4.44425 4.03245 0
M  V30 5267 H 484.952 4.04305 2.67704 0
M  V30 5268 N 486.295 -0.989507 1.22664 0
M  V30 5269 C 487.542 -1.72953 1.05325 0
M  V30 5270 C 487.87 -1.90104 -0.411168 0
M  V30 5271 O 487.125 -1.44386 -1.32103 0
M  V30 5272 C 487.424 -3.13649 1.71345 0
M  V30 5273 C 487.09 -3.16403 3.21248 0
M  V30 5274 C 485.752 -3.16862 3.62149 0
M  V30 5275 C 488.104 -3.12428 4.17179 0
M  V30 5276 C 485.432 -3.11051 4.97458 0
M  V30 5277 C 487.784 -3.08159 5.52468 0
M  V30 5278 C 486.448 -3.06935 5.92746 0
M  V30 5279 H 485.718 -0.632881 0.385412 0
M  V30 5280 H 488.365 -1.15863 1.52473 0
M  V30 5281 H 486.67 -3.74069 1.16532 0
M  V30 5282 H 488.367 -3.69658 1.55416 0
M  V30 5283 H 484.957 -3.16798 2.88682 0
M  V30 5284 H 489.141 -3.11221 3.86595 0
M  V30 5285 H 484.397 -3.0845 5.27891 0
M  V30 5286 H 488.571 -3.04039 6.26525 0
M  V30 5287 H 486.198 -3.02186 6.97558 0
M  V30 5288 N 487.773 -1.03688 -1.18687 0
M  V30 5289 C 489.05 -0.652397 -1.84399 0
M  V30 5290 C 489.43 0.868386 -1.92412 0
M  V30 5291 O 488.778 1.76832 -1.44716 0
M  V30 5292 C 488.988 -1.3238 -3.22919 0
M  V30 5293 C 490.336 -1.45216 -3.98996 0
M  V30 5294 O 491.36 -1.2816 -3.32345 0
M  V30 5295 O 490.219 -1.72975 -5.18403 0
M  V30 5296 H 487.313 -0.227793 -0.795009 0
M  V30 5297 H 489.859 -1.13553 -1.2611 0
M  V30 5298 H 488.631 -2.36202 -3.11968 0
M  V30 5299 H 488.254 -0.829039 -3.88861 0
M  V30 5300 N 489.251 1.34841 -0.815825 0
M  V30 5301 C 490.183 2.28409 -0.190265 0
M  V30 5302 C 491.196 1.50705 0.615771 0
M  V30 5303 O 492.385 1.72822 0.446616 0
M  V30 5304 C 489.485 3.30441 0.752446 0
M  V30 5305 C 488.658 4.37399 -0.00922152 0
M  V30 5306 C 487.717 5.19234 0.853351 0
M  V30 5307 O 486.743 5.68404 0.300919 0
M  V30 5308 N 487.945 5.38248 2.17416 0
M  V30 5309 H 490.71 2.82732 -0.994114 0
M  V30 5310 H 488.271 1.47289 -0.672129 0
M  V30 5311 H 490.263 3.82084 1.33394 0
M  V30 5312 H 488.833 2.76565 1.45707 0
M  V30 5313 H 488.053 3.86567 -0.771979 0
M  V30 5314 H 489.341 5.05992 -0.533807 0
M  V30 5315 H 488.739 4.99961 2.6468 0
M  V30 5316 H 487.296 5.93035 2.70467 0
M  V30 5317 N 490.729 0.570148 1.46925 0
M  V30 5318 C 491.975 0.0510284 2.02736 0
M  V30 5319 C 492.308 -1.3006 1.44215 0
M  V30 5320 O 491.583 -1.84932 0.602521 0
M  V30 5321 C 491.866 -0.028215 3.60089 0
M  V30 5322 C 491.719 1.35142 4.29018 0
M  V30 5323 C 493.038 -0.735181 4.33916 0
M  V30 5324 H 490.157 0.0200178 0.736728 0
M  V30 5325 H 492.799 0.73493 1.75211 0
M  V30 5326 H 490.949 -0.610648 3.83671 0
M  V30 5327 H 492.621 1.97806 4.16738 0
M  V30 5328 H 490.864 1.9226 3.88868 0
M  V30 5329 H 491.535 1.24857 5.37694 0
M  V30 5330 H 494.011 -0.240519 4.15404 0
M  V30 5331 H 492.887 -0.759622 5.43618 0
M  V30 5332 H 493.148 -1.79397 4.04066 0
M  V30 5333 N 492.207 -1.54576 0.307264 0
M  V30 5334 C 493.453 -2.0056 -0.300612 0
M  V30 5335 C 493.786 -1.1953 -1.53057 0
M  V30 5336 O 493.061 -0.27337 -1.92569 0
M  V30 5337 C 493.344 -3.54167 -0.650987 0
M  V30 5338 C 493.197 -4.45933 0.588539 0
M  V30 5339 C 494.516 -4.14645 -1.47506 0
M  V30 5340 H 491.635 -0.729075 -0.107788 0
M  V30 5341 H 494.277 -1.85286 0.420606 0
M  V30 5342 H 492.427 -3.67313 -1.26544 0
M  V30 5343 H 494.099 -4.44683 1.22697 0
M  V30 5344 H 492.342 -4.16274 1.22058 0
M  V30 5345 H 493.013 -5.51189 0.299153 0
M  V30 5346 H 495.489 -4.04973 -0.955821 0
M  V30 5347 H 494.365 -5.22269 -1.68899 0
M  V30 5348 H 494.626 -3.66921 -2.4662 0
M  V30 5349 N 493.685 -0.035106 -1.57561 0
M  V30 5350 C 494.632 0.94474 -2.10578 0
M  V30 5351 C 495.602 1.3192 -1.00927 0
M  V30 5352 O 496.787 1.41147 -1.28382 0
M  V30 5353 C 493.927 2.21982 -2.64231 0
M  V30 5354 C 493.04 1.90128 -3.87911 0
M  V30 5355 C 492.175 3.11975 -4.29936 0
M  V30 5356 C 491.214 2.75968 -5.46359 0
M  V30 5357 N 490.351 3.90459 -5.83512 0
M  V30 5358 H 495.191 0.485717 -2.94015 0
M  V30 5359 H 492.728 0.228143 -1.4532 0
M  V30 5360 H 494.686 2.96572 -2.9343 0
M  V30 5361 H 493.316 2.6549 -1.83616 0
M  V30 5362 H 492.368 1.05755 -3.65404 0
M  V30 5363 H 493.68 1.59613 -4.72573 0
M  V30 5364 H 492.834 3.9488 -4.60603 0
M  V30 5365 H 491.573 3.45657 -3.44053 0
M  V30 5366 H 490.578 1.91478 -5.1538 0
M  V30 5367 H 491.803 2.43497 -6.33945 0
M  V30 5368 H 489.749 4.23971 -5.00584 0
M  V30 5369 H 489.666 3.63588 -6.62827 0
M  V30 5370 H 490.934 4.7405 -6.18787 0
M  V30 5371 N 495.163 1.55791 0.238111 0
M  V30 5372 C 496.409 1.78297 0.966337 0
M  V30 5373 C 496.742 0.601903 1.84637 0
M  V30 5374 O 496.017 -0.399499 1.90353 0
M  V30 5375 C 496.3 3.10758 1.81939 0
M  V30 5376 C 496.153 4.39283 0.966958 0
M  V30 5377 C 497.472 3.39519 2.80027 0
M  V30 5378 H 494.591 0.648654 0.349882 0
M  V30 5379 H 497.233 1.88525 0.236253 0
M  V30 5380 H 495.383 3.02168 2.44185 0
M  V30 5381 H 497.055 4.59873 0.362514 0
M  V30 5382 H 495.298 4.32948 0.271669 0
M  V30 5383 H 495.969 5.28368 1.59784 0
M  V30 5384 H 498.445 3.48128 2.27917 0
M  V30 5385 H 497.321 4.33402 3.36829 0
M  V30 5386 H 497.582 2.60864 3.56934 0
M  V30 5387 N 496.642 -0.504142 1.49319 0
M  V30 5388 C 497.605 -1.5883 1.65244 0
M  V30 5389 C 498.605 -1.52009 0.524386 0
M  V30 5390 O 499.795 -1.55218 0.79077 0
M  V30 5391 C 496.927 -2.98481 1.64687 0
M  V30 5392 H 498.12 -1.4604 2.61939 0
M  V30 5393 H 495.673 -0.728144 1.38303 0
M  V30 5394 H 496.408 -3.16751 0.695644 0
M  V30 5395 H 496.193 -3.0484 2.46607 0
M  V30 5396 H 497.683 -3.77256 1.79075 0
M  V30 5397 N 498.12 -1.38341 -0.754957 0
M  V30 5398 C 499.345 -1.37882 -1.5493 0
M  V30 5399 C 499.77 0.0296385 -1.88077 0
M  V30 5400 O 499.128 1.01133 -1.50472 0
M  V30 5401 C 499.176 -2.23996 -2.82592 0
M  V30 5402 O 498.28 -1.65612 -3.77686 0
M  V30 5403 H 497.621 -0.470384 -0.468652 0
M  V30 5404 H 500.151 -1.82084 -0.933082 0
M  V30 5405 H 500.161 -2.37806 -3.3153 0
M  V30 5406 H 498.836 -3.26365 -2.57796 0
M  V30 5407 H 497.413 -1.60936 -3.36384 0
M  V30 5408 N 499.598 0.982988 -1.23187 0
M  V30 5409 C 501.009 1.53847 -1.05773 0
M  V30 5410 C 501.36 1.92568 0.375744 0
M  V30 5411 O 500.485 1.75783 1.26211 0
M  V30 5412 C 501.08 2.79567 -1.91384 0
M  V30 5413 C 499.639 3.31524 -1.78238 0
M  V30 5414 C 498.786 2.04534 -1.87246 0
M  V30 5415 H 501.737 0.802962 -1.36888 0
M  V30 5416 H 501.758 3.52317 -1.43711 0
M  V30 5417 H 501.27 2.51353 -2.95708 0
M  V30 5418 H 499.371 3.64623 -0.766875 0
M  V30 5419 H 499.484 4.01457 -2.61475 0
M  V30 5420 H 497.848 2.1855 -1.30797 0
M  V30 5421 H 498.631 1.78706 -2.9312 0
M  V30 5422 N 501.076 1.04316 1.18135 0
M  V30 5423 C 502.301 0.768047 1.92655 0
M  V30 5424 C 502.726 -0.66904 1.758 0
M  V30 5425 O 502.084 -1.46372 1.06981 0
M  V30 5426 C 502.132 1.14239 3.42026 0
M  V30 5427 O 501.236 0.269333 4.1152 0
M  V30 5428 H 500.577 0.282436 0.600937 0
M  V30 5429 H 503.107 1.39367 1.49793 0
M  V30 5430 H 503.117 1.10538 3.92741 0
M  V30 5431 H 501.792 2.18928 3.53615 0
M  V30 5432 H 500.369 0.366175 3.71098 0
M  V30 5433 N 502.554 -1.34406 0.822964 0
M  V30 5434 C 503.802 -1.97892 0.410245 0
M  V30 5435 C 504.123 -1.65567 -1.03017 0
M  V30 5436 O 503.393 -0.94642 -1.71522 0
M  V30 5437 H 501.973 -0.732049 0.148707 0
M  V30 5438 H 504.635 -1.64043 1.05242 0
M  V30 5439 H 503.731 -3.07579 0.529284 0
M  V30 5440 N 504.032 -0.577932 -1.46621 0
M  V30 5441 C 504.962 0.145917 -2.33044 0
M  V30 5442 C 505.943 0.888412 -1.45056 0
M  V30 5443 O 507.128 0.864812 -1.73881 0
M  V30 5444 C 504.258 1.16322 -3.27241 0
M  V30 5445 C 503.212 0.535868 -4.24632 0
M  V30 5446 C 502.538 1.65929 -5.08303 0
M  V30 5447 C 503.838 -0.523861 -5.19666 0
M  V30 5448 H 505.532 -0.575636 -2.93814 0
M  V30 5449 H 503.078 -0.278272 -1.41286 0
M  V30 5450 H 505.031 1.67793 -3.86553 0
M  V30 5451 H 503.755 1.91498 -2.64567 0
M  V30 5452 H 502.414 0.0422759 -3.66576 0
M  V30 5453 H 502.062 2.40061 -4.42018 0
M  V30 5454 H 501.762 1.2452 -5.74255 0
M  V30 5455 H 503.286 2.17686 -5.70478 0
M  V30 5456 H 504.7 -0.0944059 -5.73222 0
M  V30 5457 H 503.097 -0.858 -5.93935 0
M  V30 5458 H 504.167 -1.41197 -4.63887 0
M  V30 5459 N 505.51 1.54411 -0.315457 0
M  V30 5460 C 506.926 1.59556 0.037464 0
M  V30 5461 C 507.126 1.33217 1.5118 0
M  V30 5462 O 506.182 1.11264 2.26664 0
M  V30 5463 C 507.495 2.98372 -0.373477 0
M  V30 5464 C 509.043 3.11324 -0.323452 0
M  V30 5465 C 509.518 4.52472 -0.709433 0
M  V30 5466 N 511.009 4.58437 -0.662524 0
M  V30 5467 C 511.744 5.65751 -0.933474 0
M  V30 5468 N 511.24 6.81039 -1.27114 0
M  V30 5469 N 513.033 5.55489 -0.859573 0
M  V30 5470 H 505.184 1.6979 -1.27614 0
M  V30 5471 H 507.447 0.793732 -0.518356 0
M  V30 5472 H 507.153 3.22618 -1.40037 0
M  V30 5473 H 507.027 3.76264 0.265615 0
M  V30 5474 H 509.414 2.86818 0.694223 0
M  V30 5475 H 509.495 2.35555 -0.997367 0
M  V30 5476 H 509.139 4.7771 -1.72498 0
M  V30 5477 H 509.069 5.26598 -0.0132923 0
M  V30 5478 H 511.56 3.75636 -0.413065 0
M  V30 5479 H 511.873 7.58816 -1.46348 0
M  V30 5480 H 510.218 6.82555 -1.30932 0
M  V30 5481 H 513.409 4.64299 -0.595324 0
M  V30 5482 H 513.582 6.39036 -1.0741 0
M  V30 5483 N 506.988 0.0434614 1.5754 0
M  V30 5484 C 508.265 -0.671479 1.83713 0
M  V30 5485 C 508.645 -1.89495 0.930315 0
M  V30 5486 O 507.993 -2.28498 -0.0105639 0
M  V30 5487 C 508.203 -1.0361 3.33266 0
M  V30 5488 C 509.551 -1.42167 4.00092 0
M  V30 5489 O 510.575 -1.12866 3.37846 0
M  V30 5490 O 509.434 -1.96817 5.09829 0
M  V30 5491 H 506.528 -0.330726 0.75799 0
M  V30 5492 H 509.074 0.0722373 1.69546 0
M  V30 5493 H 507.846 -0.165938 3.90948 0
M  V30 5494 H 507.469 -1.83751 3.52592 0
M  V30 5495 N 508.466 -1.55915 -0.229846 0
M  V30 5496 C 509.691 -1.8296 -0.976743 0
M  V30 5497 C 510.116 -0.622735 -1.77493 0
M  V30 5498 O 509.474 0.428431 -1.76165 0
M  V30 5499 C 509.522 -3.07916 -1.8767 0
M  V30 5500 O 508.626 -2.86028 -2.97088 0
M  V30 5501 H 507.967 -0.603453 -0.277021 0
M  V30 5502 H 510.497 -2.0312 -0.245669 0
M  V30 5503 H 510.507 -3.37802 -2.2881 0
M  V30 5504 H 509.182 -3.95389 -1.28996 0
M  V30 5505 H 507.759 -2.67355 -2.59954 0
M  V30 5506 N 509.944 0.496216 -1.49584 0
M  V30 5507 C 511.172 1.27394 -1.63029 0
M  V30 5508 C 511.587 1.86344 -0.303569 0
M  V30 5509 O 510.944 1.68057 0.711547 0
M  V30 5510 C 510.995 2.40077 -2.70269 0
M  V30 5511 O 510.716 1.83549 -3.97796 0
M  V30 5512 C 512.217 3.31372 -2.94462 0
M  V30 5513 H 509.437 0.386211 -0.54871 0
M  V30 5514 H 511.981 0.595163 -1.95648 0
M  V30 5515 H 510.136 3.03775 -2.40415 0
M  V30 5516 H 510.55 2.57561 -4.56905 0
M  V30 5517 H 512.024 4.06707 -3.73221 0
M  V30 5518 H 512.501 3.88654 -2.0456 0
M  V30 5519 H 513.107 2.73435 -3.25751 0
M  V30 5520 N 511.423 1.38739 0.74761 0
M  V30 5521 C 512.669 1.35475 1.50912 0
M  V30 5522 C 513.002 -0.0533093 1.94127 0
M  V30 5523 O 512.277 -1.01572 1.65871 0
M  V30 5524 C 512.56 2.31582 2.75757 0
M  V30 5525 C 512.413 3.81274 2.38642 0
M  V30 5526 C 513.732 2.25722 3.77806 0
M  V30 5527 H 510.851 0.493427 0.547447 0
M  V30 5528 H 513.493 1.69634 0.855823 0
M  V30 5529 H 511.643 2.02582 3.31501 0
M  V30 5530 H 513.315 4.20972 1.88626 0
M  V30 5531 H 511.558 3.98664 1.71025 0
M  V30 5532 H 512.229 4.4399 3.27989 0
M  V30 5533 H 514.705 2.51336 3.31616 0
M  V30 5534 H 513.581 2.95069 4.62845 0
M  V30 5535 H 513.842 1.25803 4.23823 0
M  V30 5536 N 512.901 -0.976442 1.23707 0
M  V30 5537 C 514.317 -1.24341 1.00058 0
M  V30 5538 C 514.517 -1.99315 -0.295932 0
M  V30 5539 O 513.573 -2.3123 -1.01435 0
M  V30 5540 C 514.886 -2.03909 2.21001 0
M  V30 5541 C 516.434 -2.17034 2.25534 0
M  V30 5542 C 516.909 -2.99994 3.46075 0
M  V30 5543 N 518.4 -3.07578 3.46338 0
M  V30 5544 C 519.135 -3.72104 4.36264 0
M  V30 5545 N 518.631 -4.3842 5.36432 0
M  V30 5546 N 520.424 -3.69029 4.23998 0
M  V30 5547 H 512.575 -0.47428 2.07037 0
M  V30 5548 H 514.838 -0.272167 0.908091 0
M  V30 5549 H 514.544 -1.56198 3.15111 0
M  V30 5550 H 514.418 -3.04654 2.22409 0
M  V30 5551 H 516.805 -2.63951 1.31961 0
M  V30 5552 H 516.886 -1.15664 2.28156 0
M  V30 5553 H 516.53 -2.53772 4.39957 0
M  V30 5554 H 516.46 -4.01541 3.40694 0
M  V30 5555 H 518.951 -2.60397 2.73865 0
M  V30 5556 H 519.264 -4.85447 6.013 0
M  V30 5557 H 517.609 -4.37116 5.40328 0
M  V30 5558 H 520.8 -3.16392 3.44984 0
M  V30 5559 H 520.973 -4.19034 4.94282 0
M  V30 5560 N 514.379 -1.04941 -1.1758 0
M  V30 5561 C 515.609 -0.777166 -1.91425 0
M  V30 5562 C 516.017 0.670647 -1.76915 0
M  V30 5563 O 515.36 1.46965 -1.10213 0
M  V30 5564 C 515.422 -1.07495 -3.43052 0
M  V30 5565 C 515.086 -2.51844 -3.81345 0
M  V30 5566 C 516.083 -3.50047 -3.844 0
M  V30 5567 C 513.768 -2.86787 -4.12382 0
M  V30 5568 C 515.762 -4.81239 -4.17957 0
M  V30 5569 C 513.449 -4.18182 -4.45608 0
M  V30 5570 C 514.447 -5.15219 -4.48373 0
M  V30 5571 O 514.135 -6.44258 -4.80819 0
M  V30 5572 H 513.867 -0.282209 -0.614275 0
M  V30 5573 H 516.421 -1.40258 -1.50056 0
M  V30 5574 H 514.651 -0.392437 -3.84704 0
M  V30 5575 H 516.34 -0.78912 -3.98155 0
M  V30 5576 H 517.106 -3.24391 -3.60548 0
M  V30 5577 H 512.985 -2.11922 -4.09402 0
M  V30 5578 H 516.529 -5.56974 -4.2003 0
M  V30 5579 H 512.426 -4.43602 -4.68922 0
M  V30 5580 H 513.194 -6.49041 -4.98686 0
M  V30 5581 N 515.857 1.33968 -0.830081 0
M  V30 5582 C 517.105 1.97672 -0.420734 0
M  V30 5583 C 517.426 1.66111 1.02138 0
M  V30 5584 O 516.696 0.955503 1.71017 0
M  V30 5585 H 515.276 0.73125 -0.152587 0
M  V30 5586 H 517.938 1.63483 -1.0611 0
M  V30 5587 H 517.034 3.07294 -0.545588 0
M  V30 5588 N 517.335 0.585699 1.46312 0
M  V30 5589 C 518.612 0.00542031 1.95599 0
M  V30 5590 C 518.992 -1.45619 1.52834 0
M  V30 5591 O 518.34 -2.14759 0.780446 0
M  V30 5592 C 518.55 0.180601 3.48532 0
M  V30 5593 C 519.898 0.049979 4.24571 0
M  V30 5594 O 520.922 0.109589 3.56031 0
M  V30 5595 O 519.781 -0.0832226 5.46437 0
M  V30 5596 H 516.875 -0.0481281 0.825598 0
M  V30 5597 H 519.421 0.654227 1.56582 0
M  V30 5598 H 518.193 1.19657 3.72556 0
M  V30 5599 H 517.816 -0.504498 3.94386 0
M  V30 5600 N 518.813 -1.54241 0.323641 0
M  V30 5601 C 520.224 -1.85975 -0.164405 0
M  V30 5602 C 520.575 -1.24529 -1.51615 0
M  V30 5603 O 519.7 -0.551351 -2.09258 0
M  V30 5604 C 520.295 -3.37424 -0.305091 0
M  V30 5605 C 518.854 -3.69107 -0.737358 0
M  V30 5606 C 518.001 -2.76942 0.140884 0
M  V30 5607 H 520.952 -1.49088 0.543922 0
M  V30 5608 H 520.973 -3.63147 -1.13598 0
M  V30 5609 H 520.485 -3.82116 0.678876 0
M  V30 5610 H 518.586 -3.29947 -1.73107 0
M  V30 5611 H 518.699 -4.76035 -0.541053 0
M  V30 5612 H 517.063 -2.51795 -0.383572 0
M  V30 5613 H 517.846 -3.24461 1.12162 0
M  V30 5614 N 520.291 -0.0518155 -1.57515 0
M  V30 5615 C 521.201 0.937539 -2.15052 0
M  V30 5616 C 522.217 1.34121 -1.10849 0
M  V30 5617 O 523.393 1.418 -1.4302 0
M  V30 5618 C 520.458 2.19379 -2.68466 0
M  V30 5619 C 519.519 1.84841 -3.87469 0
M  V30 5620 C 518.752 3.04477 -4.38326 0
M  V30 5621 O 518.975 4.17868 -3.88256 0
M  V30 5622 O 517.909 2.85453 -5.29906 0
M  V30 5623 H 521.735 0.478201 -2.99912 0
M  V30 5624 H 519.32 0.17012 -1.48428 0
M  V30 5625 H 521.202 2.93084 -3.02787 0
M  V30 5626 H 519.877 2.64449 -1.86677 0
M  V30 5627 H 518.784 1.08449 -3.58036 0
M  V30 5628 H 520.117 1.44569 -4.7049 0
M  V30 5629 N 521.769 1.56035 0.221574 0
M  V30 5630 C 522.716 1.92413 1.27459 0
M  V30 5631 C 523.686 0.781323 1.46576 0
M  V30 5632 O 524.871 1.03721 1.60145 0
M  V30 5633 C 522.011 2.24617 2.61995 0
M  V30 5634 C 521.124 3.51831 2.50677 0
M  V30 5635 C 520.259 3.73482 3.77736 0
M  V30 5636 C 519.298 4.94211 3.6114 0
M  V30 5637 N 518.435 5.12252 4.80148 0
M  V30 5638 H 523.275 2.82203 0.957355 0
M  V30 5639 H 520.812 1.39676 0.461415 0
M  V30 5640 H 522.77 2.41298 3.40339 0
M  V30 5641 H 521.4 1.38 2.91815 0
M  V30 5642 H 520.452 3.43343 1.63767 0
M  V30 5643 H 521.764 4.40328 2.34334 0
M  V30 5644 H 520.918 3.9026 4.64523 0
M  V30 5645 H 519.657 2.83266 3.97003 0
M  V30 5646 H 518.662 4.77384 2.72736 0
M  V30 5647 H 519.887 5.85912 3.43343 0
M  V30 5648 H 517.833 4.24978 4.99729 0
M  V30 5649 H 517.75 5.94881 4.66532 0
M  V30 5650 H 519.018 5.33465 5.68362 0
M  V30 5651 N 523.247 -0.488276 1.49845 0
M  V30 5652 C 524.177 -1.59675 1.70371 0
M  V30 5653 C 525.158 -1.60878 0.552473 0
M  V30 5654 O 526.343 -1.77417 0.78973 0
M  V30 5655 C 523.473 -2.98098 1.782 0
M  V30 5656 C 522.427 -3.11761 2.93239 0
M  V30 5657 C 521.753 -4.51661 2.86193 0
M  V30 5658 C 523.053 -2.90589 4.33999 0
M  V30 5659 H 524.747 -1.42752 2.63177 0
M  V30 5660 H 522.293 -0.685317 1.26647 0
M  V30 5661 H 524.246 -3.75555 1.91144 0
M  V30 5662 H 522.97 -3.16138 0.820018 0
M  V30 5663 H 521.629 -2.36732 2.79917 0
M  V30 5664 H 521.277 -4.66595 1.87877 0
M  V30 5665 H 520.977 -4.61742 3.63412 0
M  V30 5666 H 522.501 -5.31162 3.01163 0
M  V30 5667 H 523.915 -3.57807 4.47936 0
M  V30 5668 H 522.312 -3.1213 5.12538 0
M  V30 5669 H 523.382 -1.86595 4.4756 0
M  V30 5670 N 524.725 -1.39134 -0.740242 0
M  V30 5671 C 525.672 -1.37434 -1.8542 0
M  V30 5672 C 526.642 -0.234822 -1.64432 0
M  V30 5673 O 527.827 -0.429125 -1.85912 0
M  V30 5674 C 524.967 -1.21844 -3.22875 0
M  V30 5675 C 524.08 -2.45296 -3.55603 0
M  V30 5676 C 523.215 -2.22334 -4.82432 0
M  V30 5677 C 522.254 -3.41488 -5.07988 0
M  V30 5678 N 521.391 -3.17877 -6.26018 0
M  V30 5679 H 526.231 -2.3266 -1.86207 0
M  V30 5680 H 523.768 -1.15578 -0.909946 0
M  V30 5681 H 525.726 -1.10818 -4.02213 0
M  V30 5682 H 524.356 -0.3025 -3.21379 0
M  V30 5683 H 523.408 -2.66945 -2.71006 0
M  V30 5684 H 524.72 -3.34063 -3.7041 0
M  V30 5685 H 523.874 -2.0852 -5.69741 0
M  V30 5686 H 522.613 -1.30954 -4.6979 0
M  V30 5687 H 521.618 -3.55807 -4.19144 0
M  V30 5688 H 522.843 -4.33763 -5.22519 0
M  V30 5689 H 520.789 -2.29156 -6.14673 0
M  V30 5690 H 520.706 -4.00198 -6.41387 0
M  V30 5691 H 521.974 -3.07746 -7.16179 0
M  V30 5692 N 526.204 0.969867 -1.24223 0
M  V30 5693 C 527.134 2.08191 -1.05729 0
M  V30 5694 C 528.115 1.70075 0.0290765 0
M  V30 5695 O 529.3 1.93712 -0.137583 0
M  V30 5696 C 526.43 3.40991 -0.658995 0
M  V30 5697 C 525.384 3.93054 -1.69389 0
M  V30 5698 C 524.71 5.22171 -1.15072 0
M  V30 5699 C 526.01 4.21137 -3.08935 0
M  V30 5700 H 527.704 2.23921 -1.98746 0
M  V30 5701 H 525.25 1.07602 -0.956967 0
M  V30 5702 H 527.203 4.18221 -0.51662 0
M  V30 5703 H 525.927 3.25155 0.30686 0
M  V30 5704 H 524.586 3.17977 -1.82444 0
M  V30 5705 H 524.234 5.02694 -0.175539 0
M  V30 5706 H 523.934 5.57973 -1.84229 0
M  V30 5707 H 525.458 6.02013 -1.02042 0
M  V30 5708 H 526.872 4.8908 -2.99121 0
M  V30 5709 H 525.269 4.68163 -3.75425 0
M  V30 5710 H 526.339 3.27996 -3.57137 0
M  V30 5711 N 527.682 1.05563 1.17022 0
M  V30 5712 C 528.592 0.670758 2.24807 0
M  V30 5713 C 529.608 -0.309865 1.71219 0
M  V30 5714 O 530.784 -0.161025 2.00755 0
M  V30 5715 C 527.849 0.055337 3.46656 0
M  V30 5716 C 526.91 1.08688 4.15314 0
M  V30 5717 C 526.143 0.500736 5.31346 0
M  V30 5718 O 526.366 -0.688718 5.66227 0
M  V30 5719 O 525.3 1.23683 5.89055 0
M  V30 5720 H 529.126 1.56914 2.60023 0
M  V30 5721 H 526.711 0.827428 1.24395 0
M  V30 5722 H 528.593 -0.286492 4.20425 0
M  V30 5723 H 527.268 -0.816638 3.13229 0
M  V30 5724 H 526.175 1.48077 3.43546 0
M  V30 5725 H 527.508 1.93014 4.52777 0
M  V30 5726 N 529.16 -1.33526 0.837174 0
M  V30 5727 C 530.07 -2.33023 0.271568 0
M  V30 5728 C 531.086 -1.63272 -0.601514 0
M  V30 5729 O 532.262 -1.94939 -0.506038 0
M  V30 5730 C 529.327 -3.42382 -0.545448 0
M  V30 5731 C 528.388 -4.27857 0.351709 0
M  V30 5732 C 527.621 -5.31994 -0.426409 0
M  V30 5733 O 527.844 -5.45763 -1.65828 0
M  V30 5734 O 526.778 -6.01572 0.1987 0
M  V30 5735 H 530.604 -2.83256 1.09545 0
M  V30 5736 H 528.189 -1.36837 0.599655 0
M  V30 5737 H 530.071 -4.09122 -1.00979 0
M  V30 5738 H 528.746 -2.94369 -1.34641 0
M  V30 5739 H 527.653 -3.6399 0.863853 0
M  V30 5740 H 528.986 -4.79349 1.1174 0
M  V30 5741 N 530.638 -0.59345 -1.46 0
M  V30 5742 C 531.863 -0.0872365 -2.07216 0
M  V30 5743 C 532.288 1.2131 -1.43755 0
M  V30 5744 O 531.646 1.73528 -0.525152 0
M  V30 5745 C 531.694 0.0538197 -3.6056 0
M  V30 5746 O 530.798 1.10765 -3.97247 0
M  V30 5747 H 530.139 -0.0676598 -0.660544 0
M  V30 5748 H 532.669 -0.819445 -1.87473 0
M  V30 5749 H 532.679 0.256567 -4.07193 0
M  V30 5750 H 531.354 -0.895739 -4.0614 0
M  V30 5751 H 529.931 0.882501 -3.62307 0
M  V30 5752 N 532.116 1.54067 -0.331816 0
M  V30 5753 C 533.046 2.27569 0.522932 0
M  V30 5754 C 534.027 1.28679 1.11247 0
M  V30 5755 O 535.212 1.57504 1.13605 0
M  V30 5756 C 532.342 3.0397 1.67987 0
M  V30 5757 C 531.296 4.10267 1.21924 0
M  V30 5758 C 530.622 4.74555 2.46377 0
M  V30 5759 C 531.922 5.21268 0.32815 0
M  V30 5760 H 533.616 2.99264 -0.0901977 0
M  V30 5761 H 531.162 1.4393 -0.044821 0
M  V30 5762 H 533.115 3.54123 2.28418 0
M  V30 5763 H 531.839 2.29906 2.31971 0
M  V30 5764 H 530.498 3.61009 0.637809 0
M  V30 5765 H 530.146 3.97098 3.08743 0
M  V30 5766 H 529.846 5.46363 2.16243 0
M  V30 5767 H 531.37 5.27487 3.07555 0
M  V30 5768 H 532.784 5.67128 0.838978 0
M  V30 5769 H 531.181 5.99982 0.119228 0
M  V30 5770 H 532.251 4.80673 -0.638839 0
M  V30 5771 N 533.594 0.0601682 1.57485 0
M  V30 5772 C 535.01 -0.296422 1.56823 0
M  V30 5773 C 535.21 -1.70831 1.0686 0
M  V30 5774 O 534.266 -2.4174 0.729245 0
M  V30 5775 C 535.579 -0.116681 3.00474 0
M  V30 5776 C 537.127 -0.187103 3.1244 0
M  V30 5777 C 537.602 -0.035783 4.57986 0
M  V30 5778 N 539.093 -0.0917676 4.63109 0
M  V30 5779 C 539.828 0.00107251 5.734 0
M  V30 5780 N 539.324 0.146773 6.92645 0
M  V30 5781 N 541.117 -0.0551577 5.62073 0
M  V30 5782 H 533.268 0.983055 1.88281 0
M  V30 5783 H 535.531 0.382386 0.867459 0
M  V30 5784 H 535.237 0.85712 3.41096 0
M  V30 5785 H 535.111 -0.873929 3.66936 0
M  V30 5786 H 537.498 -1.15138 2.71712 0
M  V30 5787 H 537.579 0.601052 2.48638 0
M  V30 5788 H 537.223 0.925212 4.99402 0
M  V30 5789 H 537.153 -0.843196 5.19806 0
M  V30 5790 H 539.644 -0.203261 3.77353 0
M  V30 5791 H 539.957 0.210076 7.72514 0
M  V30 5792 H 538.302 0.181979 6.94762 0
M  V30 5793 H 541.493 -0.167605 4.678 0
M  V30 5794 H 541.666 0.020652 6.47997 0
M  V30 5795 N 535.072 -1.5615 -0.213296 0
M  V30 5796 C 535.982 -1.96265 -1.28519 0
M  V30 5797 C 536.998 -0.86765 -1.50824 0
M  V30 5798 O 538.174 -1.17191 -1.63793 0
M  V30 5799 C 535.239 -2.27836 -2.61327 0
M  V30 5800 C 534.3 -3.50949 -2.47252 0
M  V30 5801 C 533.533 -3.81004 -3.73727 0
M  V30 5802 O 533.756 -3.12612 -4.77106 0
M  V30 5803 O 532.69 -4.74477 -3.70344 0
M  V30 5804 H 536.516 -2.87631 -0.974795 0
M  V30 5805 H 534.101 -1.43467 -0.416832 0
M  V30 5806 H 535.983 -2.49299 -3.39747 0
M  V30 5807 H 534.658 -1.39643 -2.9203 0
M  V30 5808 H 533.565 -3.34754 -1.67004 0
M  V30 5809 H 534.898 -4.39551 -2.21486 0
M  V30 5810 N 536.55 0.480323 -1.50102 0
M  V30 5811 C 537.482 1.59669 -1.64433 0
M  V30 5812 C 538.495 1.54063 -0.52615 0
M  V30 5813 O 539.684 1.59619 -0.798992 0
M  V30 5814 C 536.784 2.98527 -1.6042 0
M  V30 5815 C 535.957 3.291 -2.88117 0
M  V30 5816 C 535.016 4.47468 -2.76873 0
M  V30 5817 O 534.042 4.4823 -3.50825 0
M  V30 5818 N 535.244 5.48593 -1.89806 0
M  V30 5819 H 538.009 1.47795 -2.60723 0
M  V30 5820 H 535.57 0.66858 -1.4745 0
M  V30 5821 H 537.562 3.75666 -1.50523 0
M  V30 5822 H 536.132 3.04218 -0.719036 0
M  V30 5823 H 535.352 2.40662 -3.12211 0
M  V30 5824 H 536.64 3.46334 -3.72734 0
M  V30 5825 H 536.038 5.50791 -1.2902 0
M  V30 5826 H 534.595 6.24752 -1.85819 0
M  V30 5827 N 538.028 1.39524 0.732853 0
M  V30 5828 C 538.991 1.38189 1.82857 0
M  V30 5829 C 539.991 0.278624 1.58368 0
M  V30 5830 O 541.181 0.536639 1.65728 0
M  V30 5831 C 538.313 1.15661 3.2068 0
M  V30 5832 H 539.506 2.35692 1.85444 0
M  V30 5833 H 537.059 1.2512 0.936728 0
M  V30 5834 H 537.794 0.188482 3.23752 0
M  V30 5835 H 537.579 1.95559 3.39852 0
M  V30 5836 H 539.069 1.17472 4.00737 0
M  V30 5837 N 539.506 -0.963266 1.24736 0
M  V30 5838 C 540.416 -2.09246 1.06082 0
M  V30 5839 C 541.432 -1.74 0.000363101 0
M  V30 5840 O 542.608 -2.0041 0.199479 0
M  V30 5841 C 539.673 -3.40115 0.672498 0
M  V30 5842 C 538.734 -3.89282 1.80993 0
M  V30 5843 C 537.967 -5.13905 1.44004 0
M  V30 5844 O 538.19 -5.69434 0.331835 0
M  V30 5845 O 537.124 -5.57566 2.26723 0
M  V30 5846 H 540.95 -2.27881 2.00759 0
M  V30 5847 H 538.535 -1.07649 1.03595 0
M  V30 5848 H 540.417 -4.18797 0.467668 0
M  V30 5849 H 539.092 -3.22771 -0.245102 0
M  V30 5850 H 537.999 -3.11642 2.06955 0
M  V30 5851 H 539.332 -4.1111 2.70646 0
M  V30 5852 N 540.985 -1.06182 -1.16461 0
M  V30 5853 C 541.932 -0.671613 -2.20812 0
M  V30 5854 C 542.902 0.331186 -1.62765 0
M  V30 5855 O 544.087 0.22033 -1.89524 0
M  V30 5856 C 541.227 -0.063029 -3.45042 0
M  V30 5857 C 540.34 -1.11587 -4.1734 0
M  V30 5858 C 539.475 -0.473546 -5.29085 0
M  V30 5859 C 538.514 -1.51 -5.93182 0
M  V30 5860 N 537.651 -0.891118 -6.96422 0
M  V30 5861 H 542.491 -1.56589 -2.53542 0
M  V30 5862 H 540.028 -0.782951 -1.24532 0
M  V30 5863 H 541.986 0.307344 -4.16066 0
M  V30 5864 H 540.616 0.794663 -3.12866 0
M  V30 5865 H 539.668 -1.60396 -3.44931 0
M  V30 5866 H 540.98 -1.90221 -4.61104 0
M  V30 5867 H 540.134 -0.0501432 -6.06679 0
M  V30 5868 H 538.873 0.344687 -4.8648 0
M  V30 5869 H 537.878 -1.94331 -5.14311 0
M  V30 5870 H 539.103 -2.33031 -6.37866 0
M  V30 5871 H 537.049 -0.0935753 -6.55933 0
M  V30 5872 H 536.966 -1.61486 -7.38551 0
M  V30 5873 H 538.234 -0.492822 -7.77941 0
M  V30 5874 N 542.463 1.3308 -0.844243 0
M  V30 5875 C 543.373 2.32876 -0.283922 0
M  V30 5876 C 544.389 1.63589 0.592846 0
M  V30 5877 O 545.565 1.95205 0.495693 0
M  V30 5878 C 542.63 3.42667 0.527283 0
M  V30 5879 C 541.691 4.27664 -0.374394 0
M  V30 5880 C 540.924 5.32212 0.39819 0
M  V30 5881 O 541.147 5.46635 1.62932 0
M  V30 5882 O 540.081 6.01458 -0.2306 0
M  V30 5883 H 543.907 2.82671 -1.11045 0
M  V30 5884 H 541.492 1.36518 -0.606903 0
M  V30 5885 H 543.374 4.09652 0.988078 0
M  V30 5886 H 542.049 2.95079 1.33078 0
M  V30 5887 H 540.956 3.63526 -0.883144 0
M  V30 5888 H 542.289 4.78749 -1.1428 0
M  V30 5889 N 543.941 0.601185 1.45683 0
M  V30 5890 C 545.189 0.0936957 2.01883 0
M  V30 5891 C 545.51 -1.2779 1.47291 0
M  V30 5892 O 544.78 -1.84279 0.664691 0
M  V30 5893 H 543.36 0.0316466 0.746329 0
M  V30 5894 H 546.022 0.781137 1.78562 0
M  V30 5895 H 545.118 0.0386297 3.12076 0
M  V30 5896 N 545.419 -1.53889 0.339982 0
M  V30 5897 C 546.644 -2.05741 -0.261798 0
M  V30 5898 C 547.069 -1.21354 -1.43718 0
M  V30 5899 O 546.427 -0.22645 -1.7988 0
M  V30 5900 C 546.475 -3.54542 -0.658228 0
M  V30 5901 O 545.579 -3.7302 -1.75869 0
M  V30 5902 H 544.92 -0.662529 -0.0441672 0
M  V30 5903 H 547.45 -1.98568 0.493161 0
M  V30 5904 H 547.46 -3.9711 -0.936368 0
M  V30 5905 H 546.135 -4.15412 0.201358 0
M  V30 5906 H 544.712 -3.42355 -1.47809 0
M  V30 5907 N 546.897 -0.0685191 -1.57451 0
M  V30 5908 C 547.86 0.885173 -2.11417 0
M  V30 5909 C 548.86 1.22853 -1.03748 0
M  V30 5910 O 550.05 1.16235 -1.2975 0
M  V30 5911 C 547.182 2.18964 -2.61281 0
M  V30 5912 H 548.375 0.417034 -2.96986 0
M  V30 5913 H 545.928 0.18014 -1.55258 0
M  V30 5914 H 546.663 2.70321 -1.79156 0
M  V30 5915 H 546.448 1.9534 -3.39977 0
M  V30 5916 H 547.938 2.87242 -3.0312 0
M  V30 5917 N 548.375 1.56261 0.205012 0
M  V30 5918 C 549.305 1.96779 1.257 0
M  V30 5919 C 550.286 0.838309 1.48008 0
M  V30 5920 O 551.471 1.10189 1.59913 0
M  V30 5921 C 548.601 2.29876 2.60335 0
M  V30 5922 C 547.555 3.45469 2.52656 0
M  V30 5923 C 546.881 3.64215 3.91473 0
M  V30 5924 C 548.181 4.79954 2.06014 0
M  V30 5925 H 549.875 2.84904 0.920338 0
M  V30 5926 H 547.421 1.37072 0.441277 0
M  V30 5927 H 549.374 2.56814 3.34102 0
M  V30 5928 H 548.098 1.38622 2.95722 0
M  V30 5929 H 546.757 3.18605 1.81345 0
M  V30 5930 H 546.405 2.70309 4.24196 0
M  V30 5931 H 546.105 4.41973 3.87213 0
M  V30 5932 H 547.629 3.93519 4.66878 0
M  V30 5933 H 549.043 5.05989 2.69533 0
M  V30 5934 H 547.44 5.61111 2.12777 0
M  V30 5935 H 548.51 4.74201 1.01297 0
M  V30 5936 N 549.853 -0.472356 1.50355 0
M  V30 5937 C 551.078 -1.25251 1.65309 0
M  V30 5938 C 551.503 -1.85081 0.335643 0
M  V30 5939 O 550.861 -1.67227 -0.700335 0
M  V30 5940 C 550.909 -2.3379 2.74544 0
M  V30 5941 O 550.013 -3.38401 2.35709 0
M  V30 5942 H 549.354 -0.368539 0.552336 0
M  V30 5943 H 551.884 -0.562271 1.96722 0
M  V30 5944 H 551.894 -2.79121 2.97583 0
M  V30 5945 H 550.569 -1.89614 3.70161 0
M  V30 5946 H 549.146 -2.9879 2.23112 0
M  V30 5947 N 551.331 -1.39911 -0.725443 0
M  V30 5948 C 552.577 -1.37858 -1.48738 0
M  V30 5949 C 552.91 0.0224187 -1.94187 0
M  V30 5950 O 552.185 0.989204 -1.67466 0
M  V30 5951 C 552.468 -2.3594 -2.72038 0
M  V30 5952 C 552.321 -3.85023 -2.32546 0
M  V30 5953 C 553.64 -2.31704 -3.74167 0
M  V30 5954 H 550.759 -0.502074 -0.539528 0
M  V30 5955 H 553.401 -1.70974 -0.828728 0
M  V30 5956 H 551.551 -2.0783 -3.28236 0
M  V30 5957 H 553.223 -4.2392 -1.81905 0
M  V30 5958 H 551.466 -4.01334 -1.64661 0
M  V30 5959 H 552.137 -4.49152 -3.20884 0
M  V30 5960 H 554.613 -2.5658 -3.27576 0
M  V30 5961 H 553.489 -3.02395 -4.58092 0
M  V30 5962 H 553.75 -1.3253 -4.21768 0
M  V30 5963 N 552.809 0.956637 -1.25245 0
M  V30 5964 C 554.225 1.22733 -1.02023 0
M  V30 5965 C 554.425 1.99761 0.264186 0
M  V30 5966 O 553.481 2.32814 0.977436 0
M  V30 5967 C 554.794 2.00367 -2.24217 0
M  V30 5968 C 556.342 2.13418 -2.28958 0
M  V30 5969 C 556.817 2.9445 -3.50803 0
M  V30 5970 N 558.308 3.02029 -3.51187 0
M  V30 5971 C 559.043 3.65116 -4.42129 0
M  V30 5972 N 558.539 4.2983 -5.43339 0
M  V30 5973 N 560.332 3.62237 -4.29815 0
M  V30 5974 H 552.483 0.441282 -2.07765 0
M  V30 5975 H 554.746 0.257686 -0.912306 0
M  V30 5976 H 554.452 1.51165 -3.17556 0
M  V30 5977 H 554.326 3.01077 -2.27228 0
M  V30 5978 H 556.713 2.61819 -1.36143 0
M  V30 5979 H 556.794 1.1202 -2.29968 0
M  V30 5980 H 556.438 2.46741 -4.43939 0
M  V30 5981 H 556.368 3.9607 -3.47039 0
M  V30 5982 H 558.859 2.56007 -2.77973 0
M  V30 5983 H 559.172 4.75819 -6.08947 0
M  V30 5984 H 557.517 4.28465 -5.47214 0
M  V30 5985 H 560.708 3.10863 -3.49974 0
M  V30 5986 H 560.881 4.11117 -5.00886 0
M  V30 5987 N 554.287 1.06798 1.15896 0
M  V30 5988 C 555.536 0.782796 1.8589 0
M  V30 5989 C 555.849 -0.693498 1.82893 0
M  V30 5990 O 557.055 -1.09325 2.48516 0
M  V30 5991 C 555.511 1.3502 3.33613 0
M  V30 5992 C 555.119 2.8571 3.45071 0
M  V30 5993 C 556.863 1.14278 4.08829 0
M  V30 5994 C 554.77 3.35669 4.86909 0
M  V30 5995 H 553.7 0.289149 0.696354 0
M  V30 5996 H 556.351 1.28734 1.30766 0
M  V30 5997 H 554.733 0.773407 3.88374 0
M  V30 5998 H 555.907 3.49385 3.00445 0
M  V30 5999 H 554.222 3.05178 2.83294 0
M  V30 6000 H 556.819 1.49087 5.13495 0
M  V30 6001 H 557.162 0.0814575 4.1622 0
M  V30 6002 H 557.695 1.68563 3.60321 0
M  V30 6003 H 554.434 4.41302 4.84698 0
M  V30 6004 H 553.954 2.76745 5.32139 0
M  V30 6005 H 555.633 3.31296 5.55745 0
M  V30 6006 N 555.766 -1.3263 0.851289 0
M  V30 6007 C 556.991 -2.02097 0.466006 0
M  V30 6008 C 557.416 -1.63574 -0.928709 0
M  V30 6009 O 556.774 -0.834665 -1.60944 0
M  V30 6010 C 556.822 -3.55425 0.608737 0
M  V30 6011 O 555.926 -4.10827 -0.359878 0
M  V30 6012 H 555.267 -0.636911 0.187724 0
M  V30 6013 H 557.797 -1.69253 1.14955 0
M  V30 6014 H 557.807 -4.04986 0.495006 0
M  V30 6015 H 556.482 -3.82806 1.62581 0
M  V30 6016 H 555.059 -3.72349 -0.202666 0
M  V30 6017 N 557.244 -0.608902 -1.45362 0
M  V30 6018 C 558.192 0.121639 -2.32282 0
M  V30 6019 C 559.186 0.858301 -1.46046 0
M  V30 6020 O 560.392 0.773718 -1.62523 0
M  V30 6021 H 556.767 0.058086 -0.749753 0
M  V30 6022 H 558.738 -0.629866 -2.91677 0
M  V30 6023 C 557.487 1.1047 -3.29684 0
M  V30 6024 H 556.81 0.547278 -3.96036 0
M  V30 6025 H 558.25 1.58576 -3.9323 0
M  V30 6026 C 556.709 2.17891 -2.56954 0
M  V30 6027 O 557.239 3.25652 -2.35189 0
M  V30 6028 N 555.445 1.93211 -2.17066 0
M  V30 6029 H 554.992 1.05584 -2.34967 0
M  V30 6030 H 554.95 2.6529 -1.68727 0
M  V30 6031 N 558.722 1.53707 -0.348139 0
M  V30 6032 C 559.968 2.01286 0.247332 0
M  V30 6033 C 560.301 1.23546 1.49834 0
M  V30 6034 O 559.576 0.324331 1.91777 0
M  V30 6035 C 559.859 3.55768 0.556858 0
M  V30 6036 C 559.712 4.44216 -0.706564 0
M  V30 6037 C 561.031 4.1841 1.3646 0
M  V30 6038 H 558.15 0.731677 0.0884201 0
M  V30 6039 H 560.792 1.84106 -0.469584 0
M  V30 6040 H 558.942 3.70539 1.16761 0
M  V30 6041 H 560.614 4.41274 -1.34444 0
M  V30 6042 H 558.857 4.12892 -1.33052 0
M  V30 6043 H 559.528 5.50202 -0.445186 0
M  V30 6044 H 562.004 4.07365 0.848113 0
M  V30 6045 H 560.88 5.26563 1.54992 0
M  V30 6046 H 561.141 3.7333 2.36805 0
M  V30 6047 O 560.239 0.216617 1.60041 0
M  V30 6048 H 560.93 -0.364805 1.90234 0
M  V30 END ATOM
M  V30 BEGIN BOND
M  V30 END BOND
M  V30 END CTAB
M  END
$$$$
