drugbank_target|Q16206 Ecto-NOX disulfide-thiol exchanger 2 (DB04915)
 OpenBabel12092120153D

  0  0  0     0  0            999 V3000
M  V30 BEGIN CTAB
M  V30 COUNTS 9774 9874 0 0 0
M  V30 BEGIN ATOM
M  V30 1 H -0.908 1.98254 -0.117106 0
M  V30 2 N 0 1.576 0 0
M  V30 3 C 0.933 2.03868 1.02534 0
M  V30 4 C 1.911 0.928543 1.3348 0
M  V30 5 O 3.095 1.19667 1.45644 0
M  V30 6 C 0.222 2.43627 2.35294 0
M  V30 7 C -0.732 3.65373 2.2001 0
M  V30 8 S 0.101 5.13292 1.52614 0
M  V30 9 C 1.257 5.56322 2.86805 0
M  V30 10 H 1.49 2.90518 0.631377 0
M  V30 11 H -0.977 1.52953 0.210867 0
M  V30 12 H 0.981 2.67203 3.11629 0
M  V30 13 H -0.358 1.57376 2.7183 0
M  V30 14 H -1.165 3.90944 3.18086 0
M  V30 15 H -1.563 3.418 1.51819 0
M  V30 16 H 0.729 5.58782 3.83104 0
M  V30 17 H 1.672 6.56266 2.65933 0
M  V30 18 H 2.08 4.83886 2.90714 0
M  V30 19 N 1.4781 -0.272755 1.55222 0
M  V30 20 C 2.4101 -1.35946 1.8453 0
M  V30 21 C 3.4231 -1.45525 0.729818 0
M  V30 22 O 4.6121 -1.47337 1.00767 0
M  V30 23 C 1.7121 -2.74069 1.99347 0
M  V30 24 C 0.8851 -2.87079 3.30007 0
M  V30 25 C -0.0559 -4.05879 3.34886 0
M  V30 26 O -1.0299 -3.96626 4.08261 0
M  V30 27 N 0.1721 -5.17857 2.62307 0
M  V30 28 H 2.9371 -1.11149 2.78327 0
M  V30 29 H 0.4981 -0.462869 1.55142 0
M  V30 30 H 2.4901 -3.51838 1.99981 0
M  V30 31 H 1.0601 -2.91688 1.12415 0
M  V30 32 H 0.2801 -1.96193 3.41909 0
M  V30 33 H 1.5681 -2.92701 4.16177 0
M  V30 34 H 0.9661 -5.28261 2.02377 0
M  V30 35 H -0.4769 -5.93855 2.68663 0
M  V30 36 N 2.9562 -1.48159 -0.537278 0
M  V30 37 C 4.3722 -1.34118 -0.865129 0
M  V30 38 C 4.5722 -0.346678 -1.98495 0
M  V30 39 O 3.6282 0.234715 -2.51407 0
M  V30 40 C 4.9412 -2.73963 -1.23954 0
M  V30 41 C 6.4892 -2.82397 -1.34984 0
M  V30 42 C 6.9642 -4.22928 -1.75772 0
M  V30 43 N 8.4552 -4.25566 -1.82887 0
M  V30 44 C 9.1902 -5.31235 -2.15817 0
M  V30 45 N 8.6862 -6.47189 -2.47222 0
M  V30 46 N 10.4792 -5.18624 -2.16761 0
M  V30 47 H 2.6302 -2.1144 0.201715 0
M  V30 48 H 4.8932 -0.947598 0.0275949 0
M  V30 49 H 4.5992 -3.48264 -0.490381 0
M  V30 50 H 4.4732 -3.0702 -2.19132 0
M  V30 51 H 6.8602 -2.08356 -2.08978 0
M  V30 52 H 6.9412 -2.5297 -0.379448 0
M  V30 53 H 6.5852 -4.97482 -1.02341 0
M  V30 54 H 6.5152 -4.49794 -2.73848 0
M  V30 55 H 9.0062 -3.41924 -1.60924 0
M  V30 56 H 9.3192 -7.23564 -2.71433 0
M  V30 57 H 7.6642 -6.50476 -2.44757 0
M  V30 58 H 10.8552 -4.27056 -1.91679 0
M  V30 59 H 11.0282 -6.01078 -2.42093 0
M  V30 60 N 4.4343 0.785586 -1.36625 0
M  V30 61 C 5.7113 1.53198 -1.21613 0
M  V30 62 C 6.0913 2.10187 0.196113 0
M  V30 63 O 5.4393 1.94318 1.20219 0
M  V30 64 C 5.6493 2.62388 -2.30116 0
M  V30 65 C 6.9973 3.30167 -2.66974 0
M  V30 66 O 8.0213 2.72674 -2.29188 0
M  V30 67 O 6.8803 4.34077 -3.32023 0
M  V30 68 H 3.9743 0.677865 -0.473738 0
M  V30 69 H 6.5203 0.823739 -1.48367 0
M  V30 70 H 5.2923 2.18299 -3.24748 0
M  V30 71 H 4.9153 3.40827 -2.0475 0
M  V30 72 N 5.9124 1.20967 1.01018 0
M  V30 73 C 7.1594 1.02374 1.74716 0
M  V30 74 C 7.4874 -0.443375 1.89379 0
M  V30 75 O 6.7424 -1.34535 1.42123 0
M  V30 76 C 7.0414 1.65997 3.16512 0
M  V30 77 C 6.7074 3.15831 3.2181 0
M  V30 78 C 5.3694 3.56719 3.22963 0
M  V30 79 C 7.7214 4.11816 3.19464 0
M  V30 80 C 5.0494 4.92107 3.19449 0
M  V30 81 C 7.4014 5.47158 3.17491 0
M  V30 82 C 6.0654 5.87451 3.16951 0
M  V30 83 H 5.3354 0.374614 0.639332 0
M  V30 84 H 7.9824 1.50485 1.18434 0
M  V30 85 H 6.2874 1.10166 3.75993 0
M  V30 86 H 7.9844 1.49119 3.72242 0
M  V30 87 H 4.5744 2.83263 3.21652 0
M  V30 88 H 8.7584 3.81257 3.17737 0
M  V30 89 H 4.0144 5.22579 3.17366 0
M  V30 90 H 8.1884 6.21274 3.14629 0
M  V30 91 H 5.8154 6.92329 3.13983 0
M  V30 92 N 7.3905 -1.2043 1.01659 0
M  V30 93 C 8.8065 -1.41852 0.731442 0
M  V30 94 C 9.0065 -1.89358 -0.688898 0
M  V30 95 O 8.0625 -2.06247 -1.45666 0
M  V30 96 C 9.3755 -2.44019 1.75714 0
M  V30 97 C 10.9235 -2.57785 1.77527 0
M  V30 98 C 11.3985 -3.63194 2.79023 0
M  V30 99 N 12.8895 -3.70678 2.77763 0
M  V30 100 C 13.6245 -4.51897 3.52954 0
M  V30 101 N 13.1205 -5.36921 4.37821 0
M  V30 102 N 14.9135 -4.4643 3.41551 0
M  V30 103 H 7.0645 -0.879093 1.93354 0
M  V30 104 H 9.3275 -0.448425 0.835236 0
M  V30 105 H 9.0335 -2.1611 2.77469 0
M  V30 106 H 8.9075 -3.43007 1.56927 0
M  V30 107 H 11.2945 -2.85023 0.764569 0
M  V30 108 H 11.3755 -1.58992 2.00387 0
M  V30 109 H 11.0195 -3.36699 3.80258 0
M  V30 110 H 10.9495 -4.61609 2.53425 0
M  V30 111 H 13.4405 -3.09944 2.16201 0
M  V30 112 H 13.7535 -5.95981 4.91962 0
M  V30 113 H 12.0985 -5.36424 4.41899 0
M  V30 114 H 15.2895 -3.79042 2.74672 0
M  V30 115 H 15.4625 -5.09491 4.00404 0
M  V30 116 N 8.8686 -0.792821 -1.36206 0
M  V30 117 C 10.1146 -0.376415 -1.99887 0
M  V30 118 C 10.4696 1.04127 -1.61788 0
M  V30 119 O 9.7626 1.71004 -0.864193 0
M  V30 120 C 9.9566 -0.481501 -3.54142 0
M  V30 121 C 9.7856 -1.90786 -4.07223 0
M  V30 122 C 8.5556 -2.53322 -4.37214 0
M  V30 123 C 10.7536 -2.87048 -4.26741 0
M  V30 124 N 8.7356 -3.8751 -4.7614 0
M  V30 125 C 10.1066 -4.06077 -4.6851 0
M  V30 126 C 12.1616 -2.8406 -4.08918 0
M  V30 127 C 10.8646 -5.22532 -4.94321 0
M  V30 128 C 12.8906 -3.99705 -4.35878 0
M  V30 129 C 12.2526 -5.1748 -4.77906 0
M  V30 130 H 8.3516 -0.185226 -0.759747 0
M  V30 131 H 10.9356 -1.03114 -1.65153 0
M  V30 132 H 9.1066 0.143154 -3.88136 0
M  V30 133 H 10.8386 -0.0410128 -4.04679 0
M  V30 134 H 7.5936 -2.04777 -4.2704 0
M  V30 135 H 8.0176 -4.5656 -4.99882 0
M  V30 136 H 12.6596 -1.94165 -3.75579 0
M  V30 137 H 10.3776 -6.1301 -5.2654 0
M  V30 138 H 13.9636 -3.98758 -4.23655 0
M  V30 139 H 12.8436 -6.05478 -4.98363 0
M  V30 140 N 10.3467 1.47872 -0.545128 0
M  V30 141 C 11.2767 2.32661 0.197793 0
M  V30 142 C 12.2577 1.43041 0.920504 0
M  V30 143 O 13.4427 1.71912 0.90333 0
M  V30 144 C 10.5727 3.24569 1.23582 0
M  V30 145 C 9.5267 4.23333 0.630323 0
M  V30 146 C 8.8527 5.0448 1.77211 0
M  V30 147 C 10.1527 5.20704 -0.407974 0
M  V30 148 H 11.8467 2.95024 -0.510045 0
M  V30 149 H 9.3927 1.4187 -0.246731 0
M  V30 150 H 11.3457 3.8272 1.76362 0
M  V30 151 H 10.0697 2.60236 1.97344 0
M  V30 152 H 8.7287 3.6639 0.123922 0
M  V30 153 H 8.3767 4.36561 2.49847 0
M  V30 154 H 8.0767 5.71339 1.37281 0
M  V30 155 H 9.6007 5.65487 2.3034 0
M  V30 156 H 11.0147 5.7329 0.033305 0
M  V30 157 H 9.4117 5.95699 -0.725486 0
M  V30 158 H 10.4817 4.66917 -1.30828 0
M  V30 159 N 11.8248 0.280983 1.55075 0
M  V30 160 C 13.0708 -0.327573 2.00745 0
M  V30 161 C 13.4258 -1.53045 1.16598 0
M  V30 162 O 12.7188 -1.90221 0.229451 0
M  V30 163 C 12.9128 -0.754656 3.49342 0
M  V30 164 C 12.7418 0.40529 4.4787 0
M  V30 165 C 11.5118 0.890947 4.97383 0
M  V30 166 C 13.7098 1.24371 4.99035 0
M  V30 167 N 11.6918 2.01975 5.79724 0
M  V30 168 C 13.0628 2.22031 5.7888 0
M  V30 169 C 15.1178 1.27638 4.81262 0
M  V30 170 C 13.8208 3.22709 6.42846 0
M  V30 171 C 15.8468 2.27164 5.46031 0
M  V30 172 C 15.2088 3.23556 6.25692 0
M  V30 173 H 11.3078 -0.0848774 0.77738 0
M  V30 174 H 13.8918 0.406342 1.90413 0
M  V30 175 H 12.0628 -1.45778 3.60005 0
M  V30 176 H 13.7948 -1.34105 3.81835 0
M  V30 177 H 10.5498 0.469262 4.71269 0
M  V30 178 H 10.9738 2.58794 6.25584 0
M  V30 179 H 15.6158 0.544936 4.19274 0
M  V30 180 H 13.3338 3.96784 7.0398 0
M  V30 181 H 16.9198 2.30441 5.34217 0
M  V30 182 H 15.7998 3.99309 6.74924 0
M  V30 183 N 13.3029 -1.57598 0.00835791 0
M  V30 184 C 14.5489 -1.91211 -0.675732 0
M  V30 185 C 14.8819 -0.883139 -1.72958 0
M  V30 186 O 14.1569 0.097016 -1.94258 0
M  V30 187 C 14.4399 -3.35379 -1.31123 0
M  V30 188 C 14.2929 -4.48999 -0.268356 0
M  V30 189 C 15.6119 -3.7912 -2.23508 0
M  V30 190 H 12.7309 -0.695374 -0.244179 0
M  V30 191 H 15.3729 -1.89901 0.0613655 0
M  V30 192 H 13.5229 -3.36626 -1.93946 0
M  V30 193 H 15.1949 -4.59887 0.360844 0
M  V30 194 H 13.4379 -4.31873 0.408482 0
M  V30 195 H 14.1089 -5.46851 -0.752218 0
M  V30 196 H 16.5849 -3.79477 -1.70693 0
M  V30 197 H 15.4609 -4.80729 -2.64936 0
M  V30 198 H 15.7219 -3.13455 -3.11766 0
M  V30 199 N 14.781 0.264519 -1.55364 0
M  V30 200 C 16.011 1.01153 -1.80143 0
M  V30 201 C 16.419 1.80115 -0.579253 0
M  V30 202 O 15.762 1.77813 0.46132 0
M  V30 203 C 15.824 2.01098 -2.97993 0
M  V30 204 C 15.488 1.40995 -4.34706 0
M  V30 205 C 16.485 0.821316 -5.13372 0
M  V30 206 C 14.17 1.43461 -4.81378 0
M  V30 207 C 16.164 0.265339 -6.36847 0
M  V30 208 C 13.851 0.874771 -6.04807 0
M  V30 209 C 14.849 0.291146 -6.82379 0
M  V30 210 O 14.537 -0.260093 -8.03479 0
M  V30 211 H 14.269 0.304125 -0.603725 0
M  V30 212 H 16.823 0.298089 -2.03225 0
M  V30 213 H 15.053 2.76224 -2.70623 0
M  V30 214 H 16.742 2.61997 -3.1002 0
M  V30 215 H 17.508 0.794903 -4.78442 0
M  V30 216 H 13.387 1.87826 -4.21002 0
M  V30 217 H 16.931 -0.190837 -6.97339 0
M  V30 218 H 12.828 0.898452 -6.39217 0
M  V30 219 H 13.596 -0.150265 -8.18362 0
M  V30 220 N 16.2591 1.48442 0.529413 0
M  V30 221 C 17.1691 1.6569 1.66084 0
M  V30 222 C 18.1851 0.539432 1.65427 0
M  V30 223 O 19.3611 0.810572 1.84368 0
M  V30 224 C 16.4261 1.69315 3.02545 0
M  V30 225 C 15.4871 2.92694 3.14052 0
M  V30 226 C 14.7201 2.96137 4.44003 0
M  V30 227 O 14.9431 2.07973 5.31134 0
M  V30 228 O 13.8771 3.88312 4.59888 0
M  V30 229 H 17.7031 2.61483 1.54469 0
M  V30 230 H 15.2881 1.3185 0.702567 0
M  V30 231 H 17.1701 1.74217 3.83701 0
M  V30 232 H 15.8451 0.766966 3.14483 0
M  V30 233 H 14.7521 2.93324 2.32189 0
M  V30 234 H 16.0851 3.84699 3.0703 0
M  V30 235 N 17.7372 -0.778329 1.37039 0
M  V30 236 C 18.9862 -1.53189 1.3121 0
M  V30 237 C 19.2992 -1.95328 -0.103095 0
M  V30 238 O 20.5052 -2.70012 -0.283826 0
M  V30 239 C 18.9612 -2.76591 2.30272 0
M  V30 240 C 18.5692 -2.41577 3.77286 0
M  V30 241 C 20.3132 -3.5455 2.33441 0
M  V30 242 C 18.2202 -3.61441 4.68096 0
M  V30 243 H 17.1502 -0.5751 0.487622 0
M  V30 244 H 19.8012 -0.853101 1.62464 0
M  V30 245 H 18.1832 -3.46326 1.92027 0
M  V30 246 H 19.3572 -1.79668 4.2433 0
M  V30 247 H 17.6722 -1.76806 3.76999 0
M  V30 248 H 20.2692 -4.43628 2.98493 0
M  V30 249 H 20.6122 -3.93936 1.34611 0
M  V30 250 H 21.1452 -2.91805 2.7036 0
M  V30 251 H 17.8842 -3.27142 5.6803 0
M  V30 252 H 17.4042 -4.22478 4.25761 0
M  V30 253 H 19.0832 -4.28335 4.8491 0
M  V30 254 N 19.2153 -1.21501 -1.00376 0
M  V30 255 C 20.4633 -1.03095 -1.73827 0
M  V30 256 C 20.7843 0.436341 -1.90055 0
M  V30 257 O 20.0543 1.31466 -1.45236 0
M  V30 258 H 18.6343 -0.378487 -0.644016 0
M  V30 259 H 21.2963 -1.52831 -1.20949 0
M  V30 260 H 20.3923 -1.49991 -2.73695 0
M  V30 261 N 20.6934 1.19889 -1.02296 0
M  V30 262 C 21.9234 1.93109 -0.734332 0
M  V30 263 C 22.3314 1.75377 0.709889 0
M  V30 264 O 21.6744 1.06912 1.49384 0
M  V30 265 C 21.7364 3.45362 -0.99827 0
M  V30 266 C 21.4004 3.8686 -2.43287 0
M  V30 267 C 22.3974 3.92102 -3.41397 0
M  V30 268 C 20.0824 4.18668 -2.77529 0
M  V30 269 C 22.0764 4.28573 -4.71809 0
M  V30 270 C 19.7634 4.54813 -4.08153 0
M  V30 271 C 20.7614 4.59739 -5.05103 0
M  V30 272 O 20.4494 4.95051 -6.33388 0
M  V30 273 H 20.1814 0.620409 -0.268456 0
M  V30 274 H 22.7354 1.53144 -1.3688 0
M  V30 275 H 20.9654 3.85482 -0.306645 0
M  V30 276 H 22.6544 3.99814 -0.700234 0
M  V30 277 H 23.4204 3.67685 -3.1628 0
M  V30 278 H 19.2994 4.14021 -2.0275 0
M  V30 279 H 22.8434 4.32333 -5.4748 0
M  V30 280 H 18.7404 4.78687 -4.33047 0
M  V30 281 H 19.5084 5.1302 -6.37772 0
M  V30 282 N 22.1715 0.800033 1.35784 0
M  V30 283 C 23.1345 0.211565 2.28221 0
M  V30 284 C 24.1345 -0.59728 1.49296 0
M  V30 285 O 25.3245 -0.416721 1.69142 0
M  V30 286 C 22.4565 -0.705846 3.33513 0
M  V30 287 H 23.6495 1.02677 2.81776 0
M  V30 288 H 21.2025 0.570211 1.45528 0
M  V30 289 H 21.9375 -1.54498 2.85133 0
M  V30 290 H 21.7225 -0.127655 3.91892 0
M  V30 291 H 23.2125 -1.11211 4.02519 0
M  V30 292 N 23.6496 -1.47581 0.552962 0
M  V30 293 C 24.6126 -2.28439 -0.186605 0
M  V30 294 C 25.6126 -1.36706 -0.84665 0
M  V30 295 O 26.8026 -1.59378 -0.703164 0
M  V30 296 C 23.9346 -3.16264 -1.2724 0
M  V30 297 H 25.1276 -2.95294 0.523609 0
M  V30 298 H 22.6806 -1.532 0.309745 0
M  V30 299 H 23.4156 -2.54091 -2.01514 0
M  V30 300 H 23.2006 -3.83769 -0.803968 0
M  V30 301 H 24.6906 -3.77198 -1.79196 0
M  V30 302 N 25.1277 -0.289203 -1.54924 0
M  V30 303 C 26.4047 0.376032 -1.91951 0
M  V30 304 C 26.7847 1.72622 -1.21511 0
M  V30 305 O 26.1327 2.25853 -0.346767 0
M  V30 306 C 26.3427 0.502378 -3.45365 0
M  V30 307 C 27.6907 0.778741 -4.17398 0
M  V30 308 O 28.7147 0.586647 -3.51336 0
M  V30 309 O 27.5737 1.14698 -5.34328 0
M  V30 310 H 24.6677 0.208167 -0.800372 0
M  V30 311 H 27.2137 -0.336394 -1.66332 0
M  V30 312 H 25.9857 -0.447255 -3.88736 0
M  V30 313 H 25.6087 1.26373 -3.76982 0
M  V30 314 N 26.6058 1.57591 -0.0167156 0
M  V30 315 C 27.5538 2.10604 0.987353 0
M  V30 316 C 28.5478 1.02977 1.34507 0
M  V30 317 O 29.7538 1.21425 1.32875 0
M  V30 318 H 26.1288 0.672695 0.336134 0
M  V30 319 H 28.0998 2.93925 0.514817 0
M  V30 320 C 26.8488 2.6382 2.26483 0
M  V30 321 H 26.1718 3.46278 1.99829 0
M  V30 322 H 27.6118 3.04573 2.94977 0
M  V30 323 C 26.0708 1.55992 2.9861 0
M  V30 324 O 26.6008 0.952521 3.90243 0
M  V30 325 N 24.8068 1.28335 2.60727 0
M  V30 326 H 24.3538 1.77914 1.86291 0
M  V30 327 H 24.3118 0.564115 3.09298 0
M  V30 328 N 28.0839 -0.256276 1.55502 0
M  V30 329 C 29.3089 -1.00766 1.81276 0
M  V30 330 C 29.7339 -1.78524 0.59252 0
M  V30 331 O 29.0919 -1.75413 -0.45827 0
M  V30 332 C 29.1399 -1.92869 3.04687 0
M  V30 333 O 28.2439 -3.019 2.80945 0
M  V30 334 H 27.5849 -0.287224 0.598664 0
M  V30 335 H 30.1149 -0.280109 2.02674 0
M  V30 336 H 30.1249 -2.34511 3.33869 0
M  V30 337 H 28.7999 -1.35689 3.93143 0
M  V30 338 H 27.3769 -2.64454 2.62904 0
M  V30 339 N 29.562 -1.4872 -0.521534 0
M  V30 340 C 30.978 -1.35028 -0.850855 0
M  V30 341 C 31.178 -0.367712 -1.98116 0
M  V30 342 O 30.234 0.208037 -2.51642 0
M  V30 343 C 31.547 -2.75263 -1.21041 0
M  V30 344 C 33.095 -2.83813 -1.31981 0
M  V30 345 C 33.57 -4.24769 -1.71276 0
M  V30 346 N 35.061 -4.27482 -1.78363 0
M  V30 347 C 35.796 -5.33494 -2.1017 0
M  V30 348 N 35.292 -6.49775 -2.40343 0
M  V30 349 N 37.085 -5.20894 -2.11248 0
M  V30 350 H 29.236 -2.11214 0.22413 0
M  V30 351 H 31.499 -0.947252 0.0376439 0
M  V30 352 H 31.205 -3.48765 -0.453415 0
M  V30 353 H 31.079 -3.09327 -2.15863 0
M  V30 354 H 33.466 -2.10561 -2.06756 0
M  V30 355 H 33.547 -2.53358 -0.352596 0
M  V30 356 H 33.191 -4.9854 -0.970588 0
M  V30 357 H 33.121 -4.52673 -2.69062 0
M  V30 358 H 35.612 -3.43611 -1.57288 0
M  V30 359 H 35.925 -7.26402 -2.63743 0
M  V30 360 H 34.27 -6.53035 -2.37844 0
M  V30 361 H 37.461 -4.29065 -1.87139 0
M  V30 362 H 37.634 -6.03612 -2.35704 0
M  V30 363 N 31.0401 0.771051 -1.3745 0
M  V30 364 C 32.2681 1.56015 -1.35893 0
M  V30 365 C 32.6831 1.88718 0.0555523 0
M  V30 366 O 32.0401 1.51502 1.01752 0
M  V30 367 C 32.0911 2.87001 -2.19801 0
M  V30 368 O 31.8121 2.557 -3.55738 0
M  V30 369 C 33.3131 3.81228 -2.26231 0
M  V30 370 H 30.5331 0.483317 -0.465453 0
M  V30 371 H 33.0771 0.955611 -1.80799 0
M  V30 372 H 31.2321 3.43877 -1.78402 0
M  V30 373 H 31.6461 3.39584 -3.99729 0
M  V30 374 H 33.1201 4.70139 -2.89263 0
M  V30 375 H 33.5971 4.20409 -1.27093 0
M  V30 376 H 34.2031 3.30281 -2.67945 0
M  V30 377 N 32.5182 1.22032 0.997298 0
M  V30 378 C 33.4482 1.01065 2.10495 0
M  V30 379 C 34.4292 -0.0669542 1.69968 0
M  V30 380 O 35.6142 0.0943987 1.9397 0
M  V30 381 C 32.7442 0.582874 3.42374 0
M  V30 382 C 31.6982 1.60592 3.96729 0
M  V30 383 C 31.0242 1.03412 5.24605 0
M  V30 384 C 32.3242 2.99478 4.27914 0
M  V30 385 H 34.0182 1.93708 2.28292 0
M  V30 386 H 31.5642 0.932761 1.09707 0
M  V30 387 H 33.5172 0.423332 4.19268 0
M  V30 388 H 32.2412 -0.379213 3.24391 0
M  V30 389 H 30.9002 1.75316 3.21963 0
M  V30 390 H 30.5482 0.063518 5.0296 0
M  V30 391 H 30.2482 1.71754 5.61938 0
M  V30 392 H 31.7722 0.886066 6.04137 0
M  V30 393 H 33.1862 2.88153 4.95622 0
M  V30 394 H 31.5832 3.64903 4.76409 0
M  V30 395 H 32.6532 3.49742 3.3587 0
M  V30 396 N 33.9963 -1.19345 1.0293 0
M  V30 397 C 34.9443 -2.24621 0.604001 0
M  V30 398 C 35.9383 -1.65452 -0.363587 0
M  V30 399 O 37.1443 -1.78497 -0.23212 0
M  V30 400 H 33.5193 -0.730858 0.177061 0
M  V30 401 H 35.4903 -2.5781 1.50255 0
M  V30 402 C 34.2393 -3.47688 -0.0289127 0
M  V30 403 H 33.5623 -3.93505 0.706651 0
M  V30 404 H 35.0023 -4.23011 -0.289432 0
M  V30 405 C 33.4613 -3.11817 -1.2756 0
M  V30 406 O 33.9913 -3.2451 -2.36762 0
M  V30 407 N 32.1973 -2.66246 -1.16453 0
M  V30 408 H 31.7443 -2.56118 -0.275914 0
M  V30 409 H 31.7023 -2.42617 -1.99961 0
M  V30 410 N 35.4744 -0.807222 -1.35358 0
M  V30 411 C 36.7204 -0.388463 -1.99045 0
M  V30 412 C 37.0534 1.04184 -1.63888 0
M  V30 413 O 36.3284 1.72292 -0.902535 0
M  V30 414 C 36.6114 -0.572783 -3.55515 0
M  V30 415 C 36.4644 -2.04807 -4.00468 0
M  V30 416 C 37.7834 0.00114064 -4.401 0
M  V30 417 H 34.9024 -0.142619 -0.723069 0
M  V30 418 H 37.5444 -1.01687 -1.60498 0
M  V30 419 H 35.6944 -0.0378425 -3.88482 0
M  V30 420 H 37.3664 -2.64544 -3.77908 0
M  V30 421 H 35.6094 -2.54427 -3.51353 0
M  V30 422 H 36.2804 -2.12792 -5.09337 0
M  V30 423 H 38.7564 -0.455716 -4.13597 0
M  V30 424 H 37.6324 -0.157737 -5.48673 0
M  V30 425 H 37.8934 1.09488 -4.28328 0
M  V30 426 N 36.9525 1.47285 -0.560781 0
M  V30 427 C 38.2295 1.9558 0.0277798 0
M  V30 428 C 38.6095 1.5034 1.48192 0
M  V30 429 O 37.9575 0.743882 2.16052 0
M  V30 430 C 38.1675 3.48789 -0.121418 0
M  V30 431 C 39.5155 4.24594 0.0220912 0
M  V30 432 O 40.5395 3.56166 -0.0491439 0
M  V30 433 O 39.3985 5.46217 0.175958 0
M  V30 434 H 36.4925 0.824663 0.0621342 0
M  V30 435 H 39.0385 1.5767 -0.627556 0
M  V30 436 H 37.8105 3.74533 -1.13316 0
M  V30 437 H 37.4335 3.93473 0.571366 0
M  V30 438 N 38.4306 0.297415 1.54768 0
M  V30 439 C 39.6556 -0.318435 2.04941 0
M  V30 440 C 40.0806 -1.4701 1.17345 0
M  V30 441 O 39.4386 -1.80436 0.176758 0
M  V30 442 C 39.4866 -0.755749 3.52592 0
M  V30 443 O 38.5906 -1.86088 3.68028 0
M  V30 444 H 37.9316 -0.062421 0.661059 0
M  V30 445 H 40.4616 0.438215 1.99852 0
M  V30 446 H 40.4716 -1.04552 3.94376 0
M  V30 447 H 39.1466 0.0867233 4.1581 0
M  V30 448 H 37.7236 -1.57193 3.38149 0
M  V30 449 N 39.9087 -1.5758 0.0250728 0
M  V30 450 C 41.1367 -1.9593 -0.664747 0
M  V30 451 C 41.5517 -0.901352 -1.65895 0
M  V30 452 O 40.9087 0.117255 -1.82123 0
M  V30 453 C 40.9597 -3.34342 -1.37468 0
M  V30 454 O 40.6807 -4.36079 -0.420324 0
M  V30 455 C 42.1817 -3.873 -2.1567 0
M  V30 456 H 39.4017 -0.645405 -0.183557 0
M  V30 457 H 41.9457 -2.04329 0.0836372 0
M  V30 458 H 40.1007 -3.27175 -2.0745 0
M  V30 459 H 40.5147 -5.16297 -0.923991 0
M  V30 460 H 41.9887 -4.86504 -2.60803 0
M  V30 461 H 42.4657 -3.21331 -2.99405 0
M  V30 462 H 43.0717 -3.97723 -1.50654 0
M  V30 463 N 41.3868 0.248026 -1.55636 0
M  V30 464 C 42.3498 1.29044 -1.89421 0
M  V30 465 C 43.3498 1.41134 -0.770581 0
M  V30 466 O 44.5398 1.39854 -1.03858 0
M  V30 467 C 41.6718 2.66831 -2.12165 0
M  V30 468 H 42.8648 1.00305 -2.82629 0
M  V30 469 H 40.4178 0.487265 -1.48511 0
M  V30 470 H 41.1528 3.00711 -1.21422 0
M  V30 471 H 40.9378 2.59438 -2.93997 0
M  V30 472 H 42.4278 3.42103 -2.3949 0
M  V30 473 N 42.8649 1.48995 0.513639 0
M  V30 474 C 43.7979 1.59319 1.63379 0
M  V30 475 C 44.7759 0.442816 1.56454 0
M  V30 476 O 45.9599 0.656655 1.76693 0
M  V30 477 C 43.0869 1.5364 3.01848 0
M  V30 478 C 42.1329 2.7372 3.27078 0
M  V30 479 S 42.9659 4.35528 3.1157 0
M  V30 480 C 44.1219 4.32473 4.52458 0
M  V30 481 H 44.3549 2.54079 1.54374 0
M  V30 482 H 41.8879 1.3773 0.697849 0
M  V30 483 H 43.8459 1.51049 3.81699 0
M  V30 484 H 42.5069 0.601898 3.08279 0
M  V30 485 H 41.6999 2.6593 4.28132 0
M  V30 486 H 41.3019 2.73657 2.54927 0
M  V30 487 H 43.5939 4.03414 5.44301 0
M  V30 488 H 44.5369 5.33762 4.65299 0
M  V30 489 H 44.9449 3.62718 4.32546 0
M  V30 490 N 44.343 -0.763751 1.37857 0
M  V30 491 C 45.571 -1.55293 1.36718 0
M  V30 492 C 45.986 -1.88745 -0.0455434 0
M  V30 493 O 45.343 -1.52039 -1.00947 0
M  V30 494 C 45.394 -2.85831 2.2132 0
M  V30 495 O 45.115 -2.5381 3.57089 0
M  V30 496 C 46.616 -3.80023 2.28249 0
M  V30 497 H 43.836 -0.480841 0.468009 0
M  V30 498 H 46.38 -0.946009 1.81303 0
M  V30 499 H 44.535 -3.42926 1.80223 0
M  V30 500 H 44.949 -3.37459 4.01524 0
M  V30 501 H 46.423 -4.68599 2.91752 0
M  V30 502 H 46.9 -4.1973 1.2932 0
M  V30 503 H 47.506 -3.28855 2.69693 0
M  V30 504 N 45.8211 -1.22559 -0.990812 0
M  V30 505 C 46.7511 -1.0218 -2.09956 0
M  V30 506 C 47.7321 0.0579394 -1.70001 0
M  V30 507 O 48.9171 -0.104684 -1.93918 0
M  V30 508 C 46.0471 -0.601023 -3.4206 0
M  V30 509 C 45.0011 -1.62694 -3.95872 0
M  V30 510 C 44.3271 -1.06193 -5.24049 0
M  V30 511 C 45.6271 -3.01743 -4.2632 0
M  V30 512 H 47.3211 -1.94916 -2.27262 0
M  V30 513 H 44.8671 -0.938566 -1.09211 0
M  V30 514 H 46.8201 -0.445561 -4.19038 0
M  V30 515 H 45.5441 0.362005 -3.24588 0
M  V30 516 H 44.2031 -1.77021 -3.21028 0
M  V30 517 H 43.8511 -0.0901903 -5.02919 0
M  V30 518 H 43.5511 -1.74732 -5.61019 0
M  V30 519 H 45.0751 -0.918092 -6.03658 0
M  V30 520 H 46.4891 -2.90777 -4.94087 0
M  V30 521 H 44.8861 -3.67425 -4.74467 0
M  V30 522 H 45.9561 -3.51518 -3.34011 0
M  V30 523 N 47.2992 1.18797 -1.03562 0
M  V30 524 C 48.7102 1.70322 -0.764676 0
M  V30 525 C 49.0612 1.82708 0.714996 0
M  V30 526 O 48.1862 1.50299 1.55689 0
M  V30 527 C 48.7812 3.09356 -1.38145 0
M  V30 528 C 47.3402 3.58114 -1.15895 0
M  V30 529 C 46.4872 2.34798 -1.4753 0
M  V30 530 H 49.4382 1.03543 -1.20268 0
M  V30 531 H 49.4592 3.72378 -0.781977 0
M  V30 532 H 48.9712 3.00309 -2.45837 0
M  V30 533 H 47.0722 3.72464 -0.100544 0
M  V30 534 H 47.1852 4.4184 -1.8524 0
M  V30 535 H 45.5492 2.38464 -0.894829 0
M  V30 536 H 46.3322 2.28375 -2.56319 0
M  V30 537 N 48.7773 0.814389 1.34928 0
M  V30 538 C 49.7103 0.175641 2.27523 0
M  V30 539 C 50.6883 -0.662953 1.48471 0
M  V30 540 O 51.8723 -0.628545 1.77712 0
M  V30 541 C 48.9993 -0.755516 3.30166 0
M  V30 542 C 48.0453 0.00445305 4.265 0
M  V30 543 S 48.8783 1.34582 5.18313 0
M  V30 544 C 50.0343 0.419315 6.24494 0
M  V30 545 H 50.2673 0.960691 2.8135 0
M  V30 546 H 47.8003 0.609846 1.41846 0
M  V30 547 H 49.7583 -1.28723 3.89796 0
M  V30 548 H 48.4193 -1.51402 2.75202 0
M  V30 549 H 47.6123 -0.703077 4.99072 0
M  V30 550 H 47.2143 0.466447 3.7108 0
M  V30 551 H 49.5063 -0.392432 6.76362 0
M  V30 552 H 50.4493 1.11446 6.99275 0
M  V30 553 H 50.8573 0.0115389 5.64499 0
M  V30 554 N 50.2554 -1.46986 0.568584 0
M  V30 555 C 51.4804 -2.07335 0.0520528 0
M  V30 556 C 51.9054 -1.41675 -1.23733 0
M  V30 557 O 51.2634 -0.495623 -1.74394 0
M  V30 558 C 51.3114 -3.60417 -0.11501 0
M  V30 559 O 50.4154 -3.95309 -1.17492 0
M  V30 560 H 49.7564 -0.661597 0.0564385 0
M  V30 561 H 52.2864 -1.88837 0.787507 0
M  V30 562 H 52.2964 -4.06698 -0.325644 0
M  V30 563 H 50.9714 -4.07601 0.826675 0
M  V30 564 H 49.5484 -3.60757 -0.943869 0
M  V30 565 N 51.7335 -0.305618 -1.54608 0
M  V30 566 C 53.0105 0.355652 -1.92339 0
M  V30 567 C 53.3905 1.71324 -1.23335 0
M  V30 568 O 52.7385 2.25473 -0.370702 0
M  V30 569 C 52.9485 0.46572 -3.45879 0
M  V30 570 C 54.2965 0.734426 -4.182 0
M  V30 571 O 55.3205 0.54935 -3.51938 0
M  V30 572 O 54.1795 1.09024 -5.35515 0
M  V30 573 H 51.2735 0.199666 -0.802535 0
M  V30 574 H 53.8195 -0.354017 -1.65966 0
M  V30 575 H 52.5915 -0.488461 -3.88239 0
M  V30 576 H 52.2145 1.22367 -3.78301 0
M  V30 577 N 53.2116 1.57565 -0.0334293 0
M  V30 578 C 54.6226 1.79746 0.504798 0
M  V30 579 C 54.9736 0.944091 1.71992 0
M  V30 580 O 54.0986 0.155694 2.15839 0
M  V30 581 C 54.6936 3.25997 0.922567 0
M  V30 582 C 53.2526 3.49159 1.40588 0
M  V30 583 C 52.3996 2.74785 0.372633 0
M  V30 584 H 55.3506 1.56565 -0.259436 0
M  V30 585 H 55.3716 3.35945 1.78666 0
M  V30 586 H 54.8836 3.88081 0.0379825 0
M  V30 587 H 52.9846 2.92332 2.31025 0
M  V30 588 H 53.0976 4.57873 1.41028 0
M  V30 589 H 51.4616 2.40391 0.841672 0
M  V30 590 H 52.2446 3.39587 -0.503559 0
M  V30 591 N 54.6897 -0.239769 1.55765 0
M  V30 592 C 55.9177 -0.98417 1.81994 0
M  V30 593 C 56.3327 -1.7867 0.610124 0
M  V30 594 O 55.6897 -1.77571 -0.421271 0
M  V30 595 C 55.7407 -1.91635 3.06526 0
M  V30 596 O 55.4617 -1.14629 4.22838 0
M  V30 597 C 56.9627 -2.77616 3.45607 0
M  V30 598 H 54.1827 -0.28928 0.605441 0
M  V30 599 H 56.7267 -0.260499 2.02834 0
M  V30 600 H 54.8817 -2.5942 2.87715 0
M  V30 601 H 55.2957 -1.77745 4.93464 0
M  V30 602 H 56.7697 -3.38759 4.35828 0
M  V30 603 H 57.2467 -3.4909 2.6652 0
M  V30 604 H 57.8527 -2.15271 3.66795 0
M  V30 605 N 56.1678 -1.49265 -0.50573 0
M  V30 606 C 57.1308 -1.65075 -1.59006 0
M  V30 607 C 58.1308 -0.522768 -1.52065 0
M  V30 608 O 59.3208 -0.789117 -1.55302 0
M  V30 609 C 56.4528 -1.64369 -2.98656 0
M  V30 610 H 57.6458 -2.61784 -1.46319 0
M  V30 611 H 55.1988 -1.38226 -0.729616 0
M  V30 612 H 55.9338 -0.692272 -3.16825 0
M  V30 613 H 55.7188 -2.46282 -3.05103 0
M  V30 614 H 57.2088 -1.78674 -3.77446 0
M  V30 615 N 57.6459 0.756429 -1.3826 0
M  V30 616 C 58.8919 1.5168 -1.35517 0
M  V30 617 C 59.2469 1.9232 0.0554451 0
M  V30 618 O 58.5399 1.62352 1.01746 0
M  V30 619 C 58.7339 2.78313 -2.24224 0
M  V30 620 C 58.5629 2.50053 -3.7377 0
M  V30 621 C 57.3329 2.43414 -4.42807 0
M  V30 622 C 59.5309 2.1702 -4.66269 0
M  V30 623 N 57.5129 2.07398 -5.77805 0
M  V30 624 C 58.8839 1.91271 -5.89759 0
M  V30 625 C 60.9389 2.03305 -4.54501 0
M  V30 626 C 59.6419 1.53192 -7.02798 0
M  V30 627 C 61.6679 1.66627 -5.67441 0
M  V30 628 C 61.0299 1.4175 -6.8999 0
M  V30 629 H 57.1289 0.554735 -0.551174 0
M  V30 630 H 59.7129 0.881106 -1.73622 0
M  V30 631 H 57.8839 3.39696 -1.88311 0
M  V30 632 H 59.6159 3.44343 -2.12627 0
M  V30 633 H 56.3709 2.59789 -3.95988 0
M  V30 634 H 56.7949 1.92044 -6.4919 0
M  V30 635 H 61.4369 2.21215 -3.60311 0
M  V30 636 H 59.1549 1.34022 -7.96909 0
M  V30 637 H 62.7409 1.56652 -5.60314 0
M  V30 638 H 61.6209 1.1379 -7.759 0
M  V30 639 N 59.124 1.23083 0.984299 0
M  V30 640 C 60.087 1.00979 2.05757 0
M  V30 641 C 61.087 -0.0269573 1.60777 0
M  V30 642 O 62.277 0.212403 1.729 0
M  V30 643 C 59.409 0.527072 3.36801 0
M  V30 644 H 60.602 1.9622 2.26799 0
M  V30 645 H 58.155 1.05072 1.15714 0
M  V30 646 H 58.89 -0.429294 3.21446 0
M  V30 647 H 58.675 1.27515 3.70786 0
M  V30 648 H 60.165 0.392942 4.15747 0
M  V30 649 N 60.6021 -1.18246 1.0419 0
M  V30 650 C 61.8301 -1.92195 0.766072 0
M  V30 651 C 62.2451 -1.76247 -0.676933 0
M  V30 652 O 61.6021 -1.09293 -1.46155 0
M  V30 653 C 61.6531 -3.43568 1.12442 0
M  V30 654 O 61.3741 -3.59015 2.51078 0
M  V30 655 C 62.8751 -4.34613 0.873275 0
M  V30 656 H 60.0951 -0.610114 0.279288 0
M  V30 657 H 62.6391 -1.50007 1.38989 0
M  V30 658 H 60.7941 -3.8354 0.545542 0
M  V30 659 H 61.2081 -4.5273 2.64831 0
M  V30 660 H 62.6821 -5.39374 1.17385 0
M  V30 661 H 63.1591 -4.38781 -0.191909 0
M  V30 662 H 63.7651 -4.00341 1.43551 0
M  V30 663 N 62.0802 -0.821533 -1.34494 0
M  V30 664 C 63.0432 -0.247847 -2.27856 0
M  V30 665 C 64.0432 0.573453 -1.50227 0
M  V30 666 O 65.2332 0.389759 -1.69784 0
M  V30 667 C 62.3652 0.652698 -3.34593 0
M  V30 668 H 63.5582 -1.07146 -2.80107 0
M  V30 669 H 61.1112 -0.593291 -1.44602 0
M  V30 670 H 61.8462 1.49943 -2.87555 0
M  V30 671 H 61.6312 0.065292 -3.92046 0
M  V30 672 H 63.1212 1.04793 -4.04238 0
M  V30 673 N 63.5583 1.46682 -0.576371 0
M  V30 674 C 64.4913 2.27243 0.208731 0
M  V30 675 C 65.4693 1.35238 0.902746 0
M  V30 676 O 66.6533 1.64641 0.917904 0
M  V30 677 C 63.7803 3.12802 1.29896 0
M  V30 678 C 62.8263 4.20524 0.711457 0
M  V30 679 S 63.6593 5.33548 -0.456781 0
M  V30 680 C 64.8153 6.22673 0.634798 0
M  V30 681 H 65.0483 2.93484 -0.474838 0
M  V30 682 H 62.5813 1.50069 -0.363118 0
M  V30 683 H 64.5393 3.62661 1.92321 0
M  V30 684 H 63.2003 2.45887 1.95444 0
M  V30 685 H 62.3933 4.80191 1.53076 0
M  V30 686 H 61.9953 3.73645 0.162999 0
M  V30 687 H 64.2873 6.60181 1.52209 0
M  V30 688 H 65.2303 7.0806 0.0750311 0
M  V30 689 H 65.6383 5.56684 0.936092 0
M  V30 690 N 65.0364 0.313813 1.54444 0
M  V30 691 C 65.9844 -0.572171 2.25453 0
M  V30 692 C 66.9784 -1.12657 1.2651 0
M  V30 693 O 68.1844 -1.07573 1.44319 0
M  V30 694 H 64.5594 -0.203146 0.724041 0
M  V30 695 H 66.5304 0.0491145 2.9836 0
M  V30 696 C 65.2794 -1.72626 3.0182 0
M  V30 697 H 64.6024 -1.30891 3.77767 0
M  V30 698 H 66.0424 -2.32199 3.54767 0
M  V30 699 C 64.5014 -2.63806 2.09542 0
M  V30 700 O 65.0314 -3.65256 1.67185 0
M  V30 701 N 63.2374 -2.31824 1.75232 0
M  V30 702 H 62.7844 -1.49368 2.09873 0
M  V30 703 H 62.7424 -2.93095 1.13767 0
M  V30 704 N 66.5145 -1.57545 0.0417849 0
M  V30 705 C 67.4625 -2.12148 -0.953723 0
M  V30 706 C 68.4565 -1.05104 -1.32852 0
M  V30 707 O 69.6625 -1.23524 -1.30927 0
M  V30 708 H 66.0375 -0.677957 -0.325389 0
M  V30 709 H 68.0085 -2.94707 -0.467991 0
M  V30 710 C 66.7575 -2.6739 -2.22257 0
M  V30 711 H 66.0805 -3.49413 -1.94295 0
M  V30 712 H 67.5205 -3.09227 -2.90094 0
M  V30 713 C 65.9795 -1.60723 -2.96091 0
M  V30 714 O 66.5095 -1.01449 -3.88679 0
M  V30 715 N 64.7155 -1.32466 -2.58652 0
M  V30 716 H 64.2625 -1.80856 -1.83437 0
M  V30 717 H 64.2205 -0.61325 -3.08361 0
M  V30 718 N 67.9926 0.231505 -1.5589 0
M  V30 719 C 68.9226 1.29022 -1.94617 0
M  V30 720 C 69.9036 1.4941 -0.813067 0
M  V30 721 O 71.0886 1.6176 -1.07459 0
M  V30 722 C 68.2186 2.64199 -2.25424 0
M  V30 723 C 67.1726 2.58484 -3.41131 0
M  V30 724 C 66.4986 3.97599 -3.57518 0
M  V30 725 C 67.7986 2.1413 -4.76388 0
M  V30 726 H 69.4926 0.968563 -2.83301 0
M  V30 727 H 67.0386 0.464479 -1.36303 0
M  V30 728 H 68.9916 3.38413 -2.51107 0
M  V30 729 H 67.7156 2.98032 -1.33583 0
M  V30 730 H 66.3746 1.86727 -3.15481 0
M  V30 731 H 66.0226 4.28723 -2.6307 0
M  V30 732 H 65.7226 3.94659 -4.35337 0
M  V30 733 H 67.2466 4.7349 -3.85538 0
M  V30 734 H 68.6606 2.78083 -5.01341 0
M  V30 735 H 67.0576 2.2227 -5.57419 0
M  V30 736 H 68.1276 1.09331 -4.72414 0
M  V30 737 N 69.4707 1.49531 0.497807 0
M  V30 738 C 70.7187 1.58865 1.24926 0
M  V30 739 C 71.0397 0.278721 1.92998 0
M  V30 740 O 70.3097 -0.702144 1.82885 0
M  V30 741 H 68.8897 0.585343 0.464094 0
M  V30 742 H 71.5517 1.86174 0.57666 0
M  V30 743 H 70.6477 2.38633 2.01149 0
M  V30 744 N 70.9488 -0.749086 1.3866 0
M  V30 745 C 71.8818 -1.87111 1.30631 0
M  V30 746 C 72.8598 -1.61572 0.18251 0
M  V30 747 O 74.0438 -1.85019 0.360592 0
M  V30 748 C 71.1708 -3.22815 1.02511 0
M  V30 749 C 70.2168 -3.67234 2.1689 0
M  V30 750 S 71.0498 -3.78245 3.79066 0
M  V30 751 C 72.2058 -5.16761 3.53142 0
M  V30 752 H 72.4388 -1.93636 2.25594 0
M  V30 753 H 69.9718 -0.912525 1.24549 0
M  V30 754 H 71.9298 -4.01181 0.869701 0
M  V30 755 H 70.5908 -3.13964 0.0925884 0
M  V30 756 H 69.7838 -4.65677 1.92771 0
M  V30 757 H 69.3858 -2.96034 2.28561 0
M  V30 758 H 71.6778 -6.02656 3.09534 0
M  V30 759 H 72.6208 -5.45902 4.50995 0
M  V30 760 H 73.0288 -4.85771 2.87554 0
M  V30 761 N 72.4269 -1.23603 -0.977757 0
M  V30 762 C 73.3899 -1.02069 -2.05218 0
M  V30 763 C 74.3899 0.0184305 -1.60789 0
M  V30 764 O 75.5799 -0.221569 -1.72785 0
M  V30 765 C 72.7119 -0.544926 -3.36517 0
M  V30 766 H 73.9049 -1.9742 -2.25755 0
M  V30 767 H 71.4579 -1.05684 -1.15155 0
M  V30 768 H 72.1929 0.412241 -3.21669 0
M  V30 769 H 71.9779 -1.2948 -3.70105 0
M  V30 770 H 73.4679 -0.414985 -4.15533 0
M  V30 771 N 73.905 1.17692 -1.04816 0
M  V30 772 C 75.316 1.69501 -0.782698 0
M  V30 773 C 75.667 1.83456 0.695577 0
M  V30 774 O 74.792 1.51942 1.54086 0
M  V30 775 C 75.387 3.07874 -1.41419 0
M  V30 776 C 73.946 3.56864 -1.19686 0
M  V30 777 C 73.093 2.3322 -1.50012 0
M  V30 778 H 76.044 1.02262 -1.2136 0
M  V30 779 H 76.065 3.71528 -0.821428 0
M  V30 780 H 75.577 2.97685 -2.49009 0
M  V30 781 H 73.678 3.72337 -0.140043 0
M  V30 782 H 73.791 4.39851 -1.89916 0
M  V30 783 H 72.155 2.37501 -0.920071 0
M  V30 784 H 72.938 2.25644 -2.58727 0
M  V30 785 N 75.3831 0.828654 1.34056 0
M  V30 786 C 76.3131 0.269443 2.3194 0
M  V30 787 C 77.2941 -0.617247 1.58506 0
M  V30 788 O 78.4791 -0.542931 1.86456 0
M  V30 789 C 75.6091 -0.564793 3.42677 0
M  V30 790 C 74.5631 0.225241 4.27407 0
M  V30 791 C 73.8891 -0.7321 5.29664 0
M  V30 792 C 75.1891 1.43663 5.02154 0
M  V30 793 H 76.8831 1.08728 2.7896 0
M  V30 794 H 74.4291 0.524283 1.34117 0
M  V30 795 H 76.3821 -0.966233 4.10173 0
M  V30 796 H 75.1061 -1.41574 2.9432 0
M  V30 797 H 73.7651 0.608117 3.61521 0
M  V30 798 H 73.4131 -1.57916 4.77568 0
M  V30 799 H 73.1131 -0.20767 5.87233 0
M  V30 800 H 74.6371 -1.13128 6.00029 0
M  V30 801 H 76.0511 1.1089 5.62473 0
M  V30 802 H 74.4481 1.89711 5.69324 0
M  V30 803 H 75.5181 2.21181 4.31517 0
M  V30 804 N 76.8612 -1.46375 0.584142 0
M  V30 805 C 78.1092 -2.01978 0.0701287 0
M  V30 806 C 78.4302 -1.4579 -1.295 0
M  V30 807 O 77.7002 -0.64314 -1.85042 0
M  V30 808 H 76.2802 -0.746648 0.0229345 0
M  V30 809 H 78.9422 -1.79461 0.760245 0
M  V30 810 H 78.0382 -3.121 0.0022064 0
M  V30 811 N 78.3393 -0.321999 -1.54275 0
M  V30 812 C 79.5883 0.281931 -1.9972 0
M  V30 813 C 79.9013 1.53369 -1.21397 0
M  V30 814 O 81.1073 2.21352 -1.57211 0
M  V30 815 C 79.5633 0.5529 -3.55628 0
M  V30 816 C 79.1713 -0.681721 -4.42783 0
M  V30 817 C 80.9153 1.11687 -4.09544 0
M  V30 818 C 78.8223 -0.382742 -5.9016 0
M  V30 819 H 77.7523 0.109124 -0.746062 0
M  V30 820 H 80.4033 -0.43398 -1.78294 0
M  V30 821 H 78.7853 1.32896 -3.73035 0
M  V30 822 H 79.9593 -1.45723 -4.37151 0
M  V30 823 H 78.2743 -1.1658 -3.99748 0
M  V30 824 H 80.8713 1.35515 -5.17242 0
M  V30 825 H 81.2143 2.06575 -3.61431 0
M  V30 826 H 81.7473 0.402032 -3.95763 0
M  V30 827 H 78.4863 -1.30076 -6.42464 0
M  V30 828 H 78.0063 0.355094 -5.98748 0
M  V30 829 H 79.6853 0.00800157 -6.47 0
M  V30 830 N 79.8174 1.5752 -0.0501392 0
M  V30 831 C 80.7804 2.1037 0.909786 0
M  V30 832 C 81.7804 1.02308 1.24056 0
M  V30 833 O 82.9704 1.28385 1.17741 0
M  V30 834 C 80.1024 2.58708 2.21998 0
M  V30 835 H 81.2954 2.96479 0.451665 0
M  V30 836 H 78.8484 1.55038 0.198248 0
M  V30 837 H 79.5834 1.75989 2.72394 0
M  V30 838 H 79.3684 3.37675 1.99295 0
M  V30 839 H 80.8584 2.99747 2.9076 0
M  V30 840 N 81.2955 -0.223234 1.56011 0
M  V30 841 C 82.5435 -0.946003 1.78592 0
M  V30 842 C 82.8645 -1.84936 0.618349 0
M  V30 843 O 82.1345 -1.92473 -0.364833 0
M  V30 844 H 80.7145 -0.352298 0.658707 0
M  V30 845 H 83.3765 -0.235494 1.93472 0
M  V30 846 H 82.4725 -1.55381 2.70672 0
M  V30 847 N 82.7736 -1.49793 -0.48987 0
M  V30 848 C 83.7056 -1.63413 -1.60713 0
M  V30 849 C 84.7186 -0.516329 -1.54395 0
M  V30 850 O 85.9076 -0.788812 -1.60125 0
M  V30 851 C 83.0076 -1.58516 -2.99543 0
M  V30 852 C 82.1806 -2.86016 -3.30928 0
M  V30 853 C 81.2396 -2.74018 -4.49222 0
M  V30 854 O 80.2656 -3.47964 -4.50455 0
M  V30 855 N 81.4676 -1.86309 -5.4979 0
M  V30 856 H 84.2326 -2.59777 -1.49452 0
M  V30 857 H 81.7936 -1.47022 -0.677955 0
M  V30 858 H 83.7856 -1.48128 -3.76617 0
M  V30 859 H 82.3556 -0.69965 -3.0467 0
M  V30 860 H 81.5756 -3.10672 -2.42645 0
M  V30 861 H 82.8636 -3.70521 -3.487 0
M  V30 862 H 82.2616 -1.2551 -5.51601 0
M  V30 863 H 80.8186 -1.81837 -6.25922 0
M  V30 864 N 84.2517 0.741722 -1.39055 0
M  V30 865 C 85.6627 1.31966 -1.32068 0
M  V30 866 C 86.0137 1.96192 0.0180797 0
M  V30 867 O 85.1387 1.95861 0.920196 0
M  V30 868 C 85.7337 2.39954 -2.39181 0
M  V30 869 C 84.2927 2.93438 -2.35735 0
M  V30 870 C 83.4397 1.66936 -2.21422 0
M  V30 871 H 86.3907 0.539721 -1.4924 0
M  V30 872 H 86.4117 3.20182 -2.05581 0
M  V30 873 H 85.9237 1.9318 -3.36605 0
M  V30 874 H 84.0247 3.4451 -1.41929 0
M  V30 875 H 84.1377 3.4701 -3.30335 0
M  V30 876 H 82.5017 1.91016 -1.68478 0
M  V30 877 H 83.2847 1.22224 -3.20806 0
M  V30 878 N 85.7298 1.2412 0.971189 0
M  V30 879 C 86.9788 1.07284 1.70801 0
M  V30 880 C 87.2918 -0.388902 1.91695 0
M  V30 881 O 88.4978 -0.677379 2.62914 0
M  V30 882 C 86.9538 1.87145 3.07416 0
M  V30 883 C 86.5618 3.37707 2.94377 0
M  V30 884 C 88.3058 1.78828 3.84995 0
M  V30 885 C 86.2128 4.09925 4.26281 0
M  V30 886 H 85.1428 0.397854 0.64049 0
M  V30 887 H 87.7938 1.4817 1.0825 0
M  V30 888 H 86.1758 1.39071 3.70777 0
M  V30 889 H 87.3498 3.93335 2.4005 0
M  V30 890 H 85.6648 3.46938 2.30267 0
M  V30 891 H 88.2618 2.30089 4.82662 0
M  V30 892 H 88.6048 0.75284 4.09436 0
M  V30 893 H 89.1378 2.24563 3.28354 0
M  V30 894 H 85.8768 5.13813 4.07033 0
M  V30 895 H 85.3968 3.59083 4.80437 0
M  V30 896 H 87.0758 4.1673 4.94919 0
M  V30 897 N 87.2079 -1.17134 1.05439 0
M  V30 898 C 88.1379 -2.2342 0.678649 0
M  V30 899 C 89.1189 -1.66971 -0.32476 0
M  V30 900 O 90.3039 -1.93149 -0.201802 0
M  V30 901 C 87.4339 -3.47256 0.0552099 0
M  V30 902 C 86.3879 -4.16543 0.98365 0
M  V30 903 C 85.7139 -5.34231 0.223961 0
M  V30 904 C 87.0139 -4.68495 2.3089 0
M  V30 905 H 88.7079 -2.55105 1.56722 0
M  V30 906 H 86.2539 -1.2262 0.754998 0
M  V30 907 H 88.2069 -4.20828 -0.21946 0
M  V30 908 H 86.9309 -3.14846 -0.868319 0
M  V30 909 H 85.5899 -3.44887 1.24293 0
M  V30 910 H 85.2379 -4.98071 -0.702412 0
M  V30 911 H 84.9379 -5.81527 0.842627 0
M  V30 912 H 86.4619 -6.10585 -0.0433671 0
M  V30 913 H 87.8759 -5.33691 2.09396 0
M  V30 914 H 86.2729 -5.26379 2.88176 0
M  V30 915 H 87.3429 -3.85169 2.94572 0
M  V30 916 N 88.686 -0.835752 -1.33615 0
M  V30 917 C 90.097 -0.487099 -1.80234 0
M  V30 918 C 90.448 0.993627 -1.69179 0
M  V30 919 O 89.573 1.77403 -1.23924 0
M  V30 920 C 90.168 -0.877385 -3.27242 0
M  V30 921 C 88.727 -0.580915 -3.7189 0
M  V30 922 C 87.874 -1.0874 -2.5509 0
M  V30 923 H 90.825 -1.02474 -1.2118 0
M  V30 924 H 90.846 -0.186195 -3.80044 0
M  V30 925 H 90.358 -1.95512 -3.35256 0
M  V30 926 H 88.459 0.486881 -3.69405 0
M  V30 927 H 88.572 -1.13396 -4.65487 0
M  V30 928 H 86.936 -0.508392 -2.49575 0
M  V30 929 H 87.719 -2.17184 -2.65868 0
M  V30 930 N 90.1641 1.46063 -0.591896 0
M  V30 931 C 91.4411 1.95595 -0.0137119 0
M  V30 932 C 91.8211 1.5345 1.4497 0
M  V30 933 O 91.1691 0.789543 2.14426 0
M  V30 934 C 91.3791 3.48453 -0.195373 0
M  V30 935 C 92.7271 4.24546 -0.0679765 0
M  V30 936 O 93.7511 3.55982 -0.124681 0
M  V30 937 O 92.6101 5.46467 0.0600579 0
M  V30 938 H 89.7041 0.825795 0.0446279 0
M  V30 939 H 92.2501 1.56303 -0.660859 0
M  V30 940 H 91.0221 3.72045 -1.21235 0
M  V30 941 H 90.6451 3.94597 0.487775 0
M  V30 942 N 91.6422 0.330177 1.54103 0
M  V30 943 C 92.8892 -0.270405 2.00686 0
M  V30 944 C 93.2172 -1.51621 1.21825 0
M  V30 945 O 92.4722 -1.93536 0.29025 0
M  V30 946 C 92.7712 -0.643134 3.51566 0
M  V30 947 C 92.4372 0.504251 4.48072 0
M  V30 948 C 91.0992 0.819163 4.74176 0
M  V30 949 C 93.4512 1.27465 5.05373 0
M  V30 950 C 90.7792 1.90708 5.5484 0
M  V30 951 C 93.1312 2.35271 5.87223 0
M  V30 952 C 91.7952 2.67336 6.11627 0
M  V30 953 H 91.0652 -0.0989482 0.734364 0
M  V30 954 H 93.7122 0.455324 1.86008 0
M  V30 955 H 92.0172 -1.44938 3.64006 0
M  V30 956 H 93.7142 -1.11949 3.85056 0
M  V30 957 H 90.3042 0.248733 4.27878 0
M  V30 958 H 94.4882 1.04462 4.85182 0
M  V30 959 H 89.7442 2.15991 5.71977 0
M  V30 960 H 93.9182 2.95405 6.30641 0
M  V30 961 H 91.5452 3.51763 6.73919 0
M  V30 962 N 93.1203 -1.57491 0.0584922 0
M  V30 963 C 94.3973 -1.84346 -0.653918 0
M  V30 964 C 94.7773 -0.948355 -1.88599 0
M  V30 965 O 94.1253 -0.0112403 -2.28497 0
M  V30 966 C 94.3353 -3.34239 -1.00425 0
M  V30 967 C 95.6833 -4.01431 -1.38342 0
M  V30 968 O 96.7073 -3.38907 -1.09637 0
M  V30 969 O 95.5663 -5.11683 -1.91943 0
M  V30 970 H 92.6603 -0.761112 -0.323478 0
M  V30 971 H 95.2063 -1.6947 0.0884125 0
M  V30 972 H 93.9783 -3.91089 -0.128625 0
M  V30 973 H 93.6013 -3.54329 -1.80378 0
M  V30 974 N 94.5984 0.214957 -1.56127 0
M  V30 975 C 96.0094 0.781386 -1.69562 0
M  V30 976 C 96.3604 1.84707 -0.66165 0
M  V30 977 O 95.4854 2.156 0.185927 0
M  V30 978 C 96.0804 1.42411 -3.07416 0
M  V30 979 C 94.6394 1.93786 -3.22683 0
M  V30 980 C 93.7864 0.800438 -2.65496 0
M  V30 981 H 96.7374 -0.00980633 -1.58697 0
M  V30 982 H 96.7584 2.29309 -3.0364 0
M  V30 983 H 96.2704 0.64826 -3.82648 0
M  V30 984 H 94.3714 2.74152 -2.52332 0
M  V30 985 H 94.4844 2.1133 -4.29973 0
M  V30 986 H 92.8484 1.2095 -2.2415 0
M  V30 987 H 93.6314 0.0371471 -3.4328 0
M  V30 988 N 96.0765 1.50051 0.48192 0
M  V30 989 C 97.0395 1.67584 1.5636 0
M  V30 990 C 98.0395 0.546894 1.51214 0
M  V30 991 O 99.2295 0.813725 1.54026 0
M  V30 992 C 96.3615 1.691 2.96003 0
M  V30 993 H 97.5545 2.64078 1.42136 0
M  V30 994 H 95.1075 1.39369 0.707533 0
M  V30 995 H 95.8425 0.742589 3.15684 0
M  V30 996 H 95.6275 2.51105 3.01146 0
M  V30 997 H 97.1175 1.84656 3.74556 0
M  V30 998 N 97.5546 -0.734337 1.39446 0
M  V30 999 C 98.4846 -1.86155 1.40955 0
M  V30 1000 C 99.4656 -1.67898 0.272827 0
M  V30 1001 O 100.651 -1.88207 0.478743 0
M  V30 1002 C 97.7806 -3.23912 1.25294 0
M  V30 1003 C 96.7346 -3.56808 2.36373 0
M  V30 1004 C 96.0606 -4.93508 2.058 0
M  V30 1005 C 97.3606 -3.59713 3.78687 0
M  V30 1006 H 99.0546 -1.8515 2.35287 0
M  V30 1007 H 96.6006 -0.889367 1.13253 0
M  V30 1008 H 98.5536 -4.02443 1.2497 0
M  V30 1009 H 97.2776 -3.25446 0.274308 0
M  V30 1010 H 95.9366 -2.80606 2.35914 0
M  V30 1011 H 95.5846 -4.91623 1.06374 0
M  V30 1012 H 95.2846 -5.16486 2.80208 0
M  V30 1013 H 96.8086 -5.74396 2.07128 0
M  V30 1014 H 98.2226 -4.2832 3.81071 0
M  V30 1015 H 96.6196 -3.94209 4.52459 0
M  V30 1016 H 97.6896 -2.59504 4.09617 0
M  V30 1017 N 99.0327 -1.24633 -0.964593 0
M  V30 1018 C 100.281 -1.08573 -1.70459 0
M  V30 1019 C 100.602 0.375655 -1.91347 0
M  V30 1020 O 99.8717 1.26779 -1.49345 0
M  V30 1021 H 98.4517 -0.398784 -0.631649 0
M  V30 1022 H 101.114 -1.56601 -1.16026 0
M  V30 1023 H 100.21 -1.58623 -2.68785 0
M  V30 1024 N 100.511 1.16574 -1.06058 0
M  V30 1025 C 101.444 2.19798 -0.61352 0
M  V30 1026 C 102.422 1.58509 0.362453 0
M  V30 1027 O 103.606 1.86527 0.271994 0
M  V30 1028 C 100.733 3.3855 0.100915 0
M  V30 1029 C 99.7788 4.18317 -0.831438 0
M  V30 1030 S 100.612 4.82375 -2.32539 0
M  V30 1031 C 101.768 6.04508 -1.62238 0
M  V30 1032 H 102.001 2.5738 -1.48805 0
M  V30 1033 H 99.5338 1.27327 -0.873338 0
M  V30 1034 H 101.492 4.07358 0.506898 0
M  V30 1035 H 100.153 2.99338 0.951604 0
M  V30 1036 H 99.3458 5.03232 -0.278071 0
M  V30 1037 H 98.9478 3.5499 -1.17719 0
M  V30 1038 H 101.24 6.71133 -0.926622 0
M  V30 1039 H 102.183 6.64389 -2.44934 0
M  V30 1040 H 102.591 5.53559 -1.106 0
M  V30 1041 N 101.989 0.842826 1.3317 0
M  V30 1042 C 102.922 0.223862 2.27099 0
M  V30 1043 C 103.9 -0.631311 1.49844 0
M  V30 1044 O 105.084 -0.590708 1.79005 0
M  V30 1045 C 102.211 -0.685313 3.31694 0
M  V30 1046 C 101.257 0.094919 4.26394 0
M  V30 1047 S 102.09 1.45546 5.15341 0
M  V30 1048 C 103.246 0.551685 6.23464 0
M  V30 1049 H 103.479 1.02015 2.79249 0
M  V30 1050 H 101.012 0.639797 1.4052 0
M  V30 1051 H 102.97 -1.20426 3.92438 0
M  V30 1052 H 101.631 -1.4553 2.78352 0
M  V30 1053 H 100.824 -0.597059 5.00451 0
M  V30 1054 H 100.426 0.545054 3.70007 0
M  V30 1055 H 102.718 -0.248877 6.77043 0
M  V30 1056 H 103.661 1.26253 6.96754 0
M  V30 1057 H 104.069 0.131275 5.64347 0
M  V30 1058 N 103.467 -1.45747 0.599634 0
M  V30 1059 C 104.695 -2.06668 0.0978551 0
M  V30 1060 C 105.11 -1.44562 -1.21439 0
M  V30 1061 O 104.467 -0.556923 -1.73795 0
M  V30 1062 C 104.518 -3.61456 -0.0567044 0
M  V30 1063 O 104.239 -4.21242 1.20361 0
M  V30 1064 C 105.74 -4.39345 -0.590869 0
M  V30 1065 H 102.96 -0.667825 0.0651943 0
M  V30 1066 H 105.504 -1.87115 0.82511 0
M  V30 1067 H 103.659 -3.80378 -0.734251 0
M  V30 1068 H 104.073 -5.14323 1.02821 0
M  V30 1069 H 105.547 -5.48182 -0.648131 0
M  V30 1070 H 106.024 -4.08568 -1.61147 0
M  V30 1071 H 106.63 -4.25268 0.0523679 0
M  V30 1072 N 104.945 -0.338344 -1.53925 0
M  V30 1073 C 106.193 0.259245 -2.0043 0
M  V30 1074 C 106.514 1.51484 -1.22791 0
M  V30 1075 O 105.784 1.93037 -0.33368 0
M  V30 1076 H 104.364 0.0987845 -0.740439 0
M  V30 1077 H 107.026 -0.458302 -1.89435 0
M  V30 1078 H 106.122 0.505334 -3.07982 0
M  V30 1079 N 106.423 1.57458 -0.0668435 0
M  V30 1080 C 107.672 1.92477 0.602947 0
M  V30 1081 C 107.985 0.948419 1.71068 0
M  V30 1082 O 109.191 1.19124 2.43971 0
M  V30 1083 C 107.647 3.41903 1.12383 0
M  V30 1084 C 107.255 4.47975 0.04737 0
M  V30 1085 C 108.999 3.85931 1.76797 0
M  V30 1086 C 106.906 5.88529 0.582022 0
M  V30 1087 H 105.836 0.718387 0.22899 0
M  V30 1088 H 108.487 1.82978 -0.138276 0
M  V30 1089 H 106.869 3.46459 1.91787 0
M  V30 1090 H 108.043 4.55029 -0.726978 0
M  V30 1091 H 106.358 4.13384 -0.500243 0
M  V30 1092 H 108.955 4.88322 2.17821 0
M  V30 1093 H 109.298 3.23029 2.62599 0
M  V30 1094 H 109.831 3.83958 1.04024 0
M  V30 1095 H 106.57 6.55065 -0.238721 0
M  V30 1096 H 106.09 5.85004 1.324 0
M  V30 1097 H 107.769 6.38258 1.05999 0
M  V30 1098 N 107.901 -0.206675 1.56239 0
M  V30 1099 C 109.312 -0.772383 1.69974 0
M  V30 1100 C 109.663 -1.84353 0.671436 0
M  V30 1101 O 108.788 -2.15695 -0.174491 0
M  V30 1102 C 109.383 -1.40779 3.08167 0
M  V30 1103 C 107.942 -1.92072 3.23706 0
M  V30 1104 C 107.089 -0.786347 2.65917 0
M  V30 1105 H 110.04 0.0182223 1.5869 0
M  V30 1106 H 110.061 -2.27696 3.04852 0
M  V30 1107 H 109.573 -0.627958 3.82986 0
M  V30 1108 H 107.674 -2.7281 2.53782 0
M  V30 1109 H 107.787 -2.09046 4.31087 0
M  V30 1110 H 106.151 -1.1976 2.24788 0
M  V30 1111 H 106.934 -0.0189416 3.43295 0
M  V30 1112 N 109.379 -1.50304 -0.473955 0
M  V30 1113 C 110.79 -1.54042 -1.0549 0
M  V30 1114 C 111.141 -0.342248 -1.93192 0
M  V30 1115 O 110.266 0.545157 -2.09421 0
M  V30 1116 C 110.861 -2.79152 -1.91989 0
M  V30 1117 C 109.42 -2.8558 -2.45196 0
M  V30 1118 C 108.567 -2.48295 -1.2347 0
M  V30 1119 H 111.518 -1.5661 -0.256693 0
M  V30 1120 H 111.539 -2.60845 -2.7702 0
M  V30 1121 H 111.051 -3.66339 -1.28131 0
M  V30 1122 H 109.152 -2.02738 -3.12615 0
M  V30 1123 H 109.265 -3.88403 -2.80499 0
M  V30 1124 H 107.629 -2.00669 -1.56856 0
M  V30 1125 H 108.412 -3.37787 -0.612789 0
M  V30 1126 N 110.857 0.726932 -1.39834 0
M  V30 1127 C 112.106 1.48214 -1.36805 0
M  V30 1128 C 112.419 1.95576 0.0305291 0
M  V30 1129 O 113.625 2.7088 0.183417 0
M  V30 1130 C 112.081 2.67854 -2.40379 0
M  V30 1131 C 111.689 2.27408 -3.85992 0
M  V30 1132 C 113.433 3.45641 -2.46439 0
M  V30 1133 C 111.34 3.43819 -4.81189 0
M  V30 1134 H 110.27 0.556606 -0.508631 0
M  V30 1135 H 112.921 0.792216 -1.65518 0
M  V30 1136 H 111.303 3.3896 -2.04749 0
M  V30 1137 H 112.477 1.63795 -4.30706 0
M  V30 1138 H 110.792 1.62692 -3.83302 0
M  V30 1139 H 113.389 4.32244 -3.14753 0
M  V30 1140 H 113.732 3.88669 -1.49139 0
M  V30 1141 H 114.265 2.8157 -2.81004 0
M  V30 1142 H 111.004 3.05834 -5.79781 0
M  V30 1143 H 110.524 4.06385 -4.41148 0
M  V30 1144 H 112.203 4.10043 -5.00474 0
M  V30 1145 N 112.336 1.25143 0.95797 0
M  V30 1146 C 113.564 1.12424 1.73691 0
M  V30 1147 C 113.979 -0.322304 1.86029 0
M  V30 1148 O 113.336 -1.22186 1.35561 0
M  V30 1149 C 113.387 1.76933 3.15241 0
M  V30 1150 O 113.108 3.15932 3.03511 0
M  V30 1151 C 114.609 1.6995 4.09429 0
M  V30 1152 H 111.829 0.3923 0.544373 0
M  V30 1153 H 114.373 1.6544 1.20207 0
M  V30 1154 H 112.528 1.27895 3.6568 0
M  V30 1155 H 112.942 3.47598 3.9278 0
M  V30 1156 H 114.416 2.19753 5.06372 0
M  V30 1157 H 114.893 0.662619 4.34173 0
M  V30 1158 H 115.499 2.18461 3.64904 0
M  V30 1159 N 113.814 -1.1601 1.06675 0
M  V30 1160 C 115.225 -1.68235 0.809565 0
M  V30 1161 C 115.576 -1.8454 -0.666303 0
M  V30 1162 O 114.701 -1.54374 -1.5165 0
M  V30 1163 C 115.296 -3.05585 1.46299 0
M  V30 1164 C 113.855 -3.54915 1.25349 0
M  V30 1165 C 113.002 -2.30804 1.53703 0
M  V30 1166 H 115.953 -1.00318 1.22971 0
M  V30 1167 H 115.974 -3.70174 0.880431 0
M  V30 1168 H 115.486 -2.93686 2.53713 0
M  V30 1169 H 113.587 -3.72067 0.199261 0
M  V30 1170 H 113.7 -4.36774 1.9689 0
M  V30 1171 H 112.064 -2.36007 0.957739 0
M  V30 1172 H 112.847 -2.21499 2.62284 0
M  V30 1173 N 115.292 -0.849877 -1.32721 0
M  V30 1174 C 116.225 -0.235903 -2.26977 0
M  V30 1175 C 117.203 0.623355 -1.50177 0
M  V30 1176 O 118.387 0.581207 -1.79316 0
M  V30 1177 C 115.514 0.667712 -3.32053 0
M  V30 1178 C 114.56 -0.11753 -4.26338 0
M  V30 1179 S 115.393 -1.48277 -5.14562 0
M  V30 1180 C 116.549 -0.584741 -6.23163 0
M  V30 1181 H 116.782 -1.03495 -2.78704 0
M  V30 1182 H 114.315 -0.64724 -1.40179 0
M  V30 1183 H 116.273 1.18343 -3.93072 0
M  V30 1184 H 114.934 1.44052 -2.7912 0
M  V30 1185 H 114.127 0.57051 -5.00761 0
M  V30 1186 H 113.729 -0.564668 -3.69713 0
M  V30 1187 H 116.021 0.212968 -6.77165 0
M  V30 1188 H 116.964 -1.29947 -6.96074 0
M  V30 1189 H 117.372 -0.161202 -5.6427 0
M  V30 1190 N 116.77 1.45427 -0.607355 0
M  V30 1191 C 117.703 2.27635 0.160482 0
M  V30 1192 C 118.681 1.37122 0.873857 0
M  V30 1193 O 119.865 1.66551 0.882775 0
M  V30 1194 C 116.992 3.15486 1.23231 0
M  V30 1195 C 116.038 4.21939 0.622097 0
M  V30 1196 S 116.871 5.32459 -0.569852 0
M  V30 1197 C 118.027 6.23879 0.502577 0
M  V30 1198 H 118.26 2.9241 -0.536983 0
M  V30 1199 H 115.793 1.49265 -0.394868 0
M  V30 1200 H 117.751 3.66659 1.84585 0
M  V30 1201 H 116.412 2.49977 1.90185 0
M  V30 1202 H 115.605 4.8333 1.42856 0
M  V30 1203 H 115.207 3.73906 0.0837063 0
M  V30 1204 H 117.499 6.63261 1.38171 0
M  V30 1205 H 118.442 7.0806 -0.0751759 0
M  V30 1206 H 118.85 5.58545 0.8178 0
M  V30 1207 N 118.248 0.346503 1.53744 0
M  V30 1208 C 119.659 -0.136779 1.86198 0
M  V30 1209 C 120.01 -1.49749 1.26766 0
M  V30 1210 O 119.135 -2.08417 0.582355 0
M  V30 1211 C 119.73 -0.254966 3.37839 0
M  V30 1212 C 118.289 -0.682482 3.70161 0
M  V30 1213 C 117.436 0.181981 2.76702 0
M  V30 1214 H 120.387 0.565994 1.48264 0
M  V30 1215 H 120.408 -1.08195 3.64793 0
M  V30 1216 H 119.92 0.735526 3.81066 0
M  V30 1217 H 118.021 -1.68189 3.3248 0
M  V30 1218 H 118.134 -0.470326 4.76786 0
M  V30 1219 H 116.498 -0.34615 2.52337 0
M  V30 1220 H 117.281 1.16966 3.2276 0
M  V30 1221 N 119.726 -1.57421 0.075193 0
M  V30 1222 C 120.974 -1.93236 -0.591974 0
M  V30 1223 C 121.295 -0.956241 -1.69944 0
M  V30 1224 O 120.565 -0.00494792 -1.95899 0
M  V30 1225 H 119.145 -0.713355 -0.22166 0
M  V30 1226 H 121.807 -1.9444 0.133848 0
M  V30 1227 H 120.903 -2.95131 -1.01509 0
M  V30 1228 N 121.204 0.198386 -1.56346 0
M  V30 1229 C 122.134 1.24865 -1.9731 0
M  V30 1230 C 123.115 1.47651 -0.844576 0
M  V30 1231 O 124.3 1.59444 -1.10866 0
M  V30 1232 C 121.43 2.59358 -2.30977 0
M  V30 1233 C 120.384 2.5119 -3.46537 0
M  V30 1234 C 119.71 3.89926 -3.65871 0
M  V30 1235 C 121.01 2.03977 -4.80823 0
M  V30 1236 H 122.704 0.908252 -2.85291 0
M  V30 1237 H 120.25 0.435462 -1.37258 0
M  V30 1238 H 122.203 3.33011 -2.58228 0
M  V30 1239 H 120.927 2.95132 -1.39874 0
M  V30 1240 H 119.586 1.79993 -3.19371 0
M  V30 1241 H 119.234 4.23046 -2.72105 0
M  V30 1242 H 118.934 3.85336 -4.4361 0
M  V30 1243 H 120.458 4.65205 -3.95495 0
M  V30 1244 H 121.872 2.67386 -5.07127 0
M  V30 1245 H 120.269 2.10397 -5.62008 0
M  V30 1246 H 121.339 0.992861 -4.74626 0
M  V30 1247 N 122.682 1.50554 0.465978 0
M  V30 1248 C 123.93 1.61479 1.21528 0
M  V30 1249 C 124.251 0.319596 1.92363 0
M  V30 1250 O 123.521 -0.663194 1.84333 0
M  V30 1251 H 122.101 0.595055 0.451573 0
M  V30 1252 H 124.763 1.87355 0.53704 0
M  V30 1253 H 123.859 2.42846 1.96042 0
M  V30 1254 N 124.16 -0.719506 1.40217 0
M  V30 1255 C 125.409 -1.47486 1.37589 0
M  V30 1256 C 125.722 -1.9559 -0.0201568 0
M  V30 1257 O 126.928 -2.70973 -0.169049 0
M  V30 1258 C 125.384 -2.66575 2.41796 0
M  V30 1259 C 124.992 -2.25358 3.87192 0
M  V30 1260 C 126.736 -3.4433 2.48269 0
M  V30 1261 C 124.643 -3.41262 4.83005 0
M  V30 1262 H 123.573 -0.553901 0.511576 0
M  V30 1263 H 126.224 -0.783427 1.65936 0
M  V30 1264 H 124.606 -3.3787 2.06543 0
M  V30 1265 H 125.78 -1.61509 4.31569 0
M  V30 1266 H 124.095 -1.60657 3.84159 0
M  V30 1267 H 126.692 -4.30569 3.17041 0
M  V30 1268 H 127.035 -3.87872 1.51198 0
M  V30 1269 H 127.568 -2.80076 2.82493 0
M  V30 1270 H 124.307 -3.02755 5.81394 0
M  V30 1271 H 123.827 -4.0404 4.43297 0
M  V30 1272 H 125.506 -4.07383 5.02641 0
M  V30 1273 N 125.638 -1.25649 -0.95132 0
M  V30 1274 C 126.884 -1.10757 -1.69884 0
M  V30 1275 C 127.217 0.350061 -1.91019 0
M  V30 1276 O 126.492 1.25783 -1.48354 0
M  V30 1277 C 126.775 -1.86606 -3.07978 0
M  V30 1278 C 126.628 -3.40217 -2.94232 0
M  V30 1279 C 127.947 -1.65182 -4.07925 0
M  V30 1280 H 125.066 -0.40374 -0.616574 0
M  V30 1281 H 127.708 -1.54521 -1.10558 0
M  V30 1282 H 125.858 -1.49409 -3.58621 0
M  V30 1283 H 127.53 -3.87108 -2.50889 0
M  V30 1284 H 125.773 -3.67759 -2.30078 0
M  V30 1285 H 126.444 -3.88505 -3.92133 0
M  V30 1286 H 128.92 -1.9757 -3.66204 0
M  V30 1287 H 127.796 -2.20683 -5.02583 0
M  V30 1288 H 128.057 -0.593933 -4.38092 0
M  V30 1289 N 127.117 1.15442 -1.07289 0
M  V30 1290 C 128.528 1.67803 -0.818475 0
M  V30 1291 C 128.879 1.8489 0.656507 0
M  V30 1292 O 128.004 1.55176 1.50829 0
M  V30 1293 C 128.599 3.04805 -1.47917 0
M  V30 1294 C 127.158 3.54245 -1.27229 0
M  V30 1295 C 126.305 2.29986 -1.54925 0
M  V30 1296 H 129.256 0.996646 -1.23502 0
M  V30 1297 H 129.277 3.69702 -0.90005 0
M  V30 1298 H 128.789 2.92336 -2.55267 0
M  V30 1299 H 126.89 3.71956 -0.21899 0
M  V30 1300 H 127.003 4.35723 -1.99203 0
M  V30 1301 H 125.367 2.35496 -0.970242 0
M  V30 1302 H 126.15 2.20105 -2.63455 0
M  V30 1303 N 128.595 0.856903 1.32268 0
M  V30 1304 C 130.006 0.515711 1.79436 0
M  V30 1305 C 130.357 -0.966586 1.70738 0
M  V30 1306 O 129.482 -1.75409 1.26731 0
M  V30 1307 C 130.077 0.929335 3.25805 0
M  V30 1308 C 128.636 0.640006 3.70919 0
M  V30 1309 C 127.783 1.12784 2.53328 0
M  V30 1310 H 130.734 1.04389 1.19535 0
M  V30 1311 H 130.755 0.246633 3.797 0
M  V30 1312 H 130.267 2.00821 3.32103 0
M  V30 1313 H 128.368 -0.428051 3.70133 0
M  V30 1314 H 128.481 1.20788 4.63624 0
M  V30 1315 H 126.845 0.548033 2.48734 0
M  V30 1316 H 127.628 2.21387 2.62379 0
M  V30 1317 N 130.073 -1.45103 0.615059 0
M  V30 1318 C 131.484 -1.85654 0.197383 0
M  V30 1319 C 131.835 -1.51433 -1.24749 0
M  V30 1320 O 130.96 -0.944608 -1.94695 0
M  V30 1321 C 131.555 -3.36972 0.351448 0
M  V30 1322 C 130.114 -3.76398 -0.011593 0
M  V30 1323 C 129.261 -2.69024 0.672394 0
M  V30 1324 H 132.212 -1.35797 0.821263 0
M  V30 1325 H 132.233 -3.78239 -0.414227 0
M  V30 1326 H 131.745 -3.61847 1.40314 0
M  V30 1327 H 129.846 -3.5714 -1.06217 0
M  V30 1328 H 129.959 -4.77532 0.387265 0
M  V30 1329 H 128.323 -2.54465 0.109284 0
M  V30 1330 H 129.106 -2.96735 1.72636 0
M  V30 1331 N 131.551 -0.354651 -1.53558 0
M  V30 1332 C 132.8 0.239504 -2.00273 0
M  V30 1333 C 133.113 1.50759 -1.24623 0
M  V30 1334 O 134.319 2.17968 -1.61871 0
M  V30 1335 C 132.775 0.477341 -3.5672 0
M  V30 1336 C 132.383 -0.775488 -4.41237 0
M  V30 1337 C 134.127 1.02975 -4.11821 0
M  V30 1338 C 132.034 -0.507838 -5.89216 0
M  V30 1339 H 130.964 0.0932743 -0.748208 0
M  V30 1340 H 133.615 -0.471701 -1.77334 0
M  V30 1341 H 131.997 1.24953 -3.7577 0
M  V30 1342 H 133.171 -1.54963 -4.33962 0
M  V30 1343 H 131.486 -1.25033 -3.97185 0
M  V30 1344 H 134.083 1.24513 -5.2 0
M  V30 1345 H 134.426 1.98862 -3.65731 0
M  V30 1346 H 134.959 0.317994 -3.96527 0
M  V30 1347 H 131.698 -1.43674 -6.39561 0
M  V30 1348 H 131.218 0.228011 -5.99366 0
M  V30 1349 H 132.897 -0.129238 -6.46871 0
M  V30 1350 N 133.029 1.57378 -0.0835403 0
M  V30 1351 C 134.44 1.81261 0.447358 0
M  V30 1352 C 134.791 0.998331 1.68902 0
M  V30 1353 O 133.916 0.224282 2.15235 0
M  V30 1354 C 134.511 3.28767 0.818386 0
M  V30 1355 C 133.07 3.53455 1.29409 0
M  V30 1356 C 132.217 2.75831 0.285024 0
M  V30 1357 H 135.168 1.5566 -0.309115 0
M  V30 1358 H 135.189 3.41459 1.67887 0
M  V30 1359 H 134.701 3.88006 -0.0855019 0
M  V30 1360 H 132.802 2.99534 2.21608 0
M  V30 1361 H 132.915 4.62128 1.2639 0
M  V30 1362 H 131.279 2.42947 0.764767 0
M  V30 1363 H 132.062 3.37813 -0.611341 0
M  V30 1364 N 134.507 -0.190092 1.56449 0
M  V30 1365 C 135.918 -0.754312 1.70784 0
M  V30 1366 C 136.269 -1.83631 0.690951 0
M  V30 1367 O 135.394 -2.15868 -0.151604 0
M  V30 1368 C 135.989 -1.37503 3.09642 0
M  V30 1369 C 134.548 -1.88628 3.25725 0
M  V30 1370 C 133.695 -0.758098 2.66736 0
M  V30 1371 H 136.646 0.0350524 1.58661 0
M  V30 1372 H 136.667 -2.2445 3.0725 0
M  V30 1373 H 136.179 -0.587302 3.83631 0
M  V30 1374 H 134.28 -2.70103 2.56661 0
M  V30 1375 H 134.393 -2.04462 4.3328 0
M  V30 1376 H 132.757 -1.17369 2.26046 0
M  V30 1377 H 133.54 0.0174705 3.43296 0
M  V30 1378 N 135.985 -1.50799 -0.457987 0
M  V30 1379 C 137.262 -1.52968 -1.21902 0
M  V30 1380 C 137.642 -0.281906 -2.09209 0
M  V30 1381 O 136.99 0.734076 -2.16388 0
M  V30 1382 C 137.2 -2.8326 -2.03875 0
M  V30 1383 C 138.548 -3.34425 -2.6162 0
M  V30 1384 O 139.572 -2.8467 -2.14106 0
M  V30 1385 O 138.431 -4.21188 -3.48228 0
M  V30 1386 H 135.525 -0.614129 -0.553873 0
M  V30 1387 H 138.071 -1.63098 -0.468739 0
M  V30 1388 H 136.843 -3.65543 -1.39621 0
M  V30 1389 H 136.466 -2.76195 -2.8601 0
M  V30 1390 N 137.463 0.71206 -1.40597 0
M  V30 1391 C 138.396 1.83582 -1.35546 0
M  V30 1392 C 139.374 1.61032 -0.225284 0
M  V30 1393 O 140.558 1.83998 -0.409519 0
M  V30 1394 C 137.685 3.19983 -1.11034 0
M  V30 1395 C 136.731 3.61355 -2.2655 0
M  V30 1396 S 137.564 3.68062 -3.88961 0
M  V30 1397 C 138.72 5.07216 -3.66719 0
M  V30 1398 H 138.953 1.87586 -2.30648 0
M  V30 1399 H 136.486 0.879182 -1.26924 0
M  V30 1400 H 138.444 3.98734 -0.975761 0
M  V30 1401 H 137.105 3.13608 -0.175798 0
M  V30 1402 H 136.298 4.60403 -2.0505 0
M  V30 1403 H 135.9 2.8987 -2.36329 0
M  V30 1404 H 138.192 5.94238 -3.25404 0
M  V30 1405 H 139.135 5.33753 -4.6531 0
M  V30 1406 H 139.543 4.77976 -3.00332 0
M  V30 1407 N 138.941 1.26152 0.944643 0
M  V30 1408 C 140.352 1.10454 1.50522 0
M  V30 1409 C 140.703 -0.31635 1.93633 0
M  V30 1410 O 139.828 -1.20746 1.79581 0
M  V30 1411 C 140.423 1.99891 2.73549 0
M  V30 1412 C 138.982 1.88348 3.25886 0
M  V30 1413 C 138.129 1.93447 1.9868 0
M  V30 1414 H 141.08 1.39292 0.760489 0
M  V30 1415 H 141.101 1.54477 3.47732 0
M  V30 1416 H 140.613 3.03297 2.42141 0
M  V30 1417 H 138.714 0.878636 3.62092 0
M  V30 1418 H 138.827 2.73696 3.93227 0
M  V30 1419 H 137.191 1.37456 2.14425 0
M  V30 1420 H 137.974 2.98476 1.69607 0
M  V30 1421 N 140.419 -1.14872 1.07899 0
M  V30 1422 C 141.665 -1.86064 0.806725 0
M  V30 1423 C 141.998 -1.82434 -0.665706 0
M  V30 1424 O 141.273 -1.25138 -1.48899 0
M  V30 1425 C 141.556 -3.34929 1.32267 0
M  V30 1426 C 141.409 -3.47161 2.86006 0
M  V30 1427 C 142.728 -4.29863 0.943717 0
M  V30 1428 H 139.847 -0.675591 0.294526 0
M  V30 1429 H 142.489 -1.34925 1.33773 0
M  V30 1430 H 140.639 -3.78611 0.870974 0
M  V30 1431 H 142.311 -3.12302 3.39507 0
M  V30 1432 H 140.554 -2.88539 3.23925 0
M  V30 1433 H 141.225 -4.51777 3.17177 0
M  V30 1434 H 143.701 -3.9417 1.33302 0
M  V30 1435 H 142.577 -5.32494 1.33198 0
M  V30 1436 H 142.838 -4.41846 -0.149796 0
M  V30 1437 N 141.898 -0.863906 -1.31812 0
M  V30 1438 C 143.144 -0.472535 -1.97218 0
M  V30 1439 C 143.477 0.971394 -1.68159 0
M  V30 1440 O 142.752 1.68309 -0.974798 0
M  V30 1441 C 143.035 -0.723054 -3.52766 0
M  V30 1442 C 142.888 -2.21608 -3.91421 0
M  V30 1443 C 144.207 -0.185522 -4.39709 0
M  V30 1444 H 141.326 -0.173158 -0.71637 0
M  V30 1445 H 143.968 -1.08403 -1.56041 0
M  V30 1446 H 142.118 -0.202577 -3.87971 0
M  V30 1447 H 143.79 -2.80334 -3.66347 0
M  V30 1448 H 142.033 -2.691 -3.40246 0
M  V30 1449 H 142.704 -2.34203 -4.99853 0
M  V30 1450 H 145.18 -0.630726 -4.11292 0
M  V30 1451 H 144.056 -0.390306 -5.47511 0
M  V30 1452 H 144.317 0.912229 -4.32586 0
M  V30 1453 N 143.376 1.44774 -0.622745 0
M  V30 1454 C 144.323 2.30635 0.0871679 0
M  V30 1455 C 145.293 1.42994 0.845097 0
M  V30 1456 O 146.478 1.71907 0.827812 0
M  V30 1457 C 143.618 3.28144 1.06844 0
M  V30 1458 C 142.731 4.30888 0.309809 0
M  V30 1459 C 141.866 5.15494 1.28215 0
M  V30 1460 C 140.905 6.09953 0.512198 0
M  V30 1461 N 140.042 6.87287 1.43458 0
M  V30 1462 H 144.882 2.90803 -0.650974 0
M  V30 1463 H 142.419 1.43286 -0.33281 0
M  V30 1464 H 144.377 3.83157 1.65066 0
M  V30 1465 H 143.007 2.69695 1.77382 0
M  V30 1466 H 142.059 3.78414 -0.388181 0
M  V30 1467 H 143.371 4.97955 -0.290254 0
M  V30 1468 H 142.525 5.74983 1.93596 0
M  V30 1469 H 141.264 4.48481 1.91614 0
M  V30 1470 H 140.269 5.49581 -0.155151 0
M  V30 1471 H 141.494 6.78999 -0.116958 0
M  V30 1472 H 139.44 6.2295 2.05594 0
M  V30 1473 H 139.357 7.50763 0.888335 0
M  V30 1474 H 140.625 7.51306 2.07749 0
M  V30 1475 N 144.854 0.36279 1.53368 0
M  V30 1476 C 145.764 -0.492994 2.29362 0
M  V30 1477 C 146.78 -1.09507 1.35219 0
M  V30 1478 O 147.956 -1.10662 1.68273 0
M  V30 1479 C 145.021 -1.61855 3.066 0
M  V30 1480 C 144.082 -1.04429 4.16405 0
M  V30 1481 C 143.315 -2.11621 4.89951 0
M  V30 1482 O 143.538 -3.32684 4.63333 0
M  V30 1483 O 142.472 -1.74835 5.75948 0
M  V30 1484 H 146.298 0.125331 3.03441 0
M  V30 1485 H 143.883 0.127253 1.48857 0
M  V30 1486 H 145.765 -2.27302 3.54841 0
M  V30 1487 H 144.44 -2.22233 2.3536 0
M  V30 1488 H 143.347 -0.353819 3.72423 0
M  V30 1489 H 144.68 -0.485113 4.89804 0
M  V30 1490 N 146.332 -1.57332 0.0918853 0
M  V30 1491 C 147.581 -1.93412 -0.572249 0
M  V30 1492 C 147.894 -0.975515 -1.69538 0
M  V30 1493 O 149.1 -1.22991 -2.42045 0
M  V30 1494 C 147.556 -3.43648 -1.0693 0
M  V30 1495 C 147.164 -4.47994 0.0239049 0
M  V30 1496 C 148.908 -3.88695 -1.70635 0
M  V30 1497 C 146.815 -5.89381 -0.488319 0
M  V30 1498 H 145.745 -0.721939 -0.217532 0
M  V30 1499 H 148.396 -1.82735 0.167369 0
M  V30 1500 H 146.778 -3.49466 -1.8625 0
M  V30 1501 H 147.952 -4.53815 0.799277 0
M  V30 1502 H 146.267 -4.12536 0.565946 0
M  V30 1503 H 148.864 -4.91725 -2.10025 0
M  V30 1504 H 149.207 -3.27166 -2.57426 0
M  V30 1505 H 149.74 -3.85564 -0.979023 0
M  V30 1506 H 146.479 -6.54602 0.342906 0
M  V30 1507 H 145.999 -5.87037 -1.23077 0
M  V30 1508 H 147.678 -6.39863 -0.958317 0
M  V30 1509 N 147.81 0.181792 -1.56548 0
M  V30 1510 C 149.059 0.898348 -1.8059 0
M  V30 1511 C 149.372 1.83862 -0.667379 0
M  V30 1512 O 150.578 2.59678 -0.792446 0
M  V30 1513 C 149.034 1.64791 -3.19956 0
M  V30 1514 C 148.642 0.751789 -4.41647 0
M  V30 1515 C 150.386 2.35331 -3.53298 0
M  V30 1516 C 148.293 1.50098 -5.72035 0
M  V30 1517 H 147.223 0.339194 -0.673397 0
M  V30 1518 H 149.874 0.151413 -1.82874 0
M  V30 1519 H 148.256 2.43921 -3.11959 0
M  V30 1520 H 149.43 -0.0018076 -4.608 0
M  V30 1521 H 147.745 0.156562 -4.16106 0
M  V30 1522 H 150.342 2.91958 -4.47956 0
M  V30 1523 H 150.685 3.10164 -2.77676 0
M  V30 1524 H 151.218 1.63154 -3.62803 0
M  V30 1525 H 147.957 0.795175 -6.50659 0
M  V30 1526 H 147.477 2.22817 -5.56878 0
M  V30 1527 H 149.156 2.05125 -6.13622 0
M  V30 1528 N 149.288 1.51039 0.449983 0
M  V30 1529 C 150.238 1.67824 1.54335 0
M  V30 1530 C 151.222 0.5324 1.51836 0
M  V30 1531 O 152.414 0.787762 1.58503 0
M  V30 1532 C 149.543 1.7951 2.92628 0
M  V30 1533 C 148.629 2.99838 2.9993 0
M  V30 1534 N 149.02 4.23207 2.77001 0
M  V30 1535 C 147.318 2.98832 3.31082 0
M  V30 1536 C 148.019 5.04361 2.89818 0
M  V30 1537 N 146.995 4.38746 3.2094 0
M  V30 1538 H 150.797 2.60884 1.35339 0
M  V30 1539 H 148.311 1.48513 0.657085 0
M  V30 1540 H 150.308 1.89642 3.7127 0
M  V30 1541 H 148.968 0.876227 3.12654 0
M  V30 1542 H 149.979 4.5236 2.52172 0
M  V30 1543 H 146.656 2.16527 3.56963 0
M  V30 1544 H 148.046 6.12528 2.76151 0
M  V30 1545 N 150.766 -0.704594 1.40972 0
M  V30 1546 C 152.006 -1.47691 1.41304 0
M  V30 1547 C 152.37 -1.91992 0.0178582 0
M  V30 1548 O 153.571 -2.68599 -0.103996 0
M  V30 1549 C 151.842 -2.66254 2.38419 0
M  V30 1550 S 153.401 -3.55516 2.57204 0
M  V30 1551 H 150.219 -0.504808 0.500689 0
M  V30 1552 H 152.821 -0.822962 1.77335 0
M  V30 1553 H 151.525 -2.31897 3.38603 0
M  V30 1554 H 151.056 -3.3655 2.03711 0
M  V30 1555 H 153.071 -4.61115 1.83268 0
M  V30 1556 N 152.244 -1.26651 -0.937939 0
M  V30 1557 C 153.191 -1.0849 -2.03712 0
M  V30 1558 C 154.161 0.011033 -1.66096 0
M  V30 1559 O 155.346 -0.149353 -1.90215 0
M  V30 1560 C 152.486 -0.72735 -3.37348 0
M  V30 1561 C 151.599 -1.89986 -3.87981 0
M  V30 1562 C 150.734 -1.48513 -5.10017 0
M  V30 1563 C 149.773 -2.62575 -5.5292 0
M  V30 1564 N 148.91 -2.21762 -6.66158 0
M  V30 1565 H 153.75 -2.02551 -2.18579 0
M  V30 1566 H 151.287 -1.00844 -1.07093 0
M  V30 1567 H 153.245 -0.50092 -4.14182 0
M  V30 1568 H 151.875 0.176298 -3.22318 0
M  V30 1569 H 150.927 -2.23913 -3.07518 0
M  V30 1570 H 152.239 -2.75586 -4.15757 0
M  V30 1571 H 151.393 -1.21934 -5.94321 0
M  V30 1572 H 150.132 -0.60009 -4.83994 0
M  V30 1573 H 149.137 -2.8988 -4.67172 0
M  V30 1574 H 150.362 -3.51685 -5.80943 0
M  V30 1575 H 148.308 -1.35696 -6.41812 0
M  V30 1576 H 148.225 -3.00903 -6.93537 0
M  V30 1577 H 149.493 -1.98403 -7.53828 0
M  V30 1578 N 153.722 1.14298 -1.08507 0
M  V30 1579 C 154.947 1.8976 -0.837001 0
M  V30 1580 C 155.372 1.78097 0.605228 0
M  V30 1581 O 154.73 1.12188 1.4242 0
M  V30 1582 C 154.778 3.37685 -1.26495 0
M  V30 1583 O 153.882 4.10281 -0.417514 0
M  V30 1584 H 153.223 0.590365 -0.303917 0
M  V30 1585 H 155.753 1.44672 -1.44676 0
M  V30 1586 H 155.763 3.88501 -1.24625 0
M  V30 1587 H 154.438 3.45492 -2.31534 0
M  V30 1588 H 153.015 3.69536 -0.499722 0
M  V30 1589 N 155.201 0.870884 1.31352 0
M  V30 1590 C 156.441 0.488783 1.9847 0
M  V30 1591 C 156.805 -0.941536 1.67329 0
M  V30 1592 O 158.006 -1.42903 2.27667 0
M  V30 1593 C 156.277 0.739688 3.49662 0
M  V30 1594 S 157.836 0.457582 4.36408 0
M  V30 1595 H 154.654 0.18242 0.6872 0
M  V30 1596 H 157.256 1.12711 1.59739 0
M  V30 1597 H 155.96 1.77944 3.69816 0
M  V30 1598 H 155.491 0.0883905 3.93301 0
M  V30 1599 H 157.506 -0.709752 4.91098 0
M  V30 1600 N 156.679 -1.44442 0.630414 0
M  V30 1601 C 157.907 -2.06414 0.141671 0
M  V30 1602 C 158.322 -1.47105 -1.18345 0
M  V30 1603 O 157.679 -0.593662 -1.72574 0
M  V30 1604 C 157.73 -3.61494 0.0199784 0
M  V30 1605 O 157.451 -4.18594 1.29269 0
M  V30 1606 C 158.952 -4.40499 -0.497544 0
M  V30 1607 H 156.172 -0.666292 0.0793452 0
M  V30 1608 H 158.716 -1.85323 0.864614 0
M  V30 1609 H 156.871 -3.8185 -0.653402 0
M  V30 1610 H 157.285 -5.12026 1.13707 0
M  V30 1611 H 158.759 -5.49433 -0.531708 0
M  V30 1612 H 159.236 -4.11895 -1.52445 0
M  V30 1613 H 159.842 -4.25061 0.142562 0
M  V30 1614 N 158.157 -0.370918 -1.53173 0
M  V30 1615 C 159.087 0.464847 -2.28826 0
M  V30 1616 C 160.068 1.07936 -1.31468 0
M  V30 1617 O 161.253 1.0956 -1.60344 0
M  V30 1618 C 158.383 1.60196 -3.08147 0
M  V30 1619 C 157.337 1.11443 -4.13237 0
M  V30 1620 C 156.663 2.3422 -4.80672 0
M  V30 1621 C 157.963 0.195384 -5.21934 0
M  V30 1622 H 159.657 -0.166329 -2.98938 0
M  V30 1623 H 157.203 -0.0814359 -1.4377 0
M  V30 1624 H 159.156 2.19332 -3.59822 0
M  V30 1625 H 157.88 2.26045 -2.35735 0
M  V30 1626 H 156.539 0.545727 -3.62515 0
M  V30 1627 H 156.187 2.98537 -4.04827 0
M  V30 1628 H 155.887 2.02269 -5.51689 0
M  V30 1629 H 157.411 2.94032 -5.35143 0
M  V30 1630 H 158.825 0.694375 -5.69079 0
M  V30 1631 H 157.222 -0.0335027 -6.00091 0
M  V30 1632 H 158.292 -0.760961 -4.78892 0
M  V30 1633 N 159.635 1.57281 -0.100228 0
M  V30 1634 C 160.882 1.94537 0.562268 0
M  V30 1635 C 161.21 0.982315 1.67871 0
M  V30 1636 O 160.465 0.00280936 1.957 0
M  V30 1637 C 160.764 3.38305 1.15259 0
M  V30 1638 C 160.43 4.50618 0.159409 0
M  V30 1639 C 159.092 4.81066 -0.113741 0
M  V30 1640 C 161.444 5.18615 -0.518461 0
M  V30 1641 C 158.772 5.76835 -1.07137 0
M  V30 1642 C 161.124 6.15412 -1.46459 0
M  V30 1643 C 159.788 6.44262 -1.74592 0
M  V30 1644 H 159.058 0.711863 0.205748 0
M  V30 1645 H 161.705 1.90679 -0.17715 0
M  V30 1646 H 160.01 3.38766 1.96836 0
M  V30 1647 H 161.707 3.64435 1.67297 0
M  V30 1648 H 158.297 4.2689 0.382491 0
M  V30 1649 H 162.481 4.95264 -0.320581 0
M  V30 1650 H 157.737 5.975 -1.29628 0
M  V30 1651 H 161.911 6.67194 -1.99564 0
M  V30 1652 H 159.538 7.1828 -2.48953 0
M  V30 1653 N 161.113 -0.173488 1.56642 0
M  V30 1654 C 162.524 -0.736155 1.71574 0
M  V30 1655 C 162.875 -1.82888 0.710389 0
M  V30 1656 O 162 -2.16017 -0.1287 0
M  V30 1657 C 162.595 -1.34211 3.11083 0
M  V30 1658 C 161.154 -1.85162 3.27707 0
M  V30 1659 C 160.301 -0.729765 2.67525 0
M  V30 1660 H 163.252 0.0518786 1.58615 0
M  V30 1661 H 163.273 -2.21178 3.09613 0
M  V30 1662 H 162.785 -0.546579 3.84232 0
M  V30 1663 H 160.886 -2.67366 2.59512 0
M  V30 1664 H 160.999 -1.99855 4.35425 0
M  V30 1665 H 159.363 -1.14965 2.27278 0
M  V30 1666 H 160.146 0.0538806 3.43258 0
M  V30 1667 N 162.591 -1.51276 -0.441967 0
M  V30 1668 C 164.002 -1.56244 -1.02199 0
M  V30 1669 C 164.353 -0.383149 -1.92422 0
M  V30 1670 O 163.478 0.500613 -2.1053 0
M  V30 1671 C 164.073 -2.83162 -1.86024 0
M  V30 1672 C 162.632 -2.90716 -2.39084 0
M  V30 1673 C 161.779 -2.50858 -1.18175 0
M  V30 1674 H 164.73 -1.5712 -0.223416 0
M  V30 1675 H 164.751 -2.66663 -2.71425 0
M  V30 1676 H 164.263 -3.68974 -1.20331 0
M  V30 1677 H 162.364 -2.09323 -3.08244 0
M  V30 1678 H 162.477 -3.94266 -2.72198 0
M  V30 1679 H 160.841 -2.03951 -1.52565 0
M  V30 1680 H 161.624 -3.3901 -0.541001 0
M  V30 1681 N 164.069 0.697108 -1.41344 0
M  V30 1682 C 165.017 1.83237 -1.43272 0
M  V30 1683 C 166.011 1.66522 -0.310947 0
M  V30 1684 O 167.217 1.73402 -0.482899 0
M  V30 1685 H 163.592 0.603802 -0.448249 0
M  V30 1686 H 165.563 1.78727 -2.38954 0
M  V30 1687 C 164.312 3.21245 -1.33029 0
M  V30 1688 H 163.635 3.34723 -2.18633 0
M  V30 1689 H 165.075 4.00763 -1.38439 0
M  V30 1690 C 163.534 3.36873 -0.0424635 0
M  V30 1691 O 164.064 3.91177 0.913421 0
M  V30 1692 N 162.27 2.90581 0.0331145 0
M  V30 1693 H 161.817 2.46577 -0.745506 0
M  V30 1694 H 161.775 3.01416 0.894199 0
M  V30 1695 N 165.547 1.27147 0.931209 0
M  V30 1696 C 166.958 1.12044 1.49342 0
M  V30 1697 C 167.309 -0.295795 1.93957 0
M  V30 1698 O 166.434 -1.18835 1.80852 0
M  V30 1699 C 167.029 2.02781 2.71414 0
M  V30 1700 C 165.588 1.91794 3.2387 0
M  V30 1701 C 164.735 1.95543 1.96617 0
M  V30 1702 H 167.686 1.40091 0.745672 0
M  V30 1703 H 167.707 1.58156 3.46074 0
M  V30 1704 H 167.219 3.05848 2.38911 0
M  V30 1705 H 165.32 0.916992 3.6114 0
M  V30 1706 H 165.433 2.77852 3.90302 0
M  V30 1707 H 163.797 1.39722 2.12955 0
M  V30 1708 H 164.58 3.00259 1.66432 0
M  V30 1709 N 167.025 -1.13721 1.09112 0
M  V30 1710 C 167.973 -2.21103 0.722219 0
M  V30 1711 C 168.967 -1.67147 -0.275374 0
M  V30 1712 O 170.173 -1.79477 -0.137176 0
M  V30 1713 H 166.548 -0.720445 0.215553 0
M  V30 1714 H 168.519 -2.49483 1.63709 0
M  V30 1715 C 167.268 -3.47352 0.15543 0
M  V30 1716 H 166.591 -3.89206 0.914246 0
M  V30 1717 H 168.031 -4.2395 -0.0647967 0
M  V30 1718 C 166.49 -3.1814 -1.10852 0
M  V30 1719 O 167.02 -3.36604 -2.19227 0
M  V30 1720 N 165.226 -2.72045 -1.02176 0
M  V30 1721 H 164.773 -2.57221 -0.139764 0
M  V30 1722 H 164.731 -2.52875 -1.8682 0
M  V30 1723 N 168.503 -0.877838 -1.30888 0
M  V30 1724 C 169.433 -0.35534 -2.3078 0
M  V30 1725 C 170.414 0.557994 -1.60687 0
M  V30 1726 O 171.599 0.473355 -1.88343 0
M  V30 1727 C 168.729 0.437221 -3.44537 0
M  V30 1728 C 167.683 -0.383715 -4.26276 0
M  V30 1729 C 167.009 0.535014 -5.32017 0
M  V30 1730 C 168.309 -1.62201 -4.96476 0
M  V30 1731 H 170.003 -1.19007 -2.74732 0
M  V30 1732 H 167.549 -0.573698 -1.32078 0
M  V30 1733 H 169.502 0.813334 -4.13477 0
M  V30 1734 H 168.226 1.30553 -2.99372 0
M  V30 1735 H 166.885 -0.741874 -3.59015 0
M  V30 1736 H 166.533 1.40083 -4.831 0
M  V30 1737 H 166.233 -0.0104211 -5.87599 0
M  V30 1738 H 167.757 0.907799 -6.03814 0
M  V30 1739 H 169.171 -1.31689 -5.5797 0
M  V30 1740 H 167.568 -2.10711 -5.61891 0
M  V30 1741 H 168.638 -2.37044 -4.23011 0
M  V30 1742 N 169.982 1.44106 -0.638065 0
M  V30 1743 C 171.393 1.85316 -0.226894 0
M  V30 1744 C 171.744 1.53399 1.22324 0
M  V30 1745 O 170.869 0.975463 1.93167 0
M  V30 1746 C 171.464 3.3637 -0.405013 0
M  V30 1747 C 170.023 3.76369 -0.0482902 0
M  V30 1748 C 169.17 2.67921 -0.715108 0
M  V30 1749 H 172.121 1.34474 -0.842764 0
M  V30 1750 H 172.142 3.7885 0.354 0
M  V30 1751 H 171.654 3.59569 -1.46053 0
M  V30 1752 H 169.755 3.58784 1.00522 0
M  V30 1753 H 169.868 4.76856 -0.463187 0
M  V30 1754 H 168.232 2.54259 -0.149753 0
M  V30 1755 H 169.015 2.93951 -1.77335 0
M  V30 1756 N 171.46 0.379036 1.52974 0
M  V30 1757 C 172.871 -0.0972525 1.86447 0
M  V30 1758 C 173.222 -1.47027 1.29914 0
M  V30 1759 O 172.347 -2.07135 0.626433 0
M  V30 1760 C 172.942 -0.183248 3.38304 0
M  V30 1761 C 171.501 -0.603812 3.71525 0
M  V30 1762 C 170.648 0.240632 2.76254 0
M  V30 1763 H 173.599 0.597316 1.4703 0
M  V30 1764 H 173.62 -1.00432 3.67006 0
M  V30 1765 H 173.132 0.816191 3.79421 0
M  V30 1766 H 171.233 -1.61099 3.35973 0
M  V30 1767 H 171.346 -0.369086 4.77676 0
M  V30 1768 H 169.71 -0.292548 2.53014 0
M  V30 1769 H 170.493 1.23786 3.20206 0
M  V30 1770 N 172.938 -1.57226 0.108567 0
M  V30 1771 C 174.349 -1.8195 -0.418464 0
M  V30 1772 C 174.7 -1.02508 -1.67292 0
M  V30 1773 O 173.825 -0.258496 -2.14851 0
M  V30 1774 C 174.42 -3.30028 -0.765979 0
M  V30 1775 C 172.979 -3.55469 -1.23769 0
M  V30 1776 C 172.126 -2.7625 -0.241106 0
M  V30 1777 H 175.077 -1.55149 0.33384 0
M  V30 1778 H 175.098 -3.44086 -1.62434 0
M  V30 1779 H 174.61 -3.87821 0.147219 0
M  V30 1780 H 172.711 -3.03022 -2.16814 0
M  V30 1781 H 172.824 -4.6408 -1.19022 0
M  V30 1782 H 171.188 -2.44133 -0.72602 0
M  V30 1783 H 171.971 -3.36797 0.665007 0
M  V30 1784 N 174.416 0.165178 -1.56732 0
M  V30 1785 C 175.379 1.18822 -1.95995 0
M  V30 1786 C 176.379 1.3685 -0.84431 0
M  V30 1787 O 177.569 1.34152 -1.11126 0
M  V30 1788 C 174.701 2.5521 -2.26011 0
M  V30 1789 H 175.894 0.851825 -2.87548 0
M  V30 1790 H 173.447 0.407857 -1.50885 0
M  V30 1791 H 174.182 2.93852 -1.37191 0
M  V30 1792 H 173.967 2.43489 -3.07336 0
M  V30 1793 H 175.457 3.28927 -2.57288 0
M  V30 1794 N 175.894 1.51508 0.433938 0
M  V30 1795 C 177.122 1.68157 1.20543 0
M  V30 1796 C 177.537 0.380362 1.84929 0
M  V30 1797 O 176.894 -0.641446 1.70856 0
M  V30 1798 C 176.945 2.79965 2.28696 0
M  V30 1799 O 176.666 4.05045 1.66943 0
M  V30 1800 C 178.167 3.07912 3.18912 0
M  V30 1801 H 175.387 0.56421 0.363191 0
M  V30 1802 H 177.931 1.97941 0.513754 0
M  V30 1803 H 176.086 2.5277 2.93574 0
M  V30 1804 H 176.5 4.67165 2.38448 0
M  V30 1805 H 177.974 3.89719 3.90926 0
M  V30 1806 H 178.451 2.20456 3.79863 0
M  V30 1807 H 179.057 3.36779 2.59731 0
M  V30 1808 N 177.372 -0.689602 1.41712 0
M  V30 1809 C 178.788 -1.00093 1.24312 0
M  V30 1810 C 178.988 -2.01036 0.136729 0
M  V30 1811 O 178.044 -2.47562 -0.496918 0
M  V30 1812 C 179.357 -1.51985 2.59463 0
M  V30 1813 C 180.905 -1.63838 2.66695 0
M  V30 1814 C 181.38 -2.1913 4.02177 0
M  V30 1815 N 182.871 -2.26483 4.04054 0
M  V30 1816 C 183.606 -2.70306 5.0569 0
M  V30 1817 N 183.102 -3.13691 6.17713 0
M  V30 1818 N 184.895 -2.69923 4.9305 0
M  V30 1819 H 177.046 -0.0210029 2.1239 0
M  V30 1820 H 179.309 -0.0718733 0.945272 0
M  V30 1821 H 179.015 -0.85269 3.41207 0
M  V30 1822 H 178.889 -2.50103 2.82362 0
M  V30 1823 H 181.276 -2.29664 1.85306 0
M  V30 1824 H 181.357 -0.642492 2.476 0
M  V30 1825 H 181.001 -1.53918 4.84016 0
M  V30 1826 H 180.931 -3.19482 4.18615 0
M  V30 1827 H 183.422 -1.95874 3.23174 0
M  V30 1828 H 183.735 -3.45773 6.9113 0
M  V30 1829 H 182.08 -3.11585 6.21241 0
M  V30 1830 H 185.271 -2.35382 4.04614 0
M  V30 1831 H 185.444 -3.03758 5.72394 0
M  V30 1832 N 178.85 -1.27639 -0.924453 0
M  V30 1833 C 179.76 -1.12466 -2.05885 0
M  V30 1834 C 180.776 -0.053869 -1.73917 0
M  V30 1835 O 181.952 -0.261012 -1.99702 0
M  V30 1836 C 179.017 -0.776768 -3.37886 0
M  V30 1837 C 178.078 -1.92878 -3.83532 0
M  V30 1838 C 177.311 -1.59739 -5.09234 0
M  V30 1839 O 177.534 -0.506782 -5.68144 0
M  V30 1840 O 176.468 -2.43761 -5.50331 0
M  V30 1841 H 180.294 -2.07671 -2.21599 0
M  V30 1842 H 177.879 -1.06857 -1.04413 0
M  V30 1843 H 179.761 -0.596229 -4.17161 0
M  V30 1844 H 178.436 0.145732 -3.23372 0
M  V30 1845 H 177.343 -2.1644 -3.0513 0
M  V30 1846 H 178.676 -2.8316 -4.02593 0
M  V30 1847 N 180.328 1.1314 -1.09713 0
M  V30 1848 C 181.744 1.36477 -0.827423 0
M  V30 1849 C 181.944 1.93654 0.556817 0
M  V30 1850 O 181 2.15791 1.31112 0
M  V30 1851 C 182.313 2.31334 -1.92106 0
M  V30 1852 C 183.861 2.44943 -1.94864 0
M  V30 1853 C 184.336 3.4311 -3.0338 0
M  V30 1854 N 185.827 3.50662 -3.02639 0
M  V30 1855 C 186.562 4.2651 -3.83246 0
M  V30 1856 N 186.058 5.05485 -4.73768 0
M  V30 1857 N 187.851 4.2184 -3.71493 0
M  V30 1858 H 180.002 0.743807 -1.9895 0
M  V30 1859 H 182.265 0.389823 -0.864143 0
M  V30 1860 H 181.971 1.96483 -2.91698 0
M  V30 1861 H 181.845 3.31381 -1.80184 0
M  V30 1862 H 184.232 2.79079 -0.959099 0
M  V30 1863 H 184.313 1.4481 -2.10864 0
M  V30 1864 H 183.957 3.09704 -4.02549 0
M  V30 1865 H 183.887 4.43055 -2.84622 0
M  V30 1866 H 186.378 2.94315 -2.37039 0
M  V30 1867 H 186.691 5.60675 -5.3185 0
M  V30 1868 H 185.036 5.04708 -4.77802 0
M  V30 1869 H 188.227 3.5922 -3.00131 0
M  V30 1870 H 188.4 4.80697 -4.3455 0
M  V30 1871 N 181.806 0.884767 1.30421 0
M  V30 1872 C 183.217 0.553656 1.78302 0
M  V30 1873 C 183.568 -0.930153 1.7275 0
M  V30 1874 O 182.693 -1.72681 1.30423 0
M  V30 1875 C 183.288 0.998234 3.2376 0
M  V30 1876 C 181.847 0.71854 3.69478 0
M  V30 1877 C 180.994 1.18132 2.50879 0
M  V30 1878 H 183.945 1.06901 1.17294 0
M  V30 1879 H 183.966 0.327118 3.79091 0
M  V30 1880 H 183.478 2.0782 3.27769 0
M  V30 1881 H 181.579 -0.349444 3.70958 0
M  V30 1882 H 181.692 1.30595 4.60958 0
M  V30 1883 H 180.056 0.600669 2.47516 0
M  V30 1884 H 180.839 2.26902 2.57624 0
M  V30 1885 N 183.284 -1.43765 0.645699 0
M  V30 1886 C 184.695 -1.85193 0.236719 0
M  V30 1887 C 185.046 -1.54045 -1.21509 0
M  V30 1888 O 184.171 -0.985694 -1.92647 0
M  V30 1889 C 184.766 -3.36151 0.422845 0
M  V30 1890 C 183.325 -3.76338 0.0682492 0
M  V30 1891 C 182.472 -2.67538 0.729306 0
M  V30 1892 H 185.423 -1.34025 0.849883 0
M  V30 1893 H 185.444 -3.79032 -0.333904 0
M  V30 1894 H 184.956 -3.5879 1.47958 0
M  V30 1895 H 183.057 -3.59312 -0.986179 0
M  V30 1896 H 183.17 -4.76603 0.488469 0
M  V30 1897 H 181.534 -2.54176 0.163235 0
M  V30 1898 H 182.317 -2.93006 1.78892 0
M  V30 1899 N 184.763 -0.387143 -1.52771 0
M  V30 1900 C 186.011 0.195349 -2.01154 0
M  V30 1901 C 186.332 1.475 -1.27549 0
M  V30 1902 O 185.602 1.91878 -0.394924 0
M  V30 1903 H 184.182 0.075178 -0.743207 0
M  V30 1904 H 186.844 -0.518337 -1.87881 0
M  V30 1905 H 185.94 0.407096 -3.09434 0
M  V30 1906 N 186.241 1.57166 -0.116904 0
M  V30 1907 C 187.481 1.97008 0.544715 0
M  V30 1908 C 187.845 0.998713 1.63981 0
M  V30 1909 O 189.046 1.28644 2.36018 0
M  V30 1910 C 187.317 3.41145 1.06559 0
M  V30 1911 S 188.876 4.02998 1.73603 0
M  V30 1912 H 185.694 0.688587 0.177112 0
M  V30 1913 H 188.296 1.94459 -0.201487 0
M  V30 1914 H 187 4.09592 0.257374 0
M  V30 1915 H 186.531 3.4734 1.84712 0
M  V30 1916 H 188.546 3.93585 3.02168 0
M  V30 1917 N 187.719 -0.156864 1.56817 0
M  V30 1918 C 188.666 -1.19394 1.97519 0
M  V30 1919 C 189.636 -1.4322 0.841265 0
M  V30 1920 O 190.821 -1.55719 1.10255 0
M  V30 1921 C 187.961 -2.52483 2.35258 0
M  V30 1922 C 187.074 -2.35914 3.61896 0
M  V30 1923 C 186.209 -3.61969 3.88782 0
M  V30 1924 C 185.248 -3.40395 5.08722 0
M  V30 1925 N 184.385 -4.58556 5.31668 0
M  V30 1926 H 189.225 -0.839845 2.85921 0
M  V30 1927 H 186.762 -0.403264 1.41464 0
M  V30 1928 H 188.72 -3.30071 2.55165 0
M  V30 1929 H 187.35 -2.85859 1.49949 0
M  V30 1930 H 186.402 -1.49429 3.49821 0
M  V30 1931 H 187.714 -2.15926 4.49641 0
M  V30 1932 H 186.868 -4.47989 4.09135 0
M  V30 1933 H 185.607 -3.84951 2.9944 0
M  V30 1934 H 184.612 -2.52763 4.88253 0
M  V30 1935 H 185.837 -3.18822 5.99608 0
M  V30 1936 H 183.783 -4.81729 4.45279 0
M  V30 1937 H 183.7 -4.41535 6.13664 0
M  V30 1938 H 184.968 -5.45817 5.5651 0
M  V30 1939 N 189.197 -1.51736 -0.425897 0
M  V30 1940 C 190.425 -1.68794 -1.1965 0
M  V30 1941 C 190.84 -0.390164 -1.84725 0
M  V30 1942 O 190.197 0.632376 -1.71194 0
M  V30 1943 C 190.248 -2.81174 -2.27208 0
M  V30 1944 O 189.969 -4.05925 -1.64793 0
M  V30 1945 C 191.47 -3.09599 -3.17275 0
M  V30 1946 H 188.69 -0.566128 -0.360194 0
M  V30 1947 H 191.234 -1.98211 -0.503249 0
M  V30 1948 H 189.389 -2.54324 -2.9223 0
M  V30 1949 H 189.803 -4.68423 -2.35967 0
M  V30 1950 H 191.277 -3.91786 -3.88854 0
M  V30 1951 H 191.754 -2.22468 -3.78688 0
M  V30 1952 H 192.36 -3.38151 -2.57941 0
M  V30 1953 N 190.675 0.682077 -1.42076 0
M  V30 1954 C 191.921 1.44428 -1.42367 0
M  V30 1955 C 192.254 1.94164 -0.0373056 0
M  V30 1956 O 191.529 1.70429 0.937239 0
M  V30 1957 C 191.812 2.64654 -2.44194 0
M  V30 1958 C 191.665 2.20596 -3.91991 0
M  V30 1959 C 192.984 3.66865 -2.431 0
M  V30 1960 H 190.103 0.523834 -0.518428 0
M  V30 1961 H 192.745 0.77576 -1.73442 0
M  V30 1962 H 190.895 3.2169 -2.17826 0
M  V30 1963 H 192.567 1.68783 -4.29313 0
M  V30 1964 H 190.81 1.52242 -4.06208 0
M  V30 1965 H 191.481 3.06921 -4.58807 0
M  V30 1966 H 193.957 3.19531 -2.66532 0
M  V30 1967 H 192.833 4.48577 -3.16339 0
M  V30 1968 H 193.094 4.17493 -1.45437 0
M  V30 1969 N 192.153 1.28127 0.917671 0
M  V30 1970 C 193.4 1.15052 1.66641 0
M  V30 1971 C 193.728 -0.301677 1.92146 0
M  V30 1972 O 192.983 -1.23622 1.51711 0
M  V30 1973 C 193.282 1.89018 3.03327 0
M  V30 1974 C 192.948 3.38832 2.97496 0
M  V30 1975 C 191.61 3.79693 2.95613 0
M  V30 1976 C 193.962 4.34378 2.88036 0
M  V30 1977 C 191.29 5.14447 2.82066 0
M  V30 1978 C 193.642 5.69201 2.7603 0
M  V30 1979 C 192.306 6.09343 2.72502 0
M  V30 1980 H 191.576 0.421006 0.609783 0
M  V30 1981 H 194.223 1.58855 1.06945 0
M  V30 1982 H 192.528 1.37752 3.66785 0
M  V30 1983 H 194.225 1.76321 3.60156 0
M  V30 1984 H 190.815 3.06342 2.99754 0
M  V30 1985 H 194.999 4.03775 2.88581 0
M  V30 1986 H 190.255 5.44681 2.77728 0
M  V30 1987 H 194.429 6.42901 2.67678 0
M  V30 1988 H 192.056 7.13712 2.61762 0
M  V30 1989 N 193.631 -1.12557 1.10312 0
M  V30 1990 C 194.877 -1.84311 0.846011 0
M  V30 1991 C 195.21 -1.83805 -0.626859 0
M  V30 1992 O 194.485 -1.28268 -1.46211 0
M  V30 1993 C 194.768 -3.32048 1.39341 0
M  V30 1994 C 194.621 -3.41016 2.93305 0
M  V30 1995 C 195.94 -4.27764 1.03468 0
M  V30 1996 H 193.059 -0.669192 0.30879 0
M  V30 1997 H 195.701 -1.32057 1.36605 0
M  V30 1998 H 193.851 -3.76678 0.951087 0
M  V30 1999 H 195.523 -3.05031 3.46055 0
M  V30 2000 H 193.766 -2.81603 3.29973 0
M  V30 2001 H 194.437 -4.44948 3.26689 0
M  V30 2002 H 196.913 -3.91253 1.41633 0
M  V30 2003 H 195.789 -5.29549 1.44463 0
M  V30 2004 H 196.05 -4.42064 -0.0560404 0
M  V30 2005 N 195.109 -0.891671 -1.2995 0
M  V30 2006 C 196.357 -0.512486 -1.95494 0
M  V30 2007 C 196.678 0.942776 -1.70695 0
M  V30 2008 O 195.948 1.66374 -1.03424 0
M  V30 2009 H 194.528 -0.186533 -0.723336 0
M  V30 2010 H 197.19 -1.13621 -1.58355 0
M  V30 2011 H 196.286 -0.688342 -3.04415 0
M  V30 2012 N 196.587 1.43421 -0.653314 0
M  V30 2013 C 197.835 2.01414 -0.166415 0
M  V30 2014 C 198.156 1.51803 1.22397 0
M  V30 2015 O 197.426 0.730693 1.81763 0
M  V30 2016 H 196.006 0.744703 -0.0585319 0
M  V30 2017 H 198.668 1.75629 -0.845003 0
M  V30 2018 H 197.764 3.11734 -0.151111 0
M  V30 2019 N 198.065 0.39524 1.52563 0
M  V30 2020 C 198.995 -0.428384 2.29537 0
M  V30 2021 C 199.976 -1.05831 1.33169 0
M  V30 2022 O 201.161 -1.06995 1.62067 0
M  V30 2023 C 198.291 -1.55274 3.10656 0
M  V30 2024 C 197.245 -1.04855 4.14957 0
M  V30 2025 C 196.571 -2.26543 4.84337 0
M  V30 2026 C 197.871 -0.112324 5.22179 0
M  V30 2027 H 199.565 0.213867 2.98635 0
M  V30 2028 H 197.111 0.104298 1.43622 0
M  V30 2029 H 199.064 -2.1358 3.63265 0
M  V30 2030 H 197.788 -2.22266 2.39302 0
M  V30 2031 H 196.447 -0.487985 3.63338 0
M  V30 2032 H 196.095 -2.92059 4.09525 0
M  V30 2033 H 195.795 -1.93466 5.54837 0
M  V30 2034 H 197.319 -2.85481 5.39753 0
M  V30 2035 H 198.733 -0.603752 5.70112 0
M  V30 2036 H 197.13 0.128968 5.99961 0
M  V30 2037 H 198.2 0.837052 4.77621 0
M  V30 2038 N 199.544 -1.57102 0.125237 0
M  V30 2039 C 200.955 -1.82384 -0.399142 0
M  V30 2040 C 201.306 -1.04276 -1.66195 0
M  V30 2041 O 200.431 -0.281269 -2.14564 0
M  V30 2042 C 201.026 -3.30821 -0.730932 0
M  V30 2043 C 199.585 -3.56762 -1.19992 0
M  V30 2044 C 198.732 -2.7649 -0.211792 0
M  V30 2045 H 201.683 -1.54786 0.350277 0
M  V30 2046 H 201.704 -3.4579 -1.58775 0
M  V30 2047 H 201.216 -3.87643 0.188345 0
M  V30 2048 H 199.317 -3.05305 -2.13588 0
M  V30 2049 H 199.43 -4.65317 -1.14093 0
M  V30 2050 H 197.794 -2.4489 -0.700085 0
M  V30 2051 H 198.577 -3.36073 0.700691 0
M  V30 2052 N 201.022 0.148545 -1.56898 0
M  V30 2053 C 201.932 1.20293 -2.01412 0
M  V30 2054 C 202.948 1.47107 -0.929273 0
M  V30 2055 O 204.124 1.58807 -1.23863 0
M  V30 2056 C 201.189 2.51682 -2.38447 0
M  V30 2057 C 200.25 2.32529 -3.60872 0
M  V30 2058 C 199.483 3.57653 -3.96132 0
M  V30 2059 O 199.706 4.63771 -3.32073 0
M  V30 2060 O 198.64 3.50408 -4.89385 0
M  V30 2061 H 202.466 0.855025 -2.91416 0
M  V30 2062 H 200.051 0.357151 -1.45068 0
M  V30 2063 H 201.933 3.29147 -2.63135 0
M  V30 2064 H 200.608 2.86006 -1.51599 0
M  V30 2065 H 199.515 1.53019 -3.41373 0
M  V30 2066 H 200.848 2.03121 -4.48333 0
M  V30 2067 N 202.5 1.5196 0.417844 0
M  V30 2068 C 203.448 1.75278 1.52907 0
M  V30 2069 C 204.442 0.619611 1.57662 0
M  V30 2070 O 205.648 0.801457 1.61173 0
M  V30 2071 H 202.023 0.554141 0.508362 0
M  V30 2072 H 203.994 2.68389 1.30422 0
M  V30 2073 C 202.743 1.91262 2.90369 0
M  V30 2074 H 202.066 2.77872 2.8745 0
M  V30 2075 H 203.506 2.11581 3.67436 0
M  V30 2076 C 201.965 0.677431 3.30019 0
M  V30 2077 O 202.495 -0.158799 4.01386 0
M  V30 2078 N 200.701 0.515851 2.85985 0
M  V30 2079 H 200.248 1.19744 2.28077 0
M  V30 2080 H 200.206 -0.309315 3.12875 0
M  V30 2081 N 203.978 -0.674533 1.42435 0
M  V30 2082 C 205.226 -1.43175 1.42637 0
M  V30 2083 C 205.547 -1.94951 0.0438992 0
M  V30 2084 O 204.817 -1.7308 -0.917607 0
M  V30 2085 H 203.397 -0.531307 0.525092 0
M  V30 2086 H 206.059 -0.797006 1.77859 0
M  V30 2087 H 205.155 -2.28463 2.12629 0
M  V30 2088 N 205.456 -1.28612 -0.910864 0
M  V30 2089 C 206.684 -1.18792 -1.69399 0
M  V30 2090 C 207.099 0.253039 -1.87097 0
M  V30 2091 O 206.456 1.17071 -1.40003 0
M  V30 2092 C 206.507 -1.88511 -3.08457 0
M  V30 2093 O 206.228 -3.26979 -2.91576 0
M  V30 2094 C 207.729 -1.85029 -4.02839 0
M  V30 2095 H 204.949 -0.412233 -0.529438 0
M  V30 2096 H 207.493 -1.69788 -1.13984 0
M  V30 2097 H 205.648 -1.41379 -3.60681 0
M  V30 2098 H 206.062 -3.61936 -3.79608 0
M  V30 2099 H 207.536 -2.38395 -4.97867 0
M  V30 2100 H 208.013 -0.823303 -4.31414 0
M  V30 2101 H 208.619 -2.31853 -3.56545 0
M  V30 2102 N 206.934 1.1197 -1.10907 0
M  V30 2103 C 207.844 2.21433 -0.774896 0
M  V30 2104 C 208.86 1.72478 0.229657 0
M  V30 2105 O 210.036 2.01288 0.0672008 0
M  V30 2106 C 207.101 3.4602 -0.216986 0
M  V30 2107 C 206.162 4.09791 -1.27944 0
M  V30 2108 C 205.395 5.28431 -0.748055 0
M  V30 2109 O 205.618 5.68823 0.423833 0
M  V30 2110 O 204.552 5.82644 -1.51027 0
M  V30 2111 H 208.378 2.5242 -1.68873 0
M  V30 2112 H 205.963 1.20399 -0.884555 0
M  V30 2113 H 207.845 4.21304 0.090059 0
M  V30 2114 H 206.52 3.16698 0.669633 0
M  V30 2115 H 205.427 3.36265 -1.63941 0
M  V30 2116 H 206.76 4.4328 -2.13925 0
M  V30 2117 N 208.412 0.89855 1.29475 0
M  V30 2118 C 209.344 0.332726 2.26772 0
M  V30 2119 C 210.357 -0.520323 1.54261 0
M  V30 2120 O 211.546 -0.337668 1.75277 0
M  V30 2121 C 208.646 -0.544334 3.345 0
M  V30 2122 C 207.819 0.282728 4.36485 0
M  V30 2123 C 206.878 -0.526982 5.23555 0
M  V30 2124 O 205.904 0.0551165 5.69173 0
M  V30 2125 N 207.106 -1.83331 5.5079 0
M  V30 2126 H 209.871 1.16897 2.75962 0
M  V30 2127 H 207.432 0.762919 1.42798 0
M  V30 2128 H 209.424 -1.09239 3.89678 0
M  V30 2129 H 207.994 -1.28127 2.85136 0
M  V30 2130 H 207.214 1.01221 3.80983 0
M  V30 2131 H 208.502 0.84918 5.01664 0
M  V30 2132 H 207.9 -2.32898 5.15534 0
M  V30 2133 H 206.457 -2.32852 6.08788 0
M  V30 2134 N 209.89 -1.43072 0.660911 0
M  V30 2135 C 211.139 -2.00942 0.174735 0
M  V30 2136 C 211.452 -1.52797 -1.22117 0
M  V30 2137 O 212.658 -2.02991 -1.80297 0
M  V30 2138 C 211.114 -3.58948 0.261559 0
M  V30 2139 C 210.722 -4.16085 1.66064 0
M  V30 2140 C 212.466 -4.24173 -0.166617 0
M  V30 2141 C 210.373 -5.6641 1.70098 0
M  V30 2142 H 209.303 -0.751483 0.0615631 0
M  V30 2143 H 211.954 -1.63955 0.824069 0
M  V30 2144 H 210.336 -3.93372 -0.455421 0
M  V30 2145 H 211.51 -3.93147 2.40359 0
M  V30 2146 H 209.825 -3.6326 2.03546 0
M  V30 2147 H 212.422 -5.34471 -0.156433 0
M  V30 2148 H 212.765 -3.98647 -1.19943 0
M  V30 2149 H 213.298 -3.94659 0.498875 0
M  V30 2150 H 210.037 -5.96715 2.71315 0
M  V30 2151 H 209.557 -5.91382 1.00139 0
M  V30 2152 H 211.236 -6.30585 1.44816 0
M  V30 2153 N 211.368 -0.403325 -1.52352 0
M  V30 2154 C 212.617 0.175668 -2.00934 0
M  V30 2155 C 212.93 1.46718 -1.29356 0
M  V30 2156 O 214.136 2.12708 -1.68724 0
M  V30 2157 C 212.592 0.363612 -3.58058 0
M  V30 2158 C 212.2 -0.915472 -4.38547 0
M  V30 2159 C 213.944 0.89821 -4.14888 0
M  V30 2160 C 211.851 -0.695035 -5.87302 0
M  V30 2161 H 210.781 0.0694234 -0.750797 0
M  V30 2162 H 213.432 -0.527879 -1.75743 0
M  V30 2163 H 211.814 1.12935 -3.79555 0
M  V30 2164 H 212.988 -1.68691 -4.28812 0
M  V30 2165 H 211.303 -1.37606 -3.93006 0
M  V30 2166 H 213.9 1.07907 -5.23699 0
M  V30 2167 H 214.243 1.87126 -3.71873 0
M  V30 2168 H 214.776 0.191681 -3.97338 0
M  V30 2169 H 211.515 -1.63948 -6.34666 0
M  V30 2170 H 211.035 0.0372116 -5.99788 0
M  V30 2171 H 212.714 -0.33497 -6.46132 0
M  V30 2172 N 212.846 1.57033 -0.133567 0
M  V30 2173 C 214.092 1.95976 0.521649 0
M  V30 2174 C 214.425 1.01779 1.65393 0
M  V30 2175 O 213.7 0.0576581 1.94415 0
M  V30 2176 C 213.983 3.44738 1.04057 0
M  V30 2177 C 213.836 4.49711 -0.0892897 0
M  V30 2178 C 215.155 3.95682 1.92675 0
M  V30 2179 H 212.274 0.712579 0.188149 0
M  V30 2180 H 214.916 1.88813 -0.212076 0
M  V30 2181 H 213.066 3.50973 1.66583 0
M  V30 2182 H 214.738 4.55565 -0.725152 0
M  V30 2183 H 212.981 4.27261 -0.750378 0
M  V30 2184 H 213.652 5.51099 0.315284 0
M  V30 2185 H 216.128 3.91841 1.39998 0
M  V30 2186 H 215.004 5.00262 2.25897 0
M  V30 2187 H 215.265 3.37239 2.85872 0
M  V30 2188 N 214.325 -0.140222 1.56975 0
M  V30 2189 C 215.235 -1.19223 2.02047 0
M  V30 2190 C 216.251 -1.46612 0.937062 0
M  V30 2191 O 217.427 -1.58148 1.24704 0
M  V30 2192 C 214.492 -2.50414 2.39778 0
M  V30 2193 C 213.553 -2.30612 3.621 0
M  V30 2194 C 212.786 -3.55547 3.98023 0
M  V30 2195 O 213.009 -4.62004 3.34528 0
M  V30 2196 O 211.943 -3.47808 4.91237 0
M  V30 2197 H 215.769 -0.839559 2.91865 0
M  V30 2198 H 213.354 -0.349453 1.45256 0
M  V30 2199 H 215.236 -3.27747 2.64877 0
M  V30 2200 H 213.911 -2.85198 1.53114 0
M  V30 2201 H 212.818 -1.51207 3.4218 0
M  V30 2202 H 214.151 -2.00741 4.49404 0
M  V30 2203 N 215.803 -1.52179 -0.40978 0
M  V30 2204 C 217.049 -1.66453 -1.15851 0
M  V30 2205 C 217.382 -0.392972 -1.90182 0
M  V30 2206 O 216.657 0.608579 -1.84734 0
M  V30 2207 C 216.94 -2.88612 -2.15349 0
M  V30 2208 C 216.793 -4.25815 -1.44918 0
M  V30 2209 C 218.112 -3.06294 -3.16026 0
M  V30 2210 H 215.231 -0.60575 -0.419805 0
M  V30 2211 H 217.873 -1.84732 -0.444314 0
M  V30 2212 H 216.023 -2.73158 -2.76255 0
M  V30 2213 H 217.695 -4.52995 -0.871365 0
M  V30 2214 H 215.938 -4.27247 -0.751159 0
M  V30 2215 H 216.609 -5.07337 -2.17516 0
M  V30 2216 H 219.085 -3.20641 -2.65195 0
M  V30 2217 H 217.961 -3.93283 -3.8291 0
M  V30 2218 H 218.222 -2.19579 -3.83715 0
M  V30 2219 N 217.281 0.66697 -1.42791 0
M  V30 2220 C 218.528 1.42699 -1.43678 0
M  V30 2221 C 218.856 1.94419 -0.0560425 0
M  V30 2222 O 218.111 1.7182 0.936831 0
M  V30 2223 C 218.41 2.6349 -2.4147 0
M  V30 2224 C 218.076 2.30267 -3.8767 0
M  V30 2225 C 216.738 2.20918 -4.27491 0
M  V30 2226 C 219.09 2.03435 -4.79858 0
M  V30 2227 C 216.418 1.82873 -5.57471 0
M  V30 2228 C 218.77 1.66892 -6.10188 0
M  V30 2229 C 217.434 1.56058 -6.49001 0
M  V30 2230 H 216.704 0.522171 -0.525755 0
M  V30 2231 H 219.351 0.759785 -1.75783 0
M  V30 2232 H 217.656 3.35279 -2.0272 0
M  V30 2233 H 219.353 3.21684 -2.39417 0
M  V30 2234 H 215.943 2.38449 -3.56146 0
M  V30 2235 H 220.127 2.09586 -4.49875 0
M  V30 2236 H 215.383 1.7306 -5.86396 0
M  V30 2237 H 219.557 1.45157 -6.81104 0
M  V30 2238 H 217.184 1.26348 -7.49627 0
M  V30 2239 N 218.759 1.29093 0.90403 0
M  V30 2240 C 219.669 1.15727 2.0407 0
M  V30 2241 C 220.685 0.0815308 1.73809 0
M  V30 2242 O 221.861 0.292749 1.99261 0
M  V30 2243 C 218.926 0.830424 3.36608 0
M  V30 2244 C 217.987 1.98955 3.80415 0
M  V30 2245 C 217.22 1.6782 5.06628 0
M  V30 2246 O 217.443 0.597105 5.67266 0
M  V30 2247 O 216.377 2.52486 5.46383 0
M  V30 2248 H 220.203 2.11171 2.18267 0
M  V30 2249 H 217.788 1.08504 1.027 0
M  V30 2250 H 219.67 0.662521 4.16159 0
M  V30 2251 H 218.345 -0.0942678 3.23563 0
M  V30 2252 H 217.252 2.21267 3.01648 0
M  V30 2253 H 218.585 2.89529 3.98037 0
M  V30 2254 N 220.237 -1.11381 1.11499 0
M  V30 2255 C 221.169 -2.17207 0.731704 0
M  V30 2256 C 222.182 -1.61066 -0.236957 0
M  V30 2257 O 223.371 -1.78489 -0.0197591 0
M  V30 2258 C 220.471 -3.38846 0.0607624 0
M  V30 2259 C 219.644 -4.24451 1.0564 0
M  V30 2260 C 218.703 -5.24562 0.4149 0
M  V30 2261 O 217.729 -5.59071 1.069 0
M  V30 2262 N 218.931 -5.74651 -0.821943 0
M  V30 2263 H 221.696 -2.50699 1.64225 0
M  V30 2264 H 219.257 -1.26908 1.00529 0
M  V30 2265 H 221.249 -4.02911 -0.380139 0
M  V30 2266 H 219.819 -3.03411 -0.752376 0
M  V30 2267 H 219.039 -3.56833 1.67524 0
M  V30 2268 H 220.327 -4.78486 1.72998 0
M  V30 2269 H 219.725 -5.48797 -1.37252 0
M  V30 2270 H 218.282 -6.40549 -1.20582 0
M  V30 2271 N 221.715 -0.905404 -1.28997 0
M  V30 2272 C 222.955 -0.541232 -1.97104 0
M  V30 2273 C 223.319 0.896841 -1.69767 0
M  V30 2274 O 224.52 1.36817 -2.31375 0
M  V30 2275 C 222.791 -0.832134 -3.47578 0
M  V30 2276 S 224.35 -0.573127 -4.35041 0
M  V30 2277 H 221.168 -0.200576 -0.682122 0
M  V30 2278 H 223.77 -1.16906 -1.56694 0
M  V30 2279 H 222.474 -1.87687 -3.64968 0
M  V30 2280 H 222.005 -0.192636 -3.92928 0
M  V30 2281 H 224.02 0.579297 -4.92807 0
M  V30 2282 N 223.193 1.4272 -0.668489 0
M  V30 2283 C 224.441 2.01226 -0.187769 0
M  V30 2284 C 224.762 1.53092 1.2078 0
M  V30 2285 O 224.032 0.74993 1.80977 0
M  V30 2286 H 222.612 0.744041 -0.0664272 0
M  V30 2287 H 225.274 1.74723 -0.863583 0
M  V30 2288 H 224.37 3.11556 -0.184166 0
M  V30 2289 N 224.671 0.411399 1.52136 0
M  V30 2290 C 225.581 -0.419774 2.30814 0
M  V30 2291 C 226.597 -1.0515 1.38634 0
M  V30 2292 O 227.773 -1.05252 1.71709 0
M  V30 2293 C 224.838 -1.52019 3.11594 0
M  V30 2294 C 223.899 -0.91129 4.19516 0
M  V30 2295 C 223.132 -1.95927 4.96436 0
M  V30 2296 O 223.355 -3.17775 4.73683 0
M  V30 2297 O 222.289 -1.56423 5.81219 0
M  V30 2298 H 226.115 0.221805 3.02889 0
M  V30 2299 H 223.7 0.174547 1.48377 0
M  V30 2300 H 225.582 -2.15898 3.61892 0
M  V30 2301 H 224.257 -2.14633 2.42311 0
M  V30 2302 H 223.164 -0.235157 3.7336 0
M  V30 2303 H 224.497 -0.32904 4.91099 0
M  V30 2304 N 226.149 -1.5696 0.141893 0
M  V30 2305 C 227.398 -1.95135 -0.510427 0
M  V30 2306 C 227.711 -1.02896 -1.66348 0
M  V30 2307 O 228.917 -1.30629 -2.38009 0
M  V30 2308 C 227.373 -3.46876 -0.959427 0
M  V30 2309 C 226.981 -4.47691 0.166419 0
M  V30 2310 C 228.725 -3.93927 -1.58183 0
M  V30 2311 C 226.632 -5.90636 -0.300565 0
M  V30 2312 H 225.562 -0.728494 -0.194454 0
M  V30 2313 H 228.213 -1.8211 0.22542 0
M  V30 2314 H 226.595 -3.55215 -1.75038 0
M  V30 2315 H 227.769 -4.51043 0.94325 0
M  V30 2316 H 226.084 -4.10527 0.696905 0
M  V30 2317 H 228.681 -4.98158 -1.94275 0
M  V30 2318 H 229.024 -3.3519 -2.46888 0
M  V30 2319 H 229.557 -3.88484 -0.855863 0
M  V30 2320 H 226.296 -6.5318 0.550989 0
M  V30 2321 H 225.816 -5.90655 -1.04338 0
M  V30 2322 H 227.495 -6.42588 -0.754265 0
M  V30 2323 N 227.627 0.131896 -1.57047 0
M  V30 2324 C 228.876 0.84044 -1.83356 0
M  V30 2325 C 229.189 1.81646 -0.725535 0
M  V30 2326 O 230.395 2.57025 -0.874659 0
M  V30 2327 C 228.851 1.54528 -3.25037 0
M  V30 2328 C 228.459 0.610902 -4.43815 0
M  V30 2329 C 230.203 2.23972 -3.60606 0
M  V30 2330 C 228.11 1.31823 -5.76521 0
M  V30 2331 H 227.04 0.317599 -0.683847 0
M  V30 2332 H 229.691 0.0931561 -1.83263 0
M  V30 2333 H 228.073 2.33873 -3.19561 0
M  V30 2334 H 229.247 -0.148407 -4.60561 0
M  V30 2335 H 227.562 0.0241016 -4.16393 0
M  V30 2336 H 230.159 2.77558 -4.57018 0
M  V30 2337 H 230.502 3.01173 -2.87403 0
M  V30 2338 H 231.035 1.51529 -3.6781 0
M  V30 2339 H 227.774 0.587771 -6.52859 0
M  V30 2340 H 227.294 2.04987 -5.63685 0
M  V30 2341 H 228.973 1.855 -6.19838 0
M  V30 2342 N 229.106 1.52395 0.401703 0
M  V30 2343 C 230.069 1.75636 1.47257 0
M  V30 2344 C 231.069 0.62628 1.48103 0
M  V30 2345 O 232.259 0.894227 1.49497 0
M  V30 2346 C 229.391 1.84553 2.86624 0
M  V30 2347 H 230.584 2.71241 1.27938 0
M  V30 2348 H 228.137 1.42923 0.632662 0
M  V30 2349 H 228.872 0.908882 3.11303 0
M  V30 2350 H 228.657 2.66715 2.87412 0
M  V30 2351 H 230.147 2.04251 3.64241 0
M  V30 2352 N 230.584 -0.659388 1.43143 0
M  V30 2353 C 231.833 -1.41518 1.43721 0
M  V30 2354 C 232.146 -1.95499 0.0628176 0
M  V30 2355 O 233.352 -2.71446 -0.0539683 0
M  V30 2356 C 231.808 -2.5608 2.52885 0
M  V30 2357 C 231.416 -2.08733 3.96402 0
M  V30 2358 C 233.16 -3.3349 2.62649 0
M  V30 2359 C 231.067 -3.20469 4.97045 0
M  V30 2360 H 229.997 -0.531705 0.534608 0
M  V30 2361 H 232.648 -0.712343 1.69109 0
M  V30 2362 H 231.03 -3.28805 2.20688 0
M  V30 2363 H 232.204 -1.43059 4.3803 0
M  V30 2364 H 230.519 -1.44219 3.90627 0
M  V30 2365 H 233.116 -4.16734 3.35017 0
M  V30 2366 H 233.459 -3.8111 1.67513 0
M  V30 2367 H 233.992 -2.67842 2.94118 0
M  V30 2368 H 230.731 -2.77824 5.93712 0
M  V30 2369 H 230.251 -3.84874 4.60034 0
M  V30 2370 H 231.93 -3.85698 5.19467 0
M  V30 2371 N 232.062 -1.29571 -0.897171 0
M  V30 2372 C 233.478 -1.07637 -1.17841 0
M  V30 2373 C 233.678 0.170713 -2.00776 0
M  V30 2374 O 232.734 0.867768 -2.3712 0
M  V30 2375 C 234.047 -2.3332 -1.8969 0
M  V30 2376 C 235.595 -2.38664 -2.02505 0
M  V30 2377 C 236.07 -3.64157 -2.77765 0
M  V30 2378 N 237.561 -3.64894 -2.85318 0
M  V30 2379 C 238.296 -4.58679 -3.44094 0
M  V30 2380 N 237.792 -5.62799 -4.04017 0
M  V30 2381 N 239.585 -4.46245 -3.41793 0
M  V30 2382 H 231.736 -2.09598 -0.343883 0
M  V30 2383 H 233.999 -0.923333 -0.214848 0
M  V30 2384 H 233.705 -3.24262 -1.36187 0
M  V30 2385 H 233.579 -2.41025 -2.9015 0
M  V30 2386 H 235.966 -1.48208 -2.55183 0
M  V30 2387 H 236.047 -2.34943 -1.01171 0
M  V30 2388 H 235.691 -4.54965 -2.25763 0
M  V30 2389 H 235.621 -3.65137 -3.7945 0
M  V30 2390 H 238.112 -2.89613 -2.42761 0
M  V30 2391 H 238.425 -6.3048 -4.46895 0
M  V30 2392 H 236.77 -5.66605 -4.02472 0
M  V30 2393 H 239.961 -3.64094 -2.94199 0
M  V30 2394 H 240.134 -5.19518 -3.87304 0
M  V30 2395 N 233.54 1.10788 -1.12088 0
M  V30 2396 C 234.487 2.17025 -0.785407 0
M  V30 2397 C 235.457 1.64265 0.246191 0
M  V30 2398 O 236.642 1.90412 0.121584 0
M  V30 2399 C 233.782 3.44249 -0.242177 0
M  V30 2400 C 232.895 4.1098 -1.33115 0
M  V30 2401 C 232.03 5.25911 -0.747741 0
M  V30 2402 C 231.069 5.84538 -1.81609 0
M  V30 2403 N 230.206 6.90853 -1.25167 0
M  V30 2404 H 235.046 2.45066 -1.69548 0
M  V30 2405 H 232.583 1.20297 -0.846582 0
M  V30 2406 H 234.541 4.17101 0.0908026 0
M  V30 2407 H 233.171 3.16571 0.631072 0
M  V30 2408 H 232.223 3.36133 -1.78097 0
M  V30 2409 H 233.535 4.50601 -2.13917 0
M  V30 2410 H 232.689 6.056 -0.365216 0
M  V30 2411 H 231.428 4.87614 0.0915188 0
M  V30 2412 H 230.433 5.03522 -2.20785 0
M  V30 2413 H 231.658 6.249 -2.6585 0
M  V30 2414 H 229.604 6.54562 -0.434174 0
M  V30 2415 H 229.521 7.29166 -1.99633 0
M  V30 2416 H 230.789 7.7433 -0.896259 0
M  V30 2417 N 235.018 0.912232 1.28515 0
M  V30 2418 C 236.243 0.559774 1.99703 0
M  V30 2419 C 236.668 -0.851393 1.67729 0
M  V30 2420 O 236.026 -1.56875 0.908834 0
M  V30 2421 C 236.074 0.773874 3.52198 0
M  V30 2422 O 235.178 -0.167842 4.12058 0
M  V30 2423 H 234.519 0.21723 0.627461 0
M  V30 2424 H 237.049 1.22725 1.63706 0
M  V30 2425 H 237.059 0.683386 4.02236 0
M  V30 2426 H 235.734 1.80261 3.74805 0
M  V30 2427 H 234.311 -0.0287509 3.72889 0
M  V30 2428 N 236.496 -1.42363 0.676048 0
M  V30 2429 C 237.443 -2.308 -0.00150904 0
M  V30 2430 C 238.413 -1.46032 -0.791444 0
M  V30 2431 O 239.598 -1.74861 -0.76344 0
M  V30 2432 C 236.738 -3.31883 -0.945919 0
M  V30 2433 C 235.851 -4.31741 -0.149675 0
M  V30 2434 C 234.986 -5.19898 -1.08995 0
M  V30 2435 C 234.025 -6.11434 -0.285465 0
M  V30 2436 N 233.162 -6.92138 -1.17851 0
M  V30 2437 H 238.002 -2.88187 0.758455 0
M  V30 2438 H 235.539 -1.41952 0.38576 0
M  V30 2439 H 237.497 -3.89019 -1.50731 0
M  V30 2440 H 236.127 -2.76093 -1.6725 0
M  V30 2441 H 235.179 -3.76713 0.528359 0
M  V30 2442 H 236.491 -4.96534 0.474866 0
M  V30 2443 H 235.645 -5.81772 -1.72123 0
M  V30 2444 H 234.384 -4.55284 -1.74837 0
M  V30 2445 H 233.389 -5.48627 0.359018 0
M  V30 2446 H 234.614 -6.78097 0.368883 0
M  V30 2447 H 232.56 -6.30152 -1.82332 0
M  V30 2448 H 232.477 -7.53542 -0.609082 0
M  V30 2449 H 233.745 -7.58499 -1.79722 0
M  V30 2450 N 237.974 -0.419461 -1.51915 0
M  V30 2451 C 238.921 0.400927 -2.27291 0
M  V30 2452 C 239.891 1.03224 -1.30131 0
M  V30 2453 O 241.076 1.05455 -1.59009 0
M  V30 2454 C 238.216 1.50603 -3.10504 0
M  V30 2455 C 237.329 0.89462 -4.22635 0
M  V30 2456 C 236.464 1.97328 -4.93189 0
M  V30 2457 C 235.503 1.33935 -5.97267 0
M  V30 2458 N 234.64 2.3586 -6.61298 0
M  V30 2459 H 239.48 -0.248251 -2.96964 0
M  V30 2460 H 237.017 -0.134266 -1.46486 0
M  V30 2461 H 238.975 2.15783 -3.57062 0
M  V30 2462 H 237.605 2.12509 -2.42981 0
M  V30 2463 H 236.657 0.131583 -3.80172 0
M  V30 2464 H 237.969 0.391641 -4.9726 0
M  V30 2465 H 237.123 2.70211 -5.43204 0
M  V30 2466 H 235.862 2.50994 -4.18155 0
M  V30 2467 H 234.867 0.595896 -5.46561 0
M  V30 2468 H 236.092 0.810252 -6.74249 0
M  V30 2469 H 234.038 2.88639 -5.89087 0
M  V30 2470 H 233.955 1.90403 -7.3163 0
M  V30 2471 H 235.223 3.08282 -7.15949 0
M  V30 2472 N 239.452 1.56882 -0.150215 0
M  V30 2473 C 240.4 2.18214 0.805313 0
M  V30 2474 C 241.394 1.14006 1.25296 0
M  V30 2475 O 242.6 1.3225 1.22107 0
M  V30 2476 H 238.975 0.698762 0.277913 0
M  V30 2477 H 240.946 2.97231 0.263862 0
M  V30 2478 C 239.695 2.82065 2.03309 0
M  V30 2479 H 239.018 3.61968 1.69763 0
M  V30 2480 H 240.458 3.28477 2.68103 0
M  V30 2481 C 238.917 1.80739 2.84315 0
M  V30 2482 O 239.447 1.27983 3.80767 0
M  V30 2483 N 237.653 1.4997 2.48913 0
M  V30 2484 H 237.2 1.93062 1.70542 0
M  V30 2485 H 237.158 0.824217 3.03404 0
M  V30 2486 N 240.93 -0.123565 1.57115 0
M  V30 2487 C 242.177 -0.832153 1.84612 0
M  V30 2488 C 242.505 -1.80093 0.734627 0
M  V30 2489 O 241.76 -1.93766 -0.27442 0
M  V30 2490 C 242.059 -1.62016 3.18568 0
M  V30 2491 C 241.725 -0.796084 4.43817 0
M  V30 2492 C 240.387 -0.568816 4.77826 0
M  V30 2493 C 242.739 -0.221364 5.2073 0
M  V30 2494 C 240.067 0.243499 5.86194 0
M  V30 2495 C 242.419 0.578117 6.29953 0
M  V30 2496 C 241.083 0.815744 6.62497 0
M  V30 2497 H 240.353 -0.304507 0.675542 0
M  V30 2498 H 243 -0.0947248 1.91266 0
M  V30 2499 H 241.305 -2.42837 3.0747 0
M  V30 2500 H 243.002 -2.17231 3.37064 0
M  V30 2501 H 239.592 -0.983307 4.17168 0
M  V30 2502 H 243.776 -0.384173 4.94811 0
M  V30 2503 H 239.032 0.436871 6.09837 0
M  V30 2504 H 243.206 1.03046 6.88734 0
M  V30 2505 H 240.833 1.44701 7.46301 0
M  V30 2506 N 242.408 -1.52605 -0.393616 0
M  V30 2507 C 243.648 -1.6911 -1.1481 0
M  V30 2508 C 244.012 -0.41969 -1.87357 0
M  V30 2509 O 245.213 -0.461034 -2.64817 0
M  V30 2510 C 243.484 -2.88909 -2.10395 0
M  V30 2511 S 245.043 -3.25977 -2.93742 0
M  V30 2512 H 241.861 -0.595337 -0.38871 0
M  V30 2513 H 244.463 -1.90641 -0.433178 0
M  V30 2514 H 243.167 -3.79672 -1.55812 0
M  V30 2515 H 242.698 -2.69698 -2.86403 0
M  V30 2516 H 244.713 -2.75806 -4.12487 0
M  V30 2517 N 243.887 0.651787 -1.4349 0
M  V30 2518 C 244.837 1.75783 -1.45205 0
M  V30 2519 C 245.821 1.57679 -0.320328 0
M  V30 2520 O 247.013 1.67767 -0.564211 0
M  V30 2521 C 244.142 3.14377 -1.3792 0
M  V30 2522 C 243.228 3.38023 -2.56127 0
M  V30 2523 N 243.619 3.32135 -3.81471 0
M  V30 2524 C 241.917 3.68747 -2.50882 0
M  V30 2525 C 242.618 3.55902 -4.60118 0
M  V30 2526 N 241.594 3.77783 -3.90872 0
M  V30 2527 H 245.396 1.69657 -2.39987 0
M  V30 2528 H 242.91 0.853508 -1.38163 0
M  V30 2529 H 244.907 3.93666 -1.37231 0
M  V30 2530 H 243.567 3.21683 -0.441596 0
M  V30 2531 H 244.578 3.11515 -4.13738 0
M  V30 2532 H 241.255 3.8316 -1.65816 0
M  V30 2533 H 242.645 3.57116 -5.69138 0
M  V30 2534 N 245.365 1.30045 0.890287 0
M  V30 2535 C 246.614 1.17929 1.63633 0
M  V30 2536 C 246.927 -0.266204 1.9378 0
M  V30 2537 O 248.133 -0.508804 2.6669 0
M  V30 2538 C 246.589 2.06317 2.94892 0
M  V30 2539 C 246.197 3.55745 2.72305 0
M  V30 2540 C 247.941 2.0295 3.72843 0
M  V30 2541 C 245.848 4.36205 3.99348 0
M  V30 2542 H 244.778 0.437782 0.613892 0
M  V30 2543 H 247.429 1.54754 0.986075 0
M  V30 2544 H 245.811 1.6237 3.61182 0
M  V30 2545 H 246.985 4.07805 2.1455 0
M  V30 2546 H 245.3 3.6088 2.07737 0
M  V30 2547 H 247.897 2.60319 4.67053 0
M  V30 2548 H 248.24 1.0117 4.0382 0
M  V30 2549 H 248.773 2.4499 3.13408 0
M  V30 2550 H 245.512 5.38659 3.73533 0
M  V30 2551 H 245.032 3.8891 4.56628 0
M  V30 2552 H 246.711 4.47362 4.67415 0
M  V30 2553 N 246.843 -1.10192 1.12674 0
M  V30 2554 C 248.259 -1.34235 0.863317 0
M  V30 2555 C 248.459 -1.95062 -0.505277 0
M  V30 2556 O 247.515 -2.19192 -1.25345 0
M  V30 2557 C 248.828 -2.2616 1.98172 0
M  V30 2558 C 250.376 -2.3969 2.0129 0
M  V30 2559 C 250.851 -3.34946 3.1237 0
M  V30 2560 N 252.342 -3.42515 3.11829 0
M  V30 2561 C 253.077 -4.16199 3.94419 0
M  V30 2562 N 252.573 -4.92747 4.87004 0
M  V30 2563 N 254.366 -4.11843 3.82547 0
M  V30 2564 H 246.517 -0.690798 2.00853 0
M  V30 2565 H 248.78 -0.366774 0.874174 0
M  V30 2566 H 248.486 -1.8868 2.96804 0
M  V30 2567 H 248.36 -3.26488 1.88906 0
M  V30 2568 H 250.747 -2.76438 1.03276 0
M  V30 2569 H 250.828 -1.39169 2.14629 0
M  V30 2570 H 250.472 -2.98923 4.10619 0
M  V30 2571 H 250.402 -4.35353 2.96269 0
M  V30 2572 H 252.893 -2.87926 2.44759 0
M  V30 2573 H 253.206 -5.46376 5.46528 0
M  V30 2574 H 251.551 -4.91862 4.91016 0
M  V30 2575 H 254.742 -3.51136 3.0955 0
M  V30 2576 H 254.915 -4.69007 4.47142 0
M  V30 2577 N 248.321 -0.919034 -1.28029 0
M  V30 2578 C 249.568 -0.554934 -1.94748 0
M  V30 2579 C 249.896 0.90231 -1.72304 0
M  V30 2580 O 249.151 1.65767 -1.04018 0
M  V30 2581 C 249.45 -0.816855 -3.4794 0
M  V30 2582 C 249.116 -2.25448 -3.90492 0
M  V30 2583 C 247.778 -2.64752 -4.01821 0
M  V30 2584 C 250.13 -3.18977 -4.12193 0
M  V30 2585 C 247.458 -3.96727 -4.32232 0
M  V30 2586 C 249.81 -4.50523 -4.44086 0
M  V30 2587 C 248.474 -4.89673 -4.53626 0
M  V30 2588 H 247.744 -0.203065 -0.712633 0
M  V30 2589 H 250.391 -1.16136 -1.52265 0
M  V30 2590 H 248.696 -0.127677 -3.91592 0
M  V30 2591 H 250.393 -0.514238 -3.97689 0
M  V30 2592 H 246.983 -1.93952 -3.82205 0
M  V30 2593 H 251.167 -2.89817 -4.02889 0
M  V30 2594 H 246.423 -4.26754 -4.37825 0
M  V30 2595 H 250.597 -5.23005 -4.59825 0
M  V30 2596 H 248.224 -5.91969 -4.76946 0
M  V30 2597 N 249.799 1.42003 -0.683588 0
M  V30 2598 C 250.762 2.29191 -0.0198243 0
M  V30 2599 C 251.762 1.43773 0.72013 0
M  V30 2600 O 252.952 1.65061 0.556815 0
M  V30 2601 C 250.084 3.26435 0.982487 0
M  V30 2602 H 251.277 2.8938 -0.787345 0
M  V30 2603 H 248.83 1.49789 -0.446418 0
M  V30 2604 H 249.565 2.71203 1.77819 0
M  V30 2605 H 249.35 3.89449 0.455182 0
M  V30 2606 H 250.84 3.918 1.44508 0
M  V30 2607 N 251.277 0.427512 1.51691 0
M  V30 2608 C 252.187 -0.39527 2.31246 0
M  V30 2609 C 253.203 -1.03674 1.39742 0
M  V30 2610 O 254.379 -1.03425 1.72816 0
M  V30 2611 C 251.444 -1.48706 3.13189 0
M  V30 2612 C 250.505 -0.866743 4.20459 0
M  V30 2613 C 249.738 -1.90651 4.98486 0
M  V30 2614 O 249.961 -3.12733 4.77026 0
M  V30 2615 O 248.895 -1.5025 5.82845 0
M  V30 2616 H 252.721 0.253918 3.02637 0
M  V30 2617 H 250.306 0.190274 1.48183 0
M  V30 2618 H 252.188 -2.12047 3.64162 0
M  V30 2619 H 250.863 -2.12051 2.44573 0
M  V30 2620 H 249.77 -0.195544 3.73589 0
M  V30 2621 H 251.103 -0.276934 4.9142 0
M  V30 2622 N 252.755 -1.56801 0.158532 0
M  V30 2623 C 253.665 -2.20916 -0.789518 0
M  V30 2624 C 254.681 -1.1969 -1.26294 0
M  V30 2625 O 255.857 -1.52308 -1.31773 0
M  V30 2626 C 252.922 -2.82727 -2.00665 0
M  V30 2627 C 251.983 -3.99114 -1.58134 0
M  V30 2628 C 251.216 -4.57968 -2.74045 0
M  V30 2629 O 251.439 -4.15704 -3.90572 0
M  V30 2630 O 250.373 -5.48047 -2.48855 0
M  V30 2631 H 254.199 -3.02464 -0.273681 0
M  V30 2632 H 251.784 -1.4924 -0.0690548 0
M  V30 2633 H 253.666 -3.21968 -2.71872 0
M  V30 2634 H 252.341 -2.04184 -2.51179 0
M  V30 2635 H 251.248 -3.64567 -0.839155 0
M  V30 2636 H 252.581 -4.79212 -1.12325 0
M  V30 2637 N 254.233 0.115231 -1.57178 0
M  V30 2638 C 255.463 0.835224 -1.88964 0
M  V30 2639 C 255.871 1.73774 -0.74829 0
M  V30 2640 O 255.214 1.81401 0.289739 0
M  V30 2641 C 255.276 1.7178 -3.15804 0
M  V30 2642 C 254.94 0.989198 -4.46166 0
M  V30 2643 C 255.937 0.328263 -5.18863 0
M  V30 2644 C 253.622 0.969256 -4.9286 0
M  V30 2645 C 255.616 -0.342873 -6.36477 0
M  V30 2646 C 253.303 0.294324 -6.10391 0
M  V30 2647 C 254.301 -0.360582 -6.82048 0
M  V30 2648 O 253.989 -1.02474 -7.97342 0
M  V30 2649 H 253.721 0.245197 -0.629964 0
M  V30 2650 H 256.275 0.10303 -2.05141 0
M  V30 2651 H 254.505 2.49173 -2.95719 0
M  V30 2652 H 256.194 2.31255 -3.33581 0
M  V30 2653 H 256.96 0.335263 -4.8384 0
M  V30 2654 H 252.839 1.46844 -4.36987 0
M  V30 2655 H 256.383 -0.854629 -6.92345 0
M  V30 2656 H 252.28 0.285099 -6.4487 0
M  V30 2657 H 253.048 -0.929594 -8.13204 0
M  V30 2658 N 255.711 1.52812 0.385517 0
M  V30 2659 C 256.644 1.72592 1.49289 0
M  V30 2660 C 257.622 0.573819 1.52138 0
M  V30 2661 O 258.806 0.80404 1.70492 0
M  V30 2662 C 255.933 1.78669 2.87741 0
M  V30 2663 C 254.979 3.00455 3.02703 0
M  V30 2664 S 255.812 4.60366 2.73538 0
M  V30 2665 C 256.968 4.69263 4.14177 0
M  V30 2666 H 257.201 2.66248 1.32285 0
M  V30 2667 H 254.734 1.43148 0.578611 0
M  V30 2668 H 256.692 1.82855 3.67524 0
M  V30 2669 H 255.353 0.861 3.02069 0
M  V30 2670 H 254.546 3.01258 4.04054 0
M  V30 2671 H 254.148 2.94278 2.30817 0
M  V30 2672 H 256.44 4.48092 5.08153 0
M  V30 2673 H 257.383 5.71276 4.18388 0
M  V30 2674 H 257.791 3.98072 4.00249 0
M  V30 2675 N 257.189 -0.644168 1.43834 0
M  V30 2676 C 258.435 -1.40603 1.46146 0
M  V30 2677 C 258.768 -1.93997 0.0887717 0
M  V30 2678 O 258.043 -1.72854 -0.891724 0
M  V30 2679 C 258.326 -2.58086 2.51124 0
M  V30 2680 C 258.179 -2.10126 3.97702 0
M  V30 2681 C 259.498 -3.60291 2.52742 0
M  V30 2682 H 256.617 -0.509905 0.532134 0
M  V30 2683 H 259.259 -0.729502 1.75437 0
M  V30 2684 H 257.409 -3.15801 2.26278 0
M  V30 2685 H 259.081 -1.57342 4.33637 0
M  V30 2686 H 257.324 -1.41419 4.10101 0
M  V30 2687 H 257.995 -2.94649 4.66783 0
M  V30 2688 H 260.471 -3.12352 2.7491 0
M  V30 2689 H 259.347 -4.40032 3.28121 0
M  V30 2690 H 259.608 -4.1349 1.56455 0
M  V30 2691 N 258.668 -1.30515 -0.883378 0
M  V30 2692 C 259.945 -1.10086 -1.6168 0
M  V30 2693 C 260.325 0.349269 -2.08191 0
M  V30 2694 O 259.673 1.34105 -1.85008 0
M  V30 2695 C 259.883 -2.10315 -2.78511 0
M  V30 2696 C 261.231 -2.42119 -3.48803 0
M  V30 2697 O 262.255 -2.08638 -2.88702 0
M  V30 2698 O 261.114 -2.99396 -4.57192 0
M  V30 2699 H 258.208 -0.422907 -0.710689 0
M  V30 2700 H 260.754 -1.41947 -0.930015 0
M  V30 2701 H 259.526 -3.07917 -2.41459 0
M  V30 2702 H 259.149 -1.79282 -3.54886 0
M  V30 2703 N 260.146 1.09593 -1.13257 0
M  V30 2704 C 261.093 2.1618 -0.808381 0
M  V30 2705 C 262.063 1.64517 0.228754 0
M  V30 2706 O 263.248 1.9053 0.101381 0
M  V30 2707 C 260.388 3.43973 -0.278675 0
M  V30 2708 C 259.501 4.09545 -1.37466 0
M  V30 2709 C 258.636 5.25088 -0.803479 0
M  V30 2710 C 257.675 5.82579 -1.87799 0
M  V30 2711 N 256.812 6.89486 -1.32488 0
M  V30 2712 H 261.652 2.43254 -1.72138 0
M  V30 2713 H 259.189 1.19392 -0.859294 0
M  V30 2714 H 261.147 4.17174 0.0465583 0
M  V30 2715 H 259.777 3.17223 0.597459 0
M  V30 2716 H 258.829 3.34226 -1.81652 0
M  V30 2717 H 260.141 4.48307 -2.18684 0
M  V30 2718 H 259.295 6.05178 -0.429427 0
M  V30 2719 H 258.034 4.87684 0.0397956 0
M  V30 2720 H 257.039 5.01152 -2.26113 0
M  V30 2721 H 258.264 6.22045 -2.72463 0
M  V30 2722 H 256.21 6.54064 -0.503575 0
M  V30 2723 H 256.127 7.27007 -2.07355 0
M  V30 2724 H 257.395 7.73336 -0.978336 0
M  V30 2725 N 261.624 0.925811 1.2754 0
M  V30 2726 C 262.587 0.428129 2.25166 0
M  V30 2727 C 263.587 -0.452261 1.54309 0
M  V30 2728 O 264.777 -0.253608 1.72344 0
M  V30 2729 C 261.909 -0.384749 3.38722 0
M  V30 2730 H 263.102 1.29066 2.70706 0
M  V30 2731 H 260.655 0.706323 1.3943 0
M  V30 2732 H 261.39 -1.26618 2.98561 0
M  V30 2733 H 261.175 0.246454 3.91325 0
M  V30 2734 H 262.665 -0.723389 4.11287 0
M  V30 2735 N 263.102 -1.41638 0.69111 0
M  V30 2736 C 264.032 -2.3347 0.037248 0
M  V30 2737 C 265.013 -1.51575 -0.771947 0
M  V30 2738 O 266.198 -1.80126 -0.72582 0
M  V30 2739 C 263.328 -3.35354 -0.903064 0
M  V30 2740 C 262.282 -4.27526 -0.201288 0
M  V30 2741 C 261.608 -5.19747 -1.25565 0
M  V30 2742 C 262.908 -5.13959 0.929689 0
M  V30 2743 H 264.602 -2.88397 0.804227 0
M  V30 2744 H 262.148 -1.38669 0.388189 0
M  V30 2745 H 264.101 -3.98519 -1.36969 0
M  V30 2746 H 262.825 -2.78767 -1.70166 0
M  V30 2747 H 261.484 -3.65779 0.245265 0
M  V30 2748 H 261.132 -4.59479 -2.04666 0
M  V30 2749 H 260.832 -5.8225 -0.791128 0
M  V30 2750 H 262.356 -5.85789 -1.72288 0
M  V30 2751 H 263.77 -5.70718 0.543546 0
M  V30 2752 H 262.167 -5.85379 1.32103 0
M  V30 2753 H 263.237 -4.51389 1.77133 0
M  V30 2754 N 264.58 -0.43555 -1.51462 0
M  V30 2755 C 265.81 0.130053 -2.0619 0
M  V30 2756 C 266.218 1.37164 -1.30317 0
M  V30 2757 O 265.561 1.80225 -0.355598 0
M  V30 2758 C 265.623 0.519418 -3.55728 0
M  V30 2759 C 265.287 -0.615119 -4.52841 0
M  V30 2760 C 266.284 -1.48671 -4.9819 0
M  V30 2761 C 263.969 -0.795341 -4.95963 0
M  V30 2762 C 265.963 -2.52324 -5.8533 0
M  V30 2763 C 263.65 -1.83514 -5.82894 0
M  V30 2764 C 264.648 -2.69748 -6.27475 0
M  V30 2765 O 264.336 -3.71944 -7.1268 0
M  V30 2766 H 264.068 0.0121612 -0.675891 0
M  V30 2767 H 266.622 -0.6129 -1.96043 0
M  V30 2768 H 264.852 1.31505 -3.63653 0
M  V30 2769 H 266.541 1.01597 -3.92979 0
M  V30 2770 H 267.307 -1.359 -4.65571 0
M  V30 2771 H 263.186 -0.133713 -4.60806 0
M  V30 2772 H 266.73 -3.19665 -6.20048 0
M  V30 2773 H 262.627 -1.96306 -6.14926 0
M  V30 2774 H 263.395 -3.68503 -7.30854 0
M  V30 2775 N 266.058 1.56714 -0.166846 0
M  V30 2776 C 266.988 2.20754 0.760913 0
M  V30 2777 C 267.969 1.16178 1.24244 0
M  V30 2778 O 269.154 1.44592 1.29641 0
M  V30 2779 C 266.284 2.84478 1.99223 0
M  V30 2780 C 265.238 3.95053 1.64672 0
M  V30 2781 C 264.564 4.45805 2.95232 0
M  V30 2782 C 265.864 5.14865 0.878155 0
M  V30 2783 H 267.558 2.98537 0.22713 0
M  V30 2784 H 265.104 1.43596 0.107805 0
M  V30 2785 H 267.057 3.27951 2.64624 0
M  V30 2786 H 265.781 2.04056 2.55007 0
M  V30 2787 H 264.44 3.52228 1.01641 0
M  V30 2788 H 264.088 3.62181 3.49047 0
M  V30 2789 H 263.788 5.204 2.7287 0
M  V30 2790 H 265.312 4.91962 3.6167 0
M  V30 2791 H 266.726 5.55059 1.43466 0
M  V30 2792 H 265.123 5.95348 0.753738 0
M  V30 2793 H 266.193 4.84735 -0.126377 0
M  V30 2794 N 267.536 -0.106894 1.57237 0
M  V30 2795 C 268.761 -0.830287 1.90055 0
M  V30 2796 C 269.186 -1.72064 0.75998 0
M  V30 2797 O 268.544 -1.78982 -0.288991 0
M  V30 2798 C 268.592 -1.6295 3.21683 0
M  V30 2799 O 267.696 -2.73748 3.08441 0
M  V30 2800 H 267.037 -0.228855 0.623315 0
M  V30 2801 H 269.567 -0.085658 2.04421 0
M  V30 2802 H 269.577 -2.01621 3.54701 0
M  V30 2803 H 268.252 -0.975989 4.04286 0
M  V30 2804 H 266.829 -2.38192 2.86913 0
M  V30 2805 N 269.014 -1.53014 -0.377408 0
M  V30 2806 C 270.262 -1.6829 -1.11906 0
M  V30 2807 C 270.583 -0.431206 -1.90173 0
M  V30 2808 O 269.853 0.554595 -1.87886 0
M  V30 2809 H 268.433 -0.620371 -0.416112 0
M  V30 2810 H 271.095 -1.90167 -0.426893 0
M  V30 2811 H 270.191 -2.53862 -1.8155 0
M  V30 2812 N 270.492 0.636531 -1.44174 0
M  V30 2813 C 271.722 1.42146 -1.49927 0
M  V30 2814 C 272.13 1.88812 -0.121063 0
M  V30 2815 O 271.473 1.61126 0.882267 0
M  V30 2816 C 271.535 2.67883 -2.39748 0
M  V30 2817 C 271.199 2.43048 -3.8701 0
M  V30 2818 C 272.196 2.05216 -4.77684 0
M  V30 2819 C 269.881 2.56856 -4.3166 0
M  V30 2820 C 271.875 1.81512 -6.11009 0
M  V30 2821 C 269.562 2.32766 -5.65034 0
M  V30 2822 C 270.56 1.95152 -6.54526 0
M  V30 2823 O 270.248 1.71326 -7.85431 0
M  V30 2824 H 269.98 0.442567 -0.51099 0
M  V30 2825 H 272.534 0.786158 -1.8976 0
M  V30 2826 H 270.764 3.34032 -1.94832 0
M  V30 2827 H 272.453 3.29874 -2.36513 0
M  V30 2828 H 273.219 1.94111 -4.44462 0
M  V30 2829 H 269.098 2.85104 -3.62266 0
M  V30 2830 H 272.642 1.52077 -6.80822 0
M  V30 2831 H 268.539 2.43479 -5.97819 0
M  V30 2832 H 269.307 1.85616 -7.97176 0
M  V30 2833 N 271.97 1.30982 0.876444 0
M  V30 2834 C 273.386 1.09498 1.16113 0
M  V30 2835 C 273.586 -0.13875 2.01022 0
M  V30 2836 O 272.642 -0.829935 2.38471 0
M  V30 2837 C 273.955 2.36308 1.85954 0
M  V30 2838 C 275.503 2.41856 1.98683 0
M  V30 2839 C 275.978 3.6853 2.71937 0
M  V30 2840 N 277.469 3.69387 2.79477 0
M  V30 2841 C 278.204 4.64096 3.36753 0
M  V30 2842 N 277.7 5.69155 3.95012 0
M  V30 2843 N 279.493 4.51626 3.3465 0
M  V30 2844 H 271.644 2.10118 0.310494 0
M  V30 2845 H 273.907 0.926634 0.200131 0
M  V30 2846 H 273.613 3.26388 1.31011 0
M  V30 2847 H 273.487 2.4561 2.86278 0
M  V30 2848 H 275.874 1.52249 2.52793 0
M  V30 2849 H 275.955 2.36523 0.9742 0
M  V30 2850 H 275.599 4.58499 2.18496 0
M  V30 2851 H 275.529 3.71127 3.73593 0
M  V30 2852 H 278.02 2.93438 2.38123 0
M  V30 2853 H 278.333 6.3751 4.36808 0
M  V30 2854 H 276.678 5.72937 3.93406 0
M  V30 2855 H 279.869 3.68728 2.8837 0
M  V30 2856 H 280.042 5.25614 3.7899 0
M  V30 2857 N 273.449 -1.08991 1.13837 0
M  V30 2858 C 274.698 -1.80631 0.897509 0
M  V30 2859 C 275.011 -1.86872 -0.57777 0
M  V30 2860 O 276.217 -2.54866 -0.935701 0
M  V30 2861 C 274.673 -3.24517 1.55618 0
M  V30 2862 C 274.281 -3.26529 3.0673 0
M  V30 2863 C 276.025 -4.00882 1.3962 0
M  V30 2864 C 273.932 -4.64965 3.65461 0
M  V30 2865 H 272.862 -0.67691 0.332129 0
M  V30 2866 H 275.513 -1.2246 1.3666 0
M  V30 2867 H 273.895 -3.82778 1.01476 0
M  V30 2868 H 275.069 -2.78008 3.67489 0
M  V30 2869 H 273.384 -2.63656 3.22296 0
M  V30 2870 H 275.981 -5.03167 1.80906 0
M  V30 2871 H 276.324 -4.14896 0.341578 0
M  V30 2872 H 276.857 -3.49075 1.90766 0
M  V30 2873 H 273.596 -4.56153 4.70749 0
M  V30 2874 H 273.116 -5.13792 3.09481 0
M  V30 2875 H 274.795 -5.3394 3.654 0
M  V30 2876 N 274.927 -0.932562 -1.27047 0
M  V30 2877 C 276.343 -0.633544 -1.46487 0
M  V30 2878 C 276.543 0.815746 -1.84249 0
M  V30 2879 O 275.599 1.59319 -1.95892 0
M  V30 2880 C 276.912 -1.58758 -2.55375 0
M  V30 2881 C 278.46 -1.59634 -2.69232 0
M  V30 2882 C 278.935 -2.53747 -3.81283 0
M  V30 2883 N 280.426 -2.51982 -3.88664 0
M  V30 2884 C 281.161 -3.21491 -4.74796 0
M  V30 2885 N 280.657 -4.00395 -5.65381 0
M  V30 2886 N 282.45 -3.10485 -4.68568 0
M  V30 2887 H 274.601 -1.86946 -1.00821 0
M  V30 2888 H 276.864 -0.802897 -0.504044 0
M  V30 2889 H 276.57 -2.62172 -2.34432 0
M  V30 2890 H 276.444 -1.33301 -3.52861 0
M  V30 2891 H 278.831 -0.569488 -2.89553 0
M  V30 2892 H 278.912 -1.89142 -1.72218 0
M  V30 2893 H 278.556 -3.56545 -3.61715 0
M  V30 2894 H 278.486 -2.21532 -4.77735 0
M  V30 2895 H 280.977 -1.94681 -3.23895 0
M  V30 2896 H 281.29 -4.50406 -6.27976 0
M  V30 2897 H 279.635 -4.04498 -5.65161 0
M  V30 2898 H 282.826 -2.48331 -3.96799 0
M  V30 2899 H 282.999 -3.64925 -5.35475 0
M  V30 2900 N 276.405 1.4127 -0.698611 0
M  V30 2901 C 277.335 2.33447 -0.049629 0
M  V30 2902 C 278.316 1.51982 0.763898 0
M  V30 2903 O 279.501 1.80509 0.716257 0
M  V30 2904 C 276.631 3.35828 0.885267 0
M  V30 2905 C 275.585 4.27627 0.178613 0
M  V30 2906 C 274.911 5.20406 1.22807 0
M  V30 2907 C 276.211 5.13459 -0.956933 0
M  V30 2908 H 277.905 2.87966 -0.81951 0
M  V30 2909 H 275.451 1.38461 -0.395538 0
M  V30 2910 H 277.404 3.9924 1.34854 0
M  V30 2911 H 276.128 2.79666 1.68685 0
M  V30 2912 H 274.787 3.65643 -0.26466 0
M  V30 2913 H 274.435 4.60558 2.02226 0
M  V30 2914 H 274.135 5.82661 0.760239 0
M  V30 2915 H 275.659 5.86695 1.69179 0
M  V30 2916 H 277.073 5.70421 -0.573805 0
M  V30 2917 H 275.47 5.8467 -1.35205 0
M  V30 2918 H 276.54 4.50443 -1.79524 0
M  V30 2919 N 277.883 0.443576 1.51229 0
M  V30 2920 C 279.131 -0.120557 2.0174 0
M  V30 2921 C 279.452 -1.42665 1.32935 0
M  V30 2922 O 278.722 -1.9028 0.465866 0
M  V30 2923 H 277.302 -0.0475426 0.745486 0
M  V30 2924 H 279.964 0.587711 1.85828 0
M  V30 2925 H 279.06 -0.291972 3.10731 0
M  V30 2926 N 279.361 -1.56624 0.175154 0
M  V30 2927 C 280.586 -2.01813 -0.478137 0
M  V30 2928 C 281.011 -1.05457 -1.55757 0
M  V30 2929 O 280.369 -0.0347439 -1.81267 0
M  V30 2930 C 280.417 -3.45581 -1.02987 0
M  V30 2931 O 279.521 -3.52305 -2.14371 0
M  V30 2932 H 278.862 -0.65413 -0.114059 0
M  V30 2933 H 281.392 -2.02673 0.280173 0
M  V30 2934 H 281.402 -3.84965 -1.35151 0
M  V30 2935 H 280.077 -4.1521 -0.239556 0
M  V30 2936 H 278.654 -3.24783 -1.83222 0
M  V30 2937 N 280.839 0.0985539 -1.57292 0
M  V30 2938 C 282.064 0.820196 -1.90493 0
M  V30 2939 C 282.489 1.71658 -0.769094 0
M  V30 2940 O 281.847 1.79133 0.279495 0
M  V30 2941 C 281.895 1.61242 -3.22542 0
M  V30 2942 O 280.999 2.72108 -3.09888 0
M  V30 2943 H 280.34 0.225547 -0.62452 0
M  V30 2944 H 282.87 0.0748159 -2.04463 0
M  V30 2945 H 282.88 1.99737 -3.55766 0
M  V30 2946 H 281.555 0.954535 -4.04798 0
M  V30 2947 H 280.132 2.36667 -2.88172 0
M  V30 2948 N 282.317 1.53212 0.369288 0
M  V30 2949 C 283.545 1.73119 1.13303 0
M  V30 2950 C 283.96 0.458455 1.83149 0
M  V30 2951 O 283.317 -0.568403 1.73423 0
M  V30 2952 C 283.368 2.89413 2.16616 0
M  V30 2953 O 283.089 4.11761 1.49614 0
M  V30 2954 C 284.59 3.21161 3.05566 0
M  V30 2955 H 281.81 0.579107 0.338934 0
M  V30 2956 H 284.354 1.99942 0.429338 0
M  V30 2957 H 282.509 2.64994 2.82589 0
M  V30 2958 H 282.923 4.76858 2.18419 0
M  V30 2959 H 284.397 4.05949 3.74045 0
M  V30 2960 H 284.874 2.36369 3.70171 0
M  V30 2961 H 285.48 3.47492 2.45213 0
M  V30 2962 N 283.795 -0.628877 1.44509 0
M  V30 2963 C 285.072 -1.38733 1.37886 0
M  V30 2964 C 285.452 -2.11065 0.0387008 0
M  V30 2965 O 284.8 -2.06476 -0.97878 0
M  V30 2966 C 285.01 -2.35188 2.57852 0
M  V30 2967 C 286.358 -2.9845 3.02014 0
M  V30 2968 O 287.382 -2.45513 2.58073 0
M  V30 2969 O 286.241 -3.94487 3.78209 0
M  V30 2970 H 283.335 -0.621015 0.54614 0
M  V30 2971 H 285.881 -0.653744 1.56602 0
M  V30 2972 H 284.653 -1.80855 3.46998 0
M  V30 2973 H 284.276 -3.1596 2.4136 0
M  V30 2974 N 285.273 -1.31445 -0.869486 0
M  V30 2975 C 286.22 -1.19135 -1.97675 0
M  V30 2976 C 287.19 -0.0770266 -1.65921 0
M  V30 2977 O 288.375 -0.249972 -1.89155 0
M  V30 2978 C 285.515 -0.905149 -3.33018 0
M  V30 2979 C 284.628 -2.10285 -3.77365 0
M  V30 2980 C 283.763 -1.75339 -5.01427 0
M  V30 2981 C 282.802 -2.91515 -5.38224 0
M  V30 2982 N 281.939 -2.56762 -6.53466 0
M  V30 2983 H 286.779 -2.13853 -2.07535 0
M  V30 2984 H 284.316 -1.06379 -1.01597 0
M  V30 2985 H 286.274 -0.719765 -4.10944 0
M  V30 2986 H 284.904 0.00519624 -3.228 0
M  V30 2987 H 283.956 -2.39899 -2.95216 0
M  V30 2988 H 285.268 -2.97237 -4.00564 0
M  V30 2989 H 284.422 -1.53266 -5.87022 0
M  V30 2990 H 283.161 -0.855801 -4.80133 0
M  V30 2991 H 282.166 -3.14237 -4.51149 0
M  V30 2992 H 283.391 -3.81985 -5.61484 0
M  V30 2993 H 281.337 -1.69526 -6.33717 0
M  V30 2994 H 281.254 -3.37243 -6.76612 0
M  V30 2995 H 282.522 -2.38083 -7.42251 0
M  V30 2996 N 286.751 1.08385 -1.14413 0
M  V30 2997 C 287.698 2.15311 -0.831265 0
M  V30 2998 C 288.668 1.64751 0.211292 0
M  V30 2999 O 289.853 1.90627 0.0811674 0
M  V30 3000 C 286.993 3.43658 -0.315143 0
M  V30 3001 C 286.106 4.08064 -1.41802 0
M  V30 3002 C 285.241 5.24207 -0.859126 0
M  V30 3003 C 284.28 5.80554 -1.93967 0
M  V30 3004 N 283.417 6.88042 -1.39793 0
M  V30 3005 H 288.257 2.41415 -1.74708 0
M  V30 3006 H 285.794 1.18474 -0.871909 0
M  V30 3007 H 287.752 4.172 0.00230884 0
M  V30 3008 H 286.382 3.17839 0.56378 0
M  V30 3009 H 285.434 3.3228 -1.85187 0
M  V30 3010 H 286.746 4.45962 -2.23427 0
M  V30 3011 H 285.9 6.04689 -0.49359 0
M  V30 3012 H 284.639 4.87699 -0.011932 0
M  V30 3013 H 283.644 4.98725 -2.31415 0
M  V30 3014 H 284.869 6.19121 -2.79046 0
M  V30 3015 H 282.815 6.53493 -0.572919 0
M  V30 3016 H 282.732 7.24767 -2.15054 0
M  V30 3017 H 284 7.72255 -1.0603 0
M  V30 3018 N 288.23 0.939286 1.26551 0
M  V30 3019 C 289.507 0.5038 1.89001 0
M  V30 3020 C 289.887 -1.01854 1.84903 0
M  V30 3021 O 289.235 -1.87773 1.30206 0
M  V30 3022 C 289.445 1.063 3.32417 0
M  V30 3023 C 290.793 1.13051 4.09273 0
M  V30 3024 O 291.817 1.01345 3.41479 0
M  V30 3025 O 290.676 1.31233 5.30509 0
M  V30 3026 H 287.77 0.163897 0.810597 0
M  V30 3027 H 290.316 1.03173 1.34735 0
M  V30 3028 H 289.088 2.10665 3.29752 0
M  V30 3029 H 288.711 0.517408 3.94219 0
M  V30 3030 N 289.708 -1.40897 0.706093 0
M  V30 3031 C 290.936 -2.05373 0.250887 0
M  V30 3032 C 291.351 -1.53172 -1.10381 0
M  V30 3033 O 290.708 -0.684305 -1.69185 0
M  V30 3034 C 290.759 -3.6088 0.211571 0
M  V30 3035 O 290.48 -4.11153 1.51276 0
M  V30 3036 C 291.981 -4.42517 -0.263346 0
M  V30 3037 H 289.201 -0.66115 0.114552 0
M  V30 3038 H 291.745 -1.80479 0.961635 0
M  V30 3039 H 289.9 -3.84777 -0.450073 0
M  V30 3040 H 290.314 -5.05279 1.40689 0
M  V30 3041 H 291.788 -5.51479 -0.239718 0
M  V30 3042 H 292.265 -4.19396 -1.30397 0
M  V30 3043 H 292.871 -4.23708 0.367677 0
M  V30 3044 N 291.186 -0.45159 -1.50991 0
M  V30 3045 C 292.434 0.109857 -2.01801 0
M  V30 3046 C 292.755 1.41958 -1.3369 0
M  V30 3047 O 292.025 1.9003 -0.475951 0
M  V30 3048 H 290.605 0.0435884 -0.745727 0
M  V30 3049 H 293.267 -0.597557 -1.85514 0
M  V30 3050 H 292.363 0.275489 -3.10882 0
M  V30 3051 N 292.664 1.56529 -0.183458 0
M  V30 3052 C 294.08 1.58664 0.172554 0
M  V30 3053 C 294.28 1.19925 1.61926 0
M  V30 3054 O 293.336 0.916534 2.35278 0
M  V30 3055 C 294.649 3.00463 -0.119262 0
M  V30 3056 C 296.197 3.12945 -0.0584396 0
M  V30 3057 C 296.672 4.56857 -0.323408 0
M  V30 3058 N 298.163 4.62403 -0.271612 0
M  V30 3059 C 298.898 5.71626 -0.450639 0
M  V30 3060 N 298.394 6.89362 -0.689384 0
M  V30 3061 N 300.187 5.60775 -0.385701 0
M  V30 3062 H 292.338 1.79994 -1.12765 0
M  V30 3063 H 294.601 0.834808 -0.449222 0
M  V30 3064 H 294.307 3.33326 -1.12192 0
M  V30 3065 H 294.181 3.72659 0.583544 0
M  V30 3066 H 296.568 2.79902 0.934805 0
M  V30 3067 H 296.649 2.4316 -0.794144 0
M  V30 3068 H 296.293 4.9061 -1.31392 0
M  V30 3069 H 296.223 5.24816 0.43305 0
M  V30 3070 H 298.714 3.77785 -0.0932256 0
M  V30 3071 H 299.027 7.68489 -0.815113 0
M  V30 3072 H 297.372 6.91196 -0.726142 0
M  V30 3073 H 300.563 4.67674 -0.199687 0
M  V30 3074 H 300.736 6.4584 -0.528646 0
M  V30 3075 N 294.142 -0.090211 1.57342 0
M  V30 3076 C 295.072 -1.10976 2.05443 0
M  V30 3077 C 296.053 -1.41482 0.944284 0
M  V30 3078 O 297.238 -1.51428 1.21586 0
M  V30 3079 C 294.368 -2.42831 2.48295 0
M  V30 3080 C 293.322 -2.26721 3.63018 0
M  V30 3081 C 292.648 -3.63796 3.91863 0
M  V30 3082 C 293.948 -1.7037 4.93732 0
M  V30 3083 H 295.642 -0.709564 2.9087 0
M  V30 3084 H 293.188 -0.339874 1.39932 0
M  V30 3085 H 295.141 -3.14431 2.80555 0
M  V30 3086 H 293.865 -2.84795 1.59873 0
M  V30 3087 H 292.524 -1.57565 3.31012 0
M  V30 3088 H 292.172 -4.03297 3.00601 0
M  V30 3089 H 291.872 -3.53861 4.69101 0
M  V30 3090 H 293.396 -4.36855 4.26603 0
M  V30 3091 H 294.81 -2.31816 5.24342 0
M  V30 3092 H 293.207 -1.71181 5.75167 0
M  V30 3093 H 294.277 -0.663542 4.80339 0
M  V30 3094 N 295.62 -1.53406 -0.361157 0
M  V30 3095 C 296.57 -1.76536 -1.44287 0
M  V30 3096 C 297.554 -0.620019 -1.48474 0
M  V30 3097 O 298.746 -0.878834 -1.53641 0
M  V30 3098 C 295.875 -1.96266 -2.81664 0
M  V30 3099 C 294.961 -3.16815 -2.81938 0
M  V30 3100 N 295.352 -4.38637 -2.51855 0
M  V30 3101 C 293.65 -3.17627 -3.13096 0
M  V30 3102 C 294.351 -5.20401 -2.59919 0
M  V30 3103 N 293.327 -4.56712 -2.94814 0
M  V30 3104 H 297.129 -2.68331 -1.19899 0
M  V30 3105 H 294.643 -1.52091 -0.56938 0
M  V30 3106 H 296.64 -2.10966 -3.59582 0
M  V30 3107 H 295.3 -1.05702 -3.07013 0
M  V30 3108 H 296.311 -4.66293 -2.25369 0
M  V30 3109 H 292.988 -2.36971 -3.43731 0
M  V30 3110 H 294.378 -6.27586 -2.39969 0
M  V30 3111 N 297.098 0.621204 -1.44841 0
M  V30 3112 C 298.344 1.3826 -1.48365 0
M  V30 3113 C 298.677 1.93831 -0.119624 0
M  V30 3114 O 297.952 1.74251 0.864111 0
M  V30 3115 C 298.235 2.54058 -2.55199 0
M  V30 3116 C 298.088 2.03772 -4.00995 0
M  V30 3117 C 299.407 3.56225 -2.58442 0
M  V30 3118 H 296.526 0.501374 -0.540179 0
M  V30 3119 H 299.168 0.7015 -1.76576 0
M  V30 3120 H 297.318 3.12162 -2.31274 0
M  V30 3121 H 298.99 1.50423 -4.36086 0
M  V30 3122 H 297.233 1.34876 -4.12299 0
M  V30 3123 H 297.904 2.87185 -4.71411 0
M  V30 3124 H 300.38 3.07939 -2.79844 0
M  V30 3125 H 299.256 4.34756 -3.3508 0
M  V30 3126 H 299.517 4.10949 -1.63013 0
M  V30 3127 N 298.576 1.31904 0.862503 0
M  V30 3128 C 299.853 1.12644 1.59908 0
M  V30 3129 C 300.233 -0.316104 2.0872 0
M  V30 3130 O 299.581 -1.31145 1.87118 0
M  V30 3131 C 299.791 2.1472 2.7513 0
M  V30 3132 C 301.139 2.47637 3.44907 0
M  V30 3133 O 302.163 2.13205 2.85346 0
M  V30 3134 O 301.022 3.06632 4.52371 0
M  V30 3135 H 298.116 0.43416 0.703871 0
M  V30 3136 H 300.662 1.43408 0.907314 0
M  V30 3137 H 299.434 3.1172 2.3653 0
M  V30 3138 H 299.057 1.84905 3.51989 0
M  V30 3139 N 300.054 -1.07777 1.14986 0
M  V30 3140 C 301.301 -1.8029 0.922056 0
M  V30 3141 C 301.629 -1.86531 -0.55105 0
M  V30 3142 O 300.884 -1.34189 -1.42449 0
M  V30 3143 C 301.183 -3.25495 1.47608 0
M  V30 3144 C 300.849 -3.39361 2.96893 0
M  V30 3145 C 299.511 -3.42852 3.37647 0
M  V30 3146 C 301.863 -3.42512 3.92854 0
M  V30 3147 C 299.191 -3.47094 4.73015 0
M  V30 3148 C 301.543 -3.4829 5.28088 0
M  V30 3149 C 300.207 -3.50058 5.68345 0
M  V30 3150 H 299.477 -0.659727 0.337404 0
M  V30 3151 H 302.124 -1.26854 1.43459 0
M  V30 3152 H 300.429 -3.81683 0.88463 0
M  V30 3153 H 302.126 -3.80168 1.27568 0
M  V30 3154 H 298.716 -3.37339 2.64387 0
M  V30 3155 H 302.9 -3.3904 3.62444 0
M  V30 3156 H 298.156 -3.46758 5.03556 0
M  V30 3157 H 302.33 -3.49675 6.02246 0
M  V30 3158 H 299.957 -3.53097 6.73221 0
M  V30 3159 N 301.532 -0.945985 -1.26051 0
M  V30 3160 C 302.495 -0.463897 -2.24456 0
M  V30 3161 C 303.495 0.427655 -1.55009 0
M  V30 3162 O 304.685 0.226157 -1.72726 0
M  V30 3163 C 301.817 0.330812 -3.39291 0
M  V30 3164 H 303.01 -1.33357 -2.68619 0
M  V30 3165 H 300.563 -0.728416 -1.38289 0
M  V30 3166 H 301.298 1.21852 -3.00537 0
M  V30 3167 H 301.083 -0.308679 -3.90883 0
M  V30 3168 H 302.573 0.657865 -4.12386 0
M  V30 3169 N 303.011 1.40521 -0.713556 0
M  V30 3170 C 303.943 2.29191 -0.0203126 0
M  V30 3171 C 304.956 1.45723 0.725864 0
M  V30 3172 O 306.145 1.69033 0.573581 0
M  V30 3173 C 303.245 3.2395 0.995486 0
M  V30 3174 C 302.418 4.36262 0.315256 0
M  V30 3175 C 301.477 5.11474 1.23616 0
M  V30 3176 O 300.503 5.64606 0.721719 0
M  V30 3177 N 301.705 5.20638 2.56743 0
M  V30 3178 H 304.47 2.89327 -0.781652 0
M  V30 3179 H 302.031 1.51869 -0.561022 0
M  V30 3180 H 304.023 3.71137 1.61368 0
M  V30 3181 H 302.593 2.64995 1.6582 0
M  V30 3182 H 301.813 3.91228 -0.483106 0
M  V30 3183 H 303.101 5.08558 -0.157004 0
M  V30 3184 H 302.499 4.7895 3.01037 0
M  V30 3185 H 301.056 5.71339 3.13712 0
M  V30 3186 N 304.489 0.459591 1.5075 0
M  V30 3187 C 305.452 -0.329093 2.26825 0
M  V30 3188 C 306.452 -0.930481 1.31144 0
M  V30 3189 O 307.642 -0.801453 1.54669 0
M  V30 3190 C 304.774 -1.46768 3.07688 0
M  V30 3191 H 305.967 0.337924 2.9799 0
M  V30 3192 H 303.52 0.213336 1.54837 0
M  V30 3193 H 304.255 -2.17009 2.40993 0
M  V30 3194 H 304.04 -1.04238 3.77991 0
M  V30 3195 H 305.53 -2.02433 3.65254 0
M  V30 3196 N 305.967 -1.56429 0.191757 0
M  V30 3197 C 307.383 -1.58754 -0.164137 0
M  V30 3198 C 307.583 -1.20782 -1.61288 0
M  V30 3199 O 306.639 -0.928999 -2.34789 0
M  V30 3200 C 307.952 -3.00396 0.135195 0
M  V30 3201 C 309.5 -3.1291 0.0750351 0
M  V30 3202 C 309.975 -4.56679 0.347632 0
M  V30 3203 N 311.466 -4.62252 0.296131 0
M  V30 3204 C 312.201 -5.71379 0.480948 0
M  V30 3205 N 311.697 -6.88986 0.725933 0
M  V30 3206 N 313.49 -5.60563 0.415435 0
M  V30 3207 H 305.641 -1.79393 1.13718 0
M  V30 3208 H 307.904 -0.832414 0.453643 0
M  V30 3209 H 307.61 -3.32726 1.13958 0
M  V30 3210 H 307.484 -3.72963 -0.563773 0
M  V30 3211 H 309.871 -2.80394 -0.919948 0
M  V30 3212 H 309.952 -2.42736 0.807029 0
M  V30 3213 H 309.596 -4.89907 1.33992 0
M  V30 3214 H 309.526 -5.25039 -0.405212 0
M  V30 3215 H 312.017 -3.7773 0.113259 0
M  V30 3216 H 312.33 -7.68046 0.855857 0
M  V30 3217 H 310.675 -6.90801 0.762788 0
M  V30 3218 H 313.866 -4.67561 0.224486 0
M  V30 3219 H 314.039 -6.45551 0.562889 0
M  V30 3220 N 307.445 0.0818655 -1.57387 0
M  V30 3221 C 308.722 0.815343 -1.77796 0
M  V30 3222 C 309.102 1.96289 -0.77679 0
M  V30 3223 O 308.45 2.27691 0.192106 0
M  V30 3224 C 308.66 1.29765 -3.23978 0
M  V30 3225 C 310.008 1.7351 -3.8753 0
M  V30 3226 O 311.032 1.39356 -3.27808 0
M  V30 3227 O 309.891 2.36708 -4.92576 0
M  V30 3228 H 306.985 0.389914 -0.729312 0
M  V30 3229 H 309.531 0.0627213 -1.69584 0
M  V30 3230 H 308.303 0.47608 -3.88393 0
M  V30 3231 H 307.926 2.11189 -3.36875 0
M  V30 3232 N 308.923 1.53595 0.353017 0
M  V30 3233 C 310.2 1.61002 1.11075 0
M  V30 3234 C 310.58 0.425356 2.0677 0
M  V30 3235 O 309.928 -0.583267 2.2093 0
M  V30 3236 C 310.138 2.96631 1.83877 0
M  V30 3237 C 311.486 3.51653 2.37961 0
M  V30 3238 O 312.51 2.98743 1.93987 0
M  V30 3239 O 311.369 4.44177 3.18386 0
M  V30 3240 H 308.463 0.650825 0.510251 0
M  V30 3241 H 311.009 1.6594 0.35527 0
M  V30 3242 H 309.781 3.74293 1.14108 0
M  V30 3243 H 309.404 2.95242 2.66304 0
M  V30 3244 N 310.401 -0.613514 1.45168 0
M  V30 3245 C 311.331 -1.7354 1.56225 0
M  V30 3246 C 312.312 -1.64981 0.41414 0
M  V30 3247 O 313.497 -1.83472 0.636526 0
M  V30 3248 C 310.627 -3.12128 1.52295 0
M  V30 3249 C 309.581 -3.35491 2.65762 0
M  V30 3250 C 308.907 -4.74291 2.46885 0
M  V30 3251 C 310.207 -3.26325 4.0781 0
M  V30 3252 H 311.901 -1.64543 2.50132 0
M  V30 3253 H 309.447 -0.790185 1.20383 0
M  V30 3254 H 311.4 -3.90404 1.58628 0
M  V30 3255 H 310.124 -3.2195 0.549139 0
M  V30 3256 H 308.783 -2.59603 2.58847 0
M  V30 3257 H 308.431 -4.80839 1.47657 0
M  V30 3258 H 308.131 -4.9088 3.22972 0
M  V30 3259 H 309.655 -5.54775 2.55063 0
M  V30 3260 H 311.069 -3.94483 4.16 0
M  V30 3261 H 309.466 -3.54445 4.8424 0
M  V30 3262 H 310.536 -2.23855 4.30136 0
M  V30 3263 N 311.879 -1.3236 -0.855495 0
M  V30 3264 C 313.109 -1.25688 -1.6397 0
M  V30 3265 C 313.517 0.177592 -1.88365 0
M  V30 3266 O 312.86 1.12485 -1.45234 0
M  V30 3267 C 312.922 -1.94602 -3.02275 0
M  V30 3268 C 312.586 -3.43937 -3.00926 0
M  V30 3269 C 313.583 -4.39435 -2.77835 0
M  V30 3270 C 311.268 -3.85858 -3.21588 0
M  V30 3271 C 313.262 -5.74829 -2.75409 0
M  V30 3272 C 310.949 -5.21361 -3.18789 0
M  V30 3273 C 311.947 -6.15658 -2.95727 0
M  V30 3274 O 311.635 -7.48681 -2.928 0
M  V30 3275 H 311.367 -0.434972 -0.51747 0
M  V30 3276 H 313.921 -1.75023 -1.075 0
M  V30 3277 H 312.151 -1.39836 -3.60531 0
M  V30 3278 H 313.84 -1.81651 -3.62985 0
M  V30 3279 H 314.606 -4.08374 -2.6164 0
M  V30 3280 H 310.485 -3.12883 -3.38564 0
M  V30 3281 H 314.029 -6.48404 -2.57328 0
M  V30 3282 H 309.926 -5.52052 -3.34528 0
M  V30 3283 H 310.694 -7.5803 -3.0876 0
M  V30 3284 N 313.357 1.07166 -1.15556 0
M  V30 3285 C 314.267 2.17947 -0.868116 0
M  V30 3286 C 315.283 1.73297 0.156297 0
M  V30 3287 O 316.459 2.01392 -0.0182327 0
M  V30 3288 C 313.524 3.44789 -0.36355 0
M  V30 3289 C 312.585 4.03996 -1.45209 0
M  V30 3290 C 311.818 5.24783 -0.971508 0
M  V30 3291 O 312.041 5.70109 0.182194 0
M  V30 3292 O 310.975 5.75715 -1.75603 0
M  V30 3293 H 314.801 2.4503 -1.79427 0
M  V30 3294 H 312.386 1.16539 -0.934824 0
M  V30 3295 H 314.268 4.21307 -0.0887113 0
M  V30 3296 H 312.943 3.19253 0.534708 0
M  V30 3297 H 311.85 3.29009 -1.78056 0
M  V30 3298 H 313.183 4.33808 -2.32533 0
M  V30 3299 N 314.835 0.952656 1.25548 0
M  V30 3300 C 316.081 0.616826 1.93822 0
M  V30 3301 C 316.436 -0.836684 1.73255 0
M  V30 3302 O 315.729 -1.59218 1.06584 0
M  V30 3303 C 315.923 0.908818 3.45652 0
M  V30 3304 C 315.752 2.38916 3.80984 0
M  V30 3305 C 314.522 3.04637 4.03143 0
M  V30 3306 C 316.72 3.36838 3.88645 0
M  V30 3307 N 314.702 4.42565 4.25453 0
M  V30 3308 C 316.073 4.60065 4.1562 0
M  V30 3309 C 318.128 3.31704 3.71318 0
M  V30 3310 C 316.831 5.78795 4.2707 0
M  V30 3311 C 318.857 4.4977 3.84006 0
M  V30 3312 C 318.219 5.71783 4.11392 0
M  V30 3313 H 314.318 0.27629 0.731565 0
M  V30 3314 H 316.902 1.22443 1.5138 0
M  V30 3315 H 315.073 0.330166 3.86994 0
M  V30 3316 H 316.805 0.533093 4.01174 0
M  V30 3317 H 313.56 2.55215 3.98952 0
M  V30 3318 H 313.984 5.1399 4.40617 0
M  V30 3319 H 318.626 2.3842 3.49164 0
M  V30 3320 H 316.344 6.72521 4.48041 0
M  V30 3321 H 319.93 4.47342 3.71989 0
M  V30 3322 H 318.81 6.61617 4.2099 0
M  V30 3323 N 316.313 -1.40141 0.720998 0
M  V30 3324 C 317.223 -2.34486 0.0731031 0
M  V30 3325 C 318.239 -1.57587 -0.737723 0
M  V30 3326 O 319.415 -1.89949 -0.669429 0
M  V30 3327 C 316.48 -3.36528 -0.833656 0
M  V30 3328 C 315.541 -4.29298 -0.0121673 0
M  V30 3329 C 314.774 -5.26466 -0.875742 0
M  V30 3330 O 314.997 -5.29745 -2.11485 0
M  V30 3331 O 313.931 -6.01092 -0.31185 0
M  V30 3332 H 317.757 -2.9152 0.851444 0
M  V30 3333 H 315.342 -1.41427 0.481527 0
M  V30 3334 H 317.224 -3.99093 -1.35289 0
M  V30 3335 H 315.899 -2.81899 -1.59105 0
M  V30 3336 H 314.806 -3.70001 0.552262 0
M  V30 3337 H 316.139 -4.87094 0.707129 0
M  V30 3338 N 317.792 -0.46758 -1.50504 0
M  V30 3339 C 319.032 0.0874114 -2.04213 0
M  V30 3340 C 319.396 1.37301 -1.34211 0
M  V30 3341 O 320.597 2.01015 -1.78456 0
M  V30 3342 C 318.868 0.270571 -3.56374 0
M  V30 3343 S 320.427 0.784623 -4.31728 0
M  V30 3344 H 317.245 0.0176153 -0.710782 0
M  V30 3345 H 319.847 -0.633915 -1.84937 0
M  V30 3346 H 318.551 -0.670942 -4.04878 0
M  V30 3347 H 318.082 1.01811 -3.79997 0
M  V30 3348 H 320.097 2.05849 -4.51487 0
M  V30 3349 N 319.27 1.56325 -0.20005 0
M  V30 3350 C 320.217 2.1932 0.718833 0
M  V30 3351 C 321.187 1.14198 1.20615 0
M  V30 3352 O 322.372 1.42469 1.26914 0
M  V30 3353 C 319.512 2.86041 1.93066 0
M  V30 3354 C 318.625 4.05702 1.48425 0
M  V30 3355 C 317.76 4.60266 2.65196 0
M  V30 3356 C 316.799 5.72273 2.17185 0
M  V30 3357 N 315.936 6.21221 3.27152 0
M  V30 3358 H 320.776 2.97486 0.17489 0
M  V30 3359 H 318.313 1.46911 0.0745794 0
M  V30 3360 H 320.271 3.22897 2.64184 0
M  V30 3361 H 318.901 2.1043 2.44783 0
M  V30 3362 H 317.953 3.74475 0.668755 0
M  V30 3363 H 319.265 4.86699 1.09204 0
M  V30 3364 H 318.419 4.99453 3.4443 0
M  V30 3365 H 317.158 3.78386 3.07693 0
M  V30 3366 H 316.163 5.3261 1.36407 0
M  V30 3367 H 317.388 6.55974 1.75713 0
M  V30 3368 H 315.334 5.42263 3.69171 0
M  V30 3369 H 315.251 6.97284 2.92116 0
M  V30 3370 H 316.519 6.65063 4.06585 0
M  V30 3371 N 320.748 -0.0735177 1.57428 0
M  V30 3372 C 321.68 -1.11423 2.00294 0
M  V30 3373 C 322.693 -1.35084 0.908637 0
M  V30 3374 O 323.882 -1.33355 1.18654 0
M  V30 3375 C 320.982 -2.46548 2.32523 0
M  V30 3376 C 320.155 -2.42867 3.63778 0
M  V30 3377 C 319.214 -3.60087 3.83697 0
M  V30 3378 O 318.24 -3.41595 4.55304 0
M  V30 3379 N 319.442 -4.80372 3.25919 0
M  V30 3380 H 322.207 -0.749206 2.90184 0
M  V30 3381 H 319.768 -0.262195 1.59763 0
M  V30 3382 H 321.76 -3.23607 2.43024 0
M  V30 3383 H 320.33 -2.75059 1.48531 0
M  V30 3384 H 319.55 -1.51206 3.64047 0
M  V30 3385 H 320.838 -2.37506 4.49965 0
M  V30 3386 H 320.236 -4.983 2.67795 0
M  V30 3387 H 318.793 -5.54948 3.41871 0
M  V30 3388 N 322.226 -1.5378 -0.344866 0
M  V30 3389 C 323.642 -1.44015 -0.687888 0
M  V30 3390 C 323.842 -0.595834 -1.92489 0
M  V30 3391 O 322.898 -0.0863064 -2.52352 0
M  V30 3392 C 324.211 -2.87481 -0.881758 0
M  V30 3393 C 325.759 -2.97247 -0.980459 0
M  V30 3394 C 326.234 -4.41819 -1.20665 0
M  V30 3395 N 327.725 -4.45339 -1.27389 0
M  V30 3396 C 328.46 -5.54333 -1.46639 0
M  V30 3397 N 327.956 -6.73335 -1.63071 0
M  V30 3398 N 329.749 -5.41944 -1.49176 0
M  V30 3399 H 321.9 -2.07169 0.468475 0
M  V30 3400 H 324.163 -0.93643 0.147655 0
M  V30 3401 H 323.869 -3.51672 -0.0443444 0
M  V30 3402 H 323.743 -3.32352 -1.78388 0
M  V30 3403 H 326.13 -2.33197 -1.8084 0
M  V30 3404 H 326.211 -2.5574 -0.0552713 0
M  V30 3405 H 325.855 -5.06449 -0.383652 0
M  V30 3406 H 325.785 -4.80917 -2.14539 0
M  V30 3407 H 328.276 -3.59585 -1.1622 0
M  V30 3408 H 328.589 -7.52165 -1.77391 0
M  V30 3409 H 326.934 -6.76282 -1.60209 0
M  V30 3410 H 330.125 -4.47932 -1.3592 0
M  V30 3411 H 330.298 -6.26946 -1.63837 0
M  V30 3412 N 323.704 0.605807 -1.45491 0
M  V30 3413 C 324.637 1.73022 -1.48791 0
M  V30 3414 C 325.615 1.58917 -0.344112 0
M  V30 3415 O 326.799 1.80453 -0.544876 0
M  V30 3416 C 323.926 3.10865 -1.34463 0
M  V30 3417 C 322.972 3.43554 -2.5273 0
M  V30 3418 S 323.805 3.38196 -4.15191 0
M  V30 3419 C 324.961 4.78616 -4.03333 0
M  V30 3420 H 325.194 1.69961 -2.43928 0
M  V30 3421 H 322.727 0.782611 -1.33096 0
M  V30 3422 H 324.685 3.90398 -1.26884 0
M  V30 3423 H 323.346 3.1144 -0.40794 0
M  V30 3424 H 322.539 4.43924 -2.38637 0
M  V30 3425 H 322.141 2.71541 -2.5718 0
M  V30 3426 H 324.433 5.68463 -3.68587 0
M  V30 3427 H 325.376 4.97767 -5.03621 0
M  V30 3428 H 325.784 4.54381 -3.34959 0
M  V30 3429 N 325.182 1.32811 0.848464 0
M  V30 3430 C 326.112 1.24882 1.97299 0
M  V30 3431 C 327.093 0.131357 1.69592 0
M  V30 3432 O 328.278 0.319553 1.91553 0
M  V30 3433 C 325.408 0.97746 3.33261 0
M  V30 3434 C 324.362 2.05682 3.75338 0
M  V30 3435 C 323.688 1.63777 5.09 0
M  V30 3436 C 324.988 3.47254 3.90144 0
M  V30 3437 H 326.682 2.18966 2.04191 0
M  V30 3438 H 324.228 1.05413 0.981029 0
M  V30 3439 H 326.181 0.908513 4.1149 0
M  V30 3440 H 324.905 0.000980011 3.266 0
M  V30 3441 H 323.564 2.11603 2.99366 0
M  V30 3442 H 323.212 0.648569 4.98801 0
M  V30 3443 H 322.912 2.36 5.38124 0
M  V30 3444 H 324.436 1.5833 5.89715 0
M  V30 3445 H 325.85 3.43888 4.58709 0
M  V30 3446 H 324.247 4.1788 4.30693 0
M  V30 3447 H 325.317 3.86462 2.92874 0
M  V30 3448 N 326.66 -1.06551 1.16123 0
M  V30 3449 C 327.623 -2.12132 0.867906 0
M  V30 3450 C 328.623 -1.60224 -0.135944 0
M  V30 3451 O 329.813 -1.73943 0.0946422 0
M  V30 3452 C 326.945 -3.396 0.297419 0
M  V30 3453 H 328.138 -2.39586 1.80385 0
M  V30 3454 H 325.691 -1.22574 0.969812 0
M  V30 3455 H 326.426 -3.17794 -0.64633 0
M  V30 3456 H 326.211 -3.78581 1.02073 0
M  V30 3457 H 327.701 -4.17455 0.110052 0
M  V30 3458 N 328.138 -0.959301 -1.25041 0
M  V30 3459 C 329.554 -0.664474 -1.4511 0
M  V30 3460 C 329.754 0.776481 -1.85938 0
M  V30 3461 O 328.81 1.55128 -1.99227 0
M  V30 3462 C 330.123 -1.64139 -2.5195 0
M  V30 3463 C 331.671 -1.65309 -2.65786 0
M  V30 3464 C 332.146 -2.61777 -3.75815 0
M  V30 3465 N 333.637 -2.60169 -3.83231 0
M  V30 3466 C 334.372 -3.31489 -4.6787 0
M  V30 3467 N 333.868 -4.12298 -5.56761 0
M  V30 3468 N 335.661 -3.20354 -4.61876 0
M  V30 3469 H 327.812 -1.89043 -0.968332 0
M  V30 3470 H 330.075 -0.813408 -0.4869 0
M  V30 3471 H 329.781 -2.67086 -2.28819 0
M  V30 3472 H 329.655 -1.40756 -3.49954 0
M  V30 3473 H 332.042 -0.630778 -2.8828 0
M  V30 3474 H 332.123 -1.92753 -1.68167 0
M  V30 3475 H 331.767 -3.64137 -3.54071 0
M  V30 3476 H 331.697 -2.31616 -4.72929 0
M  V30 3477 H 334.188 -2.01507 -3.19692 0
M  V30 3478 H 334.501 -4.63625 -6.18281 0
M  V30 3479 H 332.846 -4.16395 -5.56454 0
M  V30 3480 H 336.037 -2.56692 -3.91442 0
M  V30 3481 H 336.21 -3.76201 -5.27614 0
M  V30 3482 N 329.616 1.39756 -0.72842 0
M  V30 3483 C 330.526 2.34444 -0.0855374 0
M  V30 3484 C 331.542 1.57976 0.729356 0
M  V30 3485 O 332.718 1.90301 0.659346 0
M  V30 3486 C 329.783 3.36965 0.815798 0
M  V30 3487 C 328.844 4.29299 -0.0105996 0
M  V30 3488 C 328.077 5.26923 0.84781 0
M  V30 3489 O 328.3 5.30859 2.08673 0
M  V30 3490 O 327.234 6.01249 0.279969 0
M  V30 3491 H 331.06 2.91065 -0.866892 0
M  V30 3492 H 328.645 1.4117 -0.48902 0
M  V30 3493 H 330.527 3.99804 1.33171 0
M  V30 3494 H 329.202 2.82739 1.57608 0
M  V30 3495 H 328.109 3.69703 -0.571877 0
M  V30 3496 H 329.442 4.86712 -0.73295 0
M  V30 3497 N 331.094 0.475555 1.50254 0
M  V30 3498 C 332.004 -0.321501 2.32387 0
M  V30 3499 C 333.02 -0.991755 1.42969 0
M  V30 3500 O 334.196 -0.978747 1.76018 0
M  V30 3501 C 331.261 -1.38667 3.17762 0
M  V30 3502 C 330.322 -0.732538 4.23004 0
M  V30 3503 C 329.555 -1.74695 5.04299 0
M  V30 3504 O 329.778 -2.97399 4.86734 0
M  V30 3505 O 328.712 -1.31631 5.8733 0
M  V30 3506 H 332.538 0.350071 3.01676 0
M  V30 3507 H 330.123 0.237321 1.47503 0
M  V30 3508 H 332.005 -2.00354 3.70724 0
M  V30 3509 H 330.68 -2.04163 2.51196 0
M  V30 3510 H 329.587 -0.0765902 3.74022 0
M  V30 3511 H 330.92 -0.120452 4.92053 0
M  V30 3512 N 332.573 -1.56217 0.208337 0
M  V30 3513 C 333.989 -1.58919 -0.14729 0
M  V30 3514 C 334.189 -1.22486 -1.59998 0
M  V30 3515 O 333.245 -0.953849 -2.3379 0
M  V30 3516 C 334.558 -3.00236 0.167048 0
M  V30 3517 C 336.106 -3.12813 0.108219 0
M  V30 3518 C 336.581 -4.56284 0.396049 0
M  V30 3519 N 338.072 -4.61912 0.345142 0
M  V30 3520 C 338.807 -5.70837 0.541523 0
M  V30 3521 N 338.303 -6.88178 0.798968 0
M  V30 3522 N 340.096 -5.60091 0.474867 0
M  V30 3523 H 332.247 -1.78177 1.15614 0
M  V30 3524 H 334.51 -0.827555 0.462446 0
M  V30 3525 H 334.216 -3.31499 1.1748 0
M  V30 3526 H 334.09 -3.7354 -0.524184 0
M  V30 3527 H 336.477 -2.81354 -0.890157 0
M  V30 3528 H 336.558 -2.41866 0.832729 0
M  V30 3529 H 336.202 -4.88458 1.3918 0
M  V30 3530 H 336.132 -5.25439 -0.349502 0
M  V30 3531 H 338.623 -3.77589 0.153316 0
M  V30 3532 H 338.936 -7.67095 0.93727 0
M  V30 3533 H 337.281 -6.89953 0.836013 0
M  V30 3534 H 340.472 -4.67297 0.274064 0
M  V30 3535 H 340.645 -6.44917 0.631326 0
M  V30 3536 N 334.051 0.0651679 -1.57465 0
M  V30 3537 C 335.001 1.0838 -2.00594 0
M  V30 3538 C 335.985 1.34106 -0.889071 0
M  V30 3539 O 337.177 1.34295 -1.15299 0
M  V30 3540 C 334.306 2.39565 -2.45894 0
M  V30 3541 C 333.392 2.17085 -3.64328 0
M  V30 3542 N 333.783 1.64553 -4.78285 0
M  V30 3543 C 332.081 2.4753 -3.71006 0
M  V30 3544 C 332.782 1.57042 -5.60101 0
M  V30 3545 N 331.758 2.03328 -5.04141 0
M  V30 3546 H 335.56 0.671062 -2.86136 0
M  V30 3547 H 333.074 0.27213 -1.60104 0
M  V30 3548 H 335.071 3.13308 -2.75034 0
M  V30 3549 H 333.731 2.81549 -1.61741 0
M  V30 3550 H 334.742 1.33323 -5.00445 0
M  V30 3551 H 331.419 2.92835 -2.9758 0
M  V30 3552 H 332.809 1.17223 -6.61595 0
M  V30 3553 N 335.529 1.53961 0.336706 0
M  V30 3554 C 336.945 1.44378 0.680241 0
M  V30 3555 C 337.145 0.606034 1.9217 0
M  V30 3556 O 336.201 0.099688 2.52303 0
M  V30 3557 C 337.514 2.87945 0.8665 0
M  V30 3558 C 339.062 2.97763 0.964682 0
M  V30 3559 C 339.537 4.42453 1.18321 0
M  V30 3560 N 341.028 4.46008 1.25025 0
M  V30 3561 C 341.763 5.55102 1.43697 0
M  V30 3562 N 341.259 6.7419 1.59498 0
M  V30 3563 N 343.052 5.42727 1.463 0
M  V30 3564 H 335.203 2.06918 -0.479455 0
M  V30 3565 H 337.466 0.935634 -0.152619 0
M  V30 3566 H 337.172 3.51691 0.0256937 0
M  V30 3567 H 337.046 3.33293 1.76623 0
M  V30 3568 H 339.433 2.34153 1.796 0
M  V30 3569 H 339.514 2.55766 0.041708 0
M  V30 3570 H 339.158 5.06645 0.356788 0
M  V30 3571 H 339.088 4.82048 2.11985 0
M  V30 3572 H 341.579 3.60196 1.14312 0
M  V30 3573 H 341.892 7.53095 1.734 0
M  V30 3574 H 340.237 6.77123 1.56621 0
M  V30 3575 H 343.428 4.48647 1.33543 0
M  V30 3576 H 343.601 6.27806 1.6051 0
M  V30 3577 N 337.007 -0.598083 1.45811 0
M  V30 3578 C 338.423 -0.919847 1.30426 0
M  V30 3579 C 338.623 -1.99759 0.264303 0
M  V30 3580 O 337.679 -2.50221 -0.338472 0
M  V30 3581 C 338.992 -1.35176 2.68603 0
M  V30 3582 C 340.54 -1.46546 2.76574 0
M  V30 3583 C 341.015 -1.9311 4.15298 0
M  V30 3584 N 342.506 -2.00328 4.1764 0
M  V30 3585 C 343.241 -2.37599 5.21856 0
M  V30 3586 N 342.737 -2.73771 6.36413 0
M  V30 3587 N 344.53 -2.38021 5.09218 0
M  V30 3588 H 336.681 0.114111 2.12093 0
M  V30 3589 H 338.944 -0.0116121 0.947929 0
M  V30 3590 H 338.65 -0.633969 3.45939 0
M  V30 3591 H 338.524 -2.3164 2.97696 0
M  V30 3592 H 340.911 -2.17415 1.99537 0
M  V30 3593 H 340.992 -0.483727 2.51185 0
M  V30 3594 H 340.636 -1.22824 4.92825 0
M  V30 3595 H 340.566 -2.92213 4.38086 0
M  V30 3596 H 343.057 -1.74925 3.34977 0
M  V30 3597 H 343.37 -3.0112 7.11721 0
M  V30 3598 H 341.715 -2.71445 6.39799 0
M  V30 3599 H 344.906 -2.09174 4.18765 0
M  V30 3600 H 345.079 -2.66741 5.90554 0
M  V30 3601 N 338.485 -1.33259 -0.841409 0
M  V30 3602 C 339.901 -1.12538 -1.13169 0
M  V30 3603 C 340.101 0.0854037 -2.01319 0
M  V30 3604 O 339.157 0.766417 -2.40587 0
M  V30 3605 C 340.47 -2.41156 -1.79623 0
M  V30 3606 C 342.018 -2.47038 -1.922 0
M  V30 3607 C 342.493 -3.7561 -2.6207 0
M  V30 3608 N 343.984 -3.76667 -2.69585 0
M  V30 3609 C 344.719 -4.72861 -3.2433 0
M  V30 3610 N 344.215 -5.79428 -3.79783 0
M  V30 3611 N 346.008 -4.6034 -3.22558 0
M  V30 3612 H 338.159 -2.10868 -0.254676 0
M  V30 3613 H 340.422 -0.931615 -0.175493 0
M  V30 3614 H 340.128 -3.29747 -1.22311 0
M  V30 3615 H 340.002 -2.53114 -2.79666 0
M  V30 3616 H 342.389 -1.58898 -2.48667 0
M  V30 3617 H 342.47 -2.39022 -0.911148 0
M  V30 3618 H 342.114 -4.64131 -2.06263 0
M  V30 3619 H 342.044 -3.80902 -3.63622 0
M  V30 3620 H 344.535 -2.99648 -2.30259 0
M  V30 3621 H 344.848 -6.48867 -4.19752 0
M  V30 3622 H 343.193 -5.83166 -3.78078 0
M  V30 3623 H 346.384 -3.76244 -2.78492 0
M  V30 3624 H 346.557 -5.35478 -3.64921 0
M  V30 3625 N 339.963 1.05934 -1.16686 0
M  V30 3626 C 340.896 2.1295 -0.820225 0
M  V30 3627 C 341.874 1.61242 0.209722 0
M  V30 3628 O 343.058 1.88271 0.0929688 0
M  V30 3629 C 340.185 3.3797 -0.22223 0
M  V30 3630 C 339.231 4.08488 -1.22637 0
M  V30 3631 S 340.064 4.58015 -2.77457 0
M  V30 3632 C 341.22 5.86292 -2.19117 0
M  V30 3633 H 341.453 2.42025 -1.72659 0
M  V30 3634 H 338.986 1.18423 -0.990722 0
M  V30 3635 H 340.944 4.10335 0.116322 0
M  V30 3636 H 339.605 3.07045 0.66196 0
M  V30 3637 H 338.798 4.98291 -0.756455 0
M  V30 3638 H 338.4 3.42154 -1.51019 0
M  V30 3639 H 340.692 6.59246 -1.56209 0
M  V30 3640 H 341.635 6.38019 -3.07144 0
M  V30 3641 H 342.043 5.40497 -1.62858 0
M  V30 3642 N 341.441 0.965919 1.2453 0
M  V30 3643 C 342.351 0.502154 2.29163 0
M  V30 3644 C 343.367 -0.436017 1.68448 0
M  V30 3645 O 344.543 -0.309497 1.99008 0
M  V30 3646 C 341.608 -0.201956 3.46111 0
M  V30 3647 C 340.669 0.775821 4.22232 0
M  V30 3648 C 339.902 0.105217 5.33596 0
M  V30 3649 O 340.125 -1.10683 5.59558 0
M  V30 3650 O 339.059 0.796475 5.96607 0
M  V30 3651 H 342.885 1.37194 2.70946 0
M  V30 3652 H 340.47 0.732875 1.30189 0
M  V30 3653 H 342.352 -0.597564 4.17142 0
M  V30 3654 H 341.027 -1.04673 3.06309 0
M  V30 3655 H 339.934 1.22185 3.53584 0
M  V30 3656 H 341.267 1.58896 4.65846 0
M  V30 3657 N 342.919 -1.39368 0.735821 0
M  V30 3658 C 343.829 -2.34395 0.0979693 0
M  V30 3659 C 344.845 -1.58361 -0.720968 0
M  V30 3660 O 346.021 -1.90648 -0.649245 0
M  V30 3661 C 343.086 -3.37393 -0.797916 0
M  V30 3662 C 342.147 -4.29287 0.0333662 0
M  V30 3663 C 341.38 -5.27365 -0.819854 0
M  V30 3664 O 341.603 -5.31959 -2.05855 0
M  V30 3665 O 340.537 -6.01389 -0.248079 0
M  V30 3666 H 344.363 -2.90601 0.882315 0
M  V30 3667 H 341.948 -1.40909 0.4965 0
M  V30 3668 H 343.83 -4.00505 -1.31048 0
M  V30 3669 H 342.505 -2.83571 -1.56106 0
M  V30 3670 H 341.412 -3.69395 0.591475 0
M  V30 3671 H 342.745 -4.86317 0.758752 0
M  V30 3672 N 344.397 -0.483516 -1.5 0
M  V30 3673 C 345.307 0.309172 -2.32554 0
M  V30 3674 C 346.323 0.984159 -1.43493 0
M  V30 3675 O 347.499 0.969399 -1.76535 0
M  V30 3676 C 344.564 1.36979 -3.18493 0
M  V30 3677 C 343.625 0.710095 -4.23387 0
M  V30 3678 C 342.858 1.72018 -5.05218 0
M  V30 3679 O 343.081 2.94813 -4.88305 0
M  V30 3680 O 342.015 1.28515 -5.8802 0
M  V30 3681 H 345.841 -0.366064 -3.01486 0
M  V30 3682 H 343.426 -0.24514 -1.47375 0
M  V30 3683 H 345.308 1.98385 -3.71781 0
M  V30 3684 H 343.983 2.02828 -2.52275 0
M  V30 3685 H 342.89 0.0567539 -3.74057 0
M  V30 3686 H 344.223 0.0943557 -4.9211 0
M  V30 3687 N 345.875 1.56104 -0.216619 0
M  V30 3688 C 347.291 1.58995 0.13886 0
M  V30 3689 C 347.491 1.23333 1.59346 0
M  V30 3690 O 346.547 0.966234 2.33281 0
M  V30 3691 C 347.86 3.00143 -0.182968 0
M  V30 3692 C 349.408 3.12751 -0.124807 0
M  V30 3693 C 349.883 4.56068 -0.420241 0
M  V30 3694 N 351.374 4.61723 -0.369634 0
M  V30 3695 C 352.109 5.70542 -0.571789 0
M  V30 3696 N 351.605 6.87744 -0.835453 0
M  V30 3697 N 353.398 5.59831 -0.504563 0
M  V30 3698 H 345.549 1.77562 -1.16557 0
M  V30 3699 H 347.812 0.825091 -0.466828 0
M  V30 3700 H 347.518 3.30871 -1.19237 0
M  V30 3701 H 347.392 3.73813 0.504367 0
M  V30 3702 H 349.779 2.81822 0.875223 0
M  V30 3703 H 349.86 2.41421 -0.845544 0
M  V30 3704 H 349.504 4.87713 -1.41769 0
M  V30 3705 H 349.434 5.25617 0.321631 0
M  V30 3706 H 351.925 3.77502 -0.173338 0
M  V30 3707 H 352.238 7.66587 -0.977938 0
M  V30 3708 H 350.583 6.895 -0.872592 0
M  V30 3709 H 353.774 4.67145 -0.298842 0
M  V30 3710 H 353.947 6.44573 -0.665519 0
M  V30 3711 N 347.353 -0.0568162 1.57498 0
M  V30 3712 C 348.283 -1.06593 2.0775 0
M  V30 3713 C 349.264 -1.39448 0.974082 0
M  V30 3714 O 350.449 -1.48815 1.24771 0
M  V30 3715 C 347.579 -2.37509 2.5339 0
M  V30 3716 C 346.533 -2.1897 3.67745 0
M  V30 3717 C 345.859 -3.55402 3.99492 0
M  V30 3718 C 347.159 -1.59859 4.97235 0
M  V30 3719 H 348.853 -0.647706 2.9231 0
M  V30 3720 H 346.399 -0.310116 1.40621 0
M  V30 3721 H 348.352 -3.08409 2.87162 0
M  V30 3722 H 347.076 -2.8134 1.65878 0
M  V30 3723 H 345.735 -1.50508 3.3428 0
M  V30 3724 H 345.383 -3.9683 3.09088 0
M  V30 3725 H 345.083 -3.43831 4.76502 0
M  V30 3726 H 346.607 -4.27708 4.35773 0
M  V30 3727 H 348.021 -2.20642 5.29141 0
M  V30 3728 H 346.418 -1.58942 5.78669 0
M  V30 3729 H 347.488 -0.561506 4.81638 0
M  V30 3730 N 348.832 -1.54138 -0.328536 0
M  V30 3731 C 350.248 -1.44736 -0.672574 0
M  V30 3732 C 350.448 -0.616217 -1.91846 0
M  V30 3733 O 349.504 -0.113067 -2.52247 0
M  V30 3734 C 350.817 -2.884 -0.851217 0
M  V30 3735 C 352.365 -2.98271 -0.948877 0
M  V30 3736 C 352.84 -4.43074 -1.15973 0
M  V30 3737 N 354.331 -4.46665 -1.22658 0
M  V30 3738 C 355.066 -5.55857 -1.40751 0
M  V30 3739 N 354.562 -6.75026 -1.5592 0
M  V30 3740 N 356.355 -5.43495 -1.4342 0
M  V30 3741 H 348.506 -2.06661 0.490421 0
M  V30 3742 H 350.769 -0.934812 0.157579 0
M  V30 3743 H 350.475 -3.51699 -0.00704236 0
M  V30 3744 H 350.349 -3.34225 -1.74853 0
M  V30 3745 H 352.736 -2.35102 -1.78356 0
M  V30 3746 H 352.817 -2.55785 -0.0281435 0
M  V30 3747 H 352.461 -5.06827 -0.329915 0
M  V30 3748 H 352.391 -4.83165 -2.09426 0
M  V30 3749 H 354.882 -3.60797 -1.124 0
M  V30 3750 H 355.195 -7.54004 -1.69404 0
M  V30 3751 H 353.54 -6.77944 -1.53027 0
M  V30 3752 H 356.731 -4.49349 -1.31162 0
M  V30 3753 H 356.904 -6.28649 -1.57178 0
M  V30 3754 N 350.31 0.590341 -1.46126 0
M  V30 3755 C 351.721 1.17243 -1.45296 0
M  V30 3756 C 352.072 1.95281 -0.189723 0
M  V30 3757 O 351.197 2.04502 0.707674 0
M  V30 3758 C 351.792 2.13284 -2.6324 0
M  V30 3759 C 350.351 2.66832 -2.65476 0
M  V30 3760 C 349.498 1.42557 -2.3785 0
M  V30 3761 H 352.449 0.378692 -1.54116 0
M  V30 3762 H 352.47 2.96619 -2.38323 0
M  V30 3763 H 351.982 1.56459 -3.55165 0
M  V30 3764 H 350.083 3.27548 -1.77603 0
M  V30 3765 H 350.196 3.10088 -3.65215 0
M  V30 3766 H 348.56 1.72107 -1.87753 0
M  V30 3767 H 349.343 0.875741 -3.31942 0
M  V30 3768 N 351.788 1.33704 0.83433 0
M  V30 3769 C 353.199 1.22813 1.4062 0
M  V30 3770 C 353.55 -0.151107 1.95617 0
M  V30 3771 O 352.675 -1.05092 1.89168 0
M  V30 3772 C 353.27 2.22355 2.55624 0
M  V30 3773 C 351.829 2.1529 3.08751 0
M  V30 3774 C 350.976 2.09589 1.8157 0
M  V30 3775 H 353.927 1.45236 0.639702 0
M  V30 3776 H 353.948 1.83391 3.33389 0
M  V30 3777 H 353.46 3.22728 2.15566 0
M  V30 3778 H 351.561 1.18235 3.53343 0
M  V30 3779 H 351.674 3.06038 3.68616 0
M  V30 3780 H 350.038 1.55134 2.02004 0
M  V30 3781 H 350.821 3.11777 1.43701 0
M  V30 3782 N 353.266 -1.05314 1.17247 0
M  V30 3783 C 354.491 -1.82509 0.985148 0
M  V30 3784 C 354.916 -1.82343 -0.461788 0
M  V30 3785 O 354.274 -1.23151 -1.33055 0
M  V30 3786 C 354.322 -3.26566 1.52929 0
M  V30 3787 O 353.426 -4.05666 0.742225 0
M  V30 3788 H 352.767 -0.564347 0.349869 0
M  V30 3789 H 355.297 -1.32718 1.55715 0
M  V30 3790 H 355.307 -3.77369 1.55103 0
M  V30 3791 H 353.982 -3.26001 2.58256 0
M  V30 3792 H 352.559 -3.64397 0.791794 0
M  V30 3793 N 354.744 -0.972509 -1.24016 0
M  V30 3794 C 356.155 -0.67517 -1.74064 0
M  V30 3795 C 356.506 0.808939 -1.78747 0
M  V30 3796 O 355.631 1.63286 -1.42009 0
M  V30 3797 C 356.226 -1.21889 -3.16115 0
M  V30 3798 C 354.785 -0.971358 -3.6365 0
M  V30 3799 C 353.932 -1.35134 -2.42145 0
M  V30 3800 H 356.883 -1.14727 -1.09651 0
M  V30 3801 H 356.904 -0.587489 -3.75937 0
M  V30 3802 H 356.416 -2.29906 -3.12674 0
M  V30 3803 H 354.517 0.0930686 -3.72484 0
M  V30 3804 H 354.63 -1.62039 -4.50866 0
M  V30 3805 H 352.994 -0.769751 -2.4279 0
M  V30 3806 H 353.777 -2.4411 -2.41381 0
M  V30 3807 N 356.222 1.38976 -0.743202 0
M  V30 3808 C 357.633 1.83123 -0.363732 0
M  V30 3809 C 357.984 1.6205 1.10609 0
M  V30 3810 O 357.109 1.11606 1.854 0
M  V30 3811 C 357.704 3.32439 -0.653408 0
M  V30 3812 C 356.263 3.74974 -0.327338 0
M  V30 3813 C 355.41 2.61878 -0.911875 0
M  V30 3814 H 358.361 1.27852 -0.940191 0
M  V30 3815 H 358.382 3.80432 0.0720031 0
M  V30 3816 H 357.894 3.47745 -1.72323 0
M  V30 3817 H 355.995 3.65252 0.736314 0
M  V30 3818 H 356.108 4.72106 -0.815631 0
M  V30 3819 H 354.472 2.52448 -0.337944 0
M  V30 3820 H 355.255 2.79987 -1.98651 0
M  V30 3821 N 357.7 0.491464 1.49741 0
M  V30 3822 C 359.111 0.0413169 1.86654 0
M  V30 3823 C 359.462 -1.36985 1.40462 0
M  V30 3824 O 358.587 -2.01917 0.778354 0
M  V30 3825 C 359.182 0.0682023 3.38731 0
M  V30 3826 C 357.741 -0.32656 3.74981 0
M  V30 3827 C 356.888 0.444888 2.73708 0
M  V30 3828 H 359.839 0.704733 1.42194 0
M  V30 3829 H 359.86 -0.729322 3.73445 0
M  V30 3830 H 359.372 1.09539 3.72321 0
M  V30 3831 H 357.473 -1.35734 3.46997 0
M  V30 3832 H 357.586 -0.013741 4.79098 0
M  V30 3833 H 355.95 -0.104062 2.54487 0
M  V30 3834 H 356.733 1.47197 3.10142 0
M  V30 3835 N 359.178 -1.55987 0.224894 0
M  V30 3836 C 360.424 -1.98684 -0.406502 0
M  V30 3837 C 360.757 -1.11248 -1.59177 0
M  V30 3838 O 360.032 -0.170909 -1.93748 0
M  V30 3839 C 360.315 -3.50218 -0.837808 0
M  V30 3840 C 360.168 -4.48426 0.351332 0
M  V30 3841 C 361.487 -4.06243 -1.69278 0
M  V30 3842 H 358.606 -0.722337 -0.146283 0
M  V30 3843 H 361.248 -1.87255 0.321799 0
M  V30 3844 H 359.398 -3.60089 -1.45837 0
M  V30 3845 H 361.07 -4.50562 0.989526 0
M  V30 3846 H 359.313 -4.22159 0.998207 0
M  V30 3847 H 359.984 -5.52 0.00655905 0
M  V30 3848 H 362.46 -3.99337 -1.16914 0
M  V30 3849 H 361.336 -5.12581 -1.96346 0
M  V30 3850 H 361.597 -3.53332 -2.65723 0
M  V30 3851 N 360.656 0.0484629 -1.57525 0
M  V30 3852 C 361.902 0.744226 -1.88651 0
M  V30 3853 C 362.235 1.76029 -0.820212 0
M  V30 3854 O 361.51 1.93782 0.166985 0
M  V30 3855 C 361.793 1.43128 -3.30434 0
M  V30 3856 C 361.646 0.43005 -4.47739 0
M  V30 3857 C 362.965 2.37031 -3.70816 0
M  V30 3858 H 360.084 0.269089 -0.68612 0
M  V30 3859 H 362.726 0.00713532 -1.89999 0
M  V30 3860 H 360.876 2.05956 -3.29415 0
M  V30 3861 H 362.548 -0.194816 -4.60888 0
M  V30 3862 H 360.791 -0.252522 -4.33064 0
M  V30 3863 H 361.462 0.948874 -5.43783 0
M  V30 3864 H 363.938 1.84263 -3.73077 0
M  V30 3865 H 362.814 2.82094 -4.70865 0
M  V30 3866 H 363.075 3.22864 -3.02012 0
M  V30 3867 N 362.134 1.5431 0.320358 0
M  V30 3868 C 363.084 1.803 1.39556 0
M  V30 3869 C 364.068 0.659166 1.46778 0
M  V30 3870 O 365.26 0.91926 1.51257 0
M  V30 3871 C 362.389 2.03665 2.76361 0
M  V30 3872 C 361.475 3.24178 2.73439 0
M  V30 3873 N 361.866 4.4516 2.40137 0
M  V30 3874 C 360.164 3.25816 3.04565 0
M  V30 3875 C 360.865 5.27109 2.4603 0
M  V30 3876 N 359.841 4.64368 2.82601 0
M  V30 3877 H 363.643 2.71416 1.12742 0
M  V30 3878 H 361.157 1.53548 0.528856 0
M  V30 3879 H 363.154 2.20425 3.53862 0
M  V30 3880 H 361.814 1.13805 3.04103 0
M  V30 3881 H 362.825 4.72104 2.12927 0
M  V30 3882 H 359.502 2.46001 3.37328 0
M  V30 3883 H 360.892 6.33728 2.23246 0
M  V30 3884 N 363.613 -0.582584 1.46437 0
M  V30 3885 C 364.843 -1.36484 1.55099 0
M  V30 3886 C 365.251 -1.88233 0.191056 0
M  V30 3887 O 364.594 -1.6429 -0.821858 0
M  V30 3888 C 364.656 -2.588 2.49525 0
M  V30 3889 C 364.32 -2.28517 3.95764 0
M  V30 3890 C 365.317 -1.87346 4.84972 0
M  V30 3891 C 363.002 -2.40658 4.40896 0
M  V30 3892 C 364.996 -1.5871 6.17325 0
M  V30 3893 C 362.683 -2.11635 5.73284 0
M  V30 3894 C 363.681 -1.70725 6.61318 0
M  V30 3895 O 363.369 -1.42057 7.91249 0
M  V30 3896 H 363.101 -0.423297 0.527063 0
M  V30 3897 H 365.655 -0.715188 1.92547 0
M  V30 3898 H 363.885 -3.26571 2.07095 0
M  V30 3899 H 365.574 -3.20868 2.48593 0
M  V30 3900 H 366.34 -1.77481 4.5136 0
M  V30 3901 H 362.219 -2.71463 3.72598 0
M  V30 3902 H 365.763 -1.26704 6.85997 0
M  V30 3903 H 361.66 -2.21124 6.06444 0
M  V30 3904 H 362.428 -1.55901 8.03515 0
M  V30 3905 N 365.091 -1.34144 -0.827227 0
M  V30 3906 C 366.316 -1.29476 -1.62021 0
M  V30 3907 C 366.741 0.129292 -1.87655 0
M  V30 3908 O 366.099 1.08967 -1.449 0
M  V30 3909 C 366.147 -2.08702 -2.94068 0
M  V30 3910 O 365.251 -1.45359 -3.85933 0
M  V30 3911 H 364.592 -0.444881 -0.492927 0
M  V30 3912 H 367.122 -1.76882 -1.02829 0
M  V30 3913 H 367.132 -2.19898 -3.43669 0
M  V30 3914 H 365.807 -3.12241 -2.74734 0
M  V30 3915 H 364.384 -1.42879 -3.44442 0
M  V30 3916 N 366.569 1.04691 -1.17803 0
M  V30 3917 C 367.846 1.7472 -0.879328 0
M  V30 3918 C 368.226 2.01812 0.619271 0
M  V30 3919 O 367.574 1.65824 1.57209 0
M  V30 3920 C 367.784 3.03686 -1.71976 0
M  V30 3921 C 369.132 3.77542 -1.94286 0
M  V30 3922 O 370.156 3.13569 -1.68976 0
M  V30 3923 O 369.015 4.92506 -2.36855 0
M  V30 3924 H 366.109 0.760011 -0.326056 0
M  V30 3925 H 368.655 1.10813 -1.28525 0
M  V30 3926 H 367.427 2.79754 -2.73594 0
M  V30 3927 H 367.05 3.75332 -1.31194 0
M  V30 3928 N 368.047 0.979072 1.23499 0
M  V30 3929 C 368.997 0.489378 2.22686 0
M  V30 3930 C 369.981 -0.434871 1.54912 0
M  V30 3931 O 371.173 -0.263941 1.75021 0
M  V30 3932 C 368.302 -0.208178 3.42668 0
M  V30 3933 C 367.388 0.735563 4.17672 0
M  V30 3934 N 367.779 1.87763 4.69658 0
M  V30 3935 C 366.077 0.548625 4.42613 0
M  V30 3936 C 366.778 2.46886 5.26709 0
M  V30 3937 N 365.754 1.75287 5.14563 0
M  V30 3938 H 369.556 1.36062 2.60508 0
M  V30 3939 H 367.07 0.83958 1.39014 0
M  V30 3940 H 369.067 -0.576295 4.12898 0
M  V30 3941 H 367.727 -1.07572 3.06363 0
M  V30 3942 H 368.738 2.25885 4.66043 0
M  V30 3943 H 365.415 -0.274006 4.166 0
M  V30 3944 H 366.805 3.43326 5.77561 0
M  V30 3945 N 369.525 -1.3858 0.750561 0
M  V30 3946 C 370.435 -2.34278 0.122825 0
M  V30 3947 C 371.451 -1.59116 -0.704131 0
M  V30 3948 O 372.627 -1.91326 -0.628987 0
M  V30 3949 C 369.692 -3.38221 -0.762086 0
M  V30 3950 C 368.753 -4.29227 0.078896 0
M  V30 3951 C 367.986 -5.28205 -0.763874 0
M  V30 3952 O 368.209 -5.34112 -2.00201 0
M  V30 3953 O 367.143 -6.01618 -0.18428 0
M  V30 3954 H 370.969 -2.89649 0.913088 0
M  V30 3955 H 368.554 -1.40374 0.511417 0
M  V30 3956 H 370.436 -4.01872 -1.26793 0
M  V30 3957 H 369.111 -2.85211 -1.5309 0
M  V30 3958 H 368.018 -3.68747 0.630621 0
M  V30 3959 H 369.351 -4.85484 0.810289 0
M  V30 3960 N 371.003 -0.499398 -1.49478 0
M  V30 3961 C 372.243 0.0440751 -2.04352 0
M  V30 3962 C 372.607 1.34423 -1.37093 0
M  V30 3963 O 373.808 1.97184 -1.82679 0
M  V30 3964 C 372.079 0.194918 -3.56868 0
M  V30 3965 S 373.638 0.69287 -4.33295 0
M  V30 3966 H 370.456 0.00253458 -0.710995 0
M  V30 3967 H 373.058 -0.673 -1.83551 0
M  V30 3968 H 371.762 -0.756672 -4.03364 0
M  V30 3969 H 371.293 0.93728 -3.82071 0
M  V30 3970 H 373.308 1.96226 -4.55752 0
M  V30 3971 N 372.481 1.55866 -0.233164 0
M  V30 3972 C 373.706 2.03449 0.402906 0
M  V30 3973 C 374.131 1.11166 1.51736 0
M  V30 3974 O 373.489 0.101996 1.81013 0
M  V30 3975 C 373.537 3.49165 0.9009 0
M  V30 3976 O 372.641 3.60019 2.01147 0
M  V30 3977 H 371.982 0.657913 0.0897025 0
M  V30 3978 H 374.512 2.01493 -0.355201 0
M  V30 3979 H 374.522 3.89716 1.2077 0
M  V30 3980 H 373.197 4.15813 0.0852889 0
M  V30 3981 H 371.774 3.3136 1.71042 0
M  V30 3982 N 373.959 -0.0401083 1.57549 0
M  V30 3983 C 375.208 -0.732108 1.87944 0
M  V30 3984 C 375.521 -1.77107 0.830206 0
M  V30 3985 O 376.727 -2.51488 1.02302 0
M  V30 3986 C 375.183 -1.35315 3.33494 0
M  V30 3987 C 374.791 -0.351105 4.46622 0
M  V30 3988 C 376.535 -2.02566 3.73051 0
M  V30 3989 C 374.442 -0.979859 5.83226 0
M  V30 3990 H 373.372 -0.277188 0.701201 0
M  V30 3991 H 376.023 0.0138501 1.83495 0
M  V30 3992 H 374.405 -2.14844 3.32653 0
M  V30 3993 H 375.579 0.416674 4.58912 0
M  V30 3994 H 373.894 0.218708 4.15825 0
M  V30 3995 H 376.491 -2.50441 4.72423 0
M  V30 3996 H 376.834 -2.83904 3.04474 0
M  V30 3997 H 377.367 -1.29827 3.76018 0
M  V30 3998 H 374.106 -0.206135 6.55176 0
M  V30 3999 H 373.626 -1.71774 5.74677 0
M  V30 4000 H 375.305 -1.49046 6.29599 0
M  V30 4001 N 375.437 -1.54477 -0.31217 0
M  V30 4002 C 376.683 -1.73483 -1.0503 0
M  V30 4003 C 377.016 -0.513125 -1.87298 0
M  V30 4004 O 376.291 0.489864 -1.8823 0
M  V30 4005 C 376.574 -3.01723 -1.96558 0
M  V30 4006 C 376.427 -4.3417 -1.17545 0
M  V30 4007 C 377.746 -3.25772 -2.95907 0
M  V30 4008 H 374.865 -0.631222 -0.380432 0
M  V30 4009 H 377.507 -1.87184 -0.325932 0
M  V30 4010 H 375.657 -2.90174 -2.58324 0
M  V30 4011 H 377.329 -4.5762 -0.581513 0
M  V30 4012 H 375.572 -4.31159 -0.477925 0
M  V30 4013 H 376.243 -5.20143 -1.84811 0
M  V30 4014 H 378.719 -3.36857 -2.44267 0
M  V30 4015 H 377.595 -4.16838 -3.57123 0
M  V30 4016 H 377.856 -2.43537 -3.68974 0
M  V30 4017 N 376.915 0.57481 -1.46744 0
M  V30 4018 C 377.878 1.66533 -1.57478 0
M  V30 4019 C 378.878 1.54338 -0.451263 0
M  V30 4020 O 380.068 1.58814 -0.715813 0
M  V30 4021 C 377.2 3.05999 -1.50259 0
M  V30 4022 H 378.393 1.58372 -2.54673 0
M  V30 4023 H 375.946 0.793301 -1.34672 0
M  V30 4024 H 376.681 3.19709 -0.543725 0
M  V30 4025 H 376.466 3.16259 -2.31781 0
M  V30 4026 H 377.956 3.8537 -1.60872 0
M  V30 4027 N 378.394 1.34581 0.820102 0
M  V30 4028 C 379.304 1.28471 1.96297 0
M  V30 4029 C 380.32 0.191902 1.72939 0
M  V30 4030 O 381.496 0.418879 1.96996 0
M  V30 4031 C 378.561 1.04281 3.30645 0
M  V30 4032 C 377.622 2.22745 3.66992 0
M  V30 4033 C 376.855 1.997 4.9493 0
M  V30 4034 O 377.078 0.956656 5.6232 0
M  V30 4035 O 376.012 2.86723 5.2922 0
M  V30 4036 H 379.838 2.24624 2.04396 0
M  V30 4037 H 377.423 1.14816 0.955913 0
M  V30 4038 H 379.305 0.925841 4.11104 0
M  V30 4039 H 377.98 0.111697 3.23507 0
M  V30 4040 H 376.887 2.40003 2.86966 0
M  V30 4041 H 378.22 3.14257 3.78819 0
M  V30 4042 N 379.872 -1.04064 1.18357 0
M  V30 4043 C 380.819 -2.12077 0.910603 0
M  V30 4044 C 381.789 -1.65421 -0.15 0
M  V30 4045 O 382.974 -1.90797 -0.0103614 0
M  V30 4046 C 380.114 -3.42252 0.442472 0
M  V30 4047 C 379.227 -4.0252 1.5685 0
M  V30 4048 C 378.362 -5.20657 1.05309 0
M  V30 4049 C 377.401 -5.72955 2.1538 0
M  V30 4050 N 376.538 -6.8238 1.65233 0
M  V30 4051 H 381.378 -2.34764 1.83548 0
M  V30 4052 H 378.915 -1.15157 0.915279 0
M  V30 4053 H 380.873 -4.16921 0.152534 0
M  V30 4054 H 379.503 -3.19712 -0.445428 0
M  V30 4055 H 378.555 -3.25178 1.97391 0
M  V30 4056 H 379.867 -4.37362 2.39824 0
M  V30 4057 H 379.021 -6.0244 0.717677 0
M  V30 4058 H 377.76 -4.87318 0.19293 0
M  V30 4059 H 376.765 -4.89793 2.49766 0
M  V30 4060 H 377.99 -6.08337 3.01832 0
M  V30 4061 H 375.936 -6.50917 0.815064 0
M  V30 4062 H 375.853 -7.16286 2.41805 0
M  V30 4063 H 377.121 -7.67788 1.34619 0
M  V30 4064 N 381.35 -0.985608 -1.22978 0
M  V30 4065 C 382.28 -0.549649 -2.26939 0
M  V30 4066 C 383.261 0.419803 -1.64838 0
M  V30 4067 O 384.446 0.31203 -1.91677 0
M  V30 4068 C 381.576 0.143652 -3.47003 0
M  V30 4069 C 380.53 -0.743606 -4.21491 0
M  V30 4070 C 379.856 0.0822027 -5.34637 0
M  V30 4071 C 381.156 -2.03694 -4.80943 0
M  V30 4072 H 382.85 -1.41862 -2.63658 0
M  V30 4073 H 380.396 -0.683571 -1.26741 0
M  V30 4074 H 382.349 0.459985 -4.18882 0
M  V30 4075 H 381.073 1.04711 -3.09359 0
M  V30 4076 H 379.732 -1.04347 -3.51436 0
M  V30 4077 H 379.38 0.986359 -4.93234 0
M  V30 4078 H 379.08 -0.508377 -5.85397 0
M  V30 4079 H 380.604 0.392797 -6.09335 0
M  V30 4080 H 382.018 -1.78504 -5.44802 0
M  V30 4081 H 380.415 -2.57573 -5.42011 0
M  V30 4082 H 381.485 -2.72042 -4.01399 0
M  V30 4083 N 382.828 1.3818 -0.7579 0
M  V30 4084 C 383.775 2.30416 -0.133057 0
M  V30 4085 C 384.745 1.50398 0.704957 0
M  V30 4086 O 385.93 1.79014 0.660192 0
M  V30 4087 C 383.07 3.36834 0.750813 0
M  V30 4088 C 382.183 4.31879 -0.102297 0
M  V30 4089 C 381.318 5.25368 0.784979 0
M  V30 4090 C 380.357 6.12058 -0.0715046 0
M  V30 4091 N 379.494 6.97832 0.772972 0
M  V30 4092 H 384.334 2.83274 -0.925186 0
M  V30 4093 H 381.871 1.39461 -0.467866 0
M  V30 4094 H 383.829 3.97145 1.27794 0
M  V30 4095 H 382.459 2.85374 1.50868 0
M  V30 4096 H 381.511 3.72991 -0.747095 0
M  V30 4097 H 382.823 4.92921 -0.763552 0
M  V30 4098 H 381.977 5.90818 1.37911 0
M  V30 4099 H 380.716 4.64703 1.47996 0
M  V30 4100 H 379.721 5.456 -0.678272 0
M  V30 4101 H 380.946 6.74793 -0.763606 0
M  V30 4102 H 378.892 6.3971 1.45282 0
M  V30 4103 H 378.809 7.55812 0.168709 0
M  V30 4104 H 380.077 7.67687 1.35194 0
M  V30 4105 N 384.306 0.507319 1.49211 0
M  V30 4106 C 385.583 -0.0982702 1.95353 0
M  V30 4107 C 385.963 -1.53516 1.449 0
M  V30 4108 O 385.311 -2.18594 0.66551 0
M  V30 4109 C 385.521 -0.00440283 3.49 0
M  V30 4110 C 386.869 -0.175147 4.24239 0
M  V30 4111 O 387.893 -0.0792891 3.56112 0
M  V30 4112 O 386.752 -0.37276 5.45227 0
M  V30 4113 H 383.846 -0.0918236 0.821887 0
M  V30 4114 H 386.392 0.570307 1.5983 0
M  V30 4115 H 385.164 0.997402 3.78375 0
M  V30 4116 H 384.787 -0.712845 3.91158 0
M  V30 4117 N 385.784 -1.5574 0.241426 0
M  V30 4118 C 387.061 -1.90704 -0.434881 0
M  V30 4119 C 387.441 -1.16145 -1.76277 0
M  V30 4120 O 386.789 -0.277152 -2.26813 0
M  V30 4121 C 386.999 -3.43657 -0.608343 0
M  V30 4122 C 388.347 -4.14806 -0.906725 0
M  V30 4123 O 389.371 -3.49366 -0.694408 0
M  V30 4124 O 388.23 -5.30548 -1.31075 0
M  V30 4125 H 385.324 -0.793592 -0.23268 0
M  V30 4126 H 387.87 -1.67288 0.285086 0
M  V30 4127 H 386.642 -3.89927 0.327505 0
M  V30 4128 H 386.265 -3.72918 -1.37906 0
M  V30 4129 N 387.262 0.0317525 -1.57568 0
M  V30 4130 C 388.487 0.738664 -1.938 0
M  V30 4131 C 388.912 1.68242 -0.841208 0
M  V30 4132 O 388.27 1.80157 0.203267 0
M  V30 4133 C 388.318 1.47417 -3.29091 0
M  V30 4134 O 387.422 2.5872 -3.2115 0
M  V30 4135 H 386.763 0.198856 -0.633524 0
M  V30 4136 H 389.293 -0.0119713 -2.04596 0
M  V30 4137 H 389.303 1.84468 -3.63917 0
M  V30 4138 H 387.978 0.781988 -4.08482 0
M  V30 4139 H 386.555 2.24231 -2.97951 0
M  V30 4140 N 388.74 1.54641 0.303973 0
M  V30 4141 C 389.687 1.85386 1.37479 0
M  V30 4142 C 390.657 0.702528 1.50512 0
M  V30 4143 O 391.842 0.950867 1.65418 0
M  V30 4144 C 388.982 2.10413 2.73533 0
M  V30 4145 C 388.095 3.38049 2.68974 0
M  V30 4146 C 387.23 3.52934 3.97002 0
M  V30 4147 C 386.269 4.74373 3.86829 0
M  V30 4148 N 385.406 4.8608 5.06627 0
M  V30 4149 H 390.246 2.76732 1.1056 0
M  V30 4150 H 387.783 1.37034 0.534805 0
M  V30 4151 H 389.741 2.22919 3.52652 0
M  V30 4152 H 388.371 1.22338 2.98719 0
M  V30 4153 H 387.423 3.3418 1.81736 0
M  V30 4154 H 388.735 4.27288 2.57346 0
M  V30 4155 H 387.889 3.65088 4.84557 0
M  V30 4156 H 386.628 2.61824 4.1146 0
M  V30 4157 H 385.633 4.62255 2.97658 0
M  V30 4158 H 386.858 5.66888 3.73918 0
M  V30 4159 H 384.804 3.97891 5.21554 0
M  V30 4160 H 384.721 5.69315 4.9741 0
M  V30 4161 H 385.989 5.02587 5.95841 0
M  V30 4162 N 390.218 -0.567019 1.47046 0
M  V30 4163 C 391.465 -1.32462 1.53167 0
M  V30 4164 C 391.793 -1.93571 0.189841 0
M  V30 4165 O 391.048 -1.77865 -0.816243 0
M  V30 4166 C 391.347 -2.4623 2.59047 0
M  V30 4167 C 391.013 -2.03014 4.02612 0
M  V30 4168 C 389.675 -1.90944 4.41694 0
M  V30 4169 C 392.027 -1.69895 4.92732 0
M  V30 4170 C 389.355 -1.44035 5.68745 0
M  V30 4171 C 391.707 -1.2446 6.20236 0
M  V30 4172 C 390.371 -1.10979 6.5821 0
M  V30 4173 H 389.641 -0.484713 0.560477 0
M  V30 4174 H 392.288 -0.636888 1.80599 0
M  V30 4175 H 390.593 -3.20517 2.25335 0
M  V30 4176 H 392.29 -3.04427 2.61008 0
M  V30 4177 H 388.88 -2.13348 3.71726 0
M  V30 4178 H 393.064 -1.78098 4.63244 0
M  V30 4179 H 388.32 -1.32254 5.96925 0
M  V30 4180 H 392.494 -0.978924 6.89485 0
M  V30 4181 H 390.121 -0.744078 7.5655 0
M  V30 4182 N 391.696 -1.35014 -0.812953 0
M  V30 4183 C 392.921 -1.31187 -1.60639 0
M  V30 4184 C 393.346 0.109382 -1.87782 0
M  V30 4185 O 392.704 1.07424 -1.46047 0
M  V30 4186 C 392.752 -2.11809 -2.91838 0
M  V30 4187 O 391.856 -1.49444 -3.8437 0
M  V30 4188 H 391.197 -0.450084 -0.488181 0
M  V30 4189 H 393.727 -1.77963 -1.00947 0
M  V30 4190 H 393.737 -2.23531 -3.41318 0
M  V30 4191 H 392.412 -3.15137 -2.71407 0
M  V30 4192 H 390.989 -1.46524 -3.42907 0
M  V30 4193 N 393.175 1.03435 -1.18907 0
M  V30 4194 C 394.085 2.15075 -0.937015 0
M  V30 4195 C 395.101 1.73706 0.101085 0
M  V30 4196 O 396.277 2.01232 -0.0822948 0
M  V30 4197 C 393.342 3.43458 -0.473057 0
M  V30 4198 C 392.403 3.99172 -1.57989 0
M  V30 4199 C 391.636 5.21427 -1.13797 0
M  V30 4200 O 391.859 5.704 0.000725941 0
M  V30 4201 O 390.793 5.69837 -1.9383 0
M  V30 4202 H 394.619 2.39198 -1.87131 0
M  V30 4203 H 392.204 1.13506 -0.971427 0
M  V30 4204 H 394.086 4.20811 -0.222702 0
M  V30 4205 H 392.761 3.20793 0.432869 0
M  V30 4206 H 391.668 3.23178 -1.88433 0
M  V30 4207 H 393.001 4.2619 -2.46217 0
M  V30 4208 N 394.653 0.992116 1.22453 0
M  V30 4209 C 395.616 0.546883 2.2258 0
M  V30 4210 C 396.616 -0.369829 1.56489 0
M  V30 4211 O 397.806 -0.161896 1.73446 0
M  V30 4212 C 394.938 -0.204659 3.40285 0
M  V30 4213 H 396.131 1.43234 2.63484 0
M  V30 4214 H 393.684 0.779239 1.3549 0
M  V30 4215 H 394.419 -1.10614 3.04853 0
M  V30 4216 H 394.204 0.45354 3.89468 0
M  V30 4217 H 395.694 -0.504358 4.14543 0
M  V30 4218 N 396.131 -1.37776 0.765217 0
M  V30 4219 C 397.377 -2.00145 0.327072 0
M  V30 4220 C 397.71 -1.60607 -1.09175 0
M  V30 4221 O 396.985 -0.849127 -1.74986 0
M  V30 4222 C 397.268 -3.57109 0.46319 0
M  V30 4223 C 397.121 -4.06576 1.92395 0
M  V30 4224 C 398.44 -4.39888 -0.136473 0
M  V30 4225 H 395.559 -0.727113 0.120316 0
M  V30 4226 H 398.201 -1.63549 0.967039 0
M  V30 4227 H 396.351 -3.88414 -0.0816358 0
M  V30 4228 H 398.023 -3.85864 2.52798 0
M  V30 4229 H 396.266 -3.59011 2.43503 0
M  V30 4230 H 396.937 -5.15639 1.97028 0
M  V30 4231 H 399.413 -4.14803 0.328317 0
M  V30 4232 H 398.289 -5.48899 -0.0110582 0
M  V30 4233 H 398.55 -4.24758 -1.22608 0
M  V30 4234 N 397.609 -0.515225 -1.4894 0
M  V30 4235 C 398.541 0.292481 -2.27326 0
M  V30 4236 C 399.554 0.917838 -1.3446 0
M  V30 4237 O 400.743 0.798772 -1.5963 0
M  V30 4238 C 397.843 1.42803 -3.07344 0
M  V30 4239 C 397.016 0.907347 -4.27885 0
M  V30 4240 C 396.075 1.92222 -4.89834 0
M  V30 4241 O 395.101 1.48506 -5.49486 0
M  V30 4242 N 396.303 3.25355 -4.80754 0
M  V30 4243 H 399.068 -0.379721 -2.97285 0
M  V30 4244 H 396.629 -0.348638 -1.58102 0
M  V30 4245 H 398.621 2.10481 -3.45658 0
M  V30 4246 H 397.191 2.00414 -2.39902 0
M  V30 4247 H 396.411 0.0550218 -3.94162 0
M  V30 4248 H 397.699 0.538108 -5.05946 0
M  V30 4249 H 397.097 3.6355 -4.33414 0
M  V30 4250 H 395.654 3.88707 -5.23211 0
M  V30 4251 N 399.087 1.5561 -0.249682 0
M  V30 4252 C 400.315 2.03411 0.378352 0
M  V30 4253 C 400.73 1.12886 1.51335 0
M  V30 4254 O 400.087 0.143833 1.81932 0
M  V30 4255 C 400.138 3.50537 0.88351 0
M  V30 4256 O 399.859 4.37614 -0.20626 0
M  V30 4257 C 401.36 4.14113 1.58195 0
M  V30 4258 H 398.58 0.664994 0.08958 0
M  V30 4259 H 401.124 2.01044 -0.374357 0
M  V30 4260 H 399.279 3.5343 1.58639 0
M  V30 4261 H 399.693 5.24199 0.177782 0
M  V30 4262 H 401.167 5.18741 1.8871 0
M  V30 4263 H 401.644 3.60767 2.50487 0
M  V30 4264 H 402.25 4.15151 0.923573 0
M  V30 4265 N 400.565 -0.0233959 1.57583 0
M  V30 4266 C 401.495 -1.02162 2.09965 0
M  V30 4267 C 402.476 -1.3735 1.00344 0
M  V30 4268 O 403.661 -1.46135 1.27899 0
M  V30 4269 C 400.791 -2.32081 2.58371 0
M  V30 4270 C 399.745 -2.1112 3.72307 0
M  V30 4271 C 399.071 -3.46848 4.06941 0
M  V30 4272 C 400.371 -1.49276 5.00514 0
M  V30 4273 H 402.065 -0.585557 2.93618 0
M  V30 4274 H 399.611 -0.280218 1.41247 0
M  V30 4275 H 401.564 -3.02249 2.93639 0
M  V30 4276 H 400.288 -2.77758 1.71808 0
M  V30 4277 H 398.947 -1.43384 3.37397 0
M  V30 4278 H 398.595 -3.90184 3.17436 0
M  V30 4279 H 398.295 -3.33646 4.83688 0
M  V30 4280 H 399.819 -4.18369 4.44747 0
M  V30 4281 H 401.233 -2.09368 5.33702 0
M  V30 4282 H 399.63 -1.46632 5.8191 0
M  V30 4283 H 400.7 -0.459217 4.82721 0
M  V30 4284 N 402.043 -1.548 -0.295768 0
M  V30 4285 C 402.973 -1.89115 -1.36959 0
M  V30 4286 C 403.954 -0.75059 -1.52644 0
M  V30 4287 O 405.139 -1.00678 -1.66065 0
M  V30 4288 C 402.269 -2.14307 -2.73295 0
M  V30 4289 C 401.223 -3.30151 -2.72368 0
M  V30 4290 C 400.549 -3.40772 -4.12042 0
M  V30 4291 C 401.849 -4.67126 -2.33646 0
M  V30 4292 H 403.543 -2.79053 -1.08488 0
M  V30 4293 H 401.089 -1.34266 -0.520443 0
M  V30 4294 H 403.042 -2.36898 -3.48507 0
M  V30 4295 H 401.766 -1.21145 -3.03301 0
M  V30 4296 H 400.425 -3.0749 -1.99613 0
M  V30 4297 H 400.073 -2.45117 -4.39234 0
M  V30 4298 H 399.773 -4.18645 -4.12322 0
M  V30 4299 H 401.297 -3.6563 -4.89027 0
M  V30 4300 H 402.711 -4.89414 -2.98575 0
M  V30 4301 H 401.108 -5.47751 -2.45129 0
M  V30 4302 H 402.178 -4.67489 -1.28772 0
M  V30 4303 N 403.521 0.559213 -1.47345 0
M  V30 4304 C 404.749 1.34194 -1.57479 0
M  V30 4305 C 405.164 1.87463 -0.224261 0
M  V30 4306 O 404.521 1.64888 0.782185 0
M  V30 4307 C 404.572 2.51324 -2.59843 0
M  V30 4308 O 404.293 2.00256 -3.89653 0
M  V30 4309 C 405.794 3.43563 -2.80142 0
M  V30 4310 H 403.014 0.409136 -0.531835 0
M  V30 4311 H 405.558 0.677609 -1.92947 0
M  V30 4312 H 403.713 3.13699 -2.27314 0
M  V30 4313 H 404.127 2.76708 -4.4557 0
M  V30 4314 H 405.601 4.2217 -3.55635 0
M  V30 4315 H 406.078 3.9698 -1.87892 0
M  V30 4316 H 406.684 2.87005 -3.1386 0
M  V30 4317 N 404.999 1.35443 0.805782 0
M  V30 4318 C 406.245 1.2996 1.56467 0
M  V30 4319 C 406.6 -0.124742 1.91995 0
M  V30 4320 O 405.893 -1.07533 1.58579 0
M  V30 4321 C 406.087 2.14045 2.86216 0
M  V30 4322 C 405.916 3.64512 2.63365 0
M  V30 4323 C 404.686 4.33744 2.59219 0
M  V30 4324 C 406.884 4.58142 2.33688 0
M  V30 4325 N 404.866 5.69953 2.28094 0
M  V30 4326 C 406.237 5.8248 2.12408 0
M  V30 4327 C 408.292 4.46877 2.19558 0
M  V30 4328 C 406.995 6.96818 1.78429 0
M  V30 4329 C 409.021 5.61065 1.86976 0
M  V30 4330 C 408.383 6.84431 1.66532 0
M  V30 4331 H 404.482 0.530817 0.574245 0
M  V30 4332 H 407.066 1.70333 0.943126 0
M  V30 4333 H 405.237 1.75942 3.46264 0
M  V30 4334 H 406.969 2.00075 3.51784 0
M  V30 4335 H 403.724 3.86365 2.73896 0
M  V30 4336 H 404.148 6.41845 2.15323 0
M  V30 4337 H 408.79 3.52102 2.34061 0
M  V30 4338 H 406.508 7.91559 1.62664 0
M  V30 4339 H 410.094 5.54302 1.7675 0
M  V30 4340 H 408.974 7.71294 1.41688 0
M  V30 4341 N 406.477 -1.02803 1.19454 0
M  V30 4342 C 407.726 -1.7562 0.991996 0
M  V30 4343 C 408.039 -1.89672 -0.477901 0
M  V30 4344 O 409.245 -2.59468 -0.799287 0
M  V30 4345 C 407.701 -3.15812 1.72601 0
M  V30 4346 C 407.309 -3.0981 3.23607 0
M  V30 4347 C 409.053 -3.92918 1.60674 0
M  V30 4348 C 406.96 -4.44939 3.89594 0
M  V30 4349 H 405.89 -0.658352 0.367543 0
M  V30 4350 H 408.541 -1.15044 1.42959 0
M  V30 4351 H 406.923 -3.7686 1.21624 0
M  V30 4352 H 408.097 -2.58138 3.81709 0
M  V30 4353 H 406.412 -2.46201 3.35819 0
M  V30 4354 H 409.009 -4.9287 2.07323 0
M  V30 4355 H 409.352 -4.12502 0.561025 0
M  V30 4356 H 409.885 -3.38472 2.09001 0
M  V30 4357 H 406.624 -4.30559 4.94267 0
M  V30 4358 H 406.144 -4.96664 3.36281 0
M  V30 4359 H 407.823 -5.1382 3.93189 0
M  V30 4360 N 407.956 -0.998596 -1.21925 0
M  V30 4361 C 408.866 -0.562736 -2.27751 0
M  V30 4362 C 409.882 0.391203 -1.69545 0
M  V30 4363 O 411.058 0.256625 -1.99758 0
M  V30 4364 C 408.123 0.11012 -3.46525 0
M  V30 4365 C 407.184 -0.887495 -4.20026 0
M  V30 4366 C 406.417 -0.246654 -5.3313 0
M  V30 4367 O 406.64 0.958088 -5.62296 0
M  V30 4368 O 405.574 -0.954374 -5.94286 0
M  V30 4369 H 409.4 -1.44329 -2.67213 0
M  V30 4370 H 406.985 -0.767135 -1.28201 0
M  V30 4371 H 408.867 0.486756 -4.18579 0
M  V30 4372 H 407.542 0.965154 -3.08976 0
M  V30 4373 H 406.449 -1.31517 -3.5022 0
M  V30 4374 H 407.782 -1.71191 -4.6147 0
M  V30 4375 N 409.434 1.37368 -0.772513 0
M  V30 4376 C 410.85 1.53059 -0.452231 0
M  V30 4377 C 411.05 1.73065 1.03203 0
M  V30 4378 O 410.106 1.75245 1.81784 0
M  V30 4379 C 411.419 2.72659 -1.26797 0
M  V30 4380 C 412.967 2.86521 -1.25995 0
M  V30 4381 C 413.442 4.09105 -2.05905 0
M  V30 4382 N 414.933 4.16219 -2.03263 0
M  V30 4383 C 415.668 5.10107 -2.61875 0
M  V30 4384 N 415.164 6.09547 -3.29278 0
M  V30 4385 N 416.957 5.02596 -2.51701 0
M  V30 4386 H 409.108 1.22634 -1.7342 0
M  V30 4387 H 411.371 0.597206 -0.736239 0
M  V30 4388 H 411.077 2.64343 -2.31982 0
M  V30 4389 H 410.951 3.66363 -0.897672 0
M  V30 4390 H 413.338 2.94308 -0.216081 0
M  V30 4391 H 413.419 1.93774 -1.66989 0
M  V30 4392 H 413.063 4.0208 -3.10313 0
M  V30 4393 H 412.993 5.00968 -1.62292 0
M  V30 4394 H 415.484 3.45012 -1.54192 0
M  V30 4395 H 415.797 6.77718 -3.71374 0
M  V30 4396 H 414.142 6.09824 -3.33377 0
M  V30 4397 H 417.333 4.23855 -1.98657 0
M  V30 4398 H 417.506 5.75582 -2.97673 0
M  V30 4399 N 410.912 0.523116 1.48665 0
M  V30 4400 C 412.16 -0.0134497 2.02096 0
M  V30 4401 C 412.481 -1.35418 1.40311 0
M  V30 4402 O 411.751 -1.87543 0.566074 0
M  V30 4403 H 410.331 -0.00795915 0.746958 0
M  V30 4404 H 412.993 0.685388 1.82451 0
M  V30 4405 H 412.089 -0.126849 3.11842 0
M  V30 4406 N 412.39 -1.55475 0.257931 0
M  V30 4407 C 413.3 -2.2549 -0.647425 0
M  V30 4408 C 414.316 -1.2748 -1.18427 0
M  V30 4409 O 415.492 -1.6038 -1.2182 0
M  V30 4410 C 412.557 -2.94916 -1.82278 0
M  V30 4411 C 411.618 -4.08363 -1.32432 0
M  V30 4412 C 410.851 -4.74469 -2.44366 0
M  V30 4413 O 411.074 -4.39701 -3.63344 0
M  V30 4414 O 410.008 -5.62763 -2.13497 0
M  V30 4415 H 413.834 -3.03593 -0.0807707 0
M  V30 4416 H 411.419 -1.49377 0.0259962 0
M  V30 4417 H 413.301 -3.38606 -2.50846 0
M  V30 4418 H 411.976 -2.19744 -2.37685 0
M  V30 4419 H 410.883 -3.69166 -0.605605 0
M  V30 4420 H 412.216 -4.85385 -0.816211 0
M  V30 4421 N 413.868 0.0150385 -1.57593 0
M  V30 4422 C 415.114 0.704043 -1.90187 0
M  V30 4423 C 415.447 1.74249 -0.857366 0
M  V30 4424 O 414.722 1.94092 0.125843 0
M  V30 4425 C 415.005 1.36087 -3.33395 0
M  V30 4426 C 414.858 0.334981 -4.48551 0
M  V30 4427 C 416.177 2.29112 -3.7576 0
M  V30 4428 H 413.296 0.254475 -0.691673 0
M  V30 4429 H 415.938 -0.0331678 -1.89971 0
M  V30 4430 H 414.088 1.98922 -3.3371 0
M  V30 4431 H 415.76 -0.292534 -4.60372 0
M  V30 4432 H 414.003 -0.344325 -4.32431 0
M  V30 4433 H 414.674 0.833316 -5.45674 0
M  V30 4434 H 417.15 1.76308 -3.76902 0
M  V30 4435 H 416.026 2.72043 -4.76743 0
M  V30 4436 H 416.287 3.16385 -3.08793 0
M  V30 4437 N 415.346 1.54954 0.287554 0
M  V30 4438 C 416.294 1.87606 1.37502 0
M  V30 4439 C 417.288 0.751001 1.51843 0
M  V30 4440 O 418.494 0.935169 1.53801 0
M  V30 4441 H 414.869 0.595231 0.459569 0
M  V30 4442 H 416.84 2.78477 1.07206 0
M  V30 4443 C 415.589 2.15183 2.73115 0
M  V30 4444 H 414.912 3.01234 2.62866 0
M  V30 4445 H 416.352 2.4196 3.48183 0
M  V30 4446 C 414.811 0.954686 3.2309 0
M  V30 4447 O 415.341 0.181949 4.01288 0
M  V30 4448 N 413.547 0.756368 2.80584 0
M  V30 4449 H 413.094 1.38643 2.17108 0
M  V30 4450 H 413.052 -0.0430391 3.14371 0
M  V30 4451 N 416.824 -0.551391 1.4764 0
M  V30 4452 C 418.24 -0.877887 1.33287 0
M  V30 4453 C 418.44 -1.98817 0.327721 0
M  V30 4454 O 417.496 -2.51171 -0.258695 0
M  V30 4455 C 418.809 -1.26563 2.72768 0
M  V30 4456 C 420.357 -1.37673 2.81097 0
M  V30 4457 C 420.832 -1.79799 4.21232 0
M  V30 4458 N 422.323 -1.8694 4.23802 0
M  V30 4459 C 423.058 -2.20876 5.29151 0
M  V30 4460 N 422.554 -2.53386 6.448 0
M  V30 4461 N 424.347 -2.217 5.16532 0
M  V30 4462 H 416.498 0.18153 2.11623 0
M  V30 4463 H 418.761 0.0185514 0.947818 0
M  V30 4464 H 418.467 -0.523591 3.47781 0
M  V30 4465 H 418.341 -2.22052 3.04915 0
M  V30 4466 H 420.728 -2.10956 2.06353 0
M  V30 4467 H 420.809 -0.40357 2.52596 0
M  V30 4468 H 420.453 -1.07083 4.96483 0
M  V30 4469 H 420.383 -2.78128 4.4716 0
M  V30 4470 H 422.874 -1.64179 3.40373 0
M  V30 4471 H 423.187 -2.78325 7.20941 0
M  V30 4472 H 421.532 -2.50953 6.48111 0
M  V30 4473 H 424.723 -1.95745 4.25207 0
M  V30 4474 H 424.896 -2.47818 5.98741 0
M  V30 4475 N 418.302 -1.35869 -0.798587 0
M  V30 4476 C 419.718 -1.16082 -1.09532 0
M  V30 4477 C 419.918 0.0213124 -2.01489 0
M  V30 4478 O 418.974 0.689488 -2.42904 0
M  V30 4479 C 420.287 -2.46748 -1.7186 0
M  V30 4480 C 421.835 -2.53028 -1.84244 0
M  V30 4481 C 422.31 -3.83758 -2.49988 0
M  V30 4482 N 423.801 -3.85053 -2.57465 0
M  V30 4483 C 424.536 -4.8294 -3.09122 0
M  V30 4484 N 424.032 -5.91217 -3.61157 0
M  V30 4485 N 425.825 -4.70369 -3.0775 0
M  V30 4486 H 417.976 -2.11571 -0.187461 0
M  V30 4487 H 420.239 -0.936726 -0.145765 0
M  V30 4488 H 419.945 -3.33471 -1.11759 0
M  V30 4489 H 419.819 -2.61883 -2.71472 0
M  V30 4490 H 422.206 -1.66729 -2.43486 0
M  V30 4491 H 422.287 -2.418 -0.834643 0
M  V30 4492 H 421.931 -4.70459 -1.91393 0
M  V30 4493 H 421.861 -3.92278 -3.5132 0
M  V30 4494 H 424.352 -3.06822 -2.20609 0
M  V30 4495 H 424.665 -6.61892 -3.98896 0
M  V30 4496 H 423.01 -5.94899 -3.59333 0
M  V30 4497 H 426.201 -3.84914 -2.66381 0
M  V30 4498 H 426.374 -5.46816 -3.47701 0
M  V30 4499 N 419.78 1.02168 -1.19998 0
M  V30 4500 C 421.005 1.79833 -1.03319 0
M  V30 4501 C 421.43 1.83504 0.413281 0
M  V30 4502 O 420.788 1.26635 1.29743 0
M  V30 4503 C 420.836 3.22396 -1.61533 0
M  V30 4504 O 419.94 4.03555 -0.849519 0
M  V30 4505 H 419.281 0.554872 -0.364709 0
M  V30 4506 H 421.811 1.28542 -1.59179 0
M  V30 4507 H 421.821 3.73124 -1.65054 0
M  V30 4508 H 420.496 3.19039 -2.66809 0
M  V30 4509 H 419.073 3.62169 -0.888129 0
M  V30 4510 N 421.258 1.00505 1.21394 0
M  V30 4511 C 422.221 0.570459 2.21987 0
M  V30 4512 C 423.221 -0.353211 1.56873 0
M  V30 4513 O 424.411 -0.14349 1.73608 0
M  V30 4514 C 421.543 -0.168555 3.40483 0
M  V30 4515 H 422.736 1.46021 2.6195 0
M  V30 4516 H 420.289 0.793565 1.34656 0
M  V30 4517 H 421.024 -1.07374 3.06009 0
M  V30 4518 H 420.809 0.494823 3.88965 0
M  V30 4519 H 422.299 -0.460362 4.15055 0
M  V30 4520 N 422.737 -1.36956 0.779787 0
M  V30 4521 C 423.685 -2.32053 0.15942 0
M  V30 4522 C 424.679 -1.55333 -0.675878 0
M  V30 4523 O 425.885 -1.70668 -0.57204 0
M  V30 4524 H 422.26 -0.751286 0.0327707 0
M  V30 4525 H 424.231 -2.8195 0.977078 0
M  V30 4526 C 422.98 -3.40602 -0.698977 0
M  V30 4527 H 422.303 -3.99746 -0.0655966 0
M  V30 4528 H 423.743 -4.09486 -1.09989 0
M  V30 4529 C 422.202 -2.81359 -1.85307 0
M  V30 4530 O 422.732 -2.72751 -2.94906 0
M  V30 4531 N 420.938 -2.38786 -1.65619 0
M  V30 4532 H 420.485 -2.45987 -0.764725 0
M  V30 4533 H 420.443 -1.99493 -2.43002 0
M  V30 4534 N 424.215 -0.530993 -1.48385 0
M  V30 4535 C 425.163 0.244595 -2.3131 0
M  V30 4536 C 426.157 0.93451 -1.41291 0
M  V30 4537 O 427.363 0.85878 -1.58193 0
M  V30 4538 H 423.738 0.0977472 -0.74562 0
M  V30 4539 H 425.709 -0.474369 -2.94605 0
M  V30 4540 C 424.458 1.2779 -3.23365 0
M  V30 4541 H 423.781 0.756439 -3.92579 0
M  V30 4542 H 425.221 1.79198 -3.84271 0
M  V30 4543 C 423.68 2.31205 -2.45042 0
M  V30 4544 O 424.21 3.37661 -2.17596 0
M  V30 4545 N 422.416 2.04446 -2.0652 0
M  V30 4546 H 421.963 1.17891 -2.2904 0
M  V30 4547 H 421.921 2.73861 -1.54427 0
M  V30 4548 N 425.693 1.55336 -0.266172 0
M  V30 4549 C 426.94 1.99397 0.353158 0
M  V30 4550 C 427.268 1.15451 1.56529 0
M  V30 4551 O 426.523 0.209974 1.9457 0
M  V30 4552 C 426.822 3.48606 0.787957 0
M  V30 4553 C 426.488 4.49773 -0.318541 0
M  V30 4554 C 425.15 4.77158 -0.62239 0
M  V30 4555 C 427.502 5.10212 -1.06459 0
M  V30 4556 C 424.83 5.62251 -1.67602 0
M  V30 4557 C 427.182 5.96449 -2.10788 0
M  V30 4558 C 425.846 6.22158 -2.41817 0
M  V30 4559 H 425.116 0.729644 0.12923 0
M  V30 4560 H 427.763 1.87732 -0.37802 0
M  V30 4561 H 426.068 3.57701 1.59866 0
M  V30 4562 H 427.765 3.80098 1.27775 0
M  V30 4563 H 424.355 4.2854 -0.0715925 0
M  V30 4564 H 428.539 4.89086 -0.843098 0
M  V30 4565 H 423.795 5.80419 -1.92155 0
M  V30 4566 H 427.969 6.42317 -2.69076 0
M  V30 4567 H 425.596 6.87888 -3.23596 0
M  V30 4568 N 427.171 -0.0066808 1.57599 0
M  V30 4569 C 428.401 -0.703066 1.94269 0
M  V30 4570 C 428.809 -1.68206 0.866222 0
M  V30 4571 O 428.152 -1.82966 -0.164087 0
M  V30 4572 C 428.214 -1.49616 3.26887 0
M  V30 4573 C 427.878 -0.679494 4.5192 0
M  V30 4574 C 428.875 0.0299508 5.19891 0
M  V30 4575 C 426.56 -0.627433 4.98366 0
M  V30 4576 C 428.554 0.780514 6.32603 0
M  V30 4577 C 426.241 0.126861 6.10968 0
M  V30 4578 C 427.239 0.829574 6.77943 0
M  V30 4579 O 426.927 1.57157 7.88389 0
M  V30 4580 H 426.659 -0.201217 0.645359 0
M  V30 4581 H 429.213 0.0385326 2.05364 0
M  V30 4582 H 427.443 -2.28209 3.12182 0
M  V30 4583 H 429.132 -2.07726 3.48719 0
M  V30 4584 H 429.898 -0.00115963 4.85 0
M  V30 4585 H 425.777 -1.16392 4.46065 0
M  V30 4586 H 429.321 1.32954 6.84813 0
M  V30 4587 H 425.218 0.159815 6.45302 0
M  V30 4588 H 425.986 1.48758 8.04868 0
M  V30 4589 N 428.649 -1.55105 -0.279332 0
M  V30 4590 C 429.874 -1.7976 -1.03446 0
M  V30 4591 C 430.299 -0.565952 -1.79384 0
M  V30 4592 O 429.657 0.484259 -1.74713 0
M  V30 4593 C 429.705 -3.0179 -1.97371 0
M  V30 4594 O 428.809 -2.76432 -3.06038 0
M  V30 4595 H 428.15 -0.594334 -0.29608 0
M  V30 4596 H 430.68 -2.02235 -0.310165 0
M  V30 4597 H 430.69 -3.30351 -2.39441 0
M  V30 4598 H 429.365 -3.91085 -1.4151 0
M  V30 4599 H 427.942 -2.58949 -2.68328 0
M  V30 4600 N 430.127 0.543554 -1.4793 0
M  V30 4601 C 431.06 1.66556 -1.55995 0
M  V30 4602 C 432.038 1.57315 -0.411205 0
M  V30 4603 O 433.222 1.7798 -0.620922 0
M  V30 4604 C 430.349 3.04883 -1.47527 0
M  V30 4605 C 429.395 3.32526 -2.67074 0
M  V30 4606 S 430.228 3.20282 -4.29162 0
M  V30 4607 C 431.384 4.61079 -4.23269 0
M  V30 4608 H 431.617 1.59462 -2.50917 0
M  V30 4609 H 429.15 0.725456 -1.36296 0
M  V30 4610 H 431.108 3.84665 -1.43328 0
M  V30 4611 H 429.769 3.09429 -0.539665 0
M  V30 4612 H 428.962 4.33403 -2.5725 0
M  V30 4613 H 428.564 2.60389 -2.68466 0
M  V30 4614 H 430.856 5.52318 -3.92365 0
M  V30 4615 H 431.799 4.75959 -5.24279 0
M  V30 4616 H 432.207 4.39766 -3.5393 0
M  V30 4617 N 431.605 1.3629 0.791371 0
M  V30 4618 C 432.854 1.29742 1.54434 0
M  V30 4619 C 433.167 -0.121729 1.95221 0
M  V30 4620 O 434.373 -0.309579 2.69729 0
M  V30 4621 C 432.829 2.27623 2.78776 0
M  V30 4622 C 432.437 3.74963 2.45166 0
M  V30 4623 C 434.181 2.30047 3.56761 0
M  V30 4624 C 432.088 4.64626 3.65891 0
M  V30 4625 H 431.018 0.482113 0.579727 0
M  V30 4626 H 433.669 1.61642 0.868565 0
M  V30 4627 H 432.051 1.88714 3.48142 0
M  V30 4628 H 433.225 4.22596 1.83709 0
M  V30 4629 H 431.54 3.75295 1.80396 0
M  V30 4630 H 434.137 2.94247 4.46456 0
M  V30 4631 H 434.48 1.30846 3.95203 0
M  V30 4632 H 435.013 2.67563 2.94372 0
M  V30 4633 H 431.752 5.64883 3.32547 0
M  V30 4634 H 431.272 4.2171 4.26521 0
M  V30 4635 H 432.951 4.80801 4.32943 0
M  V30 4636 N 433.083 -1.0153 1.20538 0
M  V30 4637 C 434.015 -2.10224 0.913155 0
M  V30 4638 C 435.028 -1.62495 -0.0995998 0
M  V30 4639 O 436.217 -1.78014 0.131582 0
M  V30 4640 C 433.317 -3.37111 0.347717 0
M  V30 4641 C 432.49 -4.13971 1.41233 0
M  V30 4642 C 431.549 -5.19158 0.857976 0
M  V30 4643 O 430.575 -5.48 1.53897 0
M  V30 4644 N 431.777 -5.7955 -0.331966 0
M  V30 4645 H 434.542 -2.35879 1.84881 0
M  V30 4646 H 432.103 -1.17931 1.10923 0
M  V30 4647 H 434.095 -4.04683 -0.0373026 0
M  V30 4648 H 432.665 -3.08696 -0.492527 0
M  V30 4649 H 431.885 -3.41351 1.97163 0
M  V30 4650 H 433.173 -4.62103 2.12928 0
M  V30 4651 H 432.571 -5.58455 -0.902478 0
M  V30 4652 H 431.128 -6.48464 -0.65861 0
M  V30 4653 N 434.561 -1.01147 -1.20859 0
M  V30 4654 C 435.786 -0.716698 -1.94623 0
M  V30 4655 C 436.211 0.715415 -1.73964 0
M  V30 4656 O 435.569 1.49157 -1.03062 0
M  V30 4657 C 435.617 -1.0513 -3.44935 0
M  V30 4658 O 434.721 -0.160131 -4.12089 0
M  V30 4659 H 434.062 -0.266404 -0.608214 0
M  V30 4660 H 436.592 -1.35346 -1.53436 0
M  V30 4661 H 436.602 -1.00086 -3.95533 0
M  V30 4662 H 435.277 -2.09475 -3.59295 0
M  V30 4663 H 433.854 -0.267657 -3.71938 0
M  V30 4664 N 436.039 1.36541 -0.78704 0
M  V30 4665 C 437.002 2.28413 -0.189778 0
M  V30 4666 C 438.002 1.48719 0.611499 0
M  V30 4667 O 439.192 1.68737 0.432842 0
M  V30 4668 C 436.324 3.32824 0.737638 0
M  V30 4669 H 437.517 2.82743 -0.999831 0
M  V30 4670 H 435.07 1.46065 -0.556298 0
M  V30 4671 H 435.805 2.83646 1.57212 0
M  V30 4672 H 435.59 3.91752 0.165044 0
M  V30 4673 H 437.08 4.0144 1.15047 0
M  V30 4674 N 437.518 0.538854 1.48102 0
M  V30 4675 C 438.466 -0.232325 2.31437 0
M  V30 4676 C 439.46 -0.927004 1.41785 0
M  V30 4677 O 440.666 -0.850378 1.58646 0
M  V30 4678 H 437.041 -0.0937916 0.746128 0
M  V30 4679 H 439.012 0.489986 2.9435 0
M  V30 4680 C 437.761 -1.26074 3.24038 0
M  V30 4681 H 437.084 -0.735609 3.92974 0
M  V30 4682 H 438.524 -1.77157 3.85216 0
M  V30 4683 C 436.983 -2.29902 2.46265 0
M  V30 4684 O 437.513 -3.36502 2.19384 0
M  V30 4685 N 435.719 -2.03348 2.07601 0
M  V30 4686 H 435.266 -1.16675 2.29662 0
M  V30 4687 H 435.224 -2.73038 1.55877 0
M  V30 4688 N 438.996 -1.55193 0.274407 0
M  V30 4689 C 440.221 -2.04446 -0.348824 0
M  V30 4690 C 440.646 -1.15149 -1.48735 0
M  V30 4691 O 440.004 -0.149952 -1.80679 0
M  V30 4692 C 440.052 -3.51431 -0.808009 0
M  V30 4693 O 439.156 -3.65225 -1.91531 0
M  V30 4694 H 438.497 -0.66006 -0.0722276 0
M  V30 4695 H 441.027 -2.00481 0.408498 0
M  V30 4696 H 441.037 -3.92781 -1.10395 0
M  V30 4697 H 439.712 -4.15892 0.0249865 0
M  V30 4698 H 438.289 -3.35778 -1.62196 0
M  V30 4699 N 440.474 -0.00167713 -1.576 0
M  V30 4700 C 441.424 0.997744 -2.0501 0
M  V30 4701 C 442.408 1.30214 -0.94515 0
M  V30 4702 O 443.6 1.29284 -1.20891 0
M  V30 4703 C 440.729 2.2892 -2.55833 0
M  V30 4704 C 439.815 2.01437 -3.73208 0
M  V30 4705 N 440.206 1.44119 -4.84833 0
M  V30 4706 C 438.504 2.31571 -3.8117 0
M  V30 4707 C 439.205 1.33145 -5.66257 0
M  V30 4708 N 438.181 1.81763 -5.12312 0
M  V30 4709 H 441.983 0.549098 -2.88725 0
M  V30 4710 H 439.497 0.20398 -1.61114 0
M  V30 4711 H 441.494 3.01361 -2.88075 0
M  V30 4712 H 440.154 2.74436 -1.73537 0
M  V30 4713 H 441.165 1.11978 -5.0565 0
M  V30 4714 H 437.842 2.7995 -3.09732 0
M  V30 4715 H 439.232 0.890567 -6.65972 0
M  V30 4716 N 441.952 1.55251 0.271103 0
M  V30 4717 C 443.198 1.76207 1.00394 0
M  V30 4718 C 443.531 0.562604 1.85872 0
M  V30 4719 O 442.806 -0.439785 1.89463 0
M  V30 4720 C 443.089 3.06828 1.8849 0
M  V30 4721 C 442.942 4.37134 1.05992 0
M  V30 4722 C 444.261 3.33503 2.87165 0
M  V30 4723 H 441.38 0.641086 0.363562 0
M  V30 4724 H 444.022 1.87982 0.276189 0
M  V30 4725 H 442.172 2.96921 2.5054 0
M  V30 4726 H 443.844 4.59001 0.459978 0
M  V30 4727 H 442.087 4.32275 0.363443 0
M  V30 4728 H 442.758 5.2486 1.70955 0
M  V30 4729 H 445.234 3.43215 2.3525 0
M  V30 4730 H 444.11 4.2616 3.45946 0
M  V30 4731 H 444.371 2.53235 3.62387 0
M  V30 4732 N 443.43 -0.535701 1.48216 0
M  V30 4733 C 444.846 -0.863701 1.3421 0
M  V30 4734 C 445.046 -1.98458 0.34879 0
M  V30 4735 O 444.102 -2.51432 -0.23204 0
M  V30 4736 C 445.415 -1.23662 2.74095 0
M  V30 4737 C 446.963 -1.34683 2.82541 0
M  V30 4738 C 447.438 -1.75322 4.23115 0
M  V30 4739 N 448.929 -1.82434 4.2576 0
M  V30 4740 C 449.664 -2.15252 5.31464 0
M  V30 4741 N 449.16 -2.46533 6.47452 0
M  V30 4742 N 450.953 -2.16209 5.18855 0
M  V30 4743 H 443.104 0.203965 2.11418 0
M  V30 4744 H 445.367 0.0286033 0.947568 0
M  V30 4745 H 445.073 -0.486674 3.48316 0
M  V30 4746 H 444.947 -2.18805 3.07253 0
M  V30 4747 H 447.334 -2.08756 2.08579 0
M  V30 4748 H 447.415 -0.376756 2.5301 0
M  V30 4749 H 447.059 -1.01812 4.97591 0
M  V30 4750 H 446.989 -2.7337 4.50085 0
M  V30 4751 H 449.48 -1.6056 3.42095 0
M  V30 4752 H 449.793 -2.70662 7.23852 0
M  V30 4753 H 448.138 -2.44065 6.50736 0
M  V30 4754 H 451.329 -1.91224 4.2726 0
M  V30 4755 H 451.502 -2.41453 6.01335 0
M  V30 4756 N 444.908 -1.36708 -0.784132 0
M  V30 4757 C 446.324 -1.17237 -1.08294 0
M  V30 4758 C 446.524 -5.93947e-05 -2.015 0
M  V30 4759 O 445.58 0.663686 -2.43622 0
M  V30 4760 C 446.893 -2.48557 -1.69233 0
M  V30 4761 C 448.441 -2.54968 -1.8155 0
M  V30 4762 C 448.916 -3.86388 -2.45904 0
M  V30 4763 N 450.407 -3.87762 -2.53367 0
M  V30 4764 C 451.142 -4.86191 -3.03983 0
M  V30 4765 N 450.638 -5.95015 -3.54866 0
M  V30 4766 N 452.431 -4.73606 -3.02743 0
M  V30 4767 H 444.582 -2.11758 -0.16501 0
M  V30 4768 H 446.845 -0.93822 -0.135822 0
M  V30 4769 H 446.551 -3.34638 -1.08215 0
M  V30 4770 H 446.425 -2.64748 -2.68679 0
M  V30 4771 H 448.812 -1.69302 -2.41704 0
M  V30 4772 H 448.893 -2.42672 -0.80895 0
M  V30 4773 H 448.537 -4.72462 -1.86392 0
M  V30 4774 H 448.467 -3.95982 -3.4714 0
M  V30 4775 H 450.958 -3.09145 -2.17343 0
M  V30 4776 H 451.271 -6.66086 -3.91854 0
M  V30 4777 H 449.616 -5.98676 -3.53003 0
M  V30 4778 H 452.807 -3.87717 -2.62284 0
M  V30 4779 H 452.98 -5.50473 -3.41881 0
M  V30 4780 N 446.386 1.0089 -1.21074 0
M  V30 4781 C 447.316 2.1145 -0.990523 0
M  V30 4782 C 448.297 1.69897 0.0831699 0
M  V30 4783 O 449.482 1.94052 -0.0758853 0
M  V30 4784 C 446.612 3.42914 -0.550177 0
M  V30 4785 C 445.566 3.98244 -1.56799 0
M  V30 4786 C 444.892 5.25568 -0.984013 0
M  V30 4787 C 446.192 4.30752 -2.95381 0
M  V30 4788 H 447.886 2.3013 -1.91521 0
M  V30 4789 H 445.432 1.10592 -0.92225 0
M  V30 4790 H 447.385 4.19653 -0.383305 0
M  V30 4791 H 446.109 3.24014 0.41015 0
M  V30 4792 H 444.768 3.23621 -1.72236 0
M  V30 4793 H 444.416 5.02998 -0.0155216 0
M  V30 4794 H 444.116 5.63551 -1.66384 0
M  V30 4795 H 445.64 6.04955 -0.828378 0
M  V30 4796 H 447.054 4.98349 -2.8341 0
M  V30 4797 H 445.451 4.79869 -3.60341 0
M  V30 4798 H 446.521 3.39192 -3.46521 0
M  V30 4799 N 447.864 1.01787 1.20321 0
M  V30 4800 C 449.11 0.708985 1.90003 0
M  V30 4801 C 449.443 -0.759572 1.78729 0
M  V30 4802 O 448.718 -1.55198 1.17234 0
M  V30 4803 C 449.001 1.1469 3.41348 0
M  V30 4804 C 448.854 2.67586 3.61549 0
M  V30 4805 C 450.173 0.71915 4.34185 0
M  V30 4806 H 447.292 0.259034 0.689978 0
M  V30 4807 H 449.934 1.26584 1.41692 0
M  V30 4808 H 448.084 0.673128 3.82624 0
M  V30 4809 H 449.756 3.22826 3.29517 0
M  V30 4810 H 447.999 3.085 3.04976 0
M  V30 4811 H 448.67 2.93281 4.67643 0
M  V30 4812 H 451.146 1.12647 4.00562 0
M  V30 4813 H 450.022 1.05358 5.38694 0
M  V30 4814 H 450.283 -0.379111 4.40472 0
M  V30 4815 N 449.342 -1.36122 0.79427 0
M  V30 4816 C 450.29 -2.31871 0.184023 0
M  V30 4817 C 451.284 -1.56041 -0.659365 0
M  V30 4818 O 452.49 -1.71266 -0.553906 0
M  V30 4819 H 448.865 -0.750896 0.0407373 0
M  V30 4820 H 450.836 -2.80898 1.00693 0
M  V30 4821 C 449.585 -3.41324 -0.662813 0
M  V30 4822 H 448.908 -3.99793 -0.0231944 0
M  V30 4823 H 450.348 -4.10629 -1.05639 0
M  V30 4824 C 448.807 -2.83308 -1.82313 0
M  V30 4825 O 449.337 -2.75863 -2.91997 0
M  V30 4826 N 447.543 -2.40529 -1.63077 0
M  V30 4827 H 447.09 -2.46785 -0.738591 0
M  V30 4828 H 447.048 -2.02059 -2.40872 0
M  V30 4829 N 450.82 -0.546701 -1.47814 0
M  V30 4830 C 451.73 0.21026 -2.33656 0
M  V30 4831 C 452.746 0.922413 -1.47538 0
M  V30 4832 O 453.922 0.893652 -1.80488 0
M  V30 4833 C 450.987 1.23348 -3.24016 0
M  V30 4834 C 450.048 0.529883 -4.26017 0
M  V30 4835 C 449.281 1.50435 -5.12059 0
M  V30 4836 O 449.504 2.73837 -5.00369 0
M  V30 4837 O 448.438 1.03459 -5.92942 0
M  V30 4838 H 452.264 -0.493605 -2.99662 0
M  V30 4839 H 449.849 -0.307427 -1.46203 0
M  V30 4840 H 451.731 1.82438 -3.79861 0
M  V30 4841 H 450.406 1.91945 -2.60651 0
M  V30 4842 H 449.313 -0.101948 -3.73961 0
M  V30 4843 H 450.646 -0.11445 -4.92067 0
M  V30 4844 N 452.299 1.55045 -0.282633 0
M  V30 4845 C 453.246 2.22822 0.601566 0
M  V30 4846 C 454.216 1.20431 1.14392 0
M  V30 4847 O 455.401 1.48996 1.19184 0
M  V30 4848 C 452.541 2.95873 1.77632 0
M  V30 4849 C 451.654 4.12999 1.26711 0
M  V30 4850 C 450.789 4.73676 2.40426 0
M  V30 4851 C 449.828 5.82981 1.86545 0
M  V30 4852 N 448.965 6.3769 2.93762 0
M  V30 4853 H 453.805 2.97995 0.0169528 0
M  V30 4854 H 451.342 1.471 -0.00339964 0
M  V30 4855 H 453.3 3.36447 2.46697 0
M  V30 4856 H 451.93 2.2311 2.33285 0
M  V30 4857 H 450.982 3.77494 0.469314 0
M  V30 4858 H 452.294 4.91803 0.832518 0
M  V30 4859 H 451.448 5.17008 3.17471 0
M  V30 4860 H 450.187 3.94164 2.87203 0
M  V30 4861 H 449.192 5.39092 1.07983 0
M  V30 4862 H 450.417 6.64366 1.40694 0
M  V30 4863 H 448.363 5.61069 3.39908 0
M  V30 4864 H 448.28 7.11788 2.54744 0
M  V30 4865 H 449.548 6.8568 3.7076 0
M  V30 4866 N 453.777 0.010035 1.57597 0
M  V30 4867 C 454.74 -0.963029 2.07986 0
M  V30 4868 C 455.74 -1.26619 0.991173 0
M  V30 4869 O 456.93 -1.2097 1.25347 0
M  V30 4870 C 454.062 -2.2851 2.52974 0
M  V30 4871 H 455.255 -0.526971 2.95234 0
M  V30 4872 H 452.808 -0.237639 1.54483 0
M  V30 4873 H 453.543 -2.76784 1.69 0
M  V30 4874 H 453.328 -2.07824 3.32493 0
M  V30 4875 H 454.818 -2.98294 2.9225 0
M  V30 4876 N 455.255 -1.55392 -0.262866 0
M  V30 4877 C 456.218 -1.88181 -1.30846 0
M  V30 4878 C 457.218 -0.757079 -1.41862 0
M  V30 4879 O 458.408 -1.02519 -1.40838 0
M  V30 4880 C 455.54 -2.09609 -2.68844 0
M  V30 4881 H 456.733 -2.81659 -1.02997 0
M  V30 4882 H 454.286 -1.48039 -0.501414 0
M  V30 4883 H 455.021 -1.18547 -3.01856 0
M  V30 4884 H 454.806 -2.91508 -2.62231 0
M  V30 4885 H 456.296 -2.36215 -3.44372 0
M  V30 4886 N 456.733 0.527833 -1.48498 0
M  V30 4887 C 457.683 1.62844 -1.5958 0
M  V30 4888 C 458.667 1.54397 -0.452809 0
M  V30 4889 O 459.859 1.62381 -0.704364 0
M  V30 4890 C 456.988 3.01557 -1.64067 0
M  V30 4891 C 456.074 3.151 -2.83853 0
M  V30 4892 N 456.465 2.9861 -4.08247 0
M  V30 4893 C 454.763 3.46158 -2.8123 0
M  V30 4894 C 455.464 3.15626 -4.88626 0
M  V30 4895 N 454.44 3.43298 -4.21483 0
M  V30 4896 H 458.242 1.48708 -2.53502 0
M  V30 4897 H 455.756 0.733343 -1.44899 0
M  V30 4898 H 457.753 3.8062 -1.70101 0
M  V30 4899 H 456.413 3.16783 -0.712636 0
M  V30 4900 H 457.424 2.75329 -4.3865 0
M  V30 4901 H 454.101 3.67728 -1.97692 0
M  V30 4902 H 455.491 3.07596 -5.97356 0
M  V30 4903 N 458.211 1.37122 0.776871 0
M  V30 4904 C 459.121 1.34651 1.9211 0
M  V30 4905 C 460.137 0.246824 1.7224 0
M  V30 4906 O 461.313 0.48134 1.95563 0
M  V30 4907 C 458.378 1.14748 3.2716 0
M  V30 4908 C 457.439 2.34308 3.5972 0
M  V30 4909 C 456.672 2.15345 4.88326 0
M  V30 4910 O 456.895 1.13507 5.58992 0
M  V30 4911 O 455.829 3.03414 5.1983 0
M  V30 4912 H 459.655 2.31013 1.97146 0
M  V30 4913 H 457.24 1.17799 0.918901 0
M  V30 4914 H 459.122 1.05616 4.0795 0
M  V30 4915 H 457.797 0.214562 3.22988 0
M  V30 4916 H 456.704 2.49011 2.79185 0
M  V30 4917 H 458.037 3.26149 3.68629 0
M  V30 4918 N 459.689 -1.00246 1.21608 0
M  V30 4919 C 460.636 -2.09073 0.977613 0
M  V30 4920 C 461.606 -1.65815 -0.097297 0
M  V30 4921 O 462.791 -1.90734 0.0503445 0
M  V30 4922 C 459.931 -3.40671 0.551133 0
M  V30 4923 C 459.044 -3.97326 1.69576 0
M  V30 4924 C 458.179 -5.17043 1.2182 0
M  V30 4925 C 457.218 -5.65813 2.335 0
M  V30 4926 N 456.355 -6.76778 1.86859 0
M  V30 4927 H 461.195 -2.28806 1.90924 0
M  V30 4928 H 458.732 -1.12186 0.951452 0
M  V30 4929 H 460.69 -4.16225 0.285097 0
M  V30 4930 H 459.32 -3.20967 -0.343489 0
M  V30 4931 H 458.372 -3.18734 2.07637 0
M  V30 4932 H 459.684 -4.29511 2.53617 0
M  V30 4933 H 458.838 -5.99852 0.908975 0
M  V30 4934 H 457.577 -4.86458 0.347869 0
M  V30 4935 H 456.582 -4.81599 2.65222 0
M  V30 4936 H 457.807 -5.98427 3.21033 0
M  V30 4937 H 455.753 -6.47994 1.02174 0
M  V30 4938 H 455.67 -7.08231 2.64471 0
M  V30 4939 H 456.938 -7.63116 1.58978 0
M  V30 4940 N 461.167 -1.02423 -1.1978 0
M  V30 4941 C 462.444 -0.632802 -1.85081 0
M  V30 4942 C 462.824 0.888745 -1.9148 0
M  V30 4943 O 462.172 1.78357 -1.42832 0
M  V30 4944 C 462.382 -1.28947 -3.24305 0
M  V30 4945 C 463.73 -1.40976 -4.00513 0
M  V30 4946 O 464.754 -1.24628 -3.33686 0
M  V30 4947 O 463.613 -1.67467 -5.20209 0
M  V30 4948 H 460.707 -0.219348 -0.79738 0
M  V30 4949 H 463.253 -1.12209 -1.27307 0
M  V30 4950 H 462.025 -2.3288 -3.14456 0
M  V30 4951 H 461.648 -0.787748 -3.89718 0
M  V30 4952 N 462.645 1.35699 -0.801477 0
M  V30 4953 C 463.578 2.2768 -0.153922 0
M  V30 4954 C 464.556 1.47832 0.67709 0
M  V30 4955 O 465.74 1.77104 0.645474 0
M  V30 4956 C 462.867 3.2943 0.786986 0
M  V30 4957 C 461.913 4.26485 0.0362447 0
M  V30 4958 S 462.746 5.19573 -1.2963 0
M  V30 4959 C 463.902 6.24866 -0.359705 0
M  V30 4960 H 464.135 2.82254 -0.9338 0
M  V30 4961 H 461.668 1.42421 -0.596283 0
M  V30 4962 H 463.626 3.8855 1.32436 0
M  V30 4963 H 462.287 2.73745 1.54021 0
M  V30 4964 H 461.48 4.98378 0.750668 0
M  V30 4965 H 461.082 3.71508 -0.431017 0
M  V30 4966 H 463.374 6.75957 0.456954 0
M  V30 4967 H 464.317 7.00307 -1.04768 0
M  V30 4968 H 464.725 5.64484 0.0423274 0
M  V30 4969 N 464.123 0.554532 1.47522 0
M  V30 4970 C 465.033 -0.197865 2.33764 0
M  V30 4971 C 466.049 -0.914576 1.48025 0
M  V30 4972 O 467.225 -0.884067 1.80959 0
M  V30 4973 C 464.29 -1.21628 3.24665 0
M  V30 4974 C 463.351 -0.507283 4.26292 0
M  V30 4975 C 462.584 -1.47718 5.1285 0
M  V30 4976 O 462.807 -2.7118 5.01814 0
M  V30 4977 O 461.741 -1.00313 5.93482 0
M  V30 4978 H 465.567 0.50949 2.99396 0
M  V30 4979 H 463.152 0.315176 1.46038 0
M  V30 4980 H 465.034 -1.80421 3.80823 0
M  V30 4981 H 463.709 -1.9056 2.61665 0
M  V30 4982 H 462.616 0.121778 3.73902 0
M  V30 4983 H 463.949 0.140544 4.91999 0
M  V30 4984 N 465.601 -1.54893 0.290851 0
M  V30 4985 C 466.511 -2.26812 -0.59945 0
M  V30 4986 C 467.527 -1.29963 -1.15696 0
M  V30 4987 O 468.703 -1.62928 -1.18391 0
M  V30 4988 C 465.768 -2.98716 -1.75982 0
M  V30 4989 C 464.829 -4.1108 -1.2374 0
M  V30 4990 C 464.062 -4.79546 -2.34246 0
M  V30 4991 O 464.285 -4.47309 -3.53936 0
M  V30 4992 O 463.219 -5.67165 -2.01512 0
M  V30 4993 H 467.045 -3.03696 -0.0163561 0
M  V30 4994 H 464.63 -1.49289 0.0576755 0
M  V30 4995 H 466.512 -3.43851 -2.43607 0
M  V30 4996 H 465.187 -2.24737 -2.3297 0
M  V30 4997 H 464.094 -3.70367 -0.527163 0
M  V30 4998 H 465.427 -4.87007 -0.71307 0
M  V30 4999 N 467.08 -0.0183926 -1.57589 0
M  V30 5000 C 468.043 0.951986 -2.08494 0
M  V30 5001 C 469.043 1.26092 -0.997874 0
M  V30 5002 O 470.233 1.20304 -1.25987 0
M  V30 5003 C 467.365 2.27165 -2.54182 0
M  V30 5004 H 468.558 0.511307 -2.95509 0
M  V30 5005 H 466.111 0.229444 -1.54607 0
M  V30 5006 H 466.846 2.75884 -1.70465 0
M  V30 5007 H 466.631 2.06057 -3.33591 0
M  V30 5008 H 468.121 2.9674 -2.93828 0
M  V30 5009 N 468.558 1.5553 0.254621 0
M  V30 5010 C 469.505 1.89666 1.31512 0
M  V30 5011 C 470.475 0.750057 1.482 0
M  V30 5012 O 471.66 1.00301 1.62309 0
M  V30 5013 C 468.8 2.19009 2.667 0
M  V30 5014 C 467.913 3.46435 2.58083 0
M  V30 5015 C 467.048 3.65386 3.85573 0
M  V30 5016 C 466.087 4.8644 3.71541 0
M  V30 5017 N 465.224 5.01952 4.90906 0
M  V30 5018 H 470.064 2.80109 1.017 0
M  V30 5019 H 467.601 1.38666 0.490938 0
M  V30 5020 H 469.559 2.34025 3.45381 0
M  V30 5021 H 468.189 1.31779 2.94676 0
M  V30 5022 H 467.241 3.39792 1.71013 0
M  V30 5023 H 468.553 4.35258 2.43622 0
M  V30 5024 H 467.707 3.80319 4.72697 0
M  V30 5025 H 466.446 2.74781 4.02922 0
M  V30 5026 H 465.451 4.71491 2.82801 0
M  V30 5027 H 466.676 5.78497 3.55694 0
M  V30 5028 H 464.622 4.14283 5.08631 0
M  V30 5029 H 464.539 5.84851 4.79046 0
M  V30 5030 H 465.807 5.21289 5.7955 0
M  V30 5031 N 470.036 -0.519951 1.48776 0
M  V30 5032 C 470.946 -1.65025 1.66745 0
M  V30 5033 C 471.962 -1.6508 0.549954 0
M  V30 5034 O 473.138 -1.83848 0.822295 0
M  V30 5035 C 470.203 -3.0146 1.71238 0
M  V30 5036 C 469.264 -3.12182 2.94688 0
M  V30 5037 C 468.497 -4.42109 2.98958 0
M  V30 5038 O 468.72 -5.29799 2.1135 0
M  V30 5039 O 467.654 -4.57406 3.91233 0
M  V30 5040 H 471.48 -1.52801 2.62461 0
M  V30 5041 H 469.065 -0.694157 1.32294 0
M  V30 5042 H 470.947 -3.82584 1.76657 0
M  V30 5043 H 469.622 -3.13988 0.786975 0
M  V30 5044 H 468.529 -2.30316 2.94797 0
M  V30 5045 H 469.862 -3.04574 3.86646 0
M  V30 5046 N 471.514 -1.37532 -0.769588 0
M  V30 5047 C 472.461 -1.3347 -1.88293 0
M  V30 5048 C 473.431 -0.199891 -1.64893 0
M  V30 5049 O 474.616 -0.389594 -1.8678 0
M  V30 5050 C 471.756 -1.14968 -3.25387 0
M  V30 5051 C 470.869 -2.37698 -3.60727 0
M  V30 5052 C 470.004 -2.12051 -4.8704 0
M  V30 5053 C 469.043 -3.30636 -5.15117 0
M  V30 5054 N 468.18 -3.04527 -6.3262 0
M  V30 5055 H 473.02 -2.28658 -1.911 0
M  V30 5056 H 470.557 -1.13622 -0.934257 0
M  V30 5057 H 472.515 -1.02261 -4.04473 0
M  V30 5058 H 471.145 -0.234263 -3.21949 0
M  V30 5059 H 470.197 -2.61137 -2.76608 0
M  V30 5060 H 471.509 -3.26131 -3.77413 0
M  V30 5061 H 470.663 -1.96388 -5.74035 0
M  V30 5062 H 469.402 -1.20959 -4.72462 0
M  V30 5063 H 468.407 -3.46836 -4.26597 0
M  V30 5064 H 469.632 -4.22582 -5.31603 0
M  V30 5065 H 467.578 -2.16067 -6.19396 0
M  V30 5066 H 467.495 -3.86503 -6.49732 0
M  V30 5067 H 468.763 -2.92485 -7.22546 0
M  V30 5068 N 472.992 0.995999 -1.22138 0
M  V30 5069 C 474.239 1.7351 -1.04406 0
M  V30 5070 C 474.567 1.89884 0.421244 0
M  V30 5071 O 473.822 1.43683 1.32867 0
M  V30 5072 C 474.121 3.14553 -1.6968 0
M  V30 5073 C 473.787 3.18102 -3.19565 0
M  V30 5074 C 472.449 3.18778 -3.60464 0
M  V30 5075 C 474.801 3.14636 -4.15516 0
M  V30 5076 C 472.129 3.13684 -4.95801 0
M  V30 5077 C 474.481 3.11084 -5.50826 0
M  V30 5078 C 473.145 3.10074 -5.91109 0
M  V30 5079 H 472.415 0.634916 -0.38205 0
M  V30 5080 H 475.062 1.1667 -1.51857 0
M  V30 5081 H 473.367 3.74682 -1.14546 0
M  V30 5082 H 475.064 3.70477 -1.53454 0
M  V30 5083 H 471.654 3.18324 -2.86998 0
M  V30 5084 H 475.838 3.13266 -3.84939 0
M  V30 5085 H 471.094 3.11245 -5.26247 0
M  V30 5086 H 475.268 3.07357 -6.24904 0
M  V30 5087 H 472.895 3.05882 -6.95946 0
M  V30 5088 N 474.47 1.03057 1.19235 0
M  V30 5089 C 475.417 0.612832 2.22515 0
M  V30 5090 C 476.387 -0.374224 1.61829 0
M  V30 5091 O 477.572 -0.270501 1.88873 0
M  V30 5092 C 474.712 -0.028475 3.45088 0
M  V30 5093 C 473.825 1.00483 4.20151 0
M  V30 5094 C 472.96 0.333102 5.30155 0
M  V30 5095 C 471.999 1.3522 5.96977 0
M  V30 5096 N 471.136 0.70616 6.9854 0
M  V30 5097 H 475.976 1.49812 2.57605 0
M  V30 5098 H 473.513 0.749658 1.26564 0
M  V30 5099 H 475.471 -0.417548 4.15105 0
M  V30 5100 H 474.101 -0.877334 3.10649 0
M  V30 5101 H 473.153 1.51194 3.49062 0
M  V30 5102 H 474.465 1.77929 4.65986 0
M  V30 5103 H 473.619 -0.110725 6.06599 0
M  V30 5104 H 472.358 -0.473547 4.85396 0
M  V30 5105 H 471.363 1.80627 5.19282 0
M  V30 5106 H 472.588 2.16037 6.4382 0
M  V30 5107 H 470.534 -0.0803667 6.55951 0
M  V30 5108 H 470.451 1.41848 7.42573 0
M  V30 5109 H 471.719 0.286391 7.78974 0
M  V30 5110 N 475.948 -1.35272 0.808662 0
M  V30 5111 C 476.88 -2.28507 0.178149 0
M  V30 5112 C 477.893 -1.50377 -0.623754 0
M  V30 5113 O 479.082 -1.72583 -0.455774 0
M  V30 5114 C 476.182 -3.30038 -0.769959 0
M  V30 5115 C 475.355 -4.37398 -0.0139749 0
M  V30 5116 C 474.414 -5.18775 -0.880875 0
M  V30 5117 O 473.44 -5.68236 -0.331059 0
M  V30 5118 N 474.642 -5.37087 -2.20267 0
M  V30 5119 H 477.407 -2.83255 0.979106 0
M  V30 5120 H 474.968 -1.47643 0.664308 0
M  V30 5121 H 476.96 -3.81371 -1.35418 0
M  V30 5122 H 475.53 -2.75789 -1.47171 0
M  V30 5123 H 474.75 -3.86971 0.751468 0
M  V30 5124 H 476.038 -5.06268 0.506965 0
M  V30 5125 H 475.436 -4.9855 -2.67328 0
M  V30 5126 H 473.993 -5.91593 -2.73608 0
M  V30 5127 N 477.426 -0.562348 -1.47226 0
M  V30 5128 C 478.389 0.172056 -2.28553 0
M  V30 5129 C 479.389 0.837928 -1.37242 0
M  V30 5130 O 480.579 0.693001 -1.59822 0
M  V30 5131 C 477.711 1.25223 -3.17068 0
M  V30 5132 H 478.904 -0.542401 -2.94954 0
M  V30 5133 H 476.457 -0.319493 -1.53 0
M  V30 5134 H 477.192 1.99892 -2.55369 0
M  V30 5135 H 476.977 0.779515 -3.84273 0
M  V30 5136 H 478.467 1.76791 -3.78332 0
M  V30 5137 N 478.904 1.54736 -0.299062 0
M  V30 5138 C 479.834 2.26409 0.571085 0
M  V30 5139 C 480.815 1.2629 1.13951 0
M  V30 5140 O 482 1.55059 1.16921 0
M  V30 5141 C 479.13 3.00338 1.74396 0
M  V30 5142 C 478.084 4.07588 1.30599 0
M  V30 5143 C 477.41 4.69222 2.56387 0
M  V30 5144 C 478.71 5.20455 0.438645 0
M  V30 5145 H 480.404 2.99388 -0.0266991 0
M  V30 5146 H 477.95 1.43993 -0.0142812 0
M  V30 5147 H 479.903 3.49198 2.35878 0
M  V30 5148 H 478.627 2.24934 2.36796 0
M  V30 5149 H 477.286 3.59575 0.71424 0
M  V30 5150 H 476.934 3.9046 3.17097 0
M  V30 5151 H 476.634 5.41653 2.27784 0
M  V30 5152 H 478.158 5.20844 3.18675 0
M  V30 5153 H 479.572 5.65221 0.959085 0
M  V30 5154 H 477.969 5.99594 0.246466 0
M  V30 5155 H 479.039 4.8192 -0.536738 0
M  V30 5156 N 480.382 0.0267497 1.57577 0
M  V30 5157 C 481.607 -0.666227 1.96408 0
M  V30 5158 C 482.032 -1.65004 0.903071 0
M  V30 5159 O 481.39 -1.80787 -0.136263 0
M  V30 5160 C 481.438 -1.35101 3.34335 0
M  V30 5161 O 480.542 -2.46623 3.30531 0
M  V30 5162 H 479.883 -0.175206 0.640468 0
M  V30 5163 H 482.413 0.0878977 2.04411 0
M  V30 5164 H 482.423 -1.70834 3.70513 0
M  V30 5165 H 481.098 -0.629844 4.11103 0
M  V30 5166 H 479.675 -2.13019 3.06068 0
M  V30 5167 N 481.861 -1.55662 -0.24637 0
M  V30 5168 C 483.109 -1.77168 -0.972411 0
M  V30 5169 C 483.43 -0.590827 -1.85834 0
M  V30 5170 O 482.7 0.393365 -1.9191 0
M  V30 5171 H 481.28 -0.653405 -0.362038 0
M  V30 5172 H 483.942 -1.93101 -0.264189 0
M  V30 5173 H 483.038 -2.68335 -1.59382 0
M  V30 5174 N 483.339 0.512053 -1.4905 0
M  V30 5175 C 484.588 1.26343 -1.57227 0
M  V30 5176 C 484.901 1.93876 -0.259155 0
M  V30 5177 O 486.107 2.70612 -0.219358 0
M  V30 5178 C 484.563 2.29343 -2.77362 0
M  V30 5179 C 484.171 1.67799 -4.15388 0
M  V30 5180 C 485.915 3.05378 -2.94864 0
M  V30 5181 C 483.822 2.68845 -5.2676 0
M  V30 5182 H 482.752 0.475231 -0.585382 0
M  V30 5183 H 485.403 0.53862 -1.75417 0
M  V30 5184 H 483.785 3.04938 -2.52643 0
M  V30 5185 H 484.959 0.982715 -4.50199 0
M  V30 5186 H 483.274 1.04194 -4.03153 0
M  V30 5187 H 485.871 3.80921 -3.75238 0
M  V30 5188 H 486.214 3.62327 -2.05 0
M  V30 5189 H 486.747 2.36898 -3.19569 0
M  V30 5190 H 483.486 2.16692 -6.18647 0
M  V30 5191 H 483.006 3.36647 -4.96416 0
M  V30 5192 H 484.685 3.31487 -5.5563 0
M  V30 5193 N 484.817 1.37938 0.762283 0
M  V30 5194 C 485.747 1.37176 1.88958 0
M  V30 5195 C 486.728 0.238945 1.68413 0
M  V30 5196 O 487.913 0.440726 1.89133 0
M  V30 5197 C 485.043 1.18742 3.2637 0
M  V30 5198 C 483.997 2.29136 3.61498 0
M  V30 5199 C 483.323 1.95816 4.97554 0
M  V30 5200 C 484.623 3.71363 3.6727 0
M  V30 5201 H 486.317 2.31509 1.89853 0
M  V30 5202 H 483.863 1.11438 0.912005 0
M  V30 5203 H 485.816 1.16837 4.04879 0
M  V30 5204 H 484.54 0.208683 3.25933 0
M  V30 5205 H 483.199 2.30213 2.85303 0
M  V30 5206 H 482.847 0.964475 4.93667 0
M  V30 5207 H 482.547 2.69745 5.22026 0
M  V30 5208 H 484.071 1.95513 5.78452 0
M  V30 5209 H 485.485 3.72364 4.35911 0
M  V30 5210 H 483.882 4.44425 4.03245 0
M  V30 5211 H 484.952 4.04305 2.67704 0
M  V30 5212 N 486.295 -0.989507 1.22664 0
M  V30 5213 C 487.544 -1.72375 1.04737 0
M  V30 5214 C 487.857 -1.91096 -0.417316 0
M  V30 5215 O 489.063 -2.6188 -0.716334 0
M  V30 5216 C 487.519 -3.10161 1.82561 0
M  V30 5217 C 487.127 -2.99358 3.333 0
M  V30 5218 C 488.871 -3.87607 1.73093 0
M  V30 5219 C 486.778 -4.32319 4.03552 0
M  V30 5220 H 485.708 -0.646326 0.388302 0
M  V30 5221 H 488.359 -1.10437 1.46546 0
M  V30 5222 H 486.741 -3.728 1.33552 0
M  V30 5223 H 487.915 -2.45863 3.89728 0
M  V30 5224 H 486.23 -2.35392 3.43481 0
M  V30 5225 H 488.827 -4.86025 2.22899 0
M  V30 5226 H 489.17 -4.10509 0.691976 0
M  V30 5227 H 489.703 -3.31652 2.19663 0
M  V30 5228 H 486.442 -4.14616 5.07714 0
M  V30 5229 H 485.962 -4.85714 3.51911 0
M  V30 5230 H 487.641 -5.01051 4.09337 0
M  V30 5231 N 487.773 -1.03688 -1.18687 0
M  V30 5232 C 488.705 -0.582696 -2.21669 0
M  V30 5233 C 489.718 0.345656 -1.59088 0
M  V30 5234 O 490.907 0.140776 -1.77944 0
M  V30 5235 C 488.007 0.169204 -3.38477 0
M  V30 5236 C 487.18 -0.766079 -4.30639 0
M  V30 5237 C 486.239 -0.0581541 -5.26168 0
M  V30 5238 O 485.265 -0.687346 -5.65035 0
M  V30 5239 N 486.467 1.20981 -5.67753 0
M  V30 5240 H 489.232 -1.46843 -2.61261 0
M  V30 5241 H 486.793 -0.916896 -1.33434 0
M  V30 5242 H 488.785 0.652543 -3.99405 0
M  V30 5243 H 487.355 0.956435 -2.97609 0
M  V30 5244 H 486.575 -1.42935 -3.67373 0
M  V30 5245 H 487.863 -1.40146 -4.89118 0
M  V30 5246 H 487.261 1.74159 -5.38224 0
M  V30 5247 H 485.818 1.6375 -6.30896 0
M  V30 5248 N 489.251 1.34841 -0.815825 0
M  V30 5249 C 490.498 1.98499 -0.400535 0
M  V30 5250 C 490.826 1.64699 1.03463 0
M  V30 5251 O 490.081 0.907006 1.73412 0
M  V30 5252 C 490.38 3.53273 -0.541541 0
M  V30 5253 C 490.046 4.06966 -1.94138 0
M  V30 5254 C 488.708 4.21341 -2.32433 0
M  V30 5255 C 491.06 4.35933 -2.85677 0
M  V30 5256 C 488.388 4.62007 -3.61617 0
M  V30 5257 C 490.74 4.78042 -4.14317 0
M  V30 5258 C 489.404 4.90622 -4.52599 0
M  V30 5259 H 488.674 0.72636 -0.146566 0
M  V30 5260 H 491.321 1.60902 -1.0384 0
M  V30 5261 H 489.626 3.91387 0.179741 0
M  V30 5262 H 491.323 4.00497 -0.20085 0
M  V30 5263 H 487.913 3.96235 -1.63388 0
M  V30 5264 H 492.097 4.24372 -2.57337 0
M  V30 5265 H 487.353 4.69937 -3.91113 0
M  V30 5266 H 491.527 4.99415 -4.85342 0
M  V30 5267 H 489.154 5.2189 -5.52752 0
M  V30 5268 N 490.729 0.570148 1.46925 0
M  V30 5269 C 491.639 -0.173061 2.33961 0
M  V30 5270 C 492.655 -0.898825 1.48987 0
M  V30 5271 O 493.831 -0.864825 1.81887 0
M  V30 5272 C 490.896 -1.18177 3.25937 0
M  V30 5273 C 489.957 -0.462041 4.26806 0
M  V30 5274 C 489.19 -1.4227 5.14388 0
M  V30 5275 O 489.413 -2.65842 5.04662 0
M  V30 5276 O 488.347 -0.940127 5.94513 0
M  V30 5277 H 492.173 0.541216 2.98839 0
M  V30 5278 H 489.758 0.330647 1.45695 0
M  V30 5279 H 491.64 -1.76372 3.82715 0
M  V30 5280 H 490.315 -1.87774 2.63671 0
M  V30 5281 H 489.222 0.161429 3.73752 0
M  V30 5282 H 490.555 0.192719 4.91823 0
M  V30 5283 N 492.207 -1.54576 0.307264 0
M  V30 5284 C 493.139 -2.21212 -0.599807 0
M  V30 5285 C 494.152 -1.20685 -1.09266 0
M  V30 5286 O 495.341 -1.47244 -1.00903 0
M  V30 5287 C 492.441 -2.84994 -1.83389 0
M  V30 5288 C 491.614 -4.11511 -1.48248 0
M  V30 5289 C 490.673 -4.59038 -2.57237 0
M  V30 5290 O 489.699 -5.24095 -2.22065 0
M  V30 5291 N 490.901 -4.31884 -3.87887 0
M  V30 5292 H 493.666 -2.99686 -0.0293075 0
M  V30 5293 H 491.227 -1.61379 0.129738 0
M  V30 5294 H 493.219 -3.1372 -2.5566 0
M  V30 5295 H 491.789 -2.10324 -2.31263 0
M  V30 5296 H 491.009 -3.89728 -0.592122 0
M  V30 5297 H 492.297 -4.93879 -1.22316 0
M  V30 5298 H 491.695 -3.79778 -4.19268 0
M  V30 5299 H 490.252 -4.65304 -4.56438 0
M  V30 5300 N 493.685 -0.035106 -1.57561 0
M  V30 5301 C 494.934 0.641604 -1.91223 0
M  V30 5302 C 495.247 1.72944 -0.913761 0
M  V30 5303 O 496.453 2.46321 -1.14185 0
M  V30 5304 C 494.909 1.19249 -3.3957 0
M  V30 5305 C 494.517 0.137616 -4.47789 0
M  V30 5306 C 496.261 1.84537 -3.82291 0
M  V30 5307 C 494.168 0.700478 -5.87237 0
M  V30 5308 H 493.098 0.243417 -0.713627 0
M  V30 5309 H 495.749 -0.101382 -1.8322 0
M  V30 5310 H 494.131 1.98728 -3.42525 0
M  V30 5311 H 495.305 -0.635153 -4.56402 0
M  V30 5312 H 493.62 -0.416855 -4.14308 0
M  V30 5313 H 496.217 2.27616 -4.83834 0
M  V30 5314 H 496.56 2.69054 -3.17672 0
M  V30 5315 H 497.093 1.11739 -3.81784 0
M  V30 5316 H 493.832 -0.106693 -6.55413 0
M  V30 5317 H 493.352 1.4416 -5.82218 0
M  V30 5318 H 495.031 1.18837 -6.35993 0
M  V30 5319 N 495.163 1.55791 0.238111 0
M  V30 5320 C 496.409 1.78297 0.966337 0
M  V30 5321 C 496.742 0.601903 1.84637 0
M  V30 5322 O 496.017 -0.399499 1.90353 0
M  V30 5323 C 496.3 3.10758 1.81939 0
M  V30 5324 C 496.153 4.39283 0.966958 0
M  V30 5325 C 497.472 3.39519 2.80027 0
M  V30 5326 H 494.591 0.648654 0.349882 0
M  V30 5327 H 497.233 1.88525 0.236253 0
M  V30 5328 H 495.383 3.02168 2.44185 0
M  V30 5329 H 497.055 4.59873 0.362514 0
M  V30 5330 H 495.298 4.32948 0.271669 0
M  V30 5331 H 495.969 5.28368 1.59784 0
M  V30 5332 H 498.445 3.48128 2.27917 0
M  V30 5333 H 497.321 4.33402 3.36829 0
M  V30 5334 H 497.582 2.60864 3.56934 0
M  V30 5335 N 496.642 -0.504142 1.49319 0
M  V30 5336 C 497.605 -1.5883 1.65244 0
M  V30 5337 C 498.605 -1.52009 0.524386 0
M  V30 5338 O 499.795 -1.55218 0.79077 0
M  V30 5339 C 496.927 -2.98481 1.64687 0
M  V30 5340 H 498.12 -1.4604 2.61939 0
M  V30 5341 H 495.673 -0.728144 1.38303 0
M  V30 5342 H 496.408 -3.16751 0.695644 0
M  V30 5343 H 496.193 -3.0484 2.46607 0
M  V30 5344 H 497.683 -3.77256 1.79075 0
M  V30 5345 N 498.12 -1.38341 -0.754957 0
M  V30 5346 C 499.366 -1.34672 -1.51628 0
M  V30 5347 C 499.699 0.0636036 -1.94096 0
M  V30 5348 O 498.974 1.0245 -1.6533 0
M  V30 5349 C 499.257 -2.30116 -2.76981 0
M  V30 5350 C 499.11 -3.80003 -2.4066 0
M  V30 5351 C 500.429 -2.23715 -3.78998 0
M  V30 5352 H 497.548 -0.490517 -0.550056 0
M  V30 5353 H 500.19 -1.69178 -0.864807 0
M  V30 5354 H 498.34 -2.00821 -3.3257 0
M  V30 5355 H 500.012 -4.19966 -1.90856 0
M  V30 5356 H 498.255 -3.97751 -1.73137 0
M  V30 5357 H 498.926 -4.42244 -3.30339 0
M  V30 5358 H 501.402 -2.49574 -3.32945 0
M  V30 5359 H 500.278 -2.9261 -4.64403 0
M  V30 5360 H 500.539 -1.23554 -4.24484 0
M  V30 5361 N 499.598 0.982988 -1.23187 0
M  V30 5362 C 500.828 1.75666 -1.08743 0
M  V30 5363 C 501.236 1.85662 0.364195 0
M  V30 5364 O 500.579 1.33317 1.26382 0
M  V30 5365 C 500.641 3.20144 -1.63549 0
M  V30 5366 C 500.305 3.33665 -3.12277 0
M  V30 5367 C 501.302 3.20194 -4.096 0
M  V30 5368 C 498.987 3.58397 -3.51933 0
M  V30 5369 C 500.981 3.31256 -5.44563 0
M  V30 5370 C 498.668 3.69098 -4.87042 0
M  V30 5371 C 499.666 3.55537 -5.83166 0
M  V30 5372 O 499.354 3.65864 -7.1582 0
M  V30 5373 H 499.086 0.558194 -0.381307 0
M  V30 5374 H 501.64 1.24387 -1.63454 0
M  V30 5375 H 499.87 3.72659 -1.03256 0
M  V30 5376 H 501.559 3.79262 -1.4462 0
M  V30 5377 H 502.325 3.00987 -3.80305 0
M  V30 5378 H 498.204 3.68025 -2.77631 0
M  V30 5379 H 501.748 3.20588 -6.19572 0
M  V30 5380 H 497.645 3.87814 -5.16014 0
M  V30 5381 H 498.413 3.82675 -7.23534 0
M  V30 5382 N 501.076 1.04316 1.18135 0
M  V30 5383 C 502.026 0.606731 2.19779 0
M  V30 5384 C 503.01 -0.352144 1.56999 0
M  V30 5385 O 504.202 -0.170795 1.76174 0
M  V30 5386 C 501.331 -0.0262443 3.4329 0
M  V30 5387 C 500.417 0.955928 4.13186 0
M  V30 5388 N 500.808 2.12395 4.59045 0
M  V30 5389 C 499.106 0.782473 4.39082 0
M  V30 5390 C 499.807 2.74458 5.12882 0
M  V30 5391 N 498.783 2.02316 5.04548 0
M  V30 5392 H 502.585 1.49679 2.5293 0
M  V30 5393 H 500.099 0.912088 1.34368 0
M  V30 5394 H 502.096 -0.356617 4.15372 0
M  V30 5395 H 500.756 -0.911811 3.11635 0
M  V30 5396 H 501.767 2.50272 4.53414 0
M  V30 5397 H 498.444 -0.0527906 4.17467 0
M  V30 5398 H 499.834 3.73459 5.5855 0
M  V30 5399 N 502.554 -1.34406 0.822964 0
M  V30 5400 C 503.779 -2.0304 0.423034 0
M  V30 5401 C 504.204 -1.61568 -0.963196 0
M  V30 5402 O 503.562 -0.800339 -1.62678 0
M  V30 5403 C 503.61 -3.56636 0.53321 0
M  V30 5404 O 502.714 -4.09971 -0.446939 0
M  V30 5405 H 502.055 -0.64075 0.174171 0
M  V30 5406 H 504.585 -1.71653 1.11339 0
M  V30 5407 H 504.595 -4.05945 0.408991 0
M  V30 5408 H 503.27 -3.86168 1.54425 0
M  V30 5409 H 501.847 -3.71835 -0.281601 0
M  V30 5410 N 504.032 -0.577932 -1.46621 0
M  V30 5411 C 504.995 0.147805 -2.28723 0
M  V30 5412 C 505.995 0.823325 -1.38123 0
M  V30 5413 O 507.185 0.676011 -1.60548 0
M  V30 5414 C 504.317 1.21853 -3.18378 0
M  V30 5415 H 505.51 -0.573654 -2.94362 0
M  V30 5416 H 503.063 -0.335703 -1.52652 0
M  V30 5417 H 503.798 1.97173 -2.57475 0
M  V30 5418 H 503.583 0.738714 -3.85078 0
M  V30 5419 H 505.073 1.72768 -3.80186 0
M  V30 5420 N 505.51 1.54411 -0.315457 0
M  V30 5421 C 506.735 2.05299 0.294496 0
M  V30 5422 C 507.16 1.19052 1.4563 0
M  V30 5423 O 506.518 0.197804 1.80218 0
M  V30 5424 C 506.566 3.5345 0.714549 0
M  V30 5425 O 505.67 3.70175 1.81781 0
M  V30 5426 H 505.011 0.661743 0.0547019 0
M  V30 5427 H 507.541 1.99327 -0.461508 0
M  V30 5428 H 507.551 3.9557 0.999426 0
M  V30 5429 H 506.226 4.1568 -0.135244 0
M  V30 5430 H 504.803 3.3996 1.53236 0
M  V30 5431 N 506.988 0.0434614 1.5754 0
M  V30 5432 C 507.935 -0.93356 2.11077 0
M  V30 5433 C 508.905 -1.31383 1.01626 0
M  V30 5434 O 510.09 -1.40465 1.29129 0
M  V30 5435 C 507.23 -2.20578 2.65404 0
M  V30 5436 C 506.343 -1.88068 3.88914 0
M  V30 5437 C 505.478 -3.09691 4.31584 0
M  V30 5438 C 504.517 -2.73067 5.47815 0
M  V30 5439 N 503.654 -3.87359 5.85574 0
M  V30 5440 H 508.494 -0.470118 2.94268 0
M  V30 5441 H 506.031 -0.220434 1.45439 0
M  V30 5442 H 507.989 -2.95011 2.94999 0
M  V30 5443 H 506.619 -2.64513 1.85021 0
M  V30 5444 H 505.671 -1.03816 3.6596 0
M  V30 5445 H 506.983 -1.57104 4.73413 0
M  V30 5446 H 506.137 -3.92431 4.62691 0
M  V30 5447 H 504.876 -3.43827 3.45882 0
M  V30 5448 H 503.881 -1.88742 5.16388 0
M  V30 5449 H 505.106 -2.40131 6.35227 0
M  V30 5450 H 503.052 -4.21311 5.02825 0
M  V30 5451 H 502.969 -3.60068 6.64746 0
M  V30 5452 H 504.237 -4.70761 6.21292 0
M  V30 5453 N 508.466 -1.55915 -0.229846 0
M  V30 5454 C 509.398 -1.88209 -1.30805 0
M  V30 5455 C 510.411 -0.769672 -1.43457 0
M  V30 5456 O 511.6 -1.04792 -1.44502 0
M  V30 5457 C 508.7 -2.06829 -2.68468 0
M  V30 5458 C 507.873 -3.37798 -2.77869 0
M  V30 5459 C 506.932 -3.45952 -3.96489 0
M  V30 5460 O 505.958 -4.19043 -3.85216 0
M  V30 5461 N 507.16 -2.76488 -5.10426 0
M  V30 5462 H 509.925 -2.81286 -1.03431 0
M  V30 5463 H 507.486 -1.5636 -0.41991 0
M  V30 5464 H 509.478 -2.09608 -3.46189 0
M  V30 5465 H 508.048 -1.20416 -2.88477 0
M  V30 5466 H 507.268 -3.4719 -1.86689 0
M  V30 5467 H 508.556 -4.24091 -2.81113 0
M  V30 5468 H 507.954 -2.16868 -5.2248 0
M  V30 5469 H 506.511 -2.84938 -5.8622 0
M  V30 5470 N 509.944 0.496216 -1.49584 0
M  V30 5471 C 510.891 1.59722 -1.66606 0
M  V30 5472 C 511.861 1.58158 -0.507477 0
M  V30 5473 O 513.046 1.76072 -0.735076 0
M  V30 5474 C 510.186 2.97844 -1.74308 0
M  V30 5475 C 509.299 3.09388 -3.01502 0
M  V30 5476 C 508.434 4.38271 -3.00153 0
M  V30 5477 C 507.473 4.43466 -4.21906 0
M  V30 5478 N 506.61 5.63784 -4.1844 0
M  V30 5479 H 511.45 1.44515 -2.60613 0
M  V30 5480 H 508.987 0.703048 -1.29212 0
M  V30 5481 H 510.945 3.77907 -1.76754 0
M  V30 5482 H 509.575 3.11743 -0.837619 0
M  V30 5483 H 508.627 2.22357 -3.08645 0
M  V30 5484 H 509.939 3.09085 -3.91494 0
M  V30 5485 H 509.093 5.2666 -3.01188 0
M  V30 5486 H 507.832 4.41146 -2.07947 0
M  V30 5487 H 506.837 3.53478 -4.21109 0
M  V30 5488 H 508.062 4.42303 -5.1531 0
M  V30 5489 H 506.008 5.67491 -3.29074 0
M  V30 5490 H 505.925 5.65118 -5.02173 0
M  V30 5491 H 507.193 6.54367 -4.23585 0
M  V30 5492 N 511.423 1.38739 0.74761 0
M  V30 5493 C 512.386 1.36241 1.84312 0
M  V30 5494 C 513.386 0.261811 1.58654 0
M  V30 5495 O 514.576 0.519031 1.66288 0
M  V30 5496 C 511.708 1.12253 3.21888 0
M  V30 5497 H 512.901 2.33712 1.87933 0
M  V30 5498 H 510.454 1.2412 0.949946 0
M  V30 5499 H 511.189 0.154133 3.23934 0
M  V30 5500 H 510.974 1.91943 3.41907 0
M  V30 5501 H 512.464 1.13215 4.0196 0
M  V30 5502 N 512.901 -0.976442 1.23707 0
M  V30 5503 C 514.147 -1.72158 1.08319 0
M  V30 5504 C 514.502 -1.88701 -0.375445 0
M  V30 5505 O 513.795 -1.43107 -1.274 0
M  V30 5506 C 513.989 -3.11814 1.74662 0
M  V30 5507 C 513.818 -3.08892 3.26827 0
M  V30 5508 C 512.588 -3.13861 3.96004 0
M  V30 5509 C 514.786 -2.9175 4.2354 0
M  V30 5510 N 512.768 -3.00867 5.35119 0
M  V30 5511 C 514.139 -2.8696 5.49595 0
M  V30 5512 C 516.194 -2.76265 4.14225 0
M  V30 5513 C 514.897 -2.68268 6.67401 0
M  V30 5514 C 516.923 -2.58938 5.317 0
M  V30 5515 C 516.285 -2.54849 6.56682 0
M  V30 5516 H 512.384 -0.638896 0.450927 0
M  V30 5517 H 514.968 -1.15835 1.56494 0
M  V30 5518 H 513.139 -3.66347 1.29014 0
M  V30 5519 H 514.871 -3.74984 1.52215 0
M  V30 5520 H 511.626 -3.22198 3.4711 0
M  V30 5521 H 512.05 -2.97634 6.08065 0
M  V30 5522 H 516.692 -2.78213 3.18366 0
M  V30 5523 H 514.41 -2.65063 7.63392 0
M  V30 5524 H 517.996 -2.47914 5.26336 0
M  V30 5525 H 516.876 -2.41611 7.46052 0
M  V30 5526 N 514.379 -1.04941 -1.1758 0
M  V30 5527 C 515.656 -0.671918 -1.83697 0
M  V30 5528 C 516.036 0.847929 -1.93322 0
M  V30 5529 O 515.384 1.75287 -1.46583 0
M  V30 5530 C 515.594 -1.35797 -3.21497 0
M  V30 5531 C 516.942 -1.4944 -3.97433 0
M  V30 5532 O 517.966 -1.31678 -3.30967 0
M  V30 5533 O 516.825 -1.78463 -5.1654 0
M  V30 5534 H 513.919 -0.236212 -0.792548 0
M  V30 5535 H 516.465 -1.14884 -1.24899 0
M  V30 5536 H 515.237 -2.39498 -3.09446 0
M  V30 5537 H 514.86 -0.870236 -3.8796 0
M  V30 5538 N 515.857 1.33968 -0.830081 0
M  V30 5539 C 516.807 2.26845 -0.229242 0
M  V30 5540 C 517.791 1.48862 0.610659 0
M  V30 5541 O 518.983 1.70808 0.464067 0
M  V30 5542 C 516.112 3.3798 0.602057 0
M  V30 5543 C 515.198 4.23369 -0.248866 0
M  V30 5544 N 515.589 4.88182 -1.32334 0
M  V30 5545 C 513.887 4.45987 -0.0344077 0
M  V30 5546 C 514.588 5.51671 -1.84482 0
M  V30 5547 N 513.564 5.31348 -1.14762 0
M  V30 5548 H 517.366 2.74464 -1.05104 0
M  V30 5549 H 514.88 1.4777 -0.673623 0
M  V30 5550 H 516.877 4.03494 1.04873 0
M  V30 5551 H 515.537 2.9191 1.42193 0
M  V30 5552 H 516.548 4.88988 -1.70619 0
M  V30 5553 H 513.225 4.10658 0.752727 0
M  V30 5554 H 514.615 6.13308 -2.74413 0
M  V30 5555 N 517.335 0.585699 1.46312 0
M  V30 5556 C 518.582 0.0724211 2.0237 0
M  V30 5557 C 518.91 -1.28868 1.45683 0
M  V30 5558 O 518.165 -1.85853 0.612945 0
M  V30 5559 C 518.464 -0.0401312 3.57377 0
M  V30 5560 C 518.13 1.25376 4.33119 0
M  V30 5561 C 516.792 1.60824 4.5353 0
M  V30 5562 C 519.144 2.10987 4.76586 0
M  V30 5563 C 516.472 2.81676 5.14661 0
M  V30 5564 C 518.824 3.31068 5.39052 0
M  V30 5565 C 517.488 3.66794 5.5769 0
M  V30 5566 H 516.758 0.0265007 0.740526 0
M  V30 5567 H 519.405 0.762935 1.75646 0
M  V30 5568 H 517.71 -0.813791 3.83255 0
M  V30 5569 H 519.407 -0.453078 3.98432 0
M  V30 5570 H 515.997 0.967808 4.1753 0
M  V30 5571 H 520.181 1.84904 4.60569 0
M  V30 5572 H 515.437 3.0949 5.27282 0
M  V30 5573 H 519.611 3.97672 5.71691 0
M  V30 5574 H 517.238 4.60529 6.04828 0
M  V30 5575 N 518.813 -1.54241 0.323641 0
M  V30 5576 C 520.041 -2.04985 -0.280871 0
M  V30 5577 C 520.456 -1.19978 -1.45777 0
M  V30 5578 O 519.813 -0.230471 -1.81039 0
M  V30 5579 C 519.864 -3.54353 -0.715258 0
M  V30 5580 O 519.585 -4.36132 0.414817 0
M  V30 5581 C 521.086 -4.21189 -1.38257 0
M  V30 5582 H 518.306 -0.66851 -0.0577502 0
M  V30 5583 H 520.85 -1.99029 0.469852 0
M  V30 5584 H 519.005 -3.60596 -1.41596 0
M  V30 5585 H 519.419 -5.2445 0.0725227 0
M  V30 5586 H 520.893 -5.27154 -1.63745 0
M  V30 5587 H 521.37 -3.72307 -2.32989 0
M  V30 5588 H 521.976 -4.19085 -0.724447 0
M  V30 5589 N 520.291 -0.0518155 -1.57515 0
M  V30 5590 C 521.238 0.922352 -2.11569 0
M  V30 5591 C 522.208 1.30842 -1.02321 0
M  V30 5592 O 523.393 1.39778 -1.29872 0
M  V30 5593 C 520.533 2.19167 -2.6657 0
M  V30 5594 C 519.646 1.86003 -3.89906 0
M  V30 5595 C 518.781 3.07398 -4.33221 0
M  V30 5596 C 517.82 2.70158 -5.49255 0
M  V30 5597 N 516.957 3.84248 -5.8762 0
M  V30 5598 H 521.797 0.454506 -2.94514 0
M  V30 5599 H 519.334 0.212718 -1.45554 0
M  V30 5600 H 521.292 2.93443 -2.96559 0
M  V30 5601 H 519.922 2.63528 -1.86421 0
M  V30 5602 H 518.974 1.01874 -3.66505 0
M  V30 5603 H 520.286 1.54592 -4.74239 0
M  V30 5604 H 519.44 3.89972 -4.64765 0
M  V30 5605 H 518.179 3.41988 -3.477 0
M  V30 5606 H 517.184 1.86001 -5.17382 0
M  V30 5607 H 518.409 2.36759 -6.36492 0
M  V30 5608 H 516.355 4.18638 -5.05053 0
M  V30 5609 H 516.272 3.56538 -6.66646 0
M  V30 5610 H 517.54 4.6746 -6.2378 0
M  V30 5611 N 521.769 1.56035 0.221574 0
M  V30 5612 C 522.732 1.91584 1.2581 0
M  V30 5613 C 523.732 0.794425 1.39805 0
M  V30 5614 O 524.922 1.06217 1.38071 0
M  V30 5615 C 522.054 2.16663 2.63192 0
M  V30 5616 H 523.247 2.8429 0.954935 0
M  V30 5617 H 520.8 1.49316 0.461988 0
M  V30 5618 H 521.535 1.26508 2.98607 0
M  V30 5619 H 521.32 2.98358 2.5441 0
M  V30 5620 H 522.81 2.45262 3.37988 0
M  V30 5621 N 523.247 -0.488276 1.49845 0
M  V30 5622 C 524.179 -1.60539 1.63584 0
M  V30 5623 C 525.192 -1.5434 0.517972 0
M  V30 5624 O 526.381 -1.60041 0.790516 0
M  V30 5625 C 523.481 -2.99374 1.58835 0
M  V30 5626 C 522.654 -3.30624 2.86368 0
M  V30 5627 C 521.713 -4.4893 2.74496 0
M  V30 5628 O 520.739 -4.50085 3.48443 0
M  V30 5629 N 521.941 -5.49591 1.86894 0
M  V30 5630 H 524.706 -1.49176 2.59936 0
M  V30 5631 H 522.267 -0.67639 1.47094 0
M  V30 5632 H 524.259 -3.76459 1.48529 0
M  V30 5633 H 522.829 -3.04595 0.702892 0
M  V30 5634 H 522.049 -2.42314 3.1093 0
M  V30 5635 H 523.337 -3.48305 3.70892 0
M  V30 5636 H 522.735 -5.51467 1.26097 0
M  V30 5637 H 521.292 -6.25728 1.82503 0
M  V30 5638 N 524.725 -1.39134 -0.740242 0
M  V30 5639 C 526.141 -1.20623 -1.0451 0
M  V30 5640 C 526.341 -0.0641651 -2.01398 0
M  V30 5641 O 525.397 0.585843 -2.4561 0
M  V30 5642 C 526.71 -2.53815 -1.6124 0
M  V30 5643 C 528.258 -2.60615 -1.73346 0
M  V30 5644 C 528.733 -3.94015 -2.33486 0
M  V30 5645 N 530.224 -3.95627 -2.40902 0
M  V30 5646 C 530.959 -4.95616 -2.88361 0
M  V30 5647 N 530.455 -6.06003 -3.35756 0
M  V30 5648 N 532.248 -4.82998 -2.87523 0
M  V30 5649 H 524.399 -2.12176 -0.0975576 0
M  V30 5650 H 526.662 -0.942066 -0.105904 0
M  V30 5651 H 526.368 -3.37911 -0.975144 0
M  V30 5652 H 526.242 -2.73162 -2.6012 0
M  V30 5653 H 528.629 -1.76906 -2.36195 0
M  V30 5654 H 528.71 -2.45123 -0.731336 0
M  V30 5655 H 528.354 -4.78153 -1.71267 0
M  V30 5656 H 528.284 -4.06825 -3.34366 0
M  V30 5657 H 530.775 -3.15903 -2.07398 0
M  V30 5658 H 531.088 -6.78215 -3.70464 0
M  V30 5659 H 529.433 -6.09604 -3.33778 0
M  V30 5660 H 532.624 -3.95866 -2.49816 0
M  V30 5661 H 532.797 -5.61072 -3.24196 0
M  V30 5662 N 526.204 0.969867 -1.24223 0
M  V30 5663 C 527.151 2.06407 -1.0327 0
M  V30 5664 C 528.121 1.66014 0.0533 0
M  V30 5665 O 529.306 1.90533 -0.100896 0
M  V30 5666 C 526.446 3.3909 -0.641262 0
M  V30 5667 C 525.559 3.9269 -1.80051 0
M  V30 5668 C 524.694 5.13631 -1.35486 0
M  V30 5669 C 523.733 5.59423 -2.48419 0
M  V30 5670 N 522.87 6.71586 -2.04737 0
M  V30 5671 H 527.71 2.23663 -1.96923 0
M  V30 5672 H 525.247 1.09624 -0.980862 0
M  V30 5673 H 527.205 4.15323 -0.395351 0
M  V30 5674 H 525.835 3.21765 0.258269 0
M  V30 5675 H 524.887 3.13116 -2.16014 0
M  V30 5676 H 526.199 4.22636 -2.64916 0
M  V30 5677 H 525.353 5.97231 -1.0677 0
M  V30 5678 H 524.092 4.85364 -0.476722 0
M  V30 5679 H 523.097 4.74398 -2.77897 0
M  V30 5680 H 524.322 5.89705 -3.36786 0
M  V30 5681 H 522.268 6.45058 -1.19318 0
M  V30 5682 H 522.185 7.0097 -2.83156 0
M  V30 5683 H 523.453 7.58633 -1.79154 0
M  V30 5684 N 527.682 1.05563 1.17022 0
M  V30 5685 C 528.63 0.653887 2.2322 0
M  V30 5686 C 529.624 -0.326642 1.66221 0
M  V30 5687 O 530.83 -0.192301 1.7897 0
M  V30 5688 H 527.205 0.193297 0.726733 0
M  V30 5689 H 529.176 1.5596 2.54399 0
M  V30 5690 C 527.925 0.0485434 3.47666 0
M  V30 5691 H 527.248 0.79413 3.91834 0
M  V30 5692 H 528.688 -0.195133 4.23551 0
M  V30 5693 C 527.147 -1.20583 3.14581 0
M  V30 5694 O 527.677 -2.29475 3.29703 0
M  V30 5695 N 525.883 -1.10493 2.68774 0
M  V30 5696 H 525.43 -0.218795 2.56669 0
M  V30 5697 H 525.388 -1.94507 2.47011 0
M  V30 5698 N 529.16 -1.33526 0.837174 0
M  V30 5699 C 530.409 -1.97098 0.428387 0
M  V30 5700 C 530.722 -1.67062 -1.01734 0
M  V30 5701 O 531.928 -2.24235 -1.53072 0
M  V30 5702 C 530.384 -3.52725 0.715075 0
M  V30 5703 C 529.992 -3.9164 2.17537 0
M  V30 5704 C 531.736 -4.22857 0.373154 0
M  V30 5705 C 529.643 -5.40237 2.40619 0
M  V30 5706 H 528.573 -0.737589 0.156455 0
M  V30 5707 H 531.224 -1.52169 1.02552 0
M  V30 5708 H 529.606 -3.95971 0.0475904 0
M  V30 5709 H 530.78 -3.59456 2.88319 0
M  V30 5710 H 529.095 -3.34485 2.4801 0
M  V30 5711 H 531.692 -5.32133 0.523264 0
M  V30 5712 H 532.035 -4.10647 -0.683708 0
M  V30 5713 H 532.568 -3.85135 0.995801 0
M  V30 5714 H 529.307 -5.57449 3.44864 0
M  V30 5715 H 528.827 -5.73887 1.74396 0
M  V30 5716 H 530.506 -6.07102 2.23688 0
M  V30 5717 N 530.638 -0.59345 -1.46 0
M  V30 5718 C 531.863 -0.0872365 -2.07216 0
M  V30 5719 C 532.288 1.2131 -1.43755 0
M  V30 5720 O 531.646 1.73528 -0.525152 0
M  V30 5721 C 531.694 0.0538197 -3.6056 0
M  V30 5722 O 530.798 1.10765 -3.97247 0
M  V30 5723 H 530.139 -0.0676598 -0.660544 0
M  V30 5724 H 532.669 -0.819445 -1.87473 0
M  V30 5725 H 532.679 0.256567 -4.07193 0
M  V30 5726 H 531.354 -0.895739 -4.0614 0
M  V30 5727 H 529.931 0.882501 -3.62307 0
M  V30 5728 N 532.116 1.54067 -0.331816 0
M  V30 5729 C 533.362 2.01012 0.268667 0
M  V30 5730 C 533.695 1.2195 1.51136 0
M  V30 5731 O 532.97 0.303972 1.9211 0
M  V30 5732 C 533.253 3.55158 0.59456 0
M  V30 5733 C 533.106 4.4494 -0.659409 0
M  V30 5734 C 534.425 4.16939 1.4089 0
M  V30 5735 H 531.544 0.730698 0.0961756 0
M  V30 5736 H 534.186 1.84593 -0.450031 0
M  V30 5737 H 532.336 3.6928 1.20685 0
M  V30 5738 H 534.008 4.42675 -1.29756 0
M  V30 5739 H 532.251 4.1428 -1.28665 0
M  V30 5740 H 532.922 5.50643 -0.386804 0
M  V30 5741 H 535.398 4.06443 0.891272 0
M  V30 5742 H 534.274 5.24889 1.60569 0
M  V30 5743 H 534.535 3.70798 2.40752 0
M  V30 5744 N 533.594 0.0601682 1.57485 0
M  V30 5745 C 534.84 -0.606552 1.94146 0
M  V30 5746 C 535.195 -1.67918 0.939225 0
M  V30 5747 O 534.488 -1.91558 -0.0402649 0
M  V30 5748 C 534.682 -1.23831 3.35262 0
M  V30 5749 C 534.511 -0.228408 4.4912 0
M  V30 5750 C 533.281 0.182813 5.04969 0
M  V30 5751 C 535.479 0.52975 5.11564 0
M  V30 5752 N 533.461 1.18464 6.02362 0
M  V30 5753 C 534.832 1.38439 6.04346 0
M  V30 5754 C 536.887 0.587084 4.94427 0
M  V30 5755 C 535.59 2.29125 6.81832 0
M  V30 5756 C 537.616 1.4814 5.72546 0
M  V30 5757 C 536.978 2.32375 6.64967 0
M  V30 5758 H 533.077 -0.193328 0.757726 0
M  V30 5759 H 535.661 0.1346 1.94234 0
M  V30 5760 H 533.832 -1.94944 3.35933 0
M  V30 5761 H 535.564 -1.86456 3.59188 0
M  V30 5762 H 532.319 -0.197968 4.73186 0
M  V30 5763 H 532.743 1.68271 6.55754 0
M  V30 5764 H 537.385 -0.049944 4.22771 0
M  V30 5765 H 535.103 2.93868 7.52773 0
M  V30 5766 H 538.689 1.53045 5.6131 0
M  V30 5767 H 537.569 3.00454 7.2436 0
M  V30 5768 N 535.072 -1.5615 -0.213296 0
M  V30 5769 C 536.312 -1.81325 -0.943435 0
M  V30 5770 C 536.676 -0.634934 -1.81198 0
M  V30 5771 O 537.877 -0.766166 -2.5765 0
M  V30 5772 C 536.148 -3.11437 -1.75334 0
M  V30 5773 S 537.707 -3.57955 -2.53799 0
M  V30 5774 H 534.525 -0.636538 -0.316766 0
M  V30 5775 H 537.127 -1.94387 -0.208313 0
M  V30 5776 H 535.831 -3.95228 -1.10556 0
M  V30 5777 H 535.362 -3.01204 -2.53061 0
M  V30 5778 H 537.377 -3.21947 -3.77577 0
M  V30 5779 N 536.55 0.480323 -1.50102 0
M  V30 5780 C 537.497 1.57946 -1.6829 0
M  V30 5781 C 538.467 1.57611 -0.524223 0
M  V30 5782 O 539.652 1.75282 -0.753709 0
M  V30 5783 C 536.792 2.95978 -1.77457 0
M  V30 5784 C 535.905 3.06173 -3.04766 0
M  V30 5785 C 535.04 4.35063 -3.04784 0
M  V30 5786 C 534.079 4.38966 -4.26586 0
M  V30 5787 N 533.216 5.59314 -4.24396 0
M  V30 5788 H 538.056 1.41743 -2.62131 0
M  V30 5789 H 535.593 0.689304 -1.2995 0
M  V30 5790 H 537.551 3.76011 -1.80752 0
M  V30 5791 H 536.181 3.10837 -0.870637 0
M  V30 5792 H 535.233 2.19071 -3.10986 0
M  V30 5793 H 536.545 3.04916 -3.9475 0
M  V30 5794 H 535.699 5.23436 -3.06757 0
M  V30 5795 H 534.438 4.38915 -2.12614 0
M  V30 5796 H 533.443 3.48992 -4.24835 0
M  V30 5797 H 534.668 4.36813 -5.19972 0
M  V30 5798 H 532.614 5.63969 -3.35074 0
M  V30 5799 H 532.531 5.5976 -5.08138 0
M  V30 5800 H 533.799 6.49837 -4.30502 0
M  V30 5801 N 538.028 1.39524 0.732853 0
M  V30 5802 C 538.96 1.34318 1.85718 0
M  V30 5803 C 539.973 0.251576 1.60844 0
M  V30 5804 O 541.162 0.510685 1.71039 0
M  V30 5805 C 538.262 1.06334 3.21786 0
M  V30 5806 C 537.435 2.26813 3.73998 0
M  V30 5807 C 536.494 1.95253 4.88634 0
M  V30 5808 O 535.52 2.67957 5.02183 0
M  V30 5809 N 536.722 0.919984 5.73164 0
M  V30 5810 H 539.487 2.3121 1.90688 0
M  V30 5811 H 537.048 1.33654 0.91368 0
M  V30 5812 H 539.04 0.832363 3.96048 0
M  V30 5813 H 537.61 0.181682 3.12072 0
M  V30 5814 H 536.83 2.65849 2.91064 0
M  V30 5815 H 538.118 3.0717 4.05616 0
M  V30 5816 H 537.516 0.317487 5.64808 0
M  V30 5817 H 536.073 0.748905 6.47483 0
M  V30 5818 N 539.506 -0.963266 1.24736 0
M  V30 5819 C 540.469 -2.04013 1.04457 0
M  V30 5820 C 541.469 -1.608 0.000335555 0
M  V30 5821 O 542.659 -1.72515 0.241719 0
M  V30 5822 C 539.791 -3.35858 0.584162 0
M  V30 5823 H 540.984 -2.23436 2.00041 0
M  V30 5824 H 538.537 -1.13914 1.07021 0
M  V30 5825 H 539.272 -3.22128 -0.374673 0
M  V30 5826 H 539.057 -3.68568 1.3379 0
M  V30 5827 H 540.547 -4.1502 0.463451 0
M  V30 5828 N 540.985 -1.06182 -1.16461 0
M  V30 5829 C 541.895 -0.682671 -2.24448 0
M  V30 5830 C 542.911 0.30078 -1.71381 0
M  V30 5831 O 544.087 0.150376 -2.00838 0
M  V30 5832 C 541.152 -0.0737202 -3.46622 0
M  V30 5833 C 540.213 -1.10889 -4.14731 0
M  V30 5834 C 539.446 -0.528908 -5.31073 0
M  V30 5835 O 539.669 0.65868 -5.66584 0
M  V30 5836 O 538.603 -1.26805 -5.88391 0
M  V30 5837 H 542.429 -1.58291 -2.59187 0
M  V30 5838 H 540.014 -0.834013 -1.23954 0
M  V30 5839 H 541.896 0.264192 -4.20571 0
M  V30 5840 H 540.571 0.800015 -3.13658 0
M  V30 5841 H 539.478 -1.49896 -3.42756 0
M  V30 5842 H 540.811 -1.95412 -4.51747 0
M  V30 5843 N 542.463 1.3308 -0.844243 0
M  V30 5844 C 543.373 2.32876 -0.283922 0
M  V30 5845 C 544.389 1.63589 0.592846 0
M  V30 5846 O 545.565 1.95205 0.495693 0
M  V30 5847 C 542.63 3.42667 0.527283 0
M  V30 5848 C 541.691 4.27664 -0.374394 0
M  V30 5849 C 540.924 5.32212 0.39819 0
M  V30 5850 O 541.147 5.46635 1.62932 0
M  V30 5851 O 540.081 6.01458 -0.2306 0
M  V30 5852 H 543.907 2.82671 -1.11045 0
M  V30 5853 H 541.492 1.36518 -0.606903 0
M  V30 5854 H 543.374 4.09652 0.988078 0
M  V30 5855 H 542.049 2.95079 1.33078 0
M  V30 5856 H 540.956 3.63526 -0.883144 0
M  V30 5857 H 542.289 4.78749 -1.1428 0
M  V30 5858 N 543.941 0.601185 1.45683 0
M  V30 5859 C 545.19 0.0914953 2.01492 0
M  V30 5860 C 545.503 -1.28331 1.47616 0
M  V30 5861 O 546.709 -1.88537 1.95362 0
M  V30 5862 C 545.165 0.11291 3.59723 0
M  V30 5863 C 544.773 1.48717 4.22596 0
M  V30 5864 C 546.517 -0.341871 4.23121 0
M  V30 5865 C 544.424 1.46531 5.7296 0
M  V30 5866 H 543.354 0.0304365 0.753385 0
M  V30 5867 H 546.005 0.755568 1.67223 0
M  V30 5868 H 544.387 -0.617692 3.91153 0
M  V30 5869 H 545.561 2.23897 4.02749 0
M  V30 5870 H 543.876 1.88351 3.71366 0
M  V30 5871 H 546.473 -0.377304 5.33367 0
M  V30 5872 H 546.816 -1.36325 3.93346 0
M  V30 5873 H 547.349 0.335256 3.96385 0
M  V30 5874 H 544.088 2.46408 6.07423 0
M  V30 5875 H 543.608 0.755997 5.95017 0
M  V30 5876 H 545.287 1.18618 6.36034 0
M  V30 5877 N 545.419 -1.53889 0.339982 0
M  V30 5878 C 546.835 -1.59595 -0.0120752 0
M  V30 5879 C 547.035 -1.35605 -1.49042 0
M  V30 5880 O 546.091 -1.14856 -2.24865 0
M  V30 5881 C 547.404 -2.9774 0.420898 0
M  V30 5882 C 548.952 -3.1077 0.37294 0
M  V30 5883 C 549.427 -4.51286 0.781327 0
M  V30 5884 N 550.918 -4.57325 0.735374 0
M  V30 5885 C 551.653 -5.64194 1.02336 0
M  V30 5886 N 551.149 -6.7893 1.37933 0
M  V30 5887 N 552.942 -5.54051 0.947838 0
M  V30 5888 H 545.093 -1.67738 1.30299 0
M  V30 5889 H 547.356 -0.785385 0.530918 0
M  V30 5890 H 547.062 -3.20349 1.45152 0
M  V30 5891 H 546.936 -3.76639 -0.205721 0
M  V30 5892 H 549.323 -2.87886 -0.648505 0
M  V30 5893 H 549.404 -2.33939 1.03472 0
M  V30 5894 H 549.048 -4.74905 1.80077 0
M  V30 5895 H 548.978 -5.26511 0.0970679 0
M  V30 5896 H 551.469 -3.74931 0.472773 0
M  V30 5897 H 551.782 -7.56392 1.58402 0
M  V30 5898 H 550.127 -6.80386 1.41774 0
M  V30 5899 H 553.318 -4.63293 0.669115 0
M  V30 5900 H 553.491 -6.37246 1.17563 0
M  V30 5901 N 546.897 -0.0685191 -1.57451 0
M  V30 5902 C 547.845 0.917577 -2.13736 0
M  V30 5903 C 548.839 1.31049 -1.07344 0
M  V30 5904 O 550.045 1.28811 -1.25728 0
M  V30 5905 H 546.42 0.313835 -0.683382 0
M  V30 5906 H 548.391 0.417903 -2.95459 0
M  V30 5907 C 547.14 2.17686 -2.71123 0
M  V30 5908 H 546.463 1.88336 -3.52661 0
M  V30 5909 H 547.903 2.84803 -3.14107 0
M  V30 5910 C 546.362 2.9332 -1.65726 0
M  V30 5911 O 546.892 3.86901 -1.08031 0
M  V30 5912 N 545.098 2.56367 -1.36837 0
M  V30 5913 H 544.645 1.80341 -1.83943 0
M  V30 5914 H 544.603 3.07276 -0.665501 0
M  V30 5915 N 548.375 1.56261 0.205012 0
M  V30 5916 C 549.624 1.79236 0.925058 0
M  V30 5917 C 549.937 0.640011 1.84833 0
M  V30 5918 O 551.143 0.753809 2.60826 0
M  V30 5919 C 549.599 3.17475 1.69522 0
M  V30 5920 C 549.207 4.40482 0.817269 0
M  V30 5921 C 550.951 3.49766 2.4055 0
M  V30 5922 C 548.858 5.69744 1.58573 0
M  V30 5923 H 547.788 0.668287 0.349153 0
M  V30 5924 H 550.439 1.82629 0.178544 0
M  V30 5925 H 548.821 3.08304 2.48526 0
M  V30 5926 H 549.995 4.60752 0.0665988 0
M  V30 5927 H 548.31 4.15827 0.218316 0
M  V30 5928 H 550.907 4.43573 2.98575 0
M  V30 5929 H 551.25 2.73041 3.14252 0
M  V30 5930 H 551.783 3.60341 1.68522 0
M  V30 5931 H 548.522 6.49407 0.891679 0
M  V30 5932 H 548.042 5.53509 2.31059 0
M  V30 5933 H 549.721 6.1051 2.14212 0
M  V30 5934 N 549.853 -0.472356 1.50355 0
M  V30 5935 C 550.803 -1.56809 1.65514 0
M  V30 5936 C 551.787 -1.5261 0.509801 0
M  V30 5937 O 552.979 -1.59655 0.764145 0
M  V30 5938 C 550.108 -2.9526 1.75146 0
M  V30 5939 C 549.194 -3.04348 2.95353 0
M  V30 5940 N 549.585 -2.83253 4.19048 0
M  V30 5941 C 547.883 -3.35482 2.93884 0
M  V30 5942 C 548.584 -2.97273 5.00003 0
M  V30 5943 N 547.56 -3.27418 4.33934 0
M  V30 5944 H 551.362 -1.39197 2.58846 0
M  V30 5945 H 548.876 -0.67906 1.47521 0
M  V30 5946 H 550.873 -3.74044 1.8411 0
M  V30 5947 H 549.533 -3.1392 0.829717 0
M  V30 5948 H 550.544 -2.5886 4.48567 0
M  V30 5949 H 547.221 -3.60138 2.11204 0
M  V30 5950 H 548.611 -2.85214 6.08361 0
M  V30 5951 N 551.331 -1.39911 -0.725443 0
M  V30 5952 C 552.279 -1.39552 -1.86086 0
M  V30 5953 C 553.273 -0.277334 -1.67114 0
M  V30 5954 O 554.479 -0.447865 -1.74339 0
M  V30 5955 H 550.854 -0.435993 -0.612711 0
M  V30 5956 H 552.825 -2.35305 -1.83505 0
M  V30 5957 C 551.574 -1.26529 -3.2386 0
M  V30 5958 H 550.897 -2.11845 -3.3906 0
M  V30 5959 H 552.337 -1.30336 -4.03471 0
M  V30 5960 C 550.796 0.0254168 -3.3689 0
M  V30 5961 O 551.326 0.992048 -3.89257 0
M  V30 5962 N 549.532 0.0916528 -2.90455 0
M  V30 5963 H 549.079 -0.695675 -2.48028 0
M  V30 5964 H 549.037 0.954745 -2.99553 0
M  V30 5965 N 552.809 0.956637 -1.25245 0
M  V30 5966 C 554.086 1.67716 -1.00651 0
M  V30 5967 C 554.466 2.0585 0.467866 0
M  V30 5968 O 553.814 1.77029 1.44475 0
M  V30 5969 C 554.024 2.90093 -1.94028 0
M  V30 5970 C 555.372 3.6209 -2.21756 0
M  V30 5971 O 556.396 3.00171 -1.9177 0
M  V30 5972 O 555.255 4.7358 -2.72735 0
M  V30 5973 H 552.349 0.733731 -0.381533 0
M  V30 5974 H 554.895 1.00974 -1.3639 0
M  V30 5975 H 553.667 2.58689 -2.93591 0
M  V30 5976 H 553.29 3.64566 -1.58674 0
M  V30 5977 N 554.287 1.06798 1.15896 0
M  V30 5978 C 555.197 0.694564 2.24083 0
M  V30 5979 C 556.213 -0.291687 1.71538 0
M  V30 5980 O 557.389 -0.139723 2.00915 0
M  V30 5981 C 554.454 0.0921014 3.46578 0
M  V30 5982 C 553.515 1.13087 4.14137 0
M  V30 5983 C 552.748 0.557064 5.30785 0
M  V30 5984 O 552.971 -0.628623 5.66925 0
M  V30 5985 O 551.905 1.29924 5.8771 0
M  V30 5986 H 555.731 1.59663 2.58344 0
M  V30 5987 H 553.316 0.840575 1.2351 0
M  V30 5988 H 555.198 -0.241884 4.20705 0
M  V30 5989 H 553.873 -0.78337 3.14078 0
M  V30 5990 H 552.78 1.51712 3.41957 0
M  V30 5991 H 554.113 1.97805 4.50704 0
M  V30 5992 N 555.766 -1.3263 0.851289 0
M  V30 5993 C 556.696 -2.31449 0.308771 0
M  V30 5994 C 557.677 -1.59531 -0.590255 0
M  V30 5995 O 558.862 -1.87351 -0.511205 0
M  V30 5996 C 555.992 -3.43586 -0.506548 0
M  V30 5997 C 554.946 -4.26963 0.297753 0
M  V30 5998 C 554.272 -5.30831 -0.642094 0
M  V30 5999 C 555.572 -4.99643 1.52166 0
M  V30 6000 H 557.266 -2.77074 1.13447 0
M  V30 6001 H 554.812 -1.33207 0.546971 0
M  V30 6002 H 556.765 -4.11754 -0.896474 0
M  V30 6003 H 555.489 -2.96681 -1.36558 0
M  V30 6004 H 554.148 -3.60437 0.669391 0
M  V30 6005 H 553.796 -4.8018 -1.49788 0
M  V30 6006 H 553.496 -5.87501 -0.107968 0
M  V30 6007 H 555.02 -6.01862 -1.02927 0
M  V30 6008 H 556.434 -5.6051 1.20421 0
M  V30 6009 H 554.831 -5.66022 1.99347 0
M  V30 6010 H 555.901 -4.27701 2.28474 0
M  V30 6011 N 557.244 -0.608902 -1.45362 0
M  V30 6012 C 558.177 0.158059 -2.27652 0
M  V30 6013 C 559.155 0.872397 -1.37215 0
M  V30 6014 O 560.339 0.881002 -1.66645 0
M  V30 6015 C 557.466 1.22896 -3.15617 0
M  V30 6016 C 556.512 0.617607 -4.22005 0
M  V30 6017 S 557.345 -0.575518 -5.32398 0
M  V30 6018 C 558.501 0.495938 -6.23932 0
M  V30 6019 H 558.734 -0.540095 -2.92353 0
M  V30 6020 H 556.267 -0.396456 -1.49223 0
M  V30 6021 H 558.225 1.84195 -3.66855 0
M  V30 6022 H 556.886 1.89919 -2.50179 0
M  V30 6023 H 556.079 1.42341 -4.83482 0
M  V30 6024 H 555.681 0.0797273 -3.73915 0
M  V30 6025 H 557.973 1.37465 -6.63408 0
M  V30 6026 H 558.916 -0.0827108 -7.08052 0
M  V30 6027 H 559.324 0.811856 -5.58631 0
M  V30 6028 N 558.722 1.53707 -0.348139 0
M  V30 6029 C 559.97 2.00591 0.246478 0
M  V30 6030 C 560.291 1.23753 1.50699 0
M  V30 6031 O 559.561 0.345964 1.92821 0
M  V30 6032 H 558.141 0.741053 0.0940679 0
M  V30 6033 H 560.803 1.89139 -0.470354 0
M  V30 6034 H 559.899 3.08297 0.485714 0
M  V30 6035 N 560.2 0.0768682 1.57412 0
M  V30 6036 C 561.449 -0.590679 1.92857 0
M  V30 6037 C 561.762 -1.70461 0.959293 0
M  V30 6038 O 562.968 -2.43207 1.20675 0
M  V30 6039 C 561.424 -1.10204 3.42612 0
M  V30 6040 C 561.032 -0.0188447 4.47996 0
M  V30 6041 C 562.776 -1.74336 3.87049 0
M  V30 6042 C 560.683 -0.544536 5.88888 0
M  V30 6043 H 559.613 -0.224411 0.71983 0
M  V30 6044 H 562.264 0.149924 1.82887 0
M  V30 6045 H 560.646 -1.89577 3.47673 0
M  V30 6046 H 561.82 0.755936 4.54557 0
M  V30 6047 H 560.135 0.526555 4.13057 0
M  V30 6048 H 562.732 -2.14708 4.89699 0
M  V30 6049 H 563.075 -2.60537 3.24694 0
M  V30 6050 H 563.608 -1.01577 3.84613 0
M  V30 6051 H 560.347 0.280426 6.549 0
M  V30 6052 H 559.867 -1.28673 5.85836 0
M  V30 6053 H 561.546 -1.01933 6.3892 0
M  V30 6054 N 561.678 -1.56367 -0.196722 0
M  V30 6055 C 563.094 -1.49916 -0.54749 0
M  V30 6056 C 563.294 -0.77659 -1.85934 0
M  V30 6057 O 562.35 -0.32644 -2.50381 0
M  V30 6058 C 563.663 -2.94577 -0.603734 0
M  V30 6059 C 565.211 -3.05239 -0.692677 0
M  V30 6060 C 565.686 -4.51308 -0.780046 0
M  V30 6061 N 567.177 -4.55453 -0.843616 0
M  V30 6062 C 567.912 -5.65786 -0.931358 0
M  V30 6063 N 567.408 -6.85812 -0.981503 0
M  V30 6064 N 569.201 -5.53695 -0.968421 0
M  V30 6065 H 561.352 -2.01761 0.663803 0
M  V30 6066 H 563.615 -0.918094 0.236238 0
M  V30 6067 H 563.321 -3.50494 0.29105 0
M  V30 6068 H 563.195 -3.47841 -1.45898 0
M  V30 6069 H 565.582 -2.49372 -1.57789 0
M  V30 6070 H 565.663 -2.55103 0.188736 0
M  V30 6071 H 565.307 -5.078 0.100811 0
M  V30 6072 H 565.237 -4.99176 -1.67724 0
M  V30 6073 H 567.728 -3.69025 -0.814176 0
M  V30 6074 H 568.041 -7.65648 -1.04892 0
M  V30 6075 H 566.386 -6.88474 -0.950208 0
M  V30 6076 H 569.577 -4.58848 -0.926072 0
M  V30 6077 H 569.75 -6.39708 -1.03334 0
M  V30 6078 N 563.156 0.464375 -1.50603 0
M  V30 6079 C 564.572 0.798684 -1.38178 0
M  V30 6080 C 564.772 1.96568 -0.44308 0
M  V30 6081 O 563.828 2.52252 0.111814 0
M  V30 6082 C 565.141 1.10444 -2.79683 0
M  V30 6083 C 566.689 1.2105 -2.88645 0
M  V30 6084 C 567.164 1.54934 -4.30998 0
M  V30 6085 N 568.655 1.61913 -4.3398 0
M  V30 6086 C 569.39 1.8965 -5.41129 0
M  V30 6087 N 568.886 2.15361 -6.58477 0
M  V30 6088 N 570.679 1.91207 -5.28579 0
M  V30 6089 H 562.83 -0.304603 -2.10204 0
M  V30 6090 H 565.093 -0.0737804 -0.945125 0
M  V30 6091 H 564.799 0.319934 -3.50242 0
M  V30 6092 H 564.673 2.03896 -3.17342 0
M  V30 6093 H 567.06 1.98567 -2.18301 0
M  V30 6094 H 567.141 0.255613 -2.5452 0
M  V30 6095 H 566.785 0.779549 -5.01882 0
M  V30 6096 H 566.715 2.51584 -4.62615 0
M  V30 6097 H 569.206 1.44055 -3.49366 0
M  V30 6098 H 569.519 2.35818 -7.35941 0
M  V30 6099 H 567.864 2.1274 -6.6164 0
M  V30 6100 H 571.055 1.70622 -4.35897 0
M  V30 6101 H 571.228 2.12488 -6.12171 0
M  V30 6102 N 564.634 1.40294 0.718013 0
M  V30 6103 C 565.544 1.42678 1.86226 0
M  V30 6104 C 566.56 0.319655 1.71039 0
M  V30 6105 O 567.736 0.563852 1.93346 0
M  V30 6106 C 564.801 1.2852 3.21999 0
M  V30 6107 C 563.862 2.49354 3.49458 0
M  V30 6108 C 563.095 2.35863 4.78753 0
M  V30 6109 O 563.318 1.37114 5.53675 0
M  V30 6110 O 562.252 3.25189 5.06494 0
M  V30 6111 H 566.078 2.39167 1.87171 0
M  V30 6112 H 563.663 1.2159 0.868112 0
M  V30 6113 H 565.545 1.22824 4.03103 0
M  V30 6114 H 564.22 0.351359 3.21787 0
M  V30 6115 H 563.127 2.60628 2.68373 0
M  V30 6116 H 564.46 3.41491 3.54464 0
M  V30 6117 N 566.112 -0.949982 1.2575 0
M  V30 6118 C 567.022 -2.08109 1.08295 0
M  V30 6119 C 568.038 -1.7399 0.0188181 0
M  V30 6120 O 569.214 -2.00187 0.220724 0
M  V30 6121 C 566.279 -3.39383 0.708534 0
M  V30 6122 C 565.34 -3.8734 1.85111 0
M  V30 6123 C 564.573 -5.12349 1.49447 0
M  V30 6124 O 564.796 -5.6905 0.392212 0
M  V30 6125 O 563.73 -5.5513 2.32624 0
M  V30 6126 H 567.556 -2.25738 2.03165 0
M  V30 6127 H 565.141 -1.06545 1.04731 0
M  V30 6128 H 567.023 -4.18277 0.512061 0
M  V30 6129 H 565.698 -3.23013 -0.210854 0
M  V30 6130 H 564.605 -3.09429 2.10248 0
M  V30 6131 H 565.938 -4.08216 2.74991 0
M  V30 6132 N 567.59 -1.07411 -1.15328 0
M  V30 6133 C 568.5 -0.706438 -2.23711 0
M  V30 6134 C 569.516 0.282586 -1.7169 0
M  V30 6135 O 570.692 0.129066 -2.00986 0
M  V30 6136 C 567.757 -0.11048 -3.46524 0
M  V30 6137 C 566.818 -1.15282 -4.13532 0
M  V30 6138 C 566.051 -0.585205 -5.30482 0
M  V30 6139 O 566.274 0.598549 -5.67251 0
M  V30 6140 O 565.208 -1.33039 -5.87013 0
M  V30 6141 H 569.034 -1.61031 -2.57493 0
M  V30 6142 H 566.619 -0.847113 -1.23062 0
M  V30 6143 H 568.501 0.21957 -4.20828 0
M  V30 6144 H 567.176 0.766703 -3.14489 0
M  V30 6145 H 566.083 -1.53523 -3.41147 0
M  V30 6146 H 567.416 -2.00192 -4.49649 0
M  V30 6147 N 569.068 1.32177 -0.85831 0
M  V30 6148 C 570.001 2.26823 -0.25035 0
M  V30 6149 C 570.979 1.50571 0.61378 0
M  V30 6150 O 572.163 1.79682 0.569777 0
M  V30 6151 C 569.29 3.32472 0.646556 0
M  V30 6152 C 568.336 4.26255 -0.144675 0
M  V30 6153 S 569.169 5.13608 -1.5155 0
M  V30 6154 C 570.325 6.22778 -0.624408 0
M  V30 6155 H 570.558 2.7804 -1.05267 0
M  V30 6156 H 568.091 1.39764 -0.656152 0
M  V30 6157 H 570.049 3.93817 1.15837 0
M  V30 6158 H 568.71 2.80031 1.42272 0
M  V30 6159 H 567.903 5.01114 0.538613 0
M  V30 6160 H 567.505 3.69346 -0.588198 0
M  V30 6161 H 569.797 6.77287 0.169846 0
M  V30 6162 H 570.74 6.95233 -1.34376 0
M  V30 6163 H 571.148 5.64156 -0.197128 0
M  V30 6164 N 570.547 0.616602 1.45037 0
M  V30 6165 C 571.457 -0.0985401 2.34393 0
M  V30 6166 C 572.473 -0.850971 1.51771 0
M  V30 6167 O 573.649 -0.806521 1.84546 0
M  V30 6168 C 570.714 -1.07748 3.29532 0
M  V30 6169 C 569.775 -0.326022 4.2806 0
M  V30 6170 C 569.008 -1.25833 5.18654 0
M  V30 6171 O 569.231 -2.49652 5.12864 0
M  V30 6172 O 568.165 -0.750512 5.97203 0
M  V30 6173 H 571.991 0.636016 2.96966 0
M  V30 6174 H 569.576 0.376832 1.44569 0
M  V30 6175 H 571.458 -1.64107 3.88133 0
M  V30 6176 H 570.133 -1.79291 2.69512 0
M  V30 6177 H 569.04 0.280253 3.73049 0
M  V30 6178 H 570.373 0.349091 4.9096 0
M  V30 6179 N 572.025 -1.5352 0.356285 0
M  V30 6180 C 572.958 -2.2177 -0.537913 0
M  V30 6181 C 573.936 -1.20626 -1.09033 0
M  V30 6182 O 575.12 -1.49494 -1.1482 0
M  V30 6183 C 572.247 -2.90513 -1.74126 0
M  V30 6184 C 571.293 -4.05652 -1.31715 0
M  V30 6185 S 572.126 -5.34505 -0.326236 0
M  V30 6186 C 573.282 -6.06757 -1.53612 0
M  V30 6187 H 573.515 -2.97271 0.0417411 0
M  V30 6188 H 571.048 -1.53761 0.140372 0
M  V30 6189 H 573.006 -3.30735 -2.43155 0
M  V30 6190 H 571.667 -2.14754 -2.29215 0
M  V30 6191 H 570.86 -4.52733 -2.21471 0
M  V30 6192 H 570.462 -3.67272 -0.706183 0
M  V30 6193 H 572.754 -6.30924 -2.46863 0
M  V30 6194 H 573.697 -6.99395 -1.10687 0
M  V30 6195 H 574.105 -5.3708 -1.73796 0
M  V30 6196 N 573.503 -0.0852151 -1.57369 0
M  V30 6197 C 574.728 0.592872 -1.98746 0
M  V30 6198 C 575.153 1.61538 -0.963689 0
M  V30 6199 O 574.511 1.81168 0.069071 0
M  V30 6200 C 574.559 1.22599 -3.39119 0
M  V30 6201 O 573.663 2.34185 -3.39457 0
M  V30 6202 H 573.004 0.151314 -0.646529 0
M  V30 6203 H 575.534 -0.163703 -2.03944 0
M  V30 6204 H 575.544 1.56965 -3.76598 0
M  V30 6205 H 574.219 0.476831 -4.13158 0
M  V30 6206 H 572.796 2.01512 -3.13763 0
M  V30 6207 N 574.981 1.5647 0.188427 0
M  V30 6208 C 576.258 1.71857 0.934058 0
M  V30 6209 C 576.638 0.641867 2.01105 0
M  V30 6210 O 575.986 -0.346098 2.25864 0
M  V30 6211 C 576.196 3.14431 1.5144 0
M  V30 6212 C 577.544 3.74869 1.99396 0
M  V30 6213 O 578.568 3.17601 1.61269 0
M  V30 6214 O 577.427 4.75387 2.69573 0
M  V30 6215 H 574.521 0.701186 0.438483 0
M  V30 6216 H 577.067 1.68768 0.177599 0
M  V30 6217 H 575.839 3.8427 0.738416 0
M  V30 6218 H 575.462 3.21775 2.33552 0
M  V30 6219 N 576.459 -0.456382 1.50847 0
M  V30 6220 C 577.736 -1.21739 1.53098 0
M  V30 6221 C 578.116 -2.09179 0.284132 0
M  V30 6222 O 577.464 -2.16466 -0.731773 0
M  V30 6223 C 577.674 -2.03573 2.83477 0
M  V30 6224 C 579.022 -2.61264 3.34703 0
M  V30 6225 O 580.046 -2.13802 2.84898 0
M  V30 6226 O 578.905 -3.47779 4.21559 0
M  V30 6227 H 575.999 -0.553219 0.614718 0
M  V30 6228 H 578.545 -0.467003 1.63148 0
M  V30 6229 H 577.317 -1.39232 3.65691 0
M  V30 6230 H 576.94 -2.85716 2.76499 0
M  V30 6231 N 577.937 -1.40673 -0.710563 0
M  V30 6232 C 578.847 -1.43663 -1.85467 0
M  V30 6233 C 579.863 -0.328721 -1.70867 0
M  V30 6234 O 581.039 -0.574098 -1.93044 0
M  V30 6235 C 578.104 -1.30226 -3.21313 0
M  V30 6236 C 577.165 -2.51204 -3.48131 0
M  V30 6237 C 576.398 -2.38398 -4.77495 0
M  V30 6238 O 576.621 -1.40048 -5.5294 0
M  V30 6239 O 575.555 -3.2787 -5.04762 0
M  V30 6240 H 579.381 -2.40156 -1.859 0
M  V30 6241 H 576.966 -1.22049 -0.861652 0
M  V30 6242 H 578.848 -1.2496 -4.02446 0
M  V30 6243 H 577.523 -0.368419 -3.21597 0
M  V30 6244 H 576.43 -2.62048 -2.66987 0
M  V30 6245 H 577.763 -3.43366 -3.52648 0
M  V30 6246 N 579.415 0.9433 -1.26252 0
M  V30 6247 C 580.664 1.68369 -1.11062 0
M  V30 6248 C 580.977 1.92514 0.346104 0
M  V30 6249 O 582.183 2.64358 0.618646 0
M  V30 6250 C 580.639 3.03171 -1.93946 0
M  V30 6251 C 580.247 2.86782 -3.4418 0
M  V30 6252 C 581.991 3.80916 -1.87359 0
M  V30 6253 C 579.898 4.17044 -4.19319 0
M  V30 6254 H 578.828 0.631469 -0.412023 0
M  V30 6255 H 581.479 1.04922 -1.50544 0
M  V30 6256 H 579.861 3.67587 -1.47296 0
M  V30 6257 H 581.035 2.31229 -3.98585 0
M  V30 6258 H 579.35 2.22482 -3.51981 0
M  V30 6259 H 581.947 4.77417 -2.40784 0
M  V30 6260 H 582.29 4.07658 -0.843857 0
M  V30 6261 H 582.823 3.2327 -2.31821 0
M  V30 6262 H 579.562 3.95487 -5.22753 0
M  V30 6263 H 579.082 4.72319 -3.69696 0
M  V30 6264 H 580.761 4.85513 -4.27651 0
M  V30 6265 N 580.893 1.08022 1.14757 0
M  V30 6266 C 581.803 0.718292 2.23333 0
M  V30 6267 C 582.819 -0.273477 1.71837 0
M  V30 6268 O 583.995 -0.118406 2.01052 0
M  V30 6269 C 581.06 0.128855 3.4646 0
M  V30 6270 C 580.121 1.17473 4.12915 0
M  V30 6271 C 579.354 0.61333 5.30164 0
M  V30 6272 O 579.577 -0.568458 5.6756 0
M  V30 6273 O 578.511 1.3615 5.86299 0
M  V30 6274 H 582.337 1.62394 2.56636 0
M  V30 6275 H 579.922 0.853628 1.22611 0
M  V30 6276 H 581.804 -0.197249 4.20938 0
M  V30 6277 H 580.479 -0.750014 3.14891 0
M  V30 6278 H 579.386 1.5533 3.40328 0
M  V30 6279 H 580.719 2.02574 4.48581 0
M  V30 6280 N 582.371 -1.3172 0.865308 0
M  V30 6281 C 583.281 -2.32394 0.320935 0
M  V30 6282 C 584.297 -1.64511 -0.566746 0
M  V30 6283 O 585.473 -1.95969 -0.464575 0
M  V30 6284 C 582.538 -3.43462 -0.472701 0
M  V30 6285 C 581.599 -4.27015 0.442385 0
M  V30 6286 C 580.832 -5.32779 -0.313469 0
M  V30 6287 O 581.055 -5.49158 -1.54214 0
M  V30 6288 O 579.989 -6.01015 0.326257 0
M  V30 6289 H 583.815 -2.80868 1.15528 0
M  V30 6290 H 581.4 -1.35535 0.628545 0
M  V30 6291 H 583.282 -4.11172 -0.922781 0
M  V30 6292 H 581.957 -2.97159 -1.28367 0
M  V30 6293 H 580.864 -3.62075 0.940866 0
M  V30 6294 H 582.197 -4.76871 1.21882 0
M  V30 6295 N 583.85 -0.624285 -1.44708 0
M  V30 6296 C 584.783 0.133905 -2.27807 0
M  V30 6297 C 585.76 0.857794 -1.38133 0
M  V30 6298 O 586.945 0.863277 -1.6757 0
M  V30 6299 C 584.072 1.19541 -3.16903 0
M  V30 6300 C 583.118 0.572813 -4.22636 0
M  V30 6301 S 583.951 -0.631953 -5.31758 0
M  V30 6302 C 585.106 0.429733 -6.24423 0
M  V30 6303 H 585.34 -0.571072 -2.91764 0
M  V30 6304 H 582.873 -0.412261 -1.48794 0
M  V30 6305 H 584.831 1.80293 -3.68788 0
M  V30 6306 H 583.492 1.87255 -2.5218 0
M  V30 6307 H 582.685 1.37205 -4.84965 0
M  V30 6308 H 582.287 0.0400641 -3.73979 0
M  V30 6309 H 584.579 1.30421 -6.64828 0
M  V30 6310 H 585.522 -0.157804 -7.07924 0
M  V30 6311 H 585.93 0.75256 -5.59461 0
M  V30 6312 N 585.328 1.53329 -0.364422 0
M  V30 6313 C 586.556 2.05657 0.226424 0
M  V30 6314 C 586.971 1.23801 1.42544 0
M  V30 6315 O 586.328 0.27839 1.80364 0
M  V30 6316 C 586.379 3.56125 0.621056 0
M  V30 6317 O 586.1 4.34879 -0.530304 0
M  V30 6318 C 587.601 4.24706 1.27041 0
M  V30 6319 H 584.821 0.669806 0.0400056 0
M  V30 6320 H 587.365 1.97714 -0.522456 0
M  V30 6321 H 585.52 3.64223 1.31985 0
M  V30 6322 H 585.934 5.24073 -0.211546 0
M  V30 6323 H 587.408 5.3131 1.49711 0
M  V30 6324 H 587.885 3.78354 2.23036 0
M  V30 6325 H 588.491 4.20858 0.613079 0
M  V30 6326 N 586.806 0.0935595 1.57322 0
M  V30 6327 C 587.716 -0.880192 2.17462 0
M  V30 6328 C 588.732 -1.31135 1.14366 0
M  V30 6329 O 589.908 -1.37958 1.46729 0
M  V30 6330 C 586.973 -2.12184 2.74188 0
M  V30 6331 C 586.034 -1.74503 3.92234 0
M  V30 6332 C 585.267 -2.92748 4.46245 0
M  V30 6333 O 585.49 -4.07427 3.99198 0
M  V30 6334 O 584.424 -2.71303 5.37288 0
M  V30 6335 H 588.25 -0.398516 3.01074 0
M  V30 6336 H 585.835 -0.130707 1.48827 0
M  V30 6337 H 587.717 -2.84953 3.10451 0
M  V30 6338 H 586.392 -2.59407 1.93623 0
M  V30 6339 H 585.299 -0.989186 3.60785 0
M  V30 6340 H 586.632 -1.32044 4.74157 0
M  V30 6341 N 588.284 -1.56567 -0.180126 0
M  V30 6342 C 589.512 -1.85618 -0.913972 0
M  V30 6343 C 589.927 -0.677892 -1.7621 0
M  V30 6344 O 589.284 0.353171 -1.7905 0
M  V30 6345 C 589.335 -3.13619 -1.79793 0
M  V30 6346 O 589.056 -4.26906 -0.98402 0
M  V30 6347 C 590.557 -3.55954 -2.64219 0
M  V30 6348 H 587.777 -0.616043 -0.265954 0
M  V30 6349 H 590.321 -2.03681 -0.182872 0
M  V30 6350 H 588.476 -2.97409 -2.48247 0
M  V30 6351 H 588.89 -4.9989 -1.58776 0
M  V30 6352 H 590.364 -4.48444 -3.21873 0
M  V30 6353 H 590.841 -2.79653 -3.38661 0
M  V30 6354 H 591.447 -3.74746 -2.01111 0
M  V30 6355 N 589.762 0.448376 -1.51087 0
M  V30 6356 C 590.709 1.54341 -1.71603 0
M  V30 6357 C 591.679 1.56463 -0.557536 0
M  V30 6358 O 592.864 1.73644 -0.79072 0
M  V30 6359 C 590.004 2.92148 -1.83695 0
M  V30 6360 C 589.117 2.99639 -3.11192 0
M  V30 6361 C 588.252 4.285 -3.13944 0
M  V30 6362 C 587.291 4.29819 -4.35801 0
M  V30 6363 N 586.428 5.50186 -4.36164 0
M  V30 6364 H 591.268 1.36151 -2.65079 0
M  V30 6365 H 588.805 0.661585 -1.31383 0
M  V30 6366 H 590.763 3.72093 -1.88687 0
M  V30 6367 H 589.393 3.0892 -0.936374 0
M  V30 6368 H 588.445 2.12425 -3.15562 0
M  V30 6369 H 589.757 2.96474 -4.01129 0
M  V30 6370 H 588.911 5.16811 -3.17791 0
M  V30 6371 H 587.65 4.34307 -2.21876 0
M  V30 6372 H 586.655 3.39902 -4.32142 0
M  V30 6373 H 587.88 4.25685 -5.29121 0
M  V30 6374 H 585.826 5.56735 -3.46961 0
M  V30 6375 H 585.743 5.48856 -5.19897 0
M  V30 6376 H 587.011 6.40559 -4.44189 0
M  V30 6377 N 591.24 1.41047 0.703093 0
M  V30 6378 C 592.15 1.44645 1.84703 0
M  V30 6379 C 593.166 0.337778 1.7069 0
M  V30 6380 O 594.342 0.584327 1.92737 0
M  V30 6381 C 591.407 1.31928 3.20618 0
M  V30 6382 C 590.468 2.53047 3.46794 0
M  V30 6383 C 589.701 2.40927 4.76224 0
M  V30 6384 O 589.924 1.42978 5.5219 0
M  V30 6385 O 588.858 3.30543 5.03016 0
M  V30 6386 H 592.684 2.41139 1.84624 0
M  V30 6387 H 590.269 1.22504 0.855167 0
M  V30 6388 H 592.151 1.27092 4.01778 0
M  V30 6389 H 590.826 0.385469 3.21397 0
M  V30 6390 H 589.733 2.6346 2.65593 0
M  V30 6391 H 591.066 3.45231 3.50822 0
M  V30 6392 N 592.718 -0.936591 1.26751 0
M  V30 6393 C 593.946 -1.71758 1.15355 0
M  V30 6394 C 594.361 -1.86549 -0.290683 0
M  V30 6395 O 593.718 -1.37616 -1.19868 0
M  V30 6396 C 593.769 -3.12193 1.82258 0
M  V30 6397 O 593.49 -2.98105 3.21038 0
M  V30 6398 C 594.991 -4.06485 1.76875 0
M  V30 6399 H 592.211 -0.537636 0.401483 0
M  V30 6400 H 594.755 -1.17382 1.67457 0
M  V30 6401 H 592.91 -3.63456 1.34083 0
M  V30 6402 H 593.324 -3.86824 3.54214 0
M  V30 6403 H 594.798 -5.02569 2.28316 0
M  V30 6404 H 595.275 -4.32986 0.736216 0
M  V30 6405 H 595.881 -3.61144 2.24623 0
M  V30 6406 N 594.196 -1.08629 -1.14182 0
M  V30 6407 C 595.106 -0.730126 -2.22949 0
M  V30 6408 C 596.122 0.26436 -1.7198 0
M  V30 6409 O 597.298 0.107742 -2.01112 0
M  V30 6410 C 594.363 -0.147227 -3.46387 0
M  V30 6411 C 593.424 -1.19662 -4.12286 0
M  V30 6412 C 592.657 -0.641437 -5.29831 0
M  V30 6413 O 592.88 0.538351 -5.67854 0
M  V30 6414 O 591.814 -1.39257 -5.85569 0
M  V30 6415 H 595.64 -1.63753 -2.55771 0
M  V30 6416 H 593.225 -0.860118 -1.22157 0
M  V30 6417 H 595.107 0.174923 -4.21037 0
M  V30 6418 H 593.782 0.733304 -3.15285 0
M  V30 6419 H 592.689 -1.57133 -3.395 0
M  V30 6420 H 594.022 -2.0495 -4.475 0
M  V30 6421 N 595.674 1.31259 -0.872281 0
M  V30 6422 C 596.584 2.32221 -0.333255 0
M  V30 6423 C 597.6 1.6481 0.558013 0
M  V30 6424 O 598.776 1.96212 0.454175 0
M  V30 6425 C 595.841 3.43708 0.454479 0
M  V30 6426 C 594.902 4.26774 -0.465024 0
M  V30 6427 C 594.135 5.32937 0.28521 0
M  V30 6428 O 594.358 5.49968 1.513 0
M  V30 6429 O 593.292 6.00834 -0.358126 0
M  V30 6430 H 597.118 2.80252 -1.17016 0
M  V30 6431 H 594.703 1.352 -0.635724 0
M  V30 6432 H 596.585 4.11656 0.900963 0
M  V30 6433 H 595.26 2.97836 1.26789 0
M  V30 6434 H 594.167 3.61571 -0.960055 0
M  V30 6435 H 595.5 4.76217 -1.2441 0
M  V30 6436 N 597.152 0.631951 1.44375 0
M  V30 6437 C 598.377 0.142146 2.06912 0
M  V30 6438 C 598.802 -1.17456 1.4692 0
M  V30 6439 O 598.16 -1.72074 0.570975 0
M  V30 6440 C 598.208 0.0417952 3.60576 0
M  V30 6441 O 597.312 -1.00194 4.00044 0
M  V30 6442 H 596.653 0.0851491 0.658518 0
M  V30 6443 H 599.183 0.868863 1.85235 0
M  V30 6444 H 599.193 -0.148517 4.0773 0
M  V30 6445 H 597.868 1.0031 4.03622 0
M  V30 6446 H 596.445 -0.786131 3.64519 0
M  V30 6447 N 598.631 -1.53133 0.372548 0
M  V30 6448 C 599.594 -2.24569 -0.458389 0
M  V30 6449 C 600.594 -1.25603 -1.00402 0
M  V30 6450 O 601.784 -1.49827 -0.888672 0
M  V30 6451 C 598.916 -2.98783 -1.6414 0
M  V30 6452 H 600.109 -2.99436 0.166799 0
M  V30 6453 H 597.662 -1.55805 0.124357 0
M  V30 6454 H 598.397 -2.28176 -2.30448 0
M  V30 6455 H 598.182 -3.71404 -1.25704 0
M  V30 6456 H 599.672 -3.53068 -2.23008 0
M  V30 6457 N 600.109 -0.101901 -1.5727 0
M  V30 6458 C 601.039 0.851544 -2.17419 0
M  V30 6459 C 602.02 1.28942 -1.10941 0
M  V30 6460 O 603.205 1.35509 -1.39107 0
M  V30 6461 C 600.335 2.10816 -2.75996 0
M  V30 6462 C 599.289 1.80867 -3.87906 0
M  V30 6463 C 598.615 3.13413 -4.33216 0
M  V30 6464 C 599.915 1.0903 -5.10793 0
M  V30 6465 H 601.609 0.350381 -2.97343 0
M  V30 6466 H 599.155 0.16709 -1.43027 0
M  V30 6467 H 601.108 2.77959 -3.16729 0
M  V30 6468 H 599.832 2.63227 -1.93337 0
M  V30 6469 H 598.491 1.16119 -3.47724 0
M  V30 6470 H 598.139 3.63725 -3.47438 0
M  V30 6471 H 597.839 2.94155 -5.08671 0
M  V30 6472 H 599.363 3.81704 -4.76586 0
M  V30 6473 H 600.777 1.66295 -5.48652 0
M  V30 6474 H 599.174 0.99927 -5.91722 0
M  V30 6475 H 600.244 0.0741704 -4.84843 0
M  V30 6476 N 601.587 1.56661 0.17182 0
M  V30 6477 C 602.833 1.82235 0.889845 0
M  V30 6478 C 603.166 0.679673 1.81918 0
M  V30 6479 O 602.441 -0.318404 1.91876 0
M  V30 6480 C 602.724 3.18195 1.68595 0
M  V30 6481 C 602.577 4.42989 0.779773 0
M  V30 6482 C 603.896 3.5109 2.65375 0
M  V30 6483 H 601.015 0.66291 0.322056 0
M  V30 6484 H 603.657 1.89358 0.15608 0
M  V30 6485 H 601.807 3.12253 2.3115 0
M  V30 6486 H 603.479 4.60997 0.16714 0
M  V30 6487 H 601.722 4.33711 0.0877964 0
M  V30 6488 H 602.393 5.3467 1.3723 0
M  V30 6489 H 604.869 3.57482 2.12946 0
M  V30 6490 H 603.745 4.47298 3.18144 0
M  V30 6491 H 604.006 2.75768 3.45549 0
M  V30 6492 N 603.065 -0.440357 1.51323 0
M  V30 6493 C 604.29 -1.21716 1.67928 0
M  V30 6494 C 604.715 -1.84328 0.374826 0
M  V30 6495 O 604.073 -1.68675 -0.664706 0
M  V30 6496 C 604.121 -2.27914 2.79442 0
M  V30 6497 O 603.225 -3.33325 2.42834 0
M  V30 6498 H 602.566 -0.35674 0.560029 0
M  V30 6499 H 605.096 -0.520417 1.97871 0
M  V30 6500 H 605.106 -2.72746 3.03436 0
M  V30 6501 H 603.781 -1.8172 3.741 0
M  V30 6502 H 602.358 -2.9399 2.294 0
M  V30 6503 N 604.543 -1.41418 -0.695603 0
M  V30 6504 C 605.475 -1.39195 -1.82092 0
M  V30 6505 C 606.488 -0.294132 -1.60121 0
M  V30 6506 O 607.677 -0.555854 -1.69625 0
M  V30 6507 C 604.777 -1.14828 -3.18854 0
M  V30 6508 C 603.95 -2.36649 -3.67853 0
M  V30 6509 C 603.009 -2.08139 -4.83285 0
M  V30 6510 O 602.035 -2.81177 -4.94902 0
M  V30 6511 N 603.237 -1.07162 -5.70523 0
M  V30 6512 H 606.002 -2.36185 -1.84491 0
M  V30 6513 H 603.563 -1.3603 -0.877923 0
M  V30 6514 H 605.555 -0.937075 -3.93702 0
M  V30 6515 H 604.125 -0.264358 -3.1148 0
M  V30 6516 H 603.345 -2.73472 -2.83913 0
M  V30 6517 H 604.633 -3.17816 -3.97329 0
M  V30 6518 H 604.031 -0.467124 -5.63768 0
M  V30 6519 H 602.588 -0.920311 -6.4527 0
M  V30 6520 N 606.021 0.929856 -1.27246 0
M  V30 6521 C 606.984 2.01172 -1.09829 0
M  V30 6522 C 607.984 1.60743 -0.0429687 0
M  V30 6523 O 609.174 1.71813 -0.287373 0
M  V30 6524 C 606.306 3.34191 -0.673003 0
M  V30 6525 H 607.499 2.18054 -2.05895 0
M  V30 6526 H 605.052 1.11036 -1.10003 0
M  V30 6527 H 605.787 3.23009 0.289134 0
M  V30 6528 H 605.572 3.64892 -1.43515 0
M  V30 6529 H 607.062 4.13646 -0.573323 0
M  V30 6530 N 607.499 1.09233 1.13605 0
M  V30 6531 C 608.409 0.741939 2.22559 0
M  V30 6532 C 609.425 -0.255236 1.72118 0
M  V30 6533 O 610.601 -0.0970747 2.01166 0
M  V30 6534 C 607.666 0.165595 3.46304 0
M  V30 6535 C 606.727 1.21846 4.11645 0
M  V30 6536 C 605.96 0.669526 5.29484 0
M  V30 6537 O 606.183 -0.508228 5.68131 0
M  V30 6538 O 605.117 1.42361 5.84822 0
M  V30 6539 H 608.943 1.65107 2.54899 0
M  V30 6540 H 606.528 0.866584 1.21699 0
M  V30 6541 H 608.41 -0.152592 4.21124 0
M  V30 6542 H 607.085 -0.716573 3.15669 0
M  V30 6543 H 605.992 1.58931 3.38662 0
M  V30 6544 H 607.325 2.07321 4.46407 0
M  V30 6545 N 608.977 -1.30795 0.87923 0
M  V30 6546 C 609.94 -2.26563 0.346676 0
M  V30 6547 C 610.94 -1.52578 -0.507597 0
M  V30 6548 O 612.13 -1.71318 -0.315575 0
M  V30 6549 C 609.262 -3.37115 -0.506611 0
M  V30 6550 H 610.455 -2.75183 1.19223 0
M  V30 6551 H 608.008 -1.41886 0.655598 0
M  V30 6552 H 608.743 -2.93802 -1.37299 0
M  V30 6553 H 608.528 -3.91959 0.105218 0
M  V30 6554 H 610.018 -4.08412 -0.871192 0
M  V30 6555 N 610.455 -0.639598 -1.44038 0
M  V30 6556 C 611.385 0.0469443 -2.33453 0
M  V30 6557 C 612.366 0.82609 -1.48694 0
M  V30 6558 O 613.551 0.790285 -1.77393 0
M  V30 6559 C 610.681 1.02338 -3.3188 0
M  V30 6560 C 609.635 0.355284 -4.26523 0
M  V30 6561 C 608.961 1.44221 -5.14883 0
M  V30 6562 C 610.261 -0.743798 -5.16977 0
M  V30 6563 H 611.955 -0.699735 -2.91108 0
M  V30 6564 H 609.501 -0.337946 -1.39978 0
M  V30 6565 H 611.454 1.51247 -3.93322 0
M  V30 6566 H 610.178 1.80105 -2.72451 0
M  V30 6567 H 608.837 -0.113239 -3.66425 0
M  V30 6568 H 608.485 2.21097 -4.51802 0
M  V30 6569 H 608.185 1.00052 -5.79019 0
M  V30 6570 H 609.709 1.93295 -5.79197 0
M  V30 6571 H 611.123 -0.337444 -5.72306 0
M  V30 6572 H 609.52 -1.10914 -5.89761 0
M  V30 6573 H 610.59 -1.60745 -4.57481 0
M  V30 6574 N 611.933 1.52934 -0.380664 0
M  V30 6575 C 612.88 2.26197 0.458641 0
M  V30 6576 C 613.85 1.27462 1.06502 0
M  V30 6577 O 615.035 1.56274 1.09467 0
M  V30 6578 C 612.175 3.06571 1.58456 0
M  V30 6579 C 611.288 4.20222 1.00189 0
M  V30 6580 C 610.423 4.88007 2.09815 0
M  V30 6581 C 609.462 5.93665 1.49092 0
M  V30 6582 N 608.599 6.55081 2.52613 0
M  V30 6583 H 613.439 2.975 -0.172595 0
M  V30 6584 H 610.976 1.4678 -0.0969426 0
M  V30 6585 H 612.934 3.51455 2.24801 0
M  V30 6586 H 611.564 2.37494 2.18624 0
M  V30 6587 H 610.616 3.79714 0.228292 0
M  V30 6588 H 611.928 4.96102 0.518064 0
M  V30 6589 H 611.082 5.36151 2.83948 0
M  V30 6590 H 609.821 4.11632 2.61555 0
M  V30 6591 H 608.826 5.44868 0.7348 0
M  V30 6592 H 610.051 6.71969 0.981582 0
M  V30 6593 H 607.997 5.8155 3.03538 0
M  V30 6594 H 607.914 7.26548 2.08961 0
M  V30 6595 H 609.182 7.07871 3.26402 0
M  V30 6596 N 613.412 0.11024 1.57214 0
M  V30 6597 C 614.322 -0.857077 2.18383 0
M  V30 6598 C 615.338 -1.29915 1.1575 0
M  V30 6599 O 616.514 -1.36394 1.48184 0
M  V30 6600 C 613.579 -2.09264 2.76423 0
M  V30 6601 C 612.64 -1.70333 3.94063 0
M  V30 6602 C 611.873 -2.87999 4.49324 0
M  V30 6603 O 612.096 -4.0317 4.03497 0
M  V30 6604 O 611.03 -2.6559 5.40135 0
M  V30 6605 H 614.856 -0.366561 3.0148 0
M  V30 6606 H 612.441 -0.114914 1.48957 0
M  V30 6607 H 614.323 -2.81644 3.13456 0
M  V30 6608 H 612.998 -2.57339 1.96363 0
M  V30 6609 H 611.905 -0.950864 3.61814 0
M  V30 6610 H 613.238 -1.27007 4.75531 0
M  V30 6611 N 614.89 -1.56749 -0.16351 0
M  V30 6612 C 615.8 -2.00255 -1.2221 0
M  V30 6613 C 616.816 -0.915194 -1.47987 0
M  V30 6614 O 617.992 -1.22342 -1.59982 0
M  V30 6615 C 615.057 -2.36035 -2.53946 0
M  V30 6616 C 614.118 -3.58637 -2.35962 0
M  V30 6617 C 613.351 -3.92701 -3.61416 0
M  V30 6618 O 613.574 -3.27632 -4.66919 0
M  V30 6619 O 612.508 -4.86019 -3.55062 0
M  V30 6620 H 616.334 -2.90586 -0.882794 0
M  V30 6621 H 613.919 -1.44721 -0.370978 0
M  V30 6622 H 615.801 -2.59982 -3.31643 0
M  V30 6623 H 614.476 -1.48863 -2.8744 0
M  V30 6624 H 613.383 -3.39898 -1.5627 0
M  V30 6625 H 614.716 -4.46374 -2.0739 0
M  V30 6626 N 616.368 0.432326 -1.51554 0
M  V30 6627 C 617.316 1.54572 -1.73811 0
M  V30 6628 C 618.31 1.58246 -0.604539 0
M  V30 6629 O 619.516 1.6193 -0.786041 0
M  V30 6630 H 615.891 0.513626 -0.549265 0
M  V30 6631 H 617.862 1.32977 -2.67132 0
M  V30 6632 C 616.611 2.92181 -1.88483 0
M  V30 6633 H 615.934 2.90088 -2.75116 0
M  V30 6634 H 617.374 3.69439 -2.08065 0
M  V30 6635 C 615.833 3.3065 -0.645909 0
M  V30 6636 O 616.363 4.01216 0.197093 0
M  V30 6637 N 614.569 2.86464 -0.488538 0
M  V30 6638 H 614.116 2.29209 -1.17562 0
M  V30 6639 H 614.074 3.12565 0.339156 0
M  V30 6640 N 617.846 1.41785 0.688094 0
M  V30 6641 C 619.123 1.32031 1.44316 0
M  V30 6642 C 619.503 -0.0486079 2.11044 0
M  V30 6643 O 618.851 -1.06332 2.02252 0
M  V30 6644 C 619.061 2.47906 2.45649 0
M  V30 6645 C 620.409 2.89415 3.10683 0
M  V30 6646 O 621.433 2.477 2.55975 0
M  V30 6647 O 620.292 3.61573 4.09789 0
M  V30 6648 H 617.386 0.519994 0.643067 0
M  V30 6649 H 619.932 1.53765 0.71794 0
M  V30 6650 H 618.704 3.39222 1.95048 0
M  V30 6651 H 618.327 2.28089 3.25671 0
M  V30 6652 N 619.324 -0.923095 1.27737 0
M  V30 6653 C 620.549 -1.71054 1.17283 0
M  V30 6654 C 620.974 -1.86208 -0.266153 0
M  V30 6655 O 620.332 -1.36545 -1.1927 0
M  V30 6656 C 620.38 -3.0854 1.86642 0
M  V30 6657 O 619.484 -3.95528 1.16752 0
M  V30 6658 H 618.825 -0.524136 0.407649 0
M  V30 6659 H 621.355 -1.15487 1.6889 0
M  V30 6660 H 621.365 -3.58828 1.94182 0
M  V30 6661 H 620.04 -2.96828 2.91317 0
M  V30 6662 H 618.617 -3.53967 1.17312 0
M  V30 6663 N 620.802 -1.09834 -1.13024 0
M  V30 6664 C 621.732 -0.763451 -2.20666 0
M  V30 6665 C 622.713 0.260778 -1.68089 0
M  V30 6666 O 623.898 0.127915 -1.93778 0
M  V30 6667 C 621.028 -0.187744 -3.46792 0
M  V30 6668 C 619.982 -1.14196 -4.12484 0
M  V30 6669 C 619.308 -0.427755 -5.32986 0
M  V30 6670 C 620.608 -2.48607 -4.59338 0
M  V30 6671 H 622.302 -1.66347 -2.48936 0
M  V30 6672 H 619.848 -0.801261 -1.19649 0
M  V30 6673 H 621.801 0.0586375 -4.21359 0
M  V30 6674 H 620.525 0.747485 -3.17931 0
M  V30 6675 H 619.184 -1.37369 -3.3989 0
M  V30 6676 H 618.832 0.511747 -5.0039 0
M  V30 6677 H 618.532 -1.06403 -5.77886 0
M  V30 6678 H 620.056 -0.189772 -6.10305 0
M  V30 6679 H 621.47 -2.29618 -5.25308 0
M  V30 6680 H 619.867 -3.08062 -5.14993 0
M  V30 6681 H 620.937 -3.09062 -3.73642 0
M  V30 6682 N 622.28 1.30327 -0.886154 0
M  V30 6683 C 623.696 1.48676 -0.580323 0
M  V30 6684 C 623.896 1.81189 0.881639 0
M  V30 6685 O 622.952 1.90021 1.66278 0
M  V30 6686 C 624.265 2.60932 -1.49449 0
M  V30 6687 C 625.813 2.74812 -1.49824 0
M  V30 6688 C 626.288 3.90183 -2.39836 0
M  V30 6689 N 627.779 3.97495 -2.37806 0
M  V30 6690 C 628.514 4.86078 -3.04165 0
M  V30 6691 N 628.01 5.79448 -3.79753 0
M  V30 6692 N 629.803 4.79456 -2.93391 0
M  V30 6693 H 621.954 1.07495 -1.8319 0
M  V30 6694 H 624.217 0.532661 -0.784204 0
M  V30 6695 H 623.923 2.43731 -2.5355 0
M  V30 6696 H 623.797 3.57437 -1.20494 0
M  V30 6697 H 626.184 2.91418 -0.464731 0
M  V30 6698 H 626.265 1.78924 -1.82811 0
M  V30 6699 H 625.909 3.74334 -3.43273 0
M  V30 6700 H 625.839 4.85411 -2.04166 0
M  V30 6701 H 628.33 3.30703 -1.82877 0
M  V30 6702 H 628.643 6.43805 -4.27475 0
M  V30 6703 H 626.988 5.79376 -3.8386 0
M  V30 6704 H 630.179 4.05494 -2.33864 0
M  V30 6705 H 630.352 5.48283 -3.45383 0
M  V30 6706 N 623.758 0.647228 1.43697 0
M  V30 6707 C 625.004 0.167001 2.02713 0
M  V30 6708 C 625.359 -1.20351 1.50111 0
M  V30 6709 O 624.652 -1.79047 0.682113 0
M  V30 6710 C 624.846 0.111481 3.57226 0
M  V30 6711 C 624.675 1.47507 4.2482 0
M  V30 6712 C 623.445 2.06594 4.61137 0
M  V30 6713 C 625.643 2.41224 4.54219 0
M  V30 6714 N 623.625 3.3602 5.13774 0
M  V30 6715 C 624.996 3.55278 5.08112 0
M  V30 6716 C 627.051 2.40102 4.36183 0
M  V30 6717 C 625.754 4.68426 5.45866 0
M  V30 6718 C 627.78 3.52326 4.74995 0
M  V30 6719 C 627.142 4.65104 5.29015 0
M  V30 6720 H 623.241 0.105402 0.774864 0
M  V30 6721 H 625.825 0.854229 1.7496 0
M  V30 6722 H 623.996 -0.545073 3.84556 0
M  V30 6723 H 625.728 -0.379063 4.02921 0
M  V30 6724 H 622.483 1.59366 4.45981 0
M  V30 6725 H 622.907 4.02233 5.44552 0
M  V30 6726 H 627.549 1.54151 3.93697 0
M  V30 6727 H 625.267 5.55074 5.87298 0
M  V30 6728 H 628.853 3.52652 4.6274 0
M  V30 6729 H 627.733 5.50506 5.58492 0
M  V30 6730 N 625.236 -1.5273 0.388769 0
M  V30 6731 C 626.168 -2.24081 -0.481704 0
M  V30 6732 C 627.181 -1.26307 -1.02715 0
M  V30 6733 O 628.37 -1.52386 -0.929565 0
M  V30 6734 C 625.47 -2.94315 -1.68024 0
M  V30 6735 C 624.643 -4.18791 -1.26226 0
M  V30 6736 C 623.702 -4.72028 -2.32542 0
M  V30 6737 O 622.728 -5.35129 -1.93972 0
M  V30 6738 N 623.93 -4.51838 -3.64448 0
M  V30 6739 H 626.695 -2.9942 0.129591 0
M  V30 6740 H 624.256 -1.60465 0.2151 0
M  V30 6741 H 626.248 -3.26831 -2.38671 0
M  V30 6742 H 624.818 -2.22287 -2.19789 0
M  V30 6743 H 624.038 -3.92318 -0.384703 0
M  V30 6744 H 625.326 -4.99668 -0.959647 0
M  V30 6745 H 624.724 -4.01468 -3.98547 0
M  V30 6746 H 623.281 -4.88845 -4.31131 0
M  V30 6747 N 626.714 -0.118576 -1.57153 0
M  V30 6748 C 627.644 0.828436 -2.1831 0
M  V30 6749 C 628.625 1.27758 -1.12303 0
M  V30 6750 O 629.81 1.34026 -1.40537 0
M  V30 6751 C 626.94 2.07876 -2.78217 0
M  V30 6752 C 625.894 1.76742 -3.89803 0
M  V30 6753 C 625.22 3.08801 -4.36516 0
M  V30 6754 C 626.52 1.03606 -5.11921 0
M  V30 6755 H 628.214 0.318824 -2.97698 0
M  V30 6756 H 625.76 0.151911 -1.43196 0
M  V30 6757 H 627.713 2.74584 -3.19659 0
M  V30 6758 H 626.437 2.61161 -1.96118 0
M  V30 6759 H 625.096 1.12424 -3.48936 0
M  V30 6760 H 624.744 3.6002 -3.51276 0
M  V30 6761 H 624.444 2.88743 -5.11763 0
M  V30 6762 H 625.968 3.76627 -4.80608 0
M  V30 6763 H 627.382 1.60467 -5.50385 0
M  V30 6764 H 625.779 0.936454 -5.92748 0
M  V30 6765 H 626.849 0.0227421 -4.84895 0
M  V30 6766 N 628.193 1.56834 0.155195 0
M  V30 6767 C 629.47 1.73799 0.897395 0
M  V30 6768 C 629.85 0.684379 1.99698 0
M  V30 6769 O 629.198 -0.298111 2.26547 0
M  V30 6770 C 629.408 3.17572 1.44737 0
M  V30 6771 C 630.756 3.79014 1.91399 0
M  V30 6772 O 631.78 3.20951 1.54496 0
M  V30 6773 O 630.639 4.80998 2.59429 0
M  V30 6774 H 627.733 0.710329 0.423511 0
M  V30 6775 H 630.279 1.69107 0.141761 0
M  V30 6776 H 629.051 3.85749 0.656741 0
M  V30 6777 H 628.674 3.26657 2.26674 0
M  V30 6778 N 629.671 -0.424282 1.51781 0
M  V30 6779 C 630.634 -1.49848 1.73431 0
M  V30 6780 C 631.634 -1.49016 0.604225 0
M  V30 6781 O 632.824 -1.50808 0.871935 0
M  V30 6782 C 629.956 -2.89332 1.80277 0
M  V30 6783 H 631.149 -1.3195 2.69312 0
M  V30 6784 H 628.702 -0.653809 1.41968 0
M  V30 6785 H 629.437 -3.12618 0.862568 0
M  V30 6786 H 629.222 -2.9134 2.62419 0
M  V30 6787 H 630.712 -3.67233 1.98821 0
M  V30 6788 N 631.149 -1.42148 -0.680565 0
M  V30 6789 C 632.379 -1.45485 -1.46689 0
M  V30 6790 C 632.787 -0.0629451 -1.89095 0
M  V30 6791 O 632.13 0.931397 -1.58337 0
M  V30 6792 C 632.192 -2.31397 -2.75129 0
M  V30 6793 C 631.856 -3.79353 -2.54834 0
M  V30 6794 C 632.853 -4.71148 -2.19808 0
M  V30 6795 C 630.538 -4.23557 -2.70008 0
M  V30 6796 C 632.532 -6.05139 -2.00215 0
M  V30 6797 C 630.219 -5.57609 -2.50031 0
M  V30 6798 C 631.217 -6.48216 -2.15187 0
M  V30 6799 O 630.905 -7.79792 -1.95397 0
M  V30 6800 H 630.637 -0.497139 -0.458071 0
M  V30 6801 H 633.191 -1.87252 -0.844139 0
M  V30 6802 H 631.421 -1.84468 -3.39865 0
M  V30 6803 H 633.11 -2.26257 -3.36991 0
M  V30 6804 H 633.876 -4.38282 -2.07686 0
M  V30 6805 H 629.755 -3.53327 -2.96109 0
M  V30 6806 H 633.299 -6.75823 -1.72941 0
M  V30 6807 H 629.196 -5.9005 -2.61748 0
M  V30 6808 H 629.964 -7.91091 -2.10042 0
M  V30 6809 N 632.627 0.916307 -1.28225 0
M  V30 6810 C 634.043 1.19425 -1.05876 0
M  V30 6811 C 634.243 2.005 0.2005 0
M  V30 6812 O 633.299 2.35806 0.902873 0
M  V30 6813 C 634.612 1.93133 -2.30478 0
M  V30 6814 C 636.16 2.06026 -2.35632 0
M  V30 6815 C 636.635 2.83141 -3.59994 0
M  V30 6816 N 638.126 2.90704 -3.60618 0
M  V30 6817 C 638.861 3.50865 -4.53521 0
M  V30 6818 N 638.357 4.12327 -5.56739 0
M  V30 6819 N 640.15 3.48379 -4.41122 0
M  V30 6820 H 632.301 0.37496 -2.09064 0
M  V30 6821 H 634.564 0.228531 -0.920042 0
M  V30 6822 H 634.27 1.40985 -3.22205 0
M  V30 6823 H 634.144 2.93696 -2.36691 0
M  V30 6824 H 636.531 2.57355 -1.44404 0
M  V30 6825 H 636.612 1.04647 -2.33415 0
M  V30 6826 H 636.256 2.32492 -4.51564 0
M  V30 6827 H 636.186 3.84829 -3.59464 0
M  V30 6828 H 638.677 2.47034 -2.85977 0
M  V30 6829 H 638.99 4.56205 -6.23776 0
M  V30 6830 H 637.335 4.10839 -5.60568 0
M  V30 6831 H 640.526 2.99572 -3.59686 0
M  V30 6832 H 640.699 3.94974 -5.13712 0
M  V30 6833 N 634.105 1.10431 1.1244 0
M  V30 6834 C 635.053 0.747974 2.20246 0
M  V30 6835 C 636.047 -0.255848 1.67457 0
M  V30 6836 O 637.253 -0.116221 1.79624 0
M  V30 6837 H 633.628 0.223946 0.71788 0
M  V30 6838 H 635.599 1.6661 2.47556 0
M  V30 6839 C 634.348 0.195957 3.47147 0
M  V30 6840 H 633.671 0.959606 3.88113 0
M  V30 6841 H 635.111 -0.0153154 4.23997 0
M  V30 6842 C 633.57 -1.07132 3.19413 0
M  V30 6843 O 634.1 -2.15284 3.3914 0
M  V30 6844 N 632.306 -0.98994 2.73219 0
M  V30 6845 H 631.853 -0.109736 2.57366 0
M  V30 6846 H 631.811 -1.83856 2.55038 0
M  V30 6847 N 635.583 -1.29855 0.893053 0
M  V30 6848 C 636.493 -2.31661 0.370157 0
M  V30 6849 C 637.509 -1.65677 -0.531723 0
M  V30 6850 O 638.685 -1.9691 -0.422902 0
M  V30 6851 C 635.75 -3.44388 -0.399741 0
M  V30 6852 C 634.811 -4.2598 0.532861 0
M  V30 6853 C 634.044 -5.33324 -0.200388 0
M  V30 6854 O 634.267 -5.52305 -1.42531 0
M  V30 6855 O 633.201 -6.00188 0.453668 0
M  V30 6856 H 637.027 -2.78354 1.2146 0
M  V30 6857 H 634.612 -1.34171 0.657153 0
M  V30 6858 H 636.494 -4.13037 -0.835358 0
M  V30 6859 H 635.169 -2.99815 -1.22035 0
M  V30 6860 H 634.076 -3.59998 1.01746 0
M  V30 6861 H 635.409 -4.74178 1.3197 0
M  V30 6862 N 637.061 -0.65484 -1.43351 0
M  V30 6863 C 638.307 -0.169142 -2.02093 0
M  V30 6864 C 638.64 1.21431 -1.51553 0
M  V30 6865 O 637.915 1.81105 -0.709317 0
M  V30 6866 C 638.198 -0.181775 -3.59641 0
M  V30 6867 C 638.051 -1.59926 -4.20409 0
M  V30 6868 C 639.37 0.480945 -4.37464 0
M  V30 6869 H 636.489 -0.0629371 -0.734308 0
M  V30 6870 H 639.131 -0.835833 -1.70628 0
M  V30 6871 H 637.281 0.385918 -3.86578 0
M  V30 6872 H 638.953 -2.21766 -4.04497 0
M  V30 6873 H 637.196 -2.14605 -3.76998 0
M  V30 6874 H 637.867 -1.55994 -5.295 0
M  V30 6875 H 640.343 -0.00208273 -4.161 0
M  V30 6876 H 639.219 0.441384 -5.47122 0
M  V30 6877 H 639.48 1.55533 -4.13838 0
M  V30 6878 N 638.539 1.52521 -0.396863 0
M  V30 6879 C 639.449 2.30403 0.44178 0
M  V30 6880 C 640.465 1.37625 1.06468 0
M  V30 6881 O 641.641 1.70697 1.06886 0
M  V30 6882 C 638.706 3.1013 1.54986 0
M  V30 6883 C 637.767 4.18628 0.951279 0
M  V30 6884 C 637 4.94543 2.00655 0
M  V30 6885 O 637.223 4.70629 3.22281 0
M  V30 6886 O 636.157 5.797 1.61962 0
M  V30 6887 H 639.983 3.03087 -0.192892 0
M  V30 6888 H 637.568 1.48537 -0.16038 0
M  V30 6889 H 639.45 3.59816 2.19341 0
M  V30 6890 H 638.125 2.40251 2.16935 0
M  V30 6891 H 637.032 3.73119 0.270773 0
M  V30 6892 H 638.365 4.90763 0.375887 0
M  V30 6893 N 640.017 0.126909 1.57088 0
M  V30 6894 C 640.947 -0.816847 2.18746 0
M  V30 6895 C 641.928 -1.27161 1.12979 0
M  V30 6896 O 643.113 -1.33279 1.41246 0
M  V30 6897 C 640.243 -2.06398 2.79315 0
M  V30 6898 C 639.197 -1.74673 3.90735 0
M  V30 6899 C 638.523 -3.06482 4.38147 0
M  V30 6900 C 639.823 -1.0089 5.12463 0
M  V30 6901 H 641.517 -0.303032 2.97863 0
M  V30 6902 H 639.063 -0.144314 1.43275 0
M  V30 6903 H 641.016 -2.72885 3.2111 0
M  V30 6904 H 639.74 -2.60118 1.975 0
M  V30 6905 H 638.399 -1.10572 3.49527 0
M  V30 6906 H 638.047 -3.58152 3.5318 0
M  V30 6907 H 637.747 -2.86025 5.13287 0
M  V30 6908 H 639.271 -3.74073 4.82599 0
M  V30 6909 H 640.685 -1.57546 5.51228 0
M  V30 6910 H 639.082 -0.905006 5.93237 0
M  V30 6911 H 640.152 0.00297335 4.849 0
M  V30 6912 N 641.495 -1.56914 -0.146875 0
M  V30 6913 C 642.425 -2.01308 -1.1831 0
M  V30 6914 C 643.406 -0.892664 -1.44795 0
M  V30 6915 O 644.591 -1.16048 -1.55713 0
M  V30 6916 C 641.721 -2.3938 -2.51624 0
M  V30 6917 C 640.675 -3.54608 -2.3966 0
M  V30 6918 C 640.001 -3.78493 -3.77686 0
M  V30 6919 C 641.301 -4.87269 -1.88058 0
M  V30 6920 H 642.995 -2.88123 -0.813964 0
M  V30 6921 H 640.541 -1.38615 -0.3901 0
M  V30 6922 H 642.494 -2.69037 -3.24341 0
M  V30 6923 H 641.218 -1.49502 -2.90373 0
M  V30 6924 H 639.877 -3.25116 -1.69396 0
M  V30 6925 H 639.525 -2.85866 -4.13871 0
M  V30 6926 H 639.225 -4.56039 -3.70543 0
M  V30 6927 H 640.749 -4.10576 -4.51951 0
M  V30 6928 H 642.163 -5.15644 -2.50568 0
M  V30 6929 H 640.56 -5.68622 -1.91805 0
M  V30 6930 H 641.63 -4.77634 -0.836277 0
M  V30 6931 N 642.974 0.416227 -1.52004 0
M  V30 6932 C 643.921 1.50666 -1.74838 0
M  V30 6933 C 644.891 1.55245 -0.590599 0
M  V30 6934 O 646.076 1.71928 -0.827374 0
M  V30 6935 C 643.216 2.88185 -1.89851 0
M  V30 6936 C 642.329 2.92971 -3.17478 0
M  V30 6937 C 641.464 4.21745 -3.22962 0
M  V30 6938 C 640.503 4.20478 -4.4482 0
M  V30 6939 N 639.64 5.40811 -4.47736 0
M  V30 6940 H 644.48 1.30498 -2.67907 0
M  V30 6941 H 642.017 0.633568 -1.32757 0
M  V30 6942 H 643.975 3.68007 -1.96537 0
M  V30 6943 H 642.605 3.06865 -1.00169 0
M  V30 6944 H 641.657 2.05684 -3.19997 0
M  V30 6945 H 642.969 2.87899 -4.07328 0
M  V30 6946 H 642.123 5.09954 -3.28682 0
M  V30 6947 H 640.862 4.29503 -2.31038 0
M  V30 6948 H 639.867 3.30659 -4.39254 0
M  V30 6949 H 641.092 4.14366 -5.38031 0
M  V30 6950 H 639.038 5.4925 -3.58692 0
M  V30 6951 H 638.955 5.37705 -5.31422 0
M  V30 6952 H 640.223 6.30993 -4.57676 0
M  V30 6953 N 644.452 1.42507 0.673017 0
M  V30 6954 C 645.384 1.42074 1.79854 0
M  V30 6955 C 646.397 0.319569 1.59633 0
M  V30 6956 O 647.586 0.582769 1.68719 0
M  V30 6957 C 644.686 1.19886 3.16987 0
M  V30 6958 C 643.859 2.42471 3.64042 0
M  V30 6959 C 642.918 2.15802 4.79913 0
M  V30 6960 O 641.944 2.89015 4.90366 0
M  V30 6961 N 643.146 1.16225 5.68746 0
M  V30 6962 H 645.911 2.3909 1.8071 0
M  V30 6963 H 643.472 1.37409 0.856171 0
M  V30 6964 H 645.464 0.999591 3.92161 0
M  V30 6965 H 644.034 0.313879 3.1102 0
M  V30 6966 H 643.254 2.77954 2.79526 0
M  V30 6967 H 644.542 3.24097 3.92223 0
M  V30 6968 H 643.94 0.556756 5.62954 0
M  V30 6969 H 642.497 1.02285 6.43724 0
M  V30 6970 N 645.93 -0.909495 1.28709 0
M  V30 6971 C 646.84 -2.04558 1.14861 0
M  V30 6972 C 647.856 -1.73842 0.0741621 0
M  V30 6973 O 649.032 -1.99383 0.2843 0
M  V30 6974 C 646.097 -3.36957 0.816148 0
M  V30 6975 C 645.158 -3.81255 1.97341 0
M  V30 6976 C 644.391 -5.07335 1.65671 0
M  V30 6977 O 644.614 -5.67514 0.573053 0
M  V30 6978 O 643.548 -5.47449 2.50167 0
M  V30 6979 H 647.374 -2.19161 2.10243 0
M  V30 6980 H 644.959 -1.03159 1.08068 0
M  V30 6981 H 646.841 -4.16436 0.644873 0
M  V30 6982 H 645.516 -3.2352 -0.107983 0
M  V30 6983 H 644.423 -3.02584 2.19986 0
M  V30 6984 H 645.756 -3.99261 2.87839 0
M  V30 6985 N 647.408 -1.11026 -1.11852 0
M  V30 6986 C 648.34 -0.72249 -2.17515 0
M  V30 6987 C 649.353 0.243782 -1.60964 0
M  V30 6988 O 650.542 0.0273252 -1.78479 0
M  V30 6989 C 647.642 -0.0463979 -3.38868 0
M  V30 6990 C 646.815 -1.0384 -4.24895 0
M  V30 6991 C 645.874 -0.392659 -5.24733 0
M  V30 6992 O 644.9 -1.0453 -5.5952 0
M  V30 6993 N 646.102 0.846296 -5.74298 0
M  V30 6994 H 648.867 -1.63161 -2.51393 0
M  V30 6995 H 646.428 -0.999899 -1.27333 0
M  V30 6996 H 648.42 0.397215 -4.02746 0
M  V30 6997 H 646.99 0.765231 -3.03089 0
M  V30 6998 H 646.21 -1.6601 -3.57539 0
M  V30 6999 H 647.498 -1.70968 -4.79215 0
M  V30 7000 H 646.896 1.39578 -5.4821 0
M  V30 7001 H 645.453 1.23296 -6.40032 0
M  V30 7002 N 648.886 1.2938 -0.899927 0
M  V30 7003 C 650.134 1.95164 -0.524924 0
M  V30 7004 C 650.455 1.71292 0.931888 0
M  V30 7005 O 649.725 1.04481 1.65712 0
M  V30 7006 H 648.305 0.722133 -0.191135 0
M  V30 7007 H 650.967 1.57628 -1.14627 0
M  V30 7008 H 650.063 3.0397 -0.707711 0
M  V30 7009 N 650.364 0.662433 1.43002 0
M  V30 7010 C 651.311 -0.0235324 2.30788 0
M  V30 7011 C 652.281 -0.805342 1.4527 0
M  V30 7012 O 653.466 -0.78009 1.74124 0
M  V30 7013 C 650.606 -0.977545 3.30965 0
M  V30 7014 C 649.719 -0.190865 4.31578 0
M  V30 7015 C 648.854 -1.13951 5.18834 0
M  V30 7016 C 647.893 -0.343796 6.11134 0
M  V30 7017 N 647.03 -1.2445 6.90982 0
M  V30 7018 H 651.87 0.730921 2.88897 0
M  V30 7019 H 649.407 0.372197 1.42313 0
M  V30 7020 H 651.365 -1.54437 3.87563 0
M  V30 7021 H 649.995 -1.69877 2.74484 0
M  V30 7022 H 649.047 0.492388 3.772 0
M  V30 7023 H 650.359 0.427464 4.96965 0
M  V30 7024 H 649.513 -1.77666 5.80103 0
M  V30 7025 H 648.252 -1.79174 4.53595 0
M  V30 7026 H 647.257 0.30665 5.48944 0
M  V30 7027 H 648.482 0.304161 6.78419 0
M  V30 7028 H 646.428 -1.88336 6.28383 0
M  V30 7029 H 646.345 -0.680959 7.52927 0
M  V30 7030 H 647.613 -1.86952 7.56749 0
M  V30 7031 N 651.842 -1.52309 0.404946 0
M  V30 7032 C 653.088 -2.02065 -0.172455 0
M  V30 7033 C 653.421 -1.29022 -1.45145 0
M  V30 7034 O 652.696 -0.395284 -1.90441 0
M  V30 7035 C 652.979 -3.5759 -0.424433 0
M  V30 7036 C 652.832 -4.41287 0.870945 0
M  V30 7037 C 654.151 -4.23186 -1.20837 0
M  V30 7038 H 651.27 -0.734454 -0.0612035 0
M  V30 7039 H 653.912 -1.82236 0.53759 0
M  V30 7040 H 652.062 -3.74617 -1.02929 0
M  V30 7041 H 653.734 -4.3598 1.50729 0
M  V30 7042 H 651.977 -4.07669 1.48284 0
M  V30 7043 H 652.648 -5.48171 0.649083 0
M  V30 7044 H 655.124 -4.10232 -0.696338 0
M  V30 7045 H 654 -5.31953 -1.35343 0
M  V30 7046 H 654.261 -3.81862 -2.22786 0
M  V30 7047 N 653.32 -0.135238 -1.57019 0
M  V30 7048 C 654.27 0.820408 -2.12728 0
M  V30 7049 C 655.254 1.21735 -1.05211 0
M  V30 7050 O 656.446 1.18574 -1.31413 0
M  V30 7051 C 653.575 2.06414 -2.74314 0
M  V30 7052 C 652.661 1.69083 -3.88937 0
M  V30 7053 N 653.052 1.0251 -4.95303 0
M  V30 7054 C 651.35 1.98434 -3.99425 0
M  V30 7055 C 652.051 0.846749 -5.75504 0
M  V30 7056 N 651.027 1.3769 -5.25873 0
M  V30 7057 H 654.829 0.302426 -2.9234 0
M  V30 7058 H 652.343 0.0667009 -1.62263 0
M  V30 7059 H 654.34 2.75863 -3.12579 0
M  V30 7060 H 653 2.58741 -1.96171 0
M  V30 7061 H 654.011 0.687207 -5.1332 0
M  V30 7062 H 650.688 2.52693 -3.32344 0
M  V30 7063 H 652.078 0.322949 -6.71123 0
M  V30 7064 N 654.798 1.5699 0.138552 0
M  V30 7065 C 656.214 1.51844 0.491472 0
M  V30 7066 C 656.414 0.845063 1.82923 0
M  V30 7067 O 655.47 0.419143 2.48997 0
M  V30 7068 C 656.783 2.96615 0.493987 0
M  V30 7069 C 658.331 3.076 0.578913 0
M  V30 7070 C 658.806 4.53893 0.612009 0
M  V30 7071 N 660.297 4.5827 0.673997 0
M  V30 7072 C 661.032 5.68852 0.720729 0
M  V30 7073 N 660.528 6.88982 0.726292 0
M  V30 7074 N 662.321 5.56908 0.762253 0
M  V30 7075 H 654.472 1.99158 -0.738228 0
M  V30 7076 H 656.735 0.908693 -0.270149 0
M  V30 7077 H 656.441 3.49172 -0.420933 0
M  V30 7078 H 656.315 3.53017 1.32887 0
M  V30 7079 H 658.702 2.55057 1.48425 0
M  V30 7080 H 658.783 2.54227 -0.283286 0
M  V30 7081 H 658.427 5.07076 -0.289208 0
M  V30 7082 H 658.357 5.05057 1.49082 0
M  V30 7083 H 660.848 3.71793 0.676654 0
M  V30 7084 H 661.161 7.69014 0.764032 0
M  V30 7085 H 659.506 6.91526 0.69403 0
M  V30 7086 H 662.697 4.61969 0.755135 0
M  V30 7087 H 662.87 6.43102 0.795207 0
M  V30 7088 N 656.276 -0.40816 1.52223 0
M  V30 7089 C 657.186 -1.52202 1.78526 0
M  V30 7090 C 658.202 -1.60546 0.670892 0
M  V30 7091 O 659.378 -1.77242 0.956404 0
M  V30 7092 C 656.443 -2.87928 1.93128 0
M  V30 7093 C 655.504 -2.89463 3.17033 0
M  V30 7094 C 654.737 -4.18715 3.30929 0
M  V30 7095 O 654.96 -5.12662 2.50067 0
M  V30 7096 O 653.894 -4.27125 4.24084 0
M  V30 7097 H 657.72 -1.32911 2.73072 0
M  V30 7098 H 655.305 -0.594112 1.37079 0
M  V30 7099 H 657.187 -3.68426 2.04549 0
M  V30 7100 H 655.862 -3.07285 1.01772 0
M  V30 7101 H 654.769 -2.07815 3.11069 0
M  V30 7102 H 656.102 -2.75055 4.08174 0
M  V30 7103 N 657.755 -1.42862 -0.66545 0
M  V30 7104 C 659.032 -1.3431 -1.42197 0
M  V30 7105 C 659.412 0.0150265 -2.11095 0
M  V30 7106 O 658.76 1.03101 -2.03918 0
M  V30 7107 C 658.97 -2.51783 -2.41674 0
M  V30 7108 C 660.318 -2.94321 -3.0604 0
M  V30 7109 O 661.342 -2.51741 -2.52001 0
M  V30 7110 O 660.201 -3.68047 -4.03985 0
M  V30 7111 H 657.295 -0.530159 -0.634713 0
M  V30 7112 H 659.841 -1.54888 -0.693386 0
M  V30 7113 H 658.613 -3.42282 -1.89627 0
M  V30 7114 H 658.236 -2.33241 -3.22001 0
M  V30 7115 N 659.233 0.902656 -1.29189 0
M  V30 7116 C 660.51 1.63296 -1.07674 0
M  V30 7117 C 660.89 2.07649 0.380137 0
M  V30 7118 O 660.238 1.82997 1.36837 0
M  V30 7119 C 660.448 2.81603 -2.06158 0
M  V30 7120 C 661.796 3.52359 -2.36914 0
M  V30 7121 O 662.82 2.91767 -2.04329 0
M  V30 7122 O 661.679 4.61586 -2.92576 0
M  V30 7123 H 658.773 0.716889 -0.41231 0
M  V30 7124 H 661.319 0.950984 -1.4055 0
M  V30 7125 H 660.091 2.46004 -3.04299 0
M  V30 7126 H 659.714 3.57508 -1.73993 0
M  V30 7127 N 660.711 1.11618 1.11262 0
M  V30 7128 C 662.122 0.881942 1.64556 0
M  V30 7129 C 662.473 -0.585442 1.87262 0
M  V30 7130 O 661.598 -1.44795 1.60821 0
M  V30 7131 C 662.193 1.59446 2.98935 0
M  V30 7132 C 660.752 1.40661 3.4913 0
M  V30 7133 C 659.899 1.63593 2.23903 0
M  V30 7134 H 662.85 1.27217 0.94877 0
M  V30 7135 H 662.871 1.04054 3.65996 0
M  V30 7136 H 662.383 2.66241 2.82378 0
M  V30 7137 H 660.484 0.360835 3.70849 0
M  V30 7138 H 660.597 2.15693 4.27801 0
M  V30 7139 H 658.961 1.05944 2.3162 0
M  V30 7140 H 659.744 2.71666 2.09886 0
M  V30 7141 N 662.189 -1.289 0.906776 0
M  V30 7142 C 663.137 -2.29477 0.379873 0
M  V30 7143 C 664.131 -1.61068 -0.524747 0
M  V30 7144 O 665.337 -1.75344 -0.406765 0
M  V30 7145 H 661.712 -0.744742 0.10423 0
M  V30 7146 H 663.683 -2.71353 1.24137 0
M  V30 7147 C 662.432 -3.45713 -0.371154 0
M  V30 7148 H 661.755 -3.98551 0.315716 0
M  V30 7149 H 663.195 -4.18105 -0.704581 0
M  V30 7150 C 661.654 -2.9774 -1.57646 0
M  V30 7151 O 662.184 -2.99618 -2.67567 0
M  V30 7152 N 660.39 -2.53485 -1.42105 0
M  V30 7153 H 659.937 -2.52156 -0.526783 0
M  V30 7154 H 659.895 -2.21747 -2.22881 0
M  V30 7155 N 663.667 -0.670007 -1.42649 0
M  V30 7156 C 664.614 0.0112928 -2.30797 0
M  V30 7157 C 665.584 0.797627 -1.45695 0
M  V30 7158 O 666.769 0.770845 -1.74535 0
M  V30 7159 C 663.909 0.95998 -3.31479 0
M  V30 7160 C 663.022 0.167975 -4.31673 0
M  V30 7161 C 662.157 1.11198 -5.19431 0
M  V30 7162 C 661.196 0.311381 -6.11307 0
M  V30 7163 N 660.333 1.20784 -6.91633 0
M  V30 7164 H 665.173 -0.746231 -2.88505 0
M  V30 7165 H 662.71 -0.379739 -1.42114 0
M  V30 7166 H 664.668 1.52379 -3.88377 0
M  V30 7167 H 663.298 1.68419 -2.75382 0
M  V30 7168 H 662.35 -0.512385 -3.76933 0
M  V30 7169 H 663.662 -0.453814 -4.96731 0
M  V30 7170 H 662.816 1.74587 -5.81037 0
M  V30 7171 H 661.555 1.76766 -4.54538 0
M  V30 7172 H 660.56 -0.335758 -5.48774 0
M  V30 7173 H 661.785 -0.340135 -6.78248 0
M  V30 7174 H 659.731 1.85001 -6.29373 0
M  V30 7175 H 659.648 0.64102 -7.53277 0
M  V30 7176 H 660.916 1.82936 -7.5773 0
M  V30 7177 N 665.145 1.52092 -0.413018 0
M  V30 7178 C 666.055 2.30858 0.417318 0
M  V30 7179 C 667.071 1.38746 1.05003 0
M  V30 7180 O 668.247 1.71821 1.05069 0
M  V30 7181 C 665.312 3.11756 1.51687 0
M  V30 7182 C 664.373 4.19613 0.906825 0
M  V30 7183 C 663.606 4.96644 1.95399 0
M  V30 7184 O 663.829 4.7402 3.17271 0
M  V30 7185 O 662.763 5.81385 1.55805 0
M  V30 7186 H 666.589 3.02865 -0.225028 0
M  V30 7187 H 664.174 1.48358 -0.176126 0
M  V30 7188 H 666.056 3.62122 2.15512 0
M  V30 7189 H 664.731 2.42539 2.14375 0
M  V30 7190 H 663.638 3.73385 0.231183 0
M  V30 7191 H 664.971 4.91134 0.323814 0
M  V30 7192 N 666.623 0.143563 1.56945 0
M  V30 7193 C 667.555 -0.828353 2.13708 0
M  V30 7194 C 668.568 -1.21313 1.08568 0
M  V30 7195 O 669.757 -1.1578 1.35857 0
M  V30 7196 C 666.857 -2.12248 2.64204 0
M  V30 7197 C 666.03 -1.90561 3.93707 0
M  V30 7198 C 665.089 -3.03931 4.29549 0
M  V30 7199 O 664.115 -2.75772 4.97934 0
M  V30 7200 N 665.317 -4.31016 3.88852 0
M  V30 7201 H 668.082 -0.343242 2.97728 0
M  V30 7202 H 665.643 -0.0401152 1.6185 0
M  V30 7203 H 667.635 -2.87132 2.85197 0
M  V30 7204 H 666.205 -2.52033 1.84928 0
M  V30 7205 H 665.425 -0.997327 3.81375 0
M  V30 7206 H 666.713 -1.73405 4.78339 0
M  V30 7207 H 666.111 -4.56762 3.33743 0
M  V30 7208 H 664.668 -5.02691 4.14903 0
M  V30 7209 N 668.101 -1.57061 -0.130224 0
M  V30 7210 C 669.033 -1.96147 -1.18571 0
M  V30 7211 C 670.046 -0.859347 -1.38272 0
M  V30 7212 O 671.235 -1.13769 -1.37545 0
M  V30 7213 C 668.335 -2.23484 -2.54771 0
M  V30 7214 C 667.508 -3.54786 -2.55824 0
M  V30 7215 C 666.567 -3.70467 -3.73686 0
M  V30 7216 O 665.593 -4.42693 -3.57787 0
M  V30 7217 N 666.795 -3.08389 -4.91809 0
M  V30 7218 H 669.56 -2.87295 -0.853333 0
M  V30 7219 H 667.121 -1.58714 -0.319621 0
M  V30 7220 H 669.113 -2.312 -3.32158 0
M  V30 7221 H 667.683 -1.38518 -2.80235 0
M  V30 7222 H 666.903 -3.5836 -1.64232 0
M  V30 7223 H 668.191 -4.4111 -2.53573 0
M  V30 7224 H 667.589 -2.49656 -5.0763 0
M  V30 7225 H 666.146 -3.21642 -5.66912 0
M  V30 7226 N 669.579 0.400081 -1.52437 0
M  V30 7227 C 670.509 1.4947 -1.7939 0
M  V30 7228 C 671.49 1.57383 -0.645329 0
M  V30 7229 O 672.675 1.72511 -0.891826 0
M  V30 7230 C 669.805 2.87201 -1.95276 0
M  V30 7231 C 668.759 2.94134 -3.10917 0
M  V30 7232 C 668.085 4.34207 -3.1204 0
M  V30 7233 C 669.385 2.64791 -4.50203 0
M  V30 7234 H 671.079 1.27165 -2.71052 0
M  V30 7235 H 668.625 0.610312 -1.30427 0
M  V30 7236 H 670.578 3.63772 -2.12715 0
M  V30 7237 H 669.302 3.10819 -1.00294 0
M  V30 7238 H 667.961 2.20009 -2.93243 0
M  V30 7239 H 667.609 4.54848 -2.14761 0
M  V30 7240 H 667.309 4.39768 -3.89715 0
M  V30 7241 H 668.833 5.127 -3.31619 0
M  V30 7242 H 670.247 3.31083 -4.68035 0
M  V30 7243 H 668.644 2.81717 -5.29864 0
M  V30 7244 H 669.714 1.60184 -4.57678 0
M  V30 7245 N 671.057 1.43213 0.657864 0
M  V30 7246 C 672.004 1.48011 1.77092 0
M  V30 7247 C 672.974 0.330291 1.62783 0
M  V30 7248 O 674.159 0.536787 1.83094 0
M  V30 7249 C 671.299 1.40461 3.15222 0
M  V30 7250 C 670.412 2.65612 3.40697 0
M  V30 7251 C 669.547 2.50083 4.68649 0
M  V30 7252 C 668.586 3.70525 4.87214 0
M  V30 7253 N 667.723 3.53835 6.0642 0
M  V30 7254 H 672.563 2.43121 1.72326 0
M  V30 7255 H 670.1 1.20687 0.841013 0
M  V30 7256 H 672.058 1.34079 3.95068 0
M  V30 7257 H 670.688 0.489359 3.19069 0
M  V30 7258 H 669.74 2.82292 2.54982 0
M  V30 7259 H 671.052 3.5509 3.50303 0
M  V30 7260 H 670.206 2.41383 5.56614 0
M  V30 7261 H 668.945 1.58121 4.61356 0
M  V30 7262 H 667.95 3.79639 3.97686 0
M  V30 7263 H 669.175 4.63489 4.96341 0
M  V30 7264 H 667.121 2.64604 6.00267 0
M  V30 7265 H 667.038 4.36912 6.16963 0
M  V30 7266 H 668.306 3.48978 6.97019 0
M  V30 7267 N 672.536 -0.895792 1.29666 0
M  V30 7268 C 673.466 -2.01673 1.17688 0
M  V30 7269 C 674.447 -1.69955 0.0701317 0
M  V30 7270 O 675.632 -1.9258 0.250289 0
M  V30 7271 C 672.762 -3.36568 0.856681 0
M  V30 7272 C 671.716 -3.82509 1.92017 0
M  V30 7273 C 671.042 -5.14574 1.4532 0
M  V30 7274 C 672.342 -4.02409 3.32963 0
M  V30 7275 H 674.036 -2.11953 2.11463 0
M  V30 7276 H 671.582 -1.01839 1.01807 0
M  V30 7277 H 673.535 -4.14498 0.759577 0
M  V30 7278 H 672.259 -3.26391 -0.116763 0
M  V30 7279 H 670.918 -3.068 2.00673 0
M  V30 7280 H 670.566 -5.00815 0.468325 0
M  V30 7281 H 670.266 -5.46283 2.16447 0
M  V30 7282 H 671.79 -5.9504 1.36968 0
M  V30 7283 H 673.204 -4.70808 3.27127 0
M  V30 7284 H 671.601 -4.45478 4.02082 0
M  V30 7285 H 672.671 -3.06616 3.75652 0
M  V30 7286 N 674.014 -1.12206 -1.10668 0
M  V30 7287 C 674.944 -0.810086 -2.18997 0
M  V30 7288 C 675.925 0.225065 -1.68604 0
M  V30 7289 O 677.11 0.086783 -1.94006 0
M  V30 7290 C 674.24 -0.261262 -3.46316 0
M  V30 7291 C 673.194 -1.2292 -4.09969 0
M  V30 7292 C 672.52 -0.540713 -5.31959 0
M  V30 7293 C 673.82 -2.58295 -4.53962 0
M  V30 7294 H 675.514 -1.7159 -2.45352 0
M  V30 7295 H 673.06 -0.82646 -1.17922 0
M  V30 7296 H 675.013 -0.0307522 -4.21389 0
M  V30 7297 H 673.737 0.679879 -3.19445 0
M  V30 7298 H 672.396 -1.44548 -3.369 0
M  V30 7299 H 672.044 0.405492 -5.01363 0
M  V30 7300 H 671.744 -1.18637 -5.75499 0
M  V30 7301 H 673.268 -0.319184 -6.09765 0
M  V30 7302 H 674.682 -2.40709 -5.20319 0
M  V30 7303 H 673.079 -3.18916 -5.08343 0
M  V30 7304 H 674.149 -3.16918 -3.67002 0
M  V30 7305 N 675.492 1.28418 -0.913599 0
M  V30 7306 C 676.424 2.26368 -0.359169 0
M  V30 7307 C 677.437 1.54858 0.502285 0
M  V30 7308 O 678.626 1.75659 0.31719 0
M  V30 7309 C 675.726 3.35112 0.50526 0
M  V30 7310 C 674.899 4.36126 -0.333648 0
M  V30 7311 C 673.958 5.24134 0.465845 0
M  V30 7312 O 672.984 5.6907 -0.121538 0
M  V30 7313 N 674.186 5.52892 1.76891 0
M  V30 7314 H 676.951 2.74579 -1.2011 0
M  V30 7315 H 674.512 1.41898 -0.779532 0
M  V30 7316 H 676.504 3.90926 1.04684 0
M  V30 7317 H 675.074 2.86611 1.2479 0
M  V30 7318 H 674.294 3.79776 -1.0566 0
M  V30 7319 H 675.582 5.00638 -0.907669 0
M  V30 7320 H 674.98 5.18217 2.26865 0
M  V30 7321 H 673.537 6.11464 2.25732 0
M  V30 7322 N 676.97 0.677563 1.42291 0
M  V30 7323 C 677.902 -0.0380218 2.29168 0
M  V30 7324 C 678.915 -0.762714 1.43828 0
M  V30 7325 O 680.104 -0.616413 1.67519 0
M  V30 7326 C 677.204 -1.07761 3.21311 0
M  V30 7327 C 676.377 -0.42618 4.35319 0
M  V30 7328 C 675.436 -1.36592 5.08162 0
M  V30 7329 O 674.462 -0.865174 5.62586 0
M  V30 7330 N 675.664 -2.69909 5.13935 0
M  V30 7331 H 678.429 0.707766 2.91223 0
M  V30 7332 H 675.99 0.52219 1.53247 0
M  V30 7333 H 677.982 -1.70761 3.6691 0
M  V30 7334 H 676.552 -1.72511 2.60689 0
M  V30 7335 H 675.772 0.383385 3.92331 0
M  V30 7336 H 677.06 0.0275277 5.08793 0
M  V30 7337 H 676.458 -3.13129 4.71134 0
M  V30 7338 H 675.015 -3.2815 5.6317 0
M  V30 7339 N 678.448 -1.51871 0.421078 0
M  V30 7340 C 679.411 -2.25914 -0.386712 0
M  V30 7341 C 680.411 -1.28733 -0.963555 0
M  V30 7342 O 681.601 -1.52579 -0.840556 0
M  V30 7343 C 678.733 -3.03853 -1.54551 0
M  V30 7344 H 679.926 -2.98754 0.261978 0
M  V30 7345 H 677.479 -1.5533 0.173862 0
M  V30 7346 H 678.214 -2.35392 -2.23072 0
M  V30 7347 H 677.999 -3.75215 -1.13824 0
M  V30 7348 H 679.489 -3.59984 -2.11663 0
M  V30 7349 N 679.926 -0.151884 -1.56866 0
M  V30 7350 C 680.856 0.781943 -2.20018 0
M  V30 7351 C 681.837 1.25347 -1.14987 0
M  V30 7352 O 683.022 1.31015 -1.43348 0
M  V30 7353 C 680.152 2.01928 -2.82564 0
M  V30 7354 C 679.106 1.68434 -3.93464 0
M  V30 7355 C 678.432 2.99472 -4.42968 0
M  V30 7356 C 679.732 0.927244 -5.14003 0
M  V30 7357 H 681.426 0.255607 -2.98307 0
M  V30 7358 H 678.972 0.121502 -1.43486 0
M  V30 7359 H 680.925 2.67741 -3.25411 0
M  V30 7360 H 679.649 2.56943 -2.01614 0
M  V30 7361 H 678.308 1.04998 -3.51242 0
M  V30 7362 H 677.956 3.52488 -3.58834 0
M  V30 7363 H 677.656 2.77823 -5.17772 0
M  V30 7364 H 679.18 3.66348 -4.88489 0
M  V30 7365 H 680.594 1.48756 -5.53665 0
M  V30 7366 H 678.991 0.810513 -5.94601 0
M  V30 7367 H 680.061 -0.0801163 -4.84834 0
M  V30 7368 N 681.404 1.57128 0.121893 0
M  V30 7369 C 682.336 1.96773 1.17529 0
M  V30 7370 C 683.349 0.866668 1.37814 0
M  V30 7371 O 684.538 1.14497 1.3694 0
M  V30 7372 C 681.638 2.24832 2.53582 0
M  V30 7373 C 680.811 3.56138 2.53939 0
M  V30 7374 C 679.87 3.72443 3.71716 0
M  V30 7375 O 678.896 4.44584 3.55434 0
M  V30 7376 N 680.098 3.10993 4.90167 0
M  V30 7377 H 682.863 2.87743 0.838086 0
M  V30 7378 H 680.424 1.58881 0.311199 0
M  V30 7379 H 682.416 2.32958 3.30927 0
M  V30 7380 H 680.986 1.40002 2.79496 0
M  V30 7381 H 680.206 3.59226 1.62329 0
M  V30 7382 H 681.494 4.42448 2.51231 0
M  V30 7383 H 680.892 2.52345 5.06299 0
M  V30 7384 H 679.449 3.24644 5.65198 0
M  V30 7385 N 682.882 -0.391992 1.52647 0
M  V30 7386 C 684.13 -1.13507 1.67214 0
M  V30 7387 C 684.451 -1.90575 0.41304 0
M  V30 7388 O 683.721 -1.87348 -0.572498 0
M  V30 7389 H 682.301 -0.422013 0.616372 0
M  V30 7390 H 684.963 -0.44502 1.89751 0
M  V30 7391 H 684.059 -1.83964 2.52118 0
M  V30 7392 N 684.36 -1.4356 -0.65026 0
M  V30 7393 C 685.293 -1.434 -1.77515 0
M  V30 7394 C 686.271 -0.295082 -1.599 0
M  V30 7395 O 687.455 -0.489128 -1.82043 0
M  V30 7396 C 684.582 -1.2484 -3.14853 0
M  V30 7397 C 683.628 -2.42046 -3.51163 0
M  V30 7398 S 684.461 -4.04595 -3.50803 0
M  V30 7399 C 685.617 -3.88424 -4.90793 0
M  V30 7400 H 685.85 -2.38586 -1.77381 0
M  V30 7401 H 683.383 -1.30627 -0.823169 0
M  V30 7402 H 685.341 -1.14819 -3.94115 0
M  V30 7403 H 684.002 -0.311977 -3.12547 0
M  V30 7404 H 683.195 -2.24873 -4.51052 0
M  V30 7405 H 682.797 -2.48708 -2.79321 0
M  V30 7406 H 685.089 -3.50932 -5.79528 0
M  V30 7407 H 686.032 -4.88076 -5.13018 0
M  V30 7408 H 686.44 -3.20829 -4.64467 0
M  V30 7409 N 685.838 0.888903 -1.30139 0
M  V30 7410 C 686.77 1.99972 -1.11999 0
M  V30 7411 C 687.783 1.62673 -0.0643619 0
M  V30 7412 O 688.972 1.75788 -0.309983 0
M  V30 7413 C 686.072 3.31904 -0.685059 0
M  V30 7414 C 685.245 3.97665 -1.82158 0
M  V30 7415 C 684.304 5.07894 -1.37585 0
M  V30 7416 O 683.33 5.2974 -2.08241 0
M  V30 7417 N 684.532 5.7995 -0.252697 0
M  V30 7418 H 687.297 2.16085 -2.07671 0
M  V30 7419 H 684.858 1.06175 -1.22223 0
M  V30 7420 H 686.85 4.03005 -0.369964 0
M  V30 7421 H 685.42 3.12084 0.179507 0
M  V30 7422 H 684.64 3.19787 -2.305 0
M  V30 7423 H 685.928 4.3834 -2.58332 0
M  V30 7424 H 685.326 5.647 0.336141 0
M  V30 7425 H 683.883 6.518 0.00296813 0
M  V30 7426 N 687.317 1.12792 1.10072 0
M  V30 7427 C 688.249 0.757003 2.16338 0
M  V30 7428 C 689.262 -0.218144 1.61332 0
M  V30 7429 O 690.451 0.0010727 1.785 0
M  V30 7430 C 687.551 0.100303 3.38752 0
M  V30 7431 C 686.724 1.10586 4.2319 0
M  V30 7432 C 685.783 0.47609 5.24042 0
M  V30 7433 O 684.809 1.13418 5.57786 0
M  V30 7434 N 686.011 -0.754823 5.75572 0
M  V30 7435 H 688.776 1.6714 2.48766 0
M  V30 7436 H 686.337 1.02003 1.25726 0
M  V30 7437 H 688.329 -0.333092 4.03327 0
M  V30 7438 H 686.899 -0.716915 3.04268 0
M  V30 7439 H 686.119 1.71677 3.54853 0
M  V30 7440 H 687.407 1.78571 4.76435 0
M  V30 7441 H 686.805 -1.30838 5.50362 0
M  V30 7442 H 685.362 -1.13098 6.41913 0
M  V30 7443 N 688.795 -1.27931 0.920396 0
M  V30 7444 C 689.745 -2.24727 0.384966 0
M  V30 7445 C 690.729 -1.52715 -0.506661 0
M  V30 7446 O 691.921 -1.73599 -0.345298 0
M  V30 7447 C 689.05 -3.41324 -0.3678 0
M  V30 7448 C 688.136 -4.20649 0.539925 0
M  V30 7449 N 688.527 -4.77906 1.6565 0
M  V30 7450 C 686.825 -4.4469 0.341557 0
M  V30 7451 C 687.526 -5.37652 2.22047 0
M  V30 7452 N 686.502 -5.2218 1.51093 0
M  V30 7453 H 690.304 -2.66572 1.23761 0
M  V30 7454 H 687.818 -1.42779 0.773819 0
M  V30 7455 H 689.815 -4.0976 -0.768277 0
M  V30 7456 H 688.475 -3.01012 -1.21746 0
M  V30 7457 H 689.486 -4.76073 2.03899 0
M  V30 7458 H 686.163 -4.14868 -0.468045 0
M  V30 7459 H 687.553 -5.92948 3.1601 0
M  V30 7460 N 690.273 -0.685099 -1.4193 0
M  V30 7461 C 691.203 -0.0273506 -2.33484 0
M  V30 7462 C 692.184 0.778366 -1.51246 0
M  V30 7463 O 693.369 0.733449 -1.79817 0
M  V30 7464 C 690.499 0.917272 -3.34968 0
M  V30 7465 C 689.453 0.21941 -4.27437 0
M  V30 7466 C 688.779 1.27768 -5.1921 0
M  V30 7467 C 690.079 -0.907894 -5.14349 0
M  V30 7468 H 691.773 -0.791994 -2.88735 0
M  V30 7469 H 689.319 -0.382308 -1.38832 0
M  V30 7470 H 691.272 1.38657 -3.97935 0
M  V30 7471 H 689.996 1.71346 -2.78043 0
M  V30 7472 H 688.655 -0.229757 -3.65879 0
M  V30 7473 H 688.303 2.06612 -4.58607 0
M  V30 7474 H 688.003 0.815803 -5.81909 0
M  V30 7475 H 689.527 1.7477 -5.85054 0
M  V30 7476 H 690.941 -0.519348 -5.70943 0
M  V30 7477 H 689.338 -1.2962 -5.85934 0
M  V30 7478 H 690.408 -1.75218 -4.52136 0
M  V30 7479 N 691.751 1.51645 -0.429126 0
M  V30 7480 C 692.681 2.30434 0.377148 0
M  V30 7481 C 693.662 1.35493 1.02838 0
M  V30 7482 O 694.847 1.6441 1.03359 0
M  V30 7483 C 691.977 3.14038 1.48315 0
M  V30 7484 C 690.931 4.1719 0.955855 0
M  V30 7485 C 690.257 4.89263 2.15698 0
M  V30 7486 C 691.557 5.223 -0.00402136 0
M  V30 7487 H 693.251 2.98085 -0.280336 0
M  V30 7488 H 690.797 1.43354 -0.136265 0
M  V30 7489 H 692.75 3.67933 2.05435 0
M  V30 7490 H 691.474 2.44193 2.16881 0
M  V30 7491 H 690.133 3.64335 0.406929 0
M  V30 7492 H 689.781 4.15929 2.82864 0
M  V30 7493 H 689.481 5.59009 1.81059 0
M  V30 7494 H 691.005 5.45978 2.73387 0
M  V30 7495 H 692.419 5.71315 0.476607 0
M  V30 7496 H 690.816 5.99525 -0.26258 0
M  V30 7497 H 691.886 4.75638 -0.943236 0
M  V30 7498 N 693.229 0.160201 1.56784 0
M  V30 7499 C 694.176 -0.774416 2.1742 0
M  V30 7500 C 695.146 -1.23483 1.11091 0
M  V30 7501 O 696.331 -1.30499 1.39193 0
M  V30 7502 C 693.471 -2.00283 2.81035 0
M  V30 7503 C 692.584 -1.58701 4.01793 0
M  V30 7504 C 691.719 -2.76824 4.53367 0
M  V30 7505 C 690.758 -2.31679 5.66561 0
M  V30 7506 N 689.895 -3.42856 6.12694 0
M  V30 7507 H 694.735 -0.250542 2.96945 0
M  V30 7508 H 692.272 -0.111943 1.46673 0
M  V30 7509 H 694.23 -2.72316 3.16069 0
M  V30 7510 H 692.86 -2.5006 2.04132 0
M  V30 7511 H 691.912 -0.76384 3.72652 0
M  V30 7512 H 693.224 -1.21555 4.83762 0
M  V30 7513 H 692.378 -3.57029 4.90525 0
M  V30 7514 H 691.117 -3.17223 3.70433 0
M  V30 7515 H 690.122 -1.49917 5.28966 0
M  V30 7516 H 691.347 -1.9235 6.5129 0
M  V30 7517 H 689.293 -3.82852 5.32692 0
M  V30 7518 H 689.21 -3.09767 6.89624 0
M  V30 7519 H 690.478 -4.23379 6.545 0
M  V30 7520 N 694.707 -1.5719 -0.113559 0
M  V30 7521 C 695.953 -1.85412 -0.821597 0
M  V30 7522 C 696.286 -0.746722 -1.7927 0
M  V30 7523 O 695.561 0.246971 -1.92926 0
M  V30 7524 C 695.844 -3.24233 -1.56669 0
M  V30 7525 C 695.697 -4.45578 -0.614823 0
M  V30 7526 C 697.016 -3.60697 -2.52161 0
M  V30 7527 H 694.135 -0.674406 -0.29723 0
M  V30 7528 H 696.777 -1.89807 -0.085694 0
M  V30 7529 H 694.927 -3.20617 -2.19401 0
M  V30 7530 H 696.599 -4.613 0.00407137 0
M  V30 7531 H 694.842 -4.33738 0.0732332 0
M  V30 7532 H 695.513 -5.39395 -1.17292 0
M  V30 7533 H 697.989 -3.65139 -1.99532 0
M  V30 7534 H 696.865 -4.58798 -3.01323 0
M  V30 7535 H 697.126 -2.88403 -3.35076 0
M  V30 7536 N 696.185 0.383891 -1.52853 0
M  V30 7537 C 697.117 1.48889 -1.74255 0
M  V30 7538 C 698.13 1.50405 -0.623063 0
M  V30 7539 O 699.319 1.54215 -0.898887 0
M  V30 7540 C 696.419 2.87721 -1.79081 0
M  V30 7541 C 695.592 3.10111 -3.08464 0
M  V30 7542 C 694.651 4.28954 -3.0477 0
M  V30 7543 O 693.677 4.25012 -3.78621 0
M  V30 7544 N 694.879 5.35411 -2.24311 0
M  V30 7545 H 697.644 1.30915 -2.69595 0
M  V30 7546 H 695.205 0.573454 -1.51404 0
M  V30 7547 H 697.197 3.65333 -1.7411 0
M  V30 7548 H 695.767 2.99029 -0.911052 0
M  V30 7549 H 694.987 2.20319 -3.26884 0
M  V30 7550 H 696.275 3.21928 -3.94005 0
M  V30 7551 H 695.673 5.41471 -1.63787 0
M  V30 7552 H 694.23 6.1167 -2.25175 0
M  V30 7553 N 697.663 1.43903 0.642637 0
M  V30 7554 C 698.573 1.52349 1.78401 0
M  V30 7555 C 699.589 0.409869 1.69104 0
M  V30 7556 O 700.765 0.665548 1.90085 0
M  V30 7557 C 697.83 1.45408 3.14734 0
M  V30 7558 C 696.891 2.67528 3.35749 0
M  V30 7559 C 696.124 2.60909 4.65577 0
M  V30 7560 O 696.347 1.6627 5.45628 0
M  V30 7561 O 695.281 3.5158 4.88544 0
M  V30 7562 H 699.107 2.48752 1.7423 0
M  V30 7563 H 696.692 1.26021 0.802439 0
M  V30 7564 H 698.574 1.44019 3.96026 0
M  V30 7565 H 697.249 0.521437 3.19473 0
M  V30 7566 H 696.156 2.74487 2.5418 0
M  V30 7567 H 697.489 3.598 3.35864 0
M  V30 7568 N 699.141 -0.881989 1.30609 0
M  V30 7569 C 700.051 -2.02076 1.19174 0
M  V30 7570 C 701.067 -1.73645 0.11102 0
M  V30 7571 O 702.243 -1.98735 0.326528 0
M  V30 7572 C 699.308 -3.3515 0.887438 0
M  V30 7573 C 698.369 -3.76983 2.05383 0
M  V30 7574 C 697.602 -5.03707 1.76395 0
M  V30 7575 O 697.825 -5.66171 0.693302 0
M  V30 7576 O 696.759 -5.42019 2.61723 0
M  V30 7577 H 700.585 -2.14652 2.14845 0
M  V30 7578 H 698.17 -1.00843 1.10232 0
M  V30 7579 H 700.052 -4.14975 0.73306 0
M  V30 7580 H 698.727 -3.23676 -0.0393354 0
M  V30 7581 H 697.634 -2.97849 2.26355 0
M  V30 7582 H 698.967 -3.93066 2.96243 0
M  V30 7583 N 700.619 -1.13374 -1.09472 0
M  V30 7584 C 701.849 -0.917019 -1.85133 0
M  V30 7585 C 702.257 0.537568 -1.81402 0
M  V30 7586 O 701.6 1.38385 -1.20811 0
M  V30 7587 C 701.662 -1.32646 -3.34134 0
M  V30 7588 C 701.326 -2.79437 -3.61613 0
M  V30 7589 C 702.323 -3.77596 -3.57375 0
M  V30 7590 C 700.008 -3.16586 -3.89973 0
M  V30 7591 C 702.002 -5.10916 -3.81108 0
M  V30 7592 C 699.689 -4.50085 -4.13361 0
M  V30 7593 C 700.687 -5.47059 -4.0892 0
M  V30 7594 O 700.375 -6.78149 -4.31705 0
M  V30 7595 H 700.107 -0.326997 -0.591649 0
M  V30 7596 H 702.661 -1.51002 -1.39239 0
M  V30 7597 H 700.891 -0.676719 -3.80733 0
M  V30 7598 H 702.58 -1.08229 -3.91205 0
M  V30 7599 H 703.346 -3.50242 -3.35493 0
M  V30 7600 H 699.225 -2.41707 -3.92554 0
M  V30 7601 H 702.769 -5.86597 -3.77558 0
M  V30 7602 H 698.666 -4.77163 -4.34724 0
M  V30 7603 H 699.434 -6.84244 -4.49168 0
M  V30 7604 N 702.098 1.27442 -0.927168 0
M  V30 7605 C 703.045 2.26863 -0.424459 0
M  V30 7606 C 704.015 1.5813 0.508346 0
M  V30 7607 O 705.2 1.85946 0.42762 0
M  V30 7608 C 702.34 3.43639 0.31718 0
M  V30 7609 C 701.453 4.27087 -0.649675 0
M  V30 7610 C 700.588 5.31082 0.111753 0
M  V30 7611 C 699.627 6.062 -0.847843 0
M  V30 7612 N 698.764 7.01999 -0.119074 0
M  V30 7613 H 703.604 2.69239 -1.27728 0
M  V30 7614 H 701.141 1.32394 -0.641106 0
M  V30 7615 H 703.099 4.10155 0.763486 0
M  V30 7616 H 701.729 3.02217 1.13424 0
M  V30 7617 H 700.781 3.60491 -1.21451 0
M  V30 7618 H 702.093 4.79242 -1.38307 0
M  V30 7619 H 701.247 6.03544 0.618 0
M  V30 7620 H 699.986 4.7973 0.878114 0
M  V30 7621 H 698.991 5.32577 -1.36534 0
M  V30 7622 H 700.216 6.59642 -1.61398 0
M  V30 7623 H 698.162 6.52977 0.629051 0
M  V30 7624 H 698.079 7.5184 -0.792046 0
M  V30 7625 H 699.347 7.78638 0.366537 0
M  V30 7626 N 703.576 0.692616 1.41565 0
M  V30 7627 C 704.523 0.0254264 2.30786 0
M  V30 7628 C 705.493 -0.774347 1.46946 0
M  V30 7629 O 706.678 -0.742981 1.7574 0
M  V30 7630 C 703.818 -0.907123 3.32964 0
M  V30 7631 C 702.931 -0.0992784 4.31886 0
M  V30 7632 C 702.066 -1.0292 5.21134 0
M  V30 7633 C 701.105 -0.214088 6.11725 0
M  V30 7634 N 700.242 -1.09766 6.93467 0
M  V30 7635 H 705.082 0.792036 2.87282 0
M  V30 7636 H 702.619 0.4023 1.41492 0
M  V30 7637 H 704.577 -1.46181 3.90752 0
M  V30 7638 H 703.207 -1.64016 2.78026 0
M  V30 7639 H 702.259 0.572287 3.76071 0
M  V30 7640 H 703.571 0.532782 4.95946 0
M  V30 7641 H 702.725 -1.65321 5.83741 0
M  V30 7642 H 701.464 -1.69512 4.57293 0
M  V30 7643 H 700.469 0.42302 5.4817 0
M  V30 7644 H 701.694 0.447995 6.77621 0
M  V30 7645 H 699.64 -1.74965 6.32237 0
M  V30 7646 H 699.557 -0.521099 7.54202 0
M  V30 7647 H 700.825 -1.70858 7.60544 0
M  V30 7648 N 705.054 -1.51416 0.437162 0
M  V30 7649 C 706.001 -2.27743 -0.374374 0
M  V30 7650 C 706.971 -1.31327 -1.01698 0
M  V30 7651 O 708.156 -1.60229 -1.03592 0
M  V30 7652 C 705.296 -3.12241 -1.46969 0
M  V30 7653 C 704.409 -4.23651 -0.845236 0
M  V30 7654 C 703.544 -4.95458 -1.91559 0
M  V30 7655 C 702.583 -5.98789 -1.26956 0
M  V30 7656 N 701.72 -6.64005 -2.28126 0
M  V30 7657 H 706.56 -2.96654 0.282892 0
M  V30 7658 H 704.097 -1.46319 0.151352 0
M  V30 7659 H 706.055 -3.59556 -2.11602 0
M  V30 7660 H 704.685 -2.45445 -2.09659 0
M  V30 7661 H 703.737 -3.803 -0.0872059 0
M  V30 7662 H 705.049 -4.97683 -0.333582 0
M  V30 7663 H 704.203 -5.46321 -2.63854 0
M  V30 7664 H 702.942 -4.21055 -2.46097 0
M  V30 7665 H 701.947 -5.47219 -0.53207 0
M  V30 7666 H 703.172 -6.75149 -0.731509 0
M  V30 7667 H 701.118 -5.92415 -2.81745 0
M  V30 7668 H 701.035 -7.33802 -1.81852 0
M  V30 7669 H 702.303 -7.19498 -2.99905 0
M  V30 7670 N 706.532 -0.168513 -1.56696 0
M  V30 7671 C 707.442 0.775435 -2.21414 0
M  V30 7672 C 708.458 1.25529 -1.20492 0
M  V30 7673 O 709.634 1.30801 -1.53144 0
M  V30 7674 C 706.699 1.9886 -2.83999 0
M  V30 7675 C 705.76 1.5559 -4.00113 0
M  V30 7676 C 704.993 2.71124 -4.59704 0
M  V30 7677 O 705.216 3.87917 -4.18182 0
M  V30 7678 O 704.15 2.4536 -5.4962 0
M  V30 7679 H 707.976 0.254416 -3.02632 0
M  V30 7680 H 705.561 0.0595507 -1.49281 0
M  V30 7681 H 707.443 2.69816 -3.23693 0
M  V30 7682 H 706.118 2.49874 -2.05779 0
M  V30 7683 H 705.025 0.815924 -3.65094 0
M  V30 7684 H 706.358 1.09271 -4.79917 0
M  V30 7685 N 708.01 1.57248 0.105221 0
M  V30 7686 C 708.973 2.00388 1.11252 0
M  V30 7687 C 709.973 0.89594 1.33527 0
M  V30 7688 O 711.163 1.16166 1.29811 0
M  V30 7689 C 708.295 2.35589 2.46395 0
M  V30 7690 H 709.488 2.90591 0.741424 0
M  V30 7691 H 707.041 1.52332 0.349956 0
M  V30 7692 H 707.776 1.4831 2.884 0
M  V30 7693 H 707.561 3.16408 2.31578 0
M  V30 7694 H 709.051 2.69658 3.18864 0
M  V30 7695 N 709.488 -0.375779 1.53054 0
M  V30 7696 C 710.398 -1.48381 1.81715 0
M  V30 7697 C 711.414 -1.59087 0.704795 0
M  V30 7698 O 712.59 -1.75174 0.993785 0
M  V30 7699 C 709.655 -2.83767 1.99192 0
M  V30 7700 C 708.716 -2.82673 3.23102 0
M  V30 7701 C 707.949 -4.11601 3.39736 0
M  V30 7702 O 708.172 -5.07243 2.60885 0
M  V30 7703 O 707.106 -4.18034 4.33049 0
M  V30 7704 H 710.932 -1.27089 2.7583 0
M  V30 7705 H 708.517 -0.564902 1.38308 0
M  V30 7706 H 710.399 -3.64004 2.12318 0
M  V30 7707 H 709.074 -3.05057 1.08267 0
M  V30 7708 H 707.981 -2.0117 3.15407 0
M  V30 7709 H 709.314 -2.66335 4.13916 0
M  V30 7710 N 710.966 -1.44241 -0.634997 0
M  V30 7711 C 711.896 -1.53632 -1.7584 0
M  V30 7712 C 712.877 -0.389603 -1.65578 0
M  V30 7713 O 714.062 -0.609219 -1.84397 0
M  V30 7714 C 711.192 -1.47644 -3.14354 0
M  V30 7715 C 710.146 -2.60752 -3.394 0
M  V30 7716 C 709.472 -2.39817 -4.77904 0
M  V30 7717 C 710.772 -4.02921 -3.32343 0
M  V30 7718 H 712.466 -2.47662 -1.68238 0
M  V30 7719 H 710.012 -1.19197 -0.807969 0
M  V30 7720 H 711.965 -1.52815 -3.92716 0
M  V30 7721 H 710.689 -0.501284 -3.2273 0
M  V30 7722 H 709.348 -2.54965 -2.63417 0
M  V30 7723 H 708.996 -1.40502 -4.82978 0
M  V30 7724 H 708.696 -3.15649 -4.9562 0
M  V30 7725 H 710.22 -2.46799 -5.585 0
M  V30 7726 H 711.634 -4.10098 -4.00615 0
M  V30 7727 H 710.031 -4.78925 -3.61595 0
M  V30 7728 H 711.101 -4.26766 -2.30215 0
M  V30 7729 N 712.444 0.87505 -1.31075 0
M  V30 7730 C 713.354 2.01441 -1.20244 0
M  V30 7731 C 714.37 1.73584 -0.120227 0
M  V30 7732 O 715.546 1.98559 -0.337063 0
M  V30 7733 C 712.611 3.34675 -0.905199 0
M  V30 7734 C 711.672 3.75889 -2.0738 0
M  V30 7735 C 710.905 5.02764 -1.79064 0
M  V30 7736 O 711.128 5.65795 -0.723318 0
M  V30 7737 O 710.062 5.40623 -2.64594 0
M  V30 7738 H 713.888 2.13509 -2.1598 0
M  V30 7739 H 711.473 1.00257 -1.10765 0
M  V30 7740 H 713.355 4.1458 -0.755057 0
M  V30 7741 H 712.03 3.23692 0.0221695 0
M  V30 7742 H 710.937 2.96645 -2.27931 0
M  V30 7743 H 712.27 3.91489 -2.98324 0
M  V30 7744 N 713.922 1.13953 1.08869 0
M  V30 7745 C 714.869 0.82213 2.15661 0
M  V30 7746 C 715.839 -0.218274 1.6466 0
M  V30 7747 O 717.024 -0.0892475 1.90591 0
M  V30 7748 C 714.164 0.300572 3.43789 0
M  V30 7749 C 713.277 1.40071 4.08661 0
M  V30 7750 C 712.412 0.836897 5.24566 0
M  V30 7751 C 711.451 1.91504 5.81371 0
M  V30 7752 N 710.588 1.36875 6.88629 0
M  V30 7753 H 715.428 1.73683 2.42153 0
M  V30 7754 H 712.965 0.866879 1.18843 0
M  V30 7755 H 714.923 -0.0199943 4.17195 0
M  V30 7756 H 713.553 -0.577248 3.17597 0
M  V30 7757 H 712.605 1.83776 3.33062 0
M  V30 7758 H 713.917 2.21534 4.46905 0
M  V30 7759 H 713.071 0.467953 6.04893 0
M  V30 7760 H 711.81 -0.00874207 4.87699 0
M  V30 7761 H 710.815 2.29299 4.99702 0
M  V30 7762 H 712.04 2.76419 6.20298 0
M  V30 7763 H 709.986 0.545211 6.5373 0
M  V30 7764 H 709.903 2.1198 7.25672 0
M  V30 7765 H 711.171 1.02756 7.72698 0
M  V30 7766 N 715.4 -1.26948 0.933913 0
M  V30 7767 C 716.33 -2.29017 0.45534 0
M  V30 7768 C 717.311 -1.62961 -0.487605 0
M  V30 7769 O 718.496 -1.90223 -0.391022 0
M  V30 7770 C 715.626 -3.46112 -0.287015 0
M  V30 7771 C 714.58 -4.24205 0.568682 0
M  V30 7772 C 713.906 -5.3384 -0.303206 0
M  V30 7773 C 715.206 -4.88954 1.83633 0
M  V30 7774 H 716.9 -2.69298 1.30839 0
M  V30 7775 H 714.446 -1.29459 0.630579 0
M  V30 7776 H 716.399 -4.16622 -0.6328 0
M  V30 7777 H 715.123 -3.04765 -1.17414 0
M  V30 7778 H 713.782 -3.5545 0.897261 0
M  V30 7779 H 713.43 -4.88734 -1.18947 0
M  V30 7780 H 713.13 -5.86998 0.265879 0
M  V30 7781 H 714.654 -6.0719 -0.644423 0
M  V30 7782 H 716.068 -5.51717 1.55823 0
M  V30 7783 H 714.465 -5.52198 2.34941 0
M  V30 7784 H 715.535 -4.12305 2.55211 0
M  V30 7785 N 716.879 -0.700114 -1.41195 0
M  V30 7786 C 717.826 -0.0376652 -2.30769 0
M  V30 7787 C 718.796 0.766544 -1.47354 0
M  V30 7788 O 719.981 0.73365 -1.76131 0
M  V30 7789 C 717.121 0.889452 -3.33441 0
M  V30 7790 C 716.234 0.076373 -4.31932 0
M  V30 7791 C 715.369 1.00155 -5.21673 0
M  V30 7792 C 714.408 0.181644 -6.1183 0
M  V30 7793 N 713.545 1.06087 -6.94039 0
M  V30 7794 H 718.385 -0.80726 -2.86858 0
M  V30 7795 H 715.922 -0.409798 -1.41277 0
M  V30 7796 H 717.88 1.44107 -3.91522 0
M  V30 7797 H 716.51 1.6254 -2.78892 0
M  V30 7798 H 715.562 -0.592223 -3.75762 0
M  V30 7799 H 716.874 -0.559076 -4.95657 0
M  V30 7800 H 716.028 1.62223 -5.8461 0
M  V30 7801 H 714.767 1.67085 -4.58186 0
M  V30 7802 H 713.772 -0.452085 -5.47938 0
M  V30 7803 H 714.997 -0.483925 -6.77374 0
M  V30 7804 H 712.943 1.7161 -6.33156 0
M  V30 7805 H 712.86 0.481094 -7.54468 0
M  V30 7806 H 714.128 1.66822 -7.6144 0
M  V30 7807 N 718.357 1.51182 -0.445186 0
M  V30 7808 C 719.634 1.9478 0.178965 0
M  V30 7809 C 720.014 1.38428 1.59376 0
M  V30 7810 O 719.362 0.574552 2.21159 0
M  V30 7811 C 719.572 3.48683 0.148711 0
M  V30 7812 C 720.92 4.23152 0.35042 0
M  V30 7813 O 721.944 3.55479 0.226474 0
M  V30 7814 O 720.803 5.4322 0.597893 0
M  V30 7815 H 717.897 0.817387 0.12573 0
M  V30 7816 H 720.443 1.62051 -0.503729 0
M  V30 7817 H 719.215 3.82176 -0.84009 0
M  V30 7818 H 718.838 3.87875 0.873979 0
M  V30 7819 N 719.835 0.176821 1.56605 0
M  V30 7820 C 721.112 -0.513365 1.88743 0
M  V30 7821 C 721.492 -1.80929 1.08757 0
M  V30 7822 O 720.84 -2.27765 0.183127 0
M  V30 7823 C 721.05 -0.749925 3.40848 0
M  V30 7824 C 722.398 -1.07747 4.10701 0
M  V30 7825 O 723.422 -0.838277 3.46196 0
M  V30 7826 O 722.281 -1.52901 5.24675 0
M  V30 7827 H 719.375 -0.265296 0.783292 0
M  V30 7828 H 721.921 0.215669 1.68324 0
M  V30 7829 H 720.693 0.16599 3.90948 0
M  V30 7830 H 720.316 -1.53208 3.66897 0
M  V30 7831 N 721.313 -1.57302 -0.09688 0
M  V30 7832 C 722.26 -2.01933 -1.11766 0
M  V30 7833 C 723.23 -0.895329 -1.39904 0
M  V30 7834 O 724.415 -1.16119 -1.51397 0
M  V30 7835 C 721.555 -2.44726 -2.43317 0
M  V30 7836 C 720.668 -3.70639 -2.21925 0
M  V30 7837 C 719.803 -4.02318 -3.46862 0
M  V30 7838 C 718.842 -5.21346 -3.20725 0
M  V30 7839 N 717.979 -5.48787 -4.37924 0
M  V30 7840 H 722.819 -2.88919 -0.730075 0
M  V30 7841 H 720.356 -1.42901 -0.348962 0
M  V30 7842 H 722.314 -2.6758 -3.20088 0
M  V30 7843 H 720.944 -1.60753 -2.79926 0
M  V30 7844 H 719.996 -3.55271 -1.35965 0
M  V30 7845 H 721.308 -4.57557 -1.98603 0
M  V30 7846 H 720.462 -4.25939 -4.32042 0
M  V30 7847 H 719.201 -3.13918 -3.73238 0
M  V30 7848 H 718.206 -4.97547 -2.33938 0
M  V30 7849 H 719.431 -6.11343 -2.95697 0
M  V30 7850 H 717.377 -4.63346 -4.64378 0
M  V30 7851 H 717.294 -6.30073 -4.17785 0
M  V30 7852 H 718.562 -5.76943 -5.24173 0
M  V30 7853 N 722.791 0.367657 -1.53252 0
M  V30 7854 C 723.721 1.45632 -1.8252 0
M  V30 7855 C 724.702 1.55979 -0.678568 0
M  V30 7856 O 725.887 1.70581 -0.928217 0
M  V30 7857 C 723.017 2.82994 -2.01325 0
M  V30 7858 C 721.971 2.87473 -3.17086 0
M  V30 7859 C 721.297 4.2749 -3.21179 0
M  V30 7860 C 722.597 2.55182 -4.55719 0
M  V30 7861 H 724.291 1.21387 -2.73689 0
M  V30 7862 H 721.837 0.58251 -1.31692 0
M  V30 7863 H 723.79 3.59179 -2.20383 0
M  V30 7864 H 722.514 3.08622 -1.06864 0
M  V30 7865 H 721.173 2.13739 -2.97844 0
M  V30 7866 H 720.821 4.5019 -2.24361 0
M  V30 7867 H 720.521 4.31403 -3.98955 0
M  V30 7868 H 722.045 5.0555 -3.42419 0
M  V30 7869 H 723.459 3.21081 -4.74953 0
M  V30 7870 H 721.856 2.70414 -5.3572 0
M  V30 7871 H 722.926 1.5044 -4.60973 0
M  V30 7872 N 724.269 1.44576 0.627338 0
M  V30 7873 C 725.201 1.47724 1.75243 0
M  V30 7874 C 726.214 0.370193 1.58535 0
M  V30 7875 O 727.403 0.636151 1.66779 0
M  V30 7876 C 724.503 1.2991 3.13012 0
M  V30 7877 C 723.676 2.5393 3.56143 0
M  V30 7878 C 722.735 2.30961 4.72804 0
M  V30 7879 O 721.761 3.04469 4.80923 0
M  V30 7880 N 722.963 1.34261 5.6476 0
M  V30 7881 H 725.728 2.44718 1.73012 0
M  V30 7882 H 723.289 1.40064 0.812022 0
M  V30 7883 H 725.281 1.12385 3.88782 0
M  V30 7884 H 723.851 0.412668 3.09864 0
M  V30 7885 H 723.071 2.86707 2.70542 0
M  V30 7886 H 724.359 3.36411 3.81713 0
M  V30 7887 H 723.757 0.735573 5.60897 0
M  V30 7888 H 722.314 1.22713 6.40144 0
M  V30 7889 N 725.747 -0.868086 1.31537 0
M  V30 7890 C 726.993 -1.62367 1.2151 0
M  V30 7891 C 727.326 -1.92883 -0.225819 0
M  V30 7892 O 726.601 -1.56176 -1.15927 0
M  V30 7893 C 726.884 -2.95268 2.06129 0
M  V30 7894 C 726.737 -2.71619 3.58529 0
M  V30 7895 C 728.056 -3.96391 1.91212 0
M  V30 7896 H 725.175 -0.589178 0.442762 0
M  V30 7897 H 727.817 -1.00336 1.61347 0
M  V30 7898 H 725.967 -3.4821 1.72284 0
M  V30 7899 H 727.639 -2.25334 4.0252 0
M  V30 7900 H 725.882 -2.05817 3.81866 0
M  V30 7901 H 726.553 -3.66192 4.13047 0
M  V30 7902 H 729.029 -3.52663 2.20834 0
M  V30 7903 H 727.905 -4.87263 2.52718 0
M  V30 7904 H 728.166 -4.33335 0.875953 0
M  V30 7905 N 727.225 -1.14528 -1.08264 0
M  V30 7906 C 728.135 -0.84728 -2.18765 0
M  V30 7907 C 729.151 0.172826 -1.7314 0
M  V30 7908 O 730.327 0.000985336 -2.014 0
M  V30 7909 C 727.392 -0.330633 -3.4512 0
M  V30 7910 C 726.453 -1.41348 -4.05363 0
M  V30 7911 C 725.686 -0.921387 -5.25686 0
M  V30 7912 O 725.909 0.236587 -5.69909 0
M  V30 7913 O 724.843 -1.70101 -5.77364 0
M  V30 7914 H 728.669 -1.7708 -2.46731 0
M  V30 7915 H 726.254 -0.923661 -1.17426 0
M  V30 7916 H 728.136 -0.0485053 -4.21372 0
M  V30 7917 H 726.811 0.565147 -3.18728 0
M  V30 7918 H 725.718 -1.74908 -3.30693 0
M  V30 7919 H 727.051 -2.28383 -4.36007 0
M  V30 7920 N 728.703 1.26451 -0.940633 0
M  V30 7921 C 729.65 2.264 -0.448497 0
M  V30 7922 C 730.62 1.5866 0.491546 0
M  V30 7923 O 731.805 1.86389 0.407874 0
M  V30 7924 C 728.945 3.43956 0.280715 0
M  V30 7925 C 728.058 4.26374 -0.694937 0
M  V30 7926 C 727.193 5.31171 0.0554186 0
M  V30 7927 C 726.232 6.05266 -0.912091 0
M  V30 7928 N 725.369 7.01833 -0.193524 0
M  V30 7929 H 730.209 2.67869 -1.30576 0
M  V30 7930 H 727.746 1.31707 -0.655112 0
M  V30 7931 H 729.704 4.10941 0.71994 0
M  V30 7932 H 728.334 3.03403 1.10212 0
M  V30 7933 H 727.386 3.59183 -1.25267 0
M  V30 7934 H 728.698 4.77748 -1.43382 0
M  V30 7935 H 727.852 6.04166 0.553951 0
M  V30 7936 H 726.591 4.80634 0.827183 0
M  V30 7937 H 725.596 5.31099 -1.42175 0
M  V30 7938 H 726.821 6.57893 -1.68385 0
M  V30 7939 H 724.767 6.53607 0.559758 0
M  V30 7940 H 724.684 7.50957 -0.871744 0
M  V30 7941 H 725.952 7.78983 0.283932 0
M  V30 7942 N 730.181 0.707592 1.40822 0
M  V30 7943 C 731.114 -0.000859377 2.282 0
M  V30 7944 C 732.092 -0.7758 1.42899 0
M  V30 7945 O 733.276 -0.76411 1.72318 0
M  V30 7946 C 730.403 -1.00861 3.23334 0
M  V30 7947 C 729.449 -0.32543 4.25257 0
M  V30 7948 S 730.282 0.940908 5.27169 0
M  V30 7949 C 731.438 -0.0649459 6.25866 0
M  V30 7950 H 731.671 0.740207 2.87938 0
M  V30 7951 H 729.204 0.498311 1.46138 0
M  V30 7952 H 731.162 -1.58485 3.78672 0
M  V30 7953 H 729.823 -1.72233 2.62668 0
M  V30 7954 H 729.016 -1.08697 4.92139 0
M  V30 7955 H 728.618 0.178044 3.73576 0
M  V30 7956 H 730.91 -0.914377 6.71301 0
M  V30 7957 H 731.853 0.570276 7.058 0
M  V30 7958 H 732.261 -0.425098 5.62897 0
M  V30 7959 N 731.66 -1.50943 0.453197 0
M  V30 7960 C 732.59 -2.31005 -0.34044 0
M  V30 7961 C 733.571 -1.37112 -1.00669 0
M  V30 7962 O 734.756 -1.66033 -1.0073 0
M  V30 7963 C 731.886 -3.16358 -1.433 0
M  V30 7964 C 730.84 -4.18658 -0.889363 0
M  V30 7965 C 730.166 -4.92633 -2.07887 0
M  V30 7966 C 731.466 -5.22227 0.0871142 0
M  V30 7967 H 733.16 -2.97601 0.327723 0
M  V30 7968 H 730.706 -1.43119 0.159054 0
M  V30 7969 H 732.659 -3.71155 -1.99555 0
M  V30 7970 H 731.383 -2.47613 -2.12968 0
M  V30 7971 H 730.042 -3.64936 -0.348915 0
M  V30 7972 H 729.69 -4.20376 -2.76211 0
M  V30 7973 H 729.39 -5.61819 -1.72143 0
M  V30 7974 H 730.914 -5.50258 -2.64666 0
M  V30 7975 H 732.328 -5.72001 -0.385656 0
M  V30 7976 H 730.725 -5.99032 0.357926 0
M  V30 7977 H 731.795 -4.74077 1.01879 0
M  V30 7978 N 733.138 -0.185124 -1.56509 0
M  V30 7979 C 734.048 0.751908 -2.22224 0
M  V30 7980 C 735.064 1.24244 -1.21817 0
M  V30 7981 O 736.24 1.29169 -1.54523 0
M  V30 7982 C 733.305 1.95837 -2.86092 0
M  V30 7983 C 732.366 1.51337 -4.01741 0
M  V30 7984 C 731.599 2.66233 -4.62554 0
M  V30 7985 O 731.822 3.8346 -4.22273 0
M  V30 7986 O 730.756 2.39517 -5.52191 0
M  V30 7987 H 734.582 0.222304 -3.02885 0
M  V30 7988 H 732.167 0.0437141 -1.49336 0
M  V30 7989 H 734.049 2.66368 -3.26536 0
M  V30 7990 H 732.724 2.47677 -2.08417 0
M  V30 7991 H 731.631 0.777155 -3.65939 0
M  V30 7992 H 732.964 1.04175 -4.81049 0
M  V30 7993 N 734.616 1.57351 0.0885366 0
M  V30 7994 C 735.564 2.03542 1.12576 0
M  V30 7995 C 736.558 0.937668 1.41082 0
M  V30 7996 O 737.764 1.12283 1.40686 0
M  V30 7997 H 734.139 0.648752 0.380296 0
M  V30 7998 H 736.11 2.89833 0.709906 0
M  V30 7999 C 734.859 2.4811 2.43591 0
M  V30 8000 H 734.182 3.32164 2.22502 0
M  V30 8001 H 735.622 2.842 3.14653 0
M  V30 8002 C 734.081 1.35708 3.08359 0
M  V30 8003 O 734.611 0.689852 3.95732 0
M  V30 8004 N 732.817 1.10641 2.68713 0
M  V30 8005 H 732.364 1.6508 1.97753 0
M  V30 8006 H 732.322 0.356355 3.12374 0
M  V30 8007 N 736.094 -0.359525 1.53444 0
M  V30 8008 C 737.024 -1.44662 1.8329 0
M  V30 8009 C 738.005 -1.55617 0.68683 0
M  V30 8010 O 739.19 -1.70086 0.93725 0
M  V30 8011 C 736.32 -2.81923 2.02822 0
M  V30 8012 C 735.274 -2.85787 3.18606 0
M  V30 8013 C 734.6 -4.25781 3.23442 0
M  V30 8014 C 735.9 -2.52762 4.57065 0
M  V30 8015 H 737.594 -1.19934 2.74329 0
M  V30 8016 H 735.14 -0.575517 1.31999 0
M  V30 8017 H 737.093 -3.58005 2.22285 0
M  V30 8018 H 735.817 -3.08051 1.085 0
M  V30 8019 H 734.476 -2.12157 2.98973 0
M  V30 8020 H 734.124 -4.48994 2.26745 0
M  V30 8021 H 733.824 -4.29281 4.01238 0
M  V30 8022 H 735.348 -5.03727 3.45096 0
M  V30 8023 H 736.762 -3.18557 4.76649 0
M  V30 8024 H 735.159 -2.67569 5.37147 0
M  V30 8025 H 736.229 -1.47993 4.61764 0
M  V30 8026 N 737.572 -1.44907 -0.619662 0
M  V30 8027 C 738.519 -1.52654 -1.73105 0
M  V30 8028 C 739.489 -0.373334 -1.6185 0
M  V30 8029 O 740.674 -0.585143 -1.81606 0
M  V30 8030 C 737.814 -1.48769 -3.11387 0
M  V30 8031 C 736.927 -2.74551 -3.33535 0
M  V30 8032 C 736.062 -2.62421 -4.61854 0
M  V30 8033 C 735.101 -3.83312 -4.77219 0
M  V30 8034 N 734.238 -3.69789 -5.96826 0
M  V30 8035 H 739.078 -2.47605 -1.65819 0
M  V30 8036 H 736.615 -1.22875 -0.808719 0
M  V30 8037 H 738.573 -1.44507 -3.91374 0
M  V30 8038 H 737.203 -0.573783 -3.1766 0
M  V30 8039 H 736.255 -2.88953 -2.47408 0
M  V30 8040 H 737.567 -3.64253 -3.40765 0
M  V30 8041 H 736.721 -2.56056 -5.50019 0
M  V30 8042 H 735.46 -1.70298 -4.57001 0
M  V30 8043 H 734.465 -3.90049 -3.87481 0
M  V30 8044 H 735.69 -4.76486 -4.83878 0
M  V30 8045 H 733.636 -2.80426 -5.93041 0
M  V30 8046 H 733.553 -4.53116 -6.05163 0
M  V30 8047 H 734.821 -3.67335 -6.87521 0
M  V30 8048 N 739.05 0.861098 -1.31996 0
M  V30 8049 C 739.96 2.00154 -1.22374 0
M  V30 8050 C 740.976 1.73447 -0.138631 0
M  V30 8051 O 742.152 1.98191 -0.358104 0
M  V30 8052 C 739.217 3.33696 -0.940645 0
M  V30 8053 C 738.278 3.73668 -2.11355 0
M  V30 8054 C 737.511 5.00837 -1.84386 0
M  V30 8055 O 737.734 5.64996 -0.783287 0
M  V30 8056 O 736.668 5.37787 -2.70313 0
M  V30 8057 H 740.494 2.11207 -2.18233 0
M  V30 8058 H 738.079 0.990768 -1.11822 0
M  V30 8059 H 739.961 4.13756 -0.798987 0
M  V30 8060 H 738.636 3.23698 -0.0121636 0
M  V30 8061 H 737.543 2.94211 -2.31065 0
M  V30 8062 H 738.876 3.88303 -3.02459 0
M  V30 8063 N 740.528 1.15101 1.07655 0
M  V30 8064 C 741.475 0.844958 2.14777 0
M  V30 8065 C 742.445 -0.200798 1.64882 0
M  V30 8066 O 743.63 -0.0690278 1.90675 0
M  V30 8067 C 740.77 0.337018 3.4345 0
M  V30 8068 C 739.883 1.44398 4.07153 0
M  V30 8069 C 739.018 0.892487 5.23649 0
M  V30 8070 C 738.057 1.9766 5.79307 0
M  V30 8071 N 737.194 1.44171 6.87138 0
M  V30 8072 H 742.034 1.76242 2.40297 0
M  V30 8073 H 739.571 0.879435 1.17917 0
M  V30 8074 H 741.529 0.024256 4.17193 0
M  V30 8075 H 740.159 -0.543531 3.18191 0
M  V30 8076 H 739.211 1.87299 3.31094 0
M  V30 8077 H 740.523 2.26262 4.4453 0
M  V30 8078 H 739.677 0.532083 6.04362 0
M  V30 8079 H 738.416 0.0429854 4.87681 0
M  V30 8080 H 737.421 2.34586 4.97242 0
M  V30 8081 H 738.646 2.82982 6.17331 0
M  V30 8082 H 736.592 0.614518 6.53115 0
M  V30 8083 H 736.509 2.19665 7.23383 0
M  V30 8084 H 737.777 1.10945 7.71564 0
M  V30 8085 N 742.006 -1.2595 0.947325 0
M  V30 8086 C 742.916 -2.29883 0.468079 0
M  V30 8087 C 743.932 -1.67783 -0.460975 0
M  V30 8088 O 745.108 -1.98526 -0.339006 0
M  V30 8089 C 742.173 -3.45773 -0.253315 0
M  V30 8090 C 741.234 -4.23337 0.713054 0
M  V30 8091 C 740.467 -5.33694 0.025993 0
M  V30 8092 O 740.69 -5.57853 -1.18978 0
M  V30 8093 O 739.624 -5.97724 0.70782 0
M  V30 8094 H 743.45 -2.72952 1.33156 0
M  V30 8095 H 741.035 -1.31263 0.713468 0
M  V30 8096 H 742.917 -4.16209 -0.659423 0
M  V30 8097 H 741.592 -3.04721 -1.09209 0
M  V30 8098 H 740.499 -3.55359 1.16923 0
M  V30 8099 H 741.832 -4.68154 1.51963 0
M  V30 8100 N 743.484 -0.715051 -1.40445 0
M  V30 8101 C 744.709 -0.26254 -2.05732 0
M  V30 8102 C 745.134 1.08691 -1.53519 0
M  V30 8103 O 744.492 1.68453 -0.670328 0
M  V30 8104 C 744.54 -0.25195 -3.59719 0
M  V30 8105 O 743.644 0.766998 -4.05205 0
M  V30 8106 H 742.985 -0.123398 -0.652433 0
M  V30 8107 H 745.515 -0.975382 -1.79854 0
M  V30 8108 H 745.525 -0.0894537 -4.07902 0
M  V30 8109 H 744.2 -1.23672 -3.97087 0
M  V30 8110 H 742.777 0.572269 -3.68483 0
M  V30 8111 N 744.962 1.50701 -0.461195 0
M  V30 8112 C 746.202 2.04174 0.0960673 0
M  V30 8113 C 746.566 1.33628 1.37868 0
M  V30 8114 O 747.767 1.77602 2.0177 0
M  V30 8115 C 746.038 3.56256 0.285676 0
M  V30 8116 S 747.597 4.31392 0.802917 0
M  V30 8117 H 744.415 0.710701 0.0206282 0
M  V30 8118 H 747.017 1.85204 -0.62607 0
M  V30 8119 H 745.721 4.05159 -0.653773 0
M  V30 8120 H 745.252 3.79562 1.03421 0
M  V30 8121 H 747.267 4.50611 2.07761 0
M  V30 8122 N 746.441 0.193421 1.56409 0
M  V30 8123 C 747.404 -0.714371 2.17783 0
M  V30 8124 C 748.404 -1.1422 1.13183 0
M  V30 8125 O 749.594 -1.05557 1.38576 0
M  V30 8126 C 746.726 -1.97509 2.77855 0
M  V30 8127 H 747.919 -0.179714 2.99361 0
M  V30 8128 H 745.472 -0.0561944 1.56199 0
M  V30 8129 H 746.207 -2.5523 2.0007 0
M  V30 8130 H 745.992 -1.67706 3.54425 0
M  V30 8131 H 747.482 -2.62246 3.24987 0
M  V30 8132 N 747.919 -1.57396 -0.0801906 0
M  V30 8133 C 749.144 -1.91437 -0.797909 0
M  V30 8134 C 749.569 -0.789075 -1.70749 0
M  V30 8135 O 748.927 0.25857 -1.79447 0
M  V30 8136 C 748.975 -3.24402 -1.57467 0
M  V30 8137 O 748.079 -3.13043 -2.68473 0
M  V30 8138 H 747.42 -0.627109 -0.218243 0
M  V30 8139 H 749.95 -2.04537 -0.050949 0
M  V30 8140 H 749.96 -3.58072 -1.95571 0
M  V30 8141 H 748.635 -4.05884 -0.907229 0
M  V30 8142 H 747.212 -2.90915 -2.33287 0
M  V30 8143 N 749.397 0.351382 -1.53633 0
M  V30 8144 C 750.813 0.693987 -1.43722 0
M  V30 8145 C 751.013 1.9274 -0.587669 0
M  V30 8146 O 750.069 2.52387 -0.0756082 0
M  V30 8147 C 751.382 0.893937 -2.87105 0
M  V30 8148 C 752.93 0.993051 -2.96829 0
M  V30 8149 C 753.405 1.22537 -4.41303 0
M  V30 8150 N 754.896 1.29275 -4.44795 0
M  V30 8151 C 755.631 1.48988 -5.53706 0
M  V30 8152 N 755.127 1.65924 -6.72637 0
M  V30 8153 N 756.92 1.51472 -5.41306 0
M  V30 8154 H 749.071 -0.459688 -2.07366 0
M  V30 8155 H 751.334 -0.143684 -0.937048 0
M  V30 8156 H 751.04 0.0592517 -3.5165 0
M  V30 8157 H 750.914 1.79795 -3.31592 0
M  V30 8158 H 753.301 1.81827 -2.32429 0
M  V30 8159 H 753.382 0.0661119 -2.55715 0
M  V30 8160 H 753.026 0.405117 -5.06282 0
M  V30 8161 H 752.956 2.16575 -4.80003 0
M  V30 8162 H 755.447 1.17743 -3.59089 0
M  V30 8163 H 755.76 1.80578 -7.51406 0
M  V30 8164 H 754.105 1.63075 -6.75597 0
M  V30 8165 H 757.296 1.37818 -4.47352 0
M  V30 8166 H 757.469 1.66493 -6.26246 0
M  V30 8167 N 750.875 1.45233 0.611969 0
M  V30 8168 C 751.805 1.5641 1.73373 0
M  V30 8169 C 752.786 0.415896 1.64937 0
M  V30 8170 O 753.971 0.638478 1.83404 0
M  V30 8171 C 751.101 1.52627 3.11965 0
M  V30 8172 C 750.055 2.66119 3.35208 0
M  V30 8173 C 749.381 2.4739 4.74028 0
M  V30 8174 C 750.681 4.08157 3.25891 0
M  V30 8175 H 752.375 2.50307 1.64277 0
M  V30 8176 H 749.921 1.20467 0.788904 0
M  V30 8177 H 751.874 1.59043 3.90235 0
M  V30 8178 H 750.598 0.552564 3.21892 0
M  V30 8179 H 749.257 2.59123 2.59327 0
M  V30 8180 H 748.905 1.48168 4.80682 0
M  V30 8181 H 748.605 3.23494 4.90536 0
M  V30 8182 H 750.129 2.55653 5.54503 0
M  V30 8183 H 751.543 4.1642 3.9404 0
M  V30 8184 H 749.94 4.84617 3.5393 0
M  V30 8185 H 751.01 4.30374 2.23397 0
M  V30 8186 N 752.353 -0.854086 1.3245 0
M  V30 8187 C 753.593 -1.62216 1.2436 0
M  V30 8188 C 753.957 -1.91042 -0.191564 0
M  V30 8189 O 755.158 -2.65864 -0.396211 0
M  V30 8190 C 753.429 -2.9066 2.0797 0
M  V30 8191 S 754.988 -3.81438 2.16911 0
M  V30 8192 H 751.806 -0.556386 0.442669 0
M  V30 8193 H 754.408 -1.01139 1.67305 0
M  V30 8194 H 753.112 -2.6743 3.11302 0
M  V30 8195 H 752.643 -3.56753 1.65805 0
M  V30 8196 H 754.658 -4.78347 1.31903 0
M  V30 8197 N 753.831 -1.1567 -1.07043 0
M  V30 8198 C 754.794 -0.858906 -2.12498 0
M  V30 8199 C 755.794 0.142735 -1.60165 0
M  V30 8200 O 756.984 -0.0872678 -1.73981 0
M  V30 8201 C 754.116 -0.283021 -3.39723 0
M  V30 8202 H 755.309 -1.79368 -2.40348 0
M  V30 8203 H 752.862 -0.964608 -1.22984 0
M  V30 8204 H 753.597 0.659796 -3.17517 0
M  V30 8205 H 753.382 -1.00467 -3.7901 0
M  V30 8206 H 754.872 -0.0923543 -4.17498 0
M  V30 8207 N 755.309 1.25446 -0.953992 0
M  V30 8208 C 756.534 1.97755 -0.625129 0
M  V30 8209 C 756.959 1.70437 0.795787 0
M  V30 8210 O 756.317 0.95992 1.53803 0
M  V30 8211 C 756.365 3.49463 -0.889251 0
M  V30 8212 O 755.469 4.12387 0.0322757 0
M  V30 8213 H 754.81 0.61998 -0.237742 0
M  V30 8214 H 757.34 1.59582 -1.28041 0
M  V30 8215 H 757.35 3.99772 -0.815263 0
M  V30 8216 H 756.025 3.68676 -1.92487 0
M  V30 8217 H 754.602 3.72782 -0.0938625 0
M  V30 8218 N 756.787 0.722489 1.40064 0
M  V30 8219 C 757.735 0.063329 2.32514 0
M  V30 8220 C 758.729 -0.73953 1.52405 0
M  V30 8221 O 759.935 -0.642122 1.68157 0
M  V30 8222 H 756.31 0.00167692 0.751998 0
M  V30 8223 H 758.281 0.859656 2.85749 0
M  V30 8224 C 757.03 -0.839219 3.3742 0
M  V30 8225 H 756.353 -0.230836 3.99133 0
M  V30 8226 H 757.793 -1.26827 4.04587 0
M  V30 8227 C 756.252 -1.96783 2.73456 0
M  V30 8228 O 756.782 -3.05933 2.60323 0
M  V30 8229 N 754.988 -1.75351 2.31734 0
M  V30 8230 H 754.535 -0.865787 2.42615 0
M  V30 8231 H 754.493 -2.51043 1.89275 0
M  V30 8232 N 758.265 -1.50454 0.469181 0
M  V30 8233 C 759.197 -2.26319 -0.362247 0
M  V30 8234 C 760.21 -1.31574 -0.958751 0
M  V30 8235 O 761.399 -1.57099 -0.847482 0
M  V30 8236 C 758.499 -3.02808 -1.52187 0
M  V30 8237 C 757.672 -4.24893 -1.03849 0
M  V30 8238 C 756.731 -4.83691 -2.07194 0
M  V30 8239 O 755.757 -5.44659 -1.65333 0
M  V30 8240 N 756.959 -4.70522 -3.39985 0
M  V30 8241 H 759.724 -2.98312 0.288124 0
M  V30 8242 H 757.285 -1.59099 0.299856 0
M  V30 8243 H 759.277 -3.39023 -2.21011 0
M  V30 8244 H 757.847 -2.33625 -2.07697 0
M  V30 8245 H 757.067 -3.93806 -0.176203 0
M  V30 8246 H 758.355 -5.04053 -0.693435 0
M  V30 8247 H 757.753 -4.2203 -3.76706 0
M  V30 8248 H 756.31 -5.11011 -4.04612 0
M  V30 8249 N 759.743 -0.201713 -1.56304 0
M  V30 8250 C 761.02 0.483273 -1.89536 0
M  V30 8251 C 761.4 1.79176 -1.11621 0
M  V30 8252 O 760.748 2.27445 -0.219339 0
M  V30 8253 C 760.958 0.695604 -3.41998 0
M  V30 8254 C 762.306 1.012 -4.12364 0
M  V30 8255 O 763.33 0.783094 -3.47485 0
M  V30 8256 O 762.189 1.44534 -5.27041 0
M  V30 8257 H 759.283 0.252801 -0.787414 0
M  V30 8258 H 761.829 -0.24242 -1.6796 0
M  V30 8259 H 760.601 -0.228165 -3.90634 0
M  V30 8260 H 760.224 1.47351 -3.69288 0
M  V30 8261 N 761.222 1.57436 0.0718424 0
M  V30 8262 C 762.447 1.91858 0.787745 0
M  V30 8263 C 762.872 0.798119 1.70328 0
M  V30 8264 O 762.23 -0.24905 1.79581 0
M  V30 8265 C 762.278 3.25232 1.55744 0
M  V30 8266 O 761.382 3.14462 2.6681 0
M  V30 8267 H 760.723 0.628258 0.214914 0
M  V30 8268 H 763.253 2.04561 0.0401012 0
M  V30 8269 H 763.263 3.59105 1.9367 0
M  V30 8270 H 761.938 4.0636 0.885691 0
M  V30 8271 H 760.515 2.92148 2.31741 0
M  V30 8272 N 762.7 -0.34323 1.53817 0
M  V30 8273 C 763.61 -1.44493 1.84821 0
M  V30 8274 C 764.626 -1.57556 0.738381 0
M  V30 8275 O 765.802 -1.73026 1.03072 0
M  V30 8276 C 762.867 -2.79478 2.05166 0
M  V30 8277 C 761.928 -2.75756 3.29025 0
M  V30 8278 C 761.161 -4.04302 3.4839 0
M  V30 8279 O 761.384 -5.01595 2.71586 0
M  V30 8280 O 760.318 -4.08754 4.41819 0
M  V30 8281 H 764.144 -1.21209 2.78464 0
M  V30 8282 H 761.729 -0.535437 1.39476 0
M  V30 8283 H 763.611 -3.59419 2.19991 0
M  V30 8284 H 762.286 -3.02692 1.14713 0
M  V30 8285 H 761.193 -1.94434 3.19603 0
M  V30 8286 H 762.526 -2.57495 4.19472 0
M  V30 8287 N 764.178 -1.45556 -0.604258 0
M  V30 8288 C 765.408 -1.53056 -1.38771 0
M  V30 8289 C 765.816 -0.163092 -1.88496 0
M  V30 8290 O 765.159 0.846157 -1.63052 0
M  V30 8291 C 765.221 -2.45656 -2.62476 0
M  V30 8292 C 764.885 -3.92328 -2.34367 0
M  V30 8293 C 765.882 -4.82137 -1.94525 0
M  V30 8294 C 763.567 -4.37275 -2.47177 0
M  V30 8295 C 765.561 -6.14901 -1.67856 0
M  V30 8296 C 763.248 -5.70079 -2.20122 0
M  V30 8297 C 764.246 -6.58711 -1.80524 0
M  V30 8298 O 763.934 -7.89053 -1.53788 0
M  V30 8299 H 763.666 -0.520721 -0.431075 0
M  V30 8300 H 766.22 -1.91464 -0.743693 0
M  V30 8301 H 764.45 -2.02225 -3.29609 0
M  V30 8302 H 766.139 -2.43802 -3.24523 0
M  V30 8303 H 766.905 -4.48675 -1.84162 0
M  V30 8304 H 762.784 -3.68527 -2.76964 0
M  V30 8305 H 766.328 -6.8404 -1.36874 0
M  V30 8306 H 762.225 -6.03095 -2.30102 0
M  V30 8307 H 762.993 -8.01113 -1.67812 0
M  V30 8308 N 765.656 0.84705 -1.32902 0
M  V30 8309 C 767.067 1.41785 -1.21466 0
M  V30 8310 C 767.418 1.95464 0.169767 0
M  V30 8311 O 766.543 1.88157 1.06892 0
M  V30 8312 C 767.138 2.57734 -2.19906 0
M  V30 8313 C 765.697 3.10791 -2.12334 0
M  V30 8314 C 764.844 1.83562 -2.07847 0
M  V30 8315 H 767.795 0.653532 -1.44619 0
M  V30 8316 H 767.816 3.35123 -1.80202 0
M  V30 8317 H 767.328 2.18635 -3.20656 0
M  V30 8318 H 765.429 3.54455 -1.14858 0
M  V30 8319 H 765.542 3.71519 -3.02506 0
M  V30 8320 H 763.906 2.03475 -1.53199 0
M  V30 8321 H 764.689 1.4667 -3.10392 0
M  V30 8322 N 767.134 1.16236 1.06428 0
M  V30 8323 C 768.064 0.890807 2.1584 0
M  V30 8324 C 769.045 -0.162333 1.69324 0
M  V30 8325 O 770.23 -0.0147191 1.94194 0
M  V30 8326 C 767.36 0.389615 3.45108 0
M  V30 8327 C 766.314 1.38051 4.05125 0
M  V30 8328 C 765.64 0.737773 5.29586 0
M  V30 8329 C 766.94 2.74965 4.44062 0
M  V30 8330 H 768.634 1.80577 2.38814 0
M  V30 8331 H 766.18 0.869657 1.14774 0
M  V30 8332 H 768.133 0.187127 4.20984 0
M  V30 8333 H 766.857 -0.560851 3.21748 0
M  V30 8334 H 765.516 1.56952 3.31303 0
M  V30 8335 H 765.164 -0.219135 5.02522 0
M  V30 8336 H 764.864 1.39914 5.70699 0
M  V30 8337 H 766.388 0.545275 6.0816 0
M  V30 8338 H 767.802 2.59855 5.11027 0
M  V30 8339 H 766.199 3.37563 4.96156 0
M  V30 8340 H 767.269 3.30321 3.54987 0
M  V30 8341 N 768.612 -1.24939 0.960631 0
M  V30 8342 C 769.522 -2.29374 0.492435 0
M  V30 8343 C 770.538 -1.68262 -0.443154 0
M  V30 8344 O 771.714 -1.98875 -0.31793 0
M  V30 8345 C 768.779 -3.46023 -0.216626 0
M  V30 8346 C 767.84 -4.22557 0.757915 0
M  V30 8347 C 767.073 -5.33636 0.0825969 0
M  V30 8348 O 767.296 -5.59084 -1.13054 0
M  V30 8349 O 766.23 -5.96939 0.771177 0
M  V30 8350 H 770.056 -2.71525 1.36044 0
M  V30 8351 H 767.641 -1.30499 0.72735 0
M  V30 8352 H 769.523 -4.16885 -0.615241 0
M  V30 8353 H 768.198 -3.05862 -1.05971 0
M  V30 8354 H 767.105 -3.54099 1.20685 0
M  V30 8355 H 768.438 -4.66516 1.5692 0
M  V30 8356 N 770.09 -0.729906 -1.39679 0
M  V30 8357 C 771.037 -0.0866063 -2.30637 0
M  V30 8358 C 772.007 0.735115 -1.48947 0
M  V30 8359 O 773.192 0.696125 -1.77648 0
M  V30 8360 C 770.332 0.818524 -3.35252 0
M  V30 8361 C 769.445 -0.0152635 -4.31997 0
M  V30 8362 C 768.58 0.890669 -5.2368 0
M  V30 8363 C 767.619 0.0518246 -6.12078 0
M  V30 8364 N 766.756 0.913411 -6.96133 0
M  V30 8365 H 771.596 -0.867925 -2.85081 0
M  V30 8366 H 769.133 -0.439673 -1.40376 0
M  V30 8367 H 771.091 1.3577 -3.9449 0
M  V30 8368 H 769.721 1.56587 -2.82277 0
M  V30 8369 H 768.773 -0.671794 -3.74421 0
M  V30 8370 H 770.085 -0.664086 -4.9436 0
M  V30 8371 H 769.239 1.49787 -5.87919 0
M  V30 8372 H 767.978 1.57328 -4.61627 0
M  V30 8373 H 766.983 -0.568209 -5.46856 0
M  V30 8374 H 768.208 -0.627497 -6.76195 0
M  V30 8375 H 766.154 1.58141 -6.36653 0
M  V30 8376 H 766.071 0.320952 -7.55318 0
M  V30 8377 H 767.339 1.50633 -7.64807 0
M  V30 8378 N 771.568 1.50203 -0.477153 0
M  V30 8379 C 772.796 2.0677 0.0732489 0
M  V30 8380 C 773.211 1.34033 1.32968 0
M  V30 8381 O 772.568 0.411412 1.77802 0
M  V30 8382 C 772.619 3.59751 0.35518 0
M  V30 8383 O 772.34 4.29747 -0.851425 0
M  V30 8384 C 773.841 4.3296 0.951877 0
M  V30 8385 H 771.061 0.670929 -0.00978923 0
M  V30 8386 H 773.605 1.93293 -0.667676 0
M  V30 8387 H 771.76 3.7301 1.04605 0
M  V30 8388 H 772.174 5.2106 -0.599708 0
M  V30 8389 H 773.648 5.40952 1.09888 0
M  V30 8390 H 774.125 3.93856 1.94356 0
M  V30 8391 H 774.731 4.24246 0.299208 0
M  V30 8392 N 773.046 0.209999 1.56195 0
M  V30 8393 C 773.979 -0.744546 2.15712 0
M  V30 8394 C 774.957 -1.19917 1.09812 0
M  V30 8395 O 776.141 -1.284 1.38006 0
M  V30 8396 C 773.268 -2.00733 2.72807 0
M  V30 8397 C 772.314 -1.69363 3.91431 0
M  V30 8398 S 773.147 -0.828579 5.29051 0
M  V30 8399 C 774.303 -2.10118 5.89577 0
M  V30 8400 H 774.536 -0.238636 2.96341 0
M  V30 8401 H 772.069 -0.00517877 1.54399 0
M  V30 8402 H 774.027 -2.73246 3.06344 0
M  V30 8403 H 772.688 -2.48436 1.92193 0
M  V30 8404 H 771.881 -2.63157 4.29842 0
M  V30 8405 H 771.483 -1.04921 3.58981 0
M  V30 8406 H 773.775 -3.05231 6.04847 0
M  V30 8407 H 774.718 -1.76116 6.85849 0
M  V30 8408 H 775.126 -2.23644 5.18308 0
M  V30 8409 N 774.524 -1.57472 -0.0634922 0
M  V30 8410 C 775.472 -2.05307 -1.09323 0
M  V30 8411 C 776.466 -0.959995 -1.39572 0
M  V30 8412 O 777.672 -1.14507 -1.38882 0
M  V30 8413 H 774.047 -0.65472 -0.369927 0
M  V30 8414 H 776.018 -2.90925 -0.663707 0
M  V30 8415 C 774.767 -2.51954 -2.39613 0
M  V30 8416 H 774.09 -3.35662 -2.1719 0
M  V30 8417 H 775.53 -2.89169 -3.10092 0
M  V30 8418 C 773.989 -1.40596 -3.06161 0
M  V30 8419 O 774.519 -0.752722 -3.94585 0
M  V30 8420 N 772.725 -1.14902 -2.66919 0
M  V30 8421 H 772.272 -1.68205 -1.95102 0
M  V30 8422 H 772.23 -0.406006 -3.11767 0
M  V30 8423 N 776.003 0.335068 -1.53997 0
M  V30 8424 C 777.228 1.09859 -1.75914 0
M  V30 8425 C 777.653 1.81308 -0.500915 0
M  V30 8426 O 777.011 1.72854 0.54693 0
M  V30 8427 C 777.059 2.08122 -2.94478 0
M  V30 8428 O 776.163 3.15805 -2.65219 0
M  V30 8429 H 775.504 0.317313 -0.583274 0
M  V30 8430 H 778.034 0.382872 -2.00986 0
M  V30 8431 H 778.044 2.51195 -3.21504 0
M  V30 8432 H 776.719 1.55517 -3.8573 0
M  V30 8433 H 775.296 2.77489 -2.49107 0
M  V30 8434 N 777.481 1.45874 0.596531 0
M  V30 8435 C 778.706 1.54247 1.38646 0
M  V30 8436 C 779.131 0.179571 1.87241 0
M  V30 8437 O 778.489 -0.837831 1.6078 0
M  V30 8438 C 778.537 2.54015 2.55946 0
M  V30 8439 O 777.641 2.06561 3.5694 0
M  V30 8440 H 776.982 0.519555 0.413471 0
M  V30 8441 H 779.512 1.91327 0.724936 0
M  V30 8442 H 779.522 2.73179 3.03047 0
M  V30 8443 H 778.197 3.52994 2.19928 0
M  V30 8444 H 776.774 1.97324 3.16414 0
M  V30 8445 N 778.959 -0.83999 1.33349 0
M  V30 8446 C 780.37 -1.41139 1.22216 0
M  V30 8447 C 780.721 -1.95551 -0.159398 0
M  V30 8448 O 779.846 -1.88721 -1.05893 0
M  V30 8449 C 780.441 -2.56564 2.21269 0
M  V30 8450 C 779 -3.09661 2.13979 0
M  V30 8451 C 778.147 -1.82457 2.08818 0
M  V30 8452 H 781.098 -0.645853 1.44964 0
M  V30 8453 H 781.119 -3.34163 1.81976 0
M  V30 8454 H 780.631 -2.16932 3.21811 0
M  V30 8455 H 778.732 -3.53841 1.16736 0
M  V30 8456 H 778.845 -3.6991 3.04472 0
M  V30 8457 H 777.209 -2.0266 1.54276 0
M  V30 8458 H 777.992 -1.45022 3.11165 0
M  V30 8459 N 780.437 -1.16799 -1.0581 0
M  V30 8460 C 781.686 -0.94698 -1.78088 0
M  V30 8461 C 781.999 0.526016 -1.88394 0
M  V30 8462 O 783.205 0.865061 -2.5735 0
M  V30 8463 C 781.661 -1.64508 -3.20102 0
M  V30 8464 C 781.269 -3.15618 -3.17946 0
M  V30 8465 C 783.013 -1.50622 -3.96879 0
M  V30 8466 C 780.92 -3.78144 -4.5471 0
M  V30 8467 H 779.85 -0.35067 -0.667493 0
M  V30 8468 H 782.501 -1.39985 -1.18645 0
M  V30 8469 H 780.883 -1.11993 -3.79834 0
M  V30 8470 H 782.057 -3.75016 -2.67768 0
M  V30 8471 H 780.372 -3.29444 -2.54667 0
M  V30 8472 H 782.969 -1.94713 -4.97987 0
M  V30 8473 H 783.312 -0.455864 -4.13797 0
M  V30 8474 H 783.845 -2.00319 -3.43682 0
M  V30 8475 H 780.584 -4.83149 -4.42998 0
M  V30 8476 H 780.104 -3.23532 -5.05062 0
M  V30 8477 H 781.783 -3.79986 -5.2366 0
M  V30 8478 N 781.915 1.24427 -0.967243 0
M  V30 8479 C 782.862 2.25398 -0.496419 0
M  V30 8480 C 783.832 1.59667 0.457781 0
M  V30 8481 O 785.017 1.87213 0.368246 0
M  V30 8482 C 782.157 3.44474 0.207693 0
M  V30 8483 C 781.27 4.24804 -0.785221 0
M  V30 8484 C 780.405 5.31169 -0.0572631 0
M  V30 8485 C 779.444 6.03195 -1.04027 0
M  V30 8486 N 778.581 7.01265 -0.34235 0
M  V30 8487 H 783.421 2.65039 -1.36229 0
M  V30 8488 H 780.958 1.30288 -0.682902 0
M  V30 8489 H 782.916 4.12376 0.632612 0
M  V30 8490 H 781.546 3.05672 1.03752 0
M  V30 8491 H 780.598 3.56445 -1.32858 0
M  V30 8492 H 781.91 4.74599 -1.53483 0
M  V30 8493 H 781.064 6.05205 0.425674 0
M  V30 8494 H 779.803 4.8228 0.725047 0
M  V30 8495 H 778.808 5.27964 -1.53409 0
M  V30 8496 H 780.033 6.54173 -1.82302 0
M  V30 8497 H 777.979 6.54648 0.420993 0
M  V30 8498 H 777.896 7.48939 -1.03084 0
M  V30 8499 H 779.164 7.7941 0.118634 0
M  V30 8500 N 783.393 0.737304 1.3929 0
M  V30 8501 C 784.618 0.295237 2.05288 0
M  V30 8502 C 785.043 -1.06235 1.55228 0
M  V30 8503 O 784.401 -1.67365 0.697043 0
M  V30 8504 C 784.449 0.309146 3.59272 0
M  V30 8505 O 783.553 -0.702437 4.06374 0
M  V30 8506 H 782.894 0.133762 0.650387 0
M  V30 8507 H 785.424 1.00387 1.78279 0
M  V30 8508 H 785.434 0.154336 4.07708 0
M  V30 8509 H 784.109 1.29974 3.95069 0
M  V30 8510 H 782.686 -0.513574 3.69346 0
M  V30 8511 N 784.871 -1.49948 0.485112 0
M  V30 8512 C 785.781 -2.32587 -0.306697 0
M  V30 8513 C 786.797 -1.43598 -0.982632 0
M  V30 8514 O 787.973 -1.76638 -0.967519 0
M  V30 8515 C 785.038 -3.18638 -1.3664 0
M  V30 8516 C 784.099 -4.23462 -0.705589 0
M  V30 8517 C 783.332 -5.05401 -1.7148 0
M  V30 8518 O 783.555 -4.88618 -2.94293 0
M  V30 8519 O 782.489 -5.88157 -1.27889 0
M  V30 8520 H 786.315 -3.01447 0.369272 0
M  V30 8521 H 783.9 -1.47349 0.246709 0
M  V30 8522 H 785.782 -3.71992 -1.9799 0
M  V30 8523 H 784.457 -2.52491 -2.02559 0
M  V30 8524 H 783.364 -3.74063 -0.0527733 0
M  V30 8525 H 784.697 -4.92119 -0.0891187 0
M  V30 8526 N 786.349 -0.21828 -1.56081 0
M  V30 8527 C 787.765 0.137168 -1.59009 0
M  V30 8528 C 787.965 1.59215 -1.23503 0
M  V30 8529 O 787.021 2.33178 -0.968716 0
M  V30 8530 C 788.334 -0.186162 -3.00123 0
M  V30 8531 C 789.882 -0.128135 -3.12738 0
M  V30 8532 C 790.357 -0.425094 -4.56023 0
M  V30 8533 N 791.848 -0.374547 -4.61683 0
M  V30 8534 C 792.583 -0.57786 -5.70481 0
M  V30 8535 N 792.079 -0.842771 -6.87655 0
M  V30 8536 N 793.872 -0.510521 -5.59777 0
M  V30 8537 H 786.023 -1.16746 -1.77437 0
M  V30 8538 H 788.286 -0.467706 -0.824594 0
M  V30 8539 H 787.992 -1.19589 -3.30744 0
M  V30 8540 H 787.866 0.500388 -3.73866 0
M  V30 8541 H 790.253 0.872224 -2.81915 0
M  V30 8542 H 790.334 -0.848112 -2.41331 0
M  V30 8543 H 789.978 -1.42288 -4.87562 0
M  V30 8544 H 789.908 0.316038 -5.25651 0
M  V30 8545 H 792.399 -0.177356 -3.77484 0
M  V30 8546 H 792.712 -0.986095 -7.66483 0
M  V30 8547 H 791.057 -0.879929 -6.89407 0
M  V30 8548 H 794.248 -0.303813 -4.67113 0
M  V30 8549 H 794.421 -0.672378 -6.44502 0
M  V30 8550 N 787.827 1.57504 0.0551401 0
M  V30 8551 C 788.737 2.08198 1.08124 0
M  V30 8552 C 789.753 1.01496 1.41331 0
M  V30 8553 O 790.929 1.33073 1.51174 0
M  V30 8554 C 787.994 2.52968 2.37083 0
M  V30 8555 C 787.055 3.7404 2.10696 0
M  V30 8556 C 786.288 4.16665 3.33505 0
M  V30 8557 O 786.511 3.59019 4.4324 0
M  V30 8558 O 785.445 5.09324 3.20737 0
M  V30 8559 H 789.271 2.95977 0.680518 0
M  V30 8560 H 786.856 1.46933 0.270401 0
M  V30 8561 H 788.738 2.82211 3.12946 0
M  V30 8562 H 787.413 1.6831 2.76502 0
M  V30 8563 H 786.32 3.49855 1.32484 0
M  V30 8564 H 787.653 4.59601 1.76148 0
M  V30 8565 N 789.305 -0.326896 1.54172 0
M  V30 8566 C 790.268 -1.38515 1.8261 0
M  V30 8567 C 791.268 -1.44872 0.697771 0
M  V30 8568 O 792.458 -1.44957 0.966078 0
M  V30 8569 C 789.59 -2.77281 1.98313 0
M  V30 8570 H 790.783 -1.14556 2.77159 0
M  V30 8571 H 788.336 -0.562199 1.45839 0
M  V30 8572 H 789.071 -3.065 1.05964 0
M  V30 8573 H 788.856 -2.74061 2.80416 0
M  V30 8574 H 790.346 -3.53845 2.21773 0
M  V30 8575 N 790.784 -1.46188 -0.588786 0
M  V30 8576 C 791.714 -1.59148 -1.70863 0
M  V30 8577 C 792.695 -0.442083 -1.64255 0
M  V30 8578 O 793.88 -0.667575 -1.82365 0
M  V30 8579 C 791.01 -1.5757 -3.09498 0
M  V30 8580 C 789.964 -2.71418 -3.30932 0
M  V30 8581 C 789.29 -2.549 -4.70032 0
M  V30 8582 C 790.59 -4.1329 -3.19356 0
M  V30 8583 H 792.284 -2.52889 -1.60274 0
M  V30 8584 H 789.83 -1.21707 -0.769638 0
M  V30 8585 H 791.783 -1.65231 -3.87655 0
M  V30 8586 H 790.507 -0.603705 -3.20972 0
M  V30 8587 H 789.166 -2.63216 -2.55172 0
M  V30 8588 H 788.814 -1.55797 -4.78264 0
M  V30 8589 H 788.514 -3.31257 -4.85327 0
M  V30 8590 H 790.038 -2.64443 -5.50366 0
M  V30 8591 H 791.452 -4.22636 -3.87365 0
M  V30 8592 H 789.849 -4.90187 -3.46175 0
M  V30 8593 H 790.919 -4.33874 -2.16522 0
M  V30 8594 N 792.262 0.832906 -1.33792 0
M  V30 8595 C 793.192 1.95828 -1.27176 0
M  V30 8596 C 794.173 1.69427 -0.15114 0
M  V30 8597 O 795.358 1.91167 -0.341886 0
M  V30 8598 C 792.488 3.32098 -1.01629 0
M  V30 8599 C 791.442 3.72912 -2.10049 0
M  V30 8600 C 790.768 5.07054 -1.69706 0
M  V30 8601 C 792.068 3.86064 -3.51783 0
M  V30 8602 H 793.762 2.01622 -2.21334 0
M  V30 8603 H 791.308 0.96866 -1.0655 0
M  V30 8604 H 793.261 4.10402 -0.956474 0
M  V30 8605 H 791.985 3.26577 -0.0390956 0
M  V30 8606 H 790.644 2.96876 -2.15082 0
M  V30 8607 H 790.292 4.9801 -0.706737 0
M  V30 8608 H 789.992 5.35333 -2.42264 0
M  V30 8609 H 791.516 5.87827 -1.65202 0
M  V30 8610 H 792.93 4.54665 -3.49218 0
M  V30 8611 H 791.327 4.25787 -4.22878 0
M  V30 8612 H 792.397 2.88344 -3.89854 0
M  V30 8613 N 793.74 1.17359 1.05189 0
M  V30 8614 C 794.986 0.963413 1.78455 0
M  V30 8615 C 795.319 -0.506703 1.87473 0
M  V30 8616 O 794.594 -1.37611 1.37453 0
M  V30 8617 C 794.877 1.60519 3.22344 0
M  V30 8618 C 794.73 3.14741 3.21338 0
M  V30 8619 C 796.049 1.3091 4.20179 0
M  V30 8620 H 793.168 0.351412 0.647826 0
M  V30 8621 H 795.81 1.44858 1.22948 0
M  V30 8622 H 793.96 1.19265 3.69741 0
M  V30 8623 H 795.632 3.65053 2.82017 0
M  V30 8624 H 793.875 3.4749 2.59679 0
M  V30 8625 H 794.546 3.54775 4.22894 0
M  V30 8626 H 797.022 1.66635 3.81277 0
M  V30 8627 H 795.898 1.784 5.191 0
M  V30 8628 H 796.159 0.229908 4.41502 0
M  V30 8629 N 795.218 -1.23913 0.973828 0
M  V30 8630 C 796.466 -1.91771 0.637817 0
M  V30 8631 C 796.787 -1.76434 -0.830435 0
M  V30 8632 O 796.057 -1.13965 -1.59339 0
M  V30 8633 H 794.637 -0.709761 0.232912 0
M  V30 8634 H 797.299 -1.50677 1.23622 0
M  V30 8635 H 796.395 -2.99327 0.883731 0
M  V30 8636 N 796.696 -0.74468 -1.38897 0
M  V30 8637 C 797.945 -0.293716 -1.9955 0
M  V30 8638 C 798.258 1.12831 -1.59777 0
M  V30 8639 O 799.464 1.67929 -2.13336 0
M  V30 8640 C 797.92 -0.474188 -3.56762 0
M  V30 8641 C 797.528 -1.90472 -4.05493 0
M  V30 8642 C 799.272 -0.0854875 -4.24414 0
M  V30 8643 C 797.179 -2.03423 -5.55314 0
M  V30 8644 H 796.109 -0.106066 -0.746502 0
M  V30 8645 H 798.76 -0.919948 -1.58774 0
M  V30 8646 H 797.142 0.221092 -3.95382 0
M  V30 8647 H 798.316 -2.63274 -3.78184 0
M  V30 8648 H 796.631 -2.24752 -3.50536 0
M  V30 8649 H 799.228 -0.161133 -5.34457 0
M  V30 8650 H 799.571 0.96066 -4.05064 0
M  V30 8651 H 800.104 -0.732286 -3.91002 0
M  V30 8652 H 796.843 -3.0626 -5.79556 0
M  V30 8653 H 796.363 -1.3507 -5.84394 0
M  V30 8654 H 798.042 -1.81996 -6.20876 0
M  V30 8655 N 798.174 1.49689 -0.493057 0
M  V30 8656 C 799.423 2.01622 0.0560733 0
M  V30 8657 C 799.736 1.37838 1.3878 0
M  V30 8658 O 800.942 1.81054 2.02316 0
M  V30 8659 C 799.398 3.59586 0.150409 0
M  V30 8660 C 799.006 4.32338 -1.1742 0
M  V30 8661 C 800.75 4.19489 0.650327 0
M  V30 8662 C 798.657 5.8214 -1.04246 0
M  V30 8663 H 797.587 0.753594 0.0247297 0
M  V30 8664 H 800.238 1.723 -0.631279 0
M  V30 8665 H 798.62 3.8559 0.902035 0
M  V30 8666 H 799.794 4.18042 -1.9385 0
M  V30 8667 H 798.109 3.84144 -1.60694 0
M  V30 8668 H 800.706 5.29181 0.766272 0
M  V30 8669 H 801.049 3.82326 1.6472 0
M  V30 8670 H 801.582 3.97775 -0.0445371 0
M  V30 8671 H 798.321 6.23814 -2.01336 0
M  V30 8672 H 797.841 5.98952 -0.31892 0
M  V30 8673 H 799.52 6.43004 -0.717957 0
M  V30 8674 N 799.652 0.226554 1.55963 0
M  V30 8675 C 800.877 -0.411527 2.03276 0
M  V30 8676 C 801.302 -1.52206 1.10521 0
M  V30 8677 O 800.66 -1.81054 0.0943217 0
M  V30 8678 C 800.708 -0.915694 3.4878 0
M  V30 8679 O 799.812 -2.02672 3.59163 0
M  V30 8680 H 799.153 -0.0924907 0.657527 0
M  V30 8681 H 801.683 0.346656 2.01642 0
M  V30 8682 H 801.693 -1.22421 3.892 0
M  V30 8683 H 800.368 -0.102915 4.15773 0
M  V30 8684 H 798.945 -1.72445 3.30632 0
M  V30 8685 N 801.13 -1.57531 -0.0467866 0
M  V30 8686 C 802.358 -1.92696 -0.753371 0
M  V30 8687 C 802.773 -0.824792 -1.69831 0
M  V30 8688 O 802.13 0.200155 -1.81399 0
M  V30 8689 C 802.181 -3.27728 -1.52566 0
M  V30 8690 O 801.902 -4.3371 -0.618674 0
M  V30 8691 C 803.403 -3.77066 -2.33101 0
M  V30 8692 H 800.623 -0.636367 -0.212788 0
M  V30 8693 H 803.167 -2.04498 -0.00959361 0
M  V30 8694 H 801.322 -3.17378 -2.22148 0
M  V30 8695 H 801.736 -5.11548 -1.15839 0
M  V30 8696 H 803.21 -4.74109 -2.82709 0
M  V30 8697 H 803.687 -3.07348 -3.13741 0
M  V30 8698 H 804.293 -3.90442 -1.68628 0
M  V30 8699 N 802.608 0.318715 -1.54344 0
M  V30 8700 C 803.855 1.05608 -1.72781 0
M  V30 8701 C 804.183 1.87854 -0.504083 0
M  V30 8702 O 803.438 1.88826 0.51414 0
M  V30 8703 C 803.737 2.00514 -2.95853 0
M  V30 8704 C 803.403 1.34385 -4.30409 0
M  V30 8705 C 802.065 1.16081 -4.66989 0
M  V30 8706 C 804.417 0.869627 -5.13894 0
M  V30 8707 C 801.745 0.490114 -5.84649 0
M  V30 8708 C 804.097 0.212735 -6.32242 0
M  V30 8709 C 802.761 0.0175882 -6.67498 0
M  V30 8710 H 802.031 0.386449 -0.632249 0
M  V30 8711 H 804.678 0.332729 -1.88587 0
M  V30 8712 H 802.983 2.79317 -2.74753 0
M  V30 8713 H 804.68 2.57605 -3.07312 0
M  V30 8714 H 801.27 1.49634 -4.01631 0
M  V30 8715 H 805.454 0.998809 -4.86146 0
M  V30 8716 H 800.71 0.327767 -6.10521 0
M  V30 8717 H 804.884 -0.162699 -6.9621 0
M  V30 8718 H 802.511 -0.504137 -7.58527 0
M  V30 8719 N 804.086 1.46499 0.581025 0
M  V30 8720 C 805.016 1.60052 1.70017 0
M  V30 8721 C 805.997 0.450788 1.64018 0
M  V30 8722 O 807.182 0.677237 1.82009 0
M  V30 8723 C 804.312 1.5921 3.08658 0
M  V30 8724 C 803.266 2.73169 3.29488 0
M  V30 8725 C 802.592 2.57389 4.68674 0
M  V30 8726 C 803.892 4.14978 3.1716 0
M  V30 8727 H 805.586 2.53735 1.5893 0
M  V30 8728 H 803.132 1.22113 0.763173 0
M  V30 8729 H 805.085 1.67285 3.86773 0
M  V30 8730 H 803.809 0.620718 3.20647 0
M  V30 8731 H 802.468 2.64566 2.53773 0
M  V30 8732 H 802.116 1.58331 4.77431 0
M  V30 8733 H 801.816 3.33826 4.83564 0
M  V30 8734 H 803.34 2.67358 5.48956 0
M  V30 8735 H 804.754 4.24684 3.85119 0
M  V30 8736 H 803.151 4.92016 3.4357 0
M  V30 8737 H 804.221 4.35016 2.14218 0
M  V30 8738 N 805.565 -0.825799 1.34232 0
M  V30 8739 C 806.515 -1.92533 1.22128 0
M  V30 8740 C 807.499 -1.60444 0.121002 0
M  V30 8741 O 808.691 -1.73497 0.350385 0
M  V30 8742 C 805.82 -3.29134 0.975995 0
M  V30 8743 C 804.906 -3.6735 2.11931 0
M  V30 8744 N 805.297 -3.77154 3.37029 0
M  V30 8745 C 803.595 -3.97179 2.02891 0
M  V30 8746 C 804.296 -4.10552 4.12095 0
M  V30 8747 N 803.272 -4.23619 3.40658 0
M  V30 8748 H 807.074 -1.98287 2.16932 0
M  V30 8749 H 804.588 -1.01929 1.26429 0
M  V30 8750 H 806.585 -4.07717 0.870187 0
M  V30 8751 H 805.245 -3.24679 0.036606 0
M  V30 8752 H 806.256 -3.60723 3.71618 0
M  V30 8753 H 802.933 -4.00861 1.16692 0
M  V30 8754 H 804.323 -4.25365 5.2011 0
M  V30 8755 N 807.043 -1.17915 -1.04565 0
M  V30 8756 C 808.289 -0.972863 -1.77942 0
M  V30 8757 C 808.622 0.496753 -1.87739 0
M  V30 8758 O 807.897 1.3688 -1.38181 0
M  V30 8759 C 808.18 -1.62227 -3.21488 0
M  V30 8760 C 808.033 -3.16441 -3.19664 0
M  V30 8761 C 809.352 -1.33137 -4.19479 0
M  V30 8762 H 806.471 -0.354843 -0.645953 0
M  V30 8763 H 809.113 -1.45508 -1.22178 0
M  V30 8764 H 807.263 -1.21224 -3.69103 0
M  V30 8765 H 808.935 -3.66544 -2.80077 0
M  V30 8766 H 807.178 -3.48863 -2.57832 0
M  V30 8767 H 807.849 -3.57012 -4.21006 0
M  V30 8768 H 810.325 -1.68654 -3.80388 0
M  V30 8769 H 809.201 -1.81151 -5.18146 0
M  V30 8770 H 809.462 -0.253319 -4.41374 0
M  V30 8771 N 808.521 1.23394 -0.980386 0
M  V30 8772 C 809.471 2.22634 -0.491747 0
M  V30 8773 C 810.455 1.54958 0.433222 0
M  V30 8774 O 811.647 1.75049 0.262078 0
M  V30 8775 C 808.776 3.4269 0.204531 0
M  V30 8776 C 807.862 4.17594 -0.740007 0
M  V30 8777 N 808.253 4.69458 -1.88263 0
M  V30 8778 C 806.551 4.42554 -0.553335 0
M  V30 8779 C 807.252 5.26446 -2.47446 0
M  V30 8780 N 806.228 5.14377 -1.75834 0
M  V30 8781 H 810.03 2.60363 -1.36339 0
M  V30 8782 H 807.544 1.38924 -0.841059 0
M  V30 8783 H 809.541 4.12959 0.571901 0
M  V30 8784 H 808.201 3.06477 1.07246 0
M  V30 8785 H 809.212 4.65803 -2.26381 0
M  V30 8786 H 805.889 4.16629 0.269573 0
M  V30 8787 H 807.279 5.77195 -3.43941 0
M  V30 8788 N 809.999 0.752036 1.385 0
M  V30 8789 C 811.41 0.375385 1.82887 0
M  V30 8790 C 811.761 -1.09575 1.62751 0
M  V30 8791 O 810.886 -1.84685 1.12785 0
M  V30 8792 C 811.481 0.674563 3.32017 0
M  V30 8793 C 810.04 0.351208 3.74758 0
M  V30 8794 C 809.187 0.928531 2.61292 0
M  V30 8795 H 812.138 0.948313 1.27251 0
M  V30 8796 H 812.159 -0.0477781 3.8047 0
M  V30 8797 H 811.671 1.74533 3.46641 0
M  V30 8798 H 809.772 -0.713042 3.65714 0
M  V30 8799 H 809.885 0.845675 4.71577 0
M  V30 8800 H 808.249 0.354012 2.52228 0
M  V30 8801 H 809.032 2.0043 2.78716 0
M  V30 8802 N 811.477 -1.49425 0.500989 0
M  V30 8803 C 812.724 -2.02453 -0.0435355 0
M  V30 8804 C 813.052 -1.38067 -1.36995 0
M  V30 8805 O 812.307 -0.505557 -1.89057 0
M  V30 8806 C 812.606 -3.56562 -0.24463 0
M  V30 8807 C 812.272 -4.39585 1.00379 0
M  V30 8808 C 810.934 -4.61992 1.346 0
M  V30 8809 C 813.286 -4.87881 1.83361 0
M  V30 8810 C 810.614 -5.2994 2.51755 0
M  V30 8811 C 812.966 -5.57119 2.99669 0
M  V30 8812 C 811.63 -5.77771 3.3427 0
M  V30 8813 H 810.9 -0.740829 -0.0159308 0
M  V30 8814 H 813.547 -1.79725 0.661143 0
M  V30 8815 H 811.852 -3.77969 -1.03183 0
M  V30 8816 H 813.549 -3.95185 -0.6804 0
M  V30 8817 H 810.139 -4.22385 0.727225 0
M  V30 8818 H 814.323 -4.70398 1.58237 0
M  V30 8819 H 809.579 -5.44133 2.788 0
M  V30 8820 H 813.753 -5.93516 3.64296 0
M  V30 8821 H 811.38 -6.30197 4.25154 0
M  V30 8822 N 812.955 -0.234822 -1.55841 0
M  V30 8823 C 814.203 0.392483 -1.98252 0
M  V30 8824 C 814.524 1.59344 -1.12404 0
M  V30 8825 O 813.794 1.94834 -0.204055 0
M  V30 8826 H 812.374 0.147999 -0.732192 0
M  V30 8827 H 815.036 -0.330804 -1.92072 0
M  V30 8828 H 814.132 0.709829 -3.03921 0
M  V30 8829 N 814.433 1.57553 0.0384317 0
M  V30 8830 C 815.396 2.04927 1.02653 0
M  V30 8831 C 816.396 0.951768 1.29607 0
M  V30 8832 O 817.586 1.21568 1.24768 0
M  V30 8833 C 814.718 2.45828 2.36181 0
M  V30 8834 H 815.911 2.93474 0.617508 0
M  V30 8835 H 813.464 1.53679 0.285031 0
M  V30 8836 H 814.199 1.60408 2.8185 0
M  V30 8837 H 813.984 3.25945 2.1795 0
M  V30 8838 H 815.474 2.82939 3.0714 0
M  V30 8839 N 815.911 -0.310526 1.54511 0
M  V30 8840 C 817.136 -1.07046 1.7764 0
M  V30 8841 C 817.561 -1.80488 0.529696 0
M  V30 8842 O 816.919 -1.73702 -0.519361 0
M  V30 8843 C 816.967 -2.03411 2.97752 0
M  V30 8844 O 816.071 -3.11545 2.7021 0
M  V30 8845 H 815.412 -0.307994 0.588248 0
M  V30 8846 H 817.942 -0.350848 2.01569 0
M  V30 8847 H 817.952 -2.46048 3.2546 0
M  V30 8848 H 816.627 -1.49361 3.88155 0
M  V30 8849 H 815.204 -2.7349 2.53491 0
M  V30 8850 N 817.389 -1.46805 -0.573248 0
M  V30 8851 C 818.638 -1.51868 -1.32736 0
M  V30 8852 C 818.951 -0.178765 -1.94781 0
M  V30 8853 O 820.157 -0.107272 -2.71288 0
M  V30 8854 C 818.613 -2.67641 -2.40616 0
M  V30 8855 C 818.221 -4.08094 -1.84832 0
M  V30 8856 C 819.965 -2.81984 -3.17309 0
M  V30 8857 C 817.872 -5.15193 -2.90397 0
M  V30 8858 H 816.802 -0.56523 -0.49903 0
M  V30 8859 H 819.453 -1.7304 -0.610695 0
M  V30 8860 H 817.835 -2.39818 -3.15124 0
M  V30 8861 H 819.009 -4.45751 -1.16803 0
M  V30 8862 H 817.324 -3.985 -1.20775 0
M  V30 8863 H 819.921 -3.59166 -3.96111 0
M  V30 8864 H 820.264 -1.89842 -3.70494 0
M  V30 8865 H 820.797 -3.095 -2.4991 0
M  V30 8866 H 817.536 -6.09158 -2.42088 0
M  V30 8867 H 817.056 -4.82071 -3.56886 0
M  V30 8868 H 818.735 -5.41448 -3.54179 0
M  V30 8869 N 818.867 0.818669 -1.34668 0
M  V30 8870 C 819.777 1.9616 -1.2868 0
M  V30 8871 C 820.793 1.72918 -0.193742 0
M  V30 8872 O 821.969 1.96951 -0.420975 0
M  V30 8873 C 819.034 3.30534 -1.04633 0
M  V30 8874 C 818.095 3.66755 -2.23136 0
M  V30 8875 C 817.328 4.94717 -2.00227 0
M  V30 8876 O 817.551 5.62218 -0.96264 0
M  V30 8877 O 816.485 5.28915 -2.87286 0
M  V30 8878 H 820.311 2.04157 -2.24842 0
M  V30 8879 H 817.896 0.954691 -1.14917 0
M  V30 8880 H 819.778 4.11005 -0.930216 0
M  V30 8881 H 818.453 3.23495 -0.115139 0
M  V30 8882 H 817.36 2.8671 -2.40308 0
M  V30 8883 H 818.693 3.78484 -3.1466 0
M  V30 8884 N 820.346 1.18468 1.03938 0
M  V30 8885 C 821.576 1.0043 1.80547 0
M  V30 8886 C 821.984 -0.450407 1.83761 0
M  V30 8887 O 821.327 -1.32463 1.27276 0
M  V30 8888 C 821.389 1.48437 3.27424 0
M  V30 8889 C 821.053 2.96372 3.47869 0
M  V30 8890 C 822.05 3.94217 3.38953 0
M  V30 8891 C 819.735 3.34831 3.74424 0
M  V30 8892 C 821.729 5.28517 3.56298 0
M  V30 8893 C 819.416 4.69294 3.91416 0
M  V30 8894 C 820.414 5.65946 3.82354 0
M  V30 8895 O 820.102 6.97974 3.98858 0
M  V30 8896 H 819.834 0.354853 0.575374 0
M  V30 8897 H 822.388 1.57473 1.31876 0
M  V30 8898 H 820.618 0.857601 3.7707 0
M  V30 8899 H 822.307 1.2677 3.85596 0
M  V30 8900 H 823.073 3.6585 3.184 0
M  V30 8901 H 818.952 2.60161 3.80575 0
M  V30 8902 H 822.496 6.03943 3.49141 0
M  V30 8903 H 818.393 4.97361 4.11463 0
M  V30 8904 H 819.161 7.04895 4.1601 0
M  V30 8905 N 821.824 -1.22873 0.986916 0
M  V30 8906 C 823.073 -1.90772 0.654911 0
M  V30 8907 C 823.386 -1.77768 -0.81595 0
M  V30 8908 O 824.592 -2.40529 -1.25929 0
M  V30 8909 C 823.048 -3.42003 1.12081 0
M  V30 8910 C 822.656 -3.63655 2.61647 0
M  V30 8911 C 824.4 -4.15638 0.862854 0
M  V30 8912 C 822.307 -5.08555 3.01871 0
M  V30 8913 H 821.237 -0.714362 0.241252 0
M  V30 8914 H 823.888 -1.39196 1.19568 0
M  V30 8915 H 822.27 -3.92725 0.508207 0
M  V30 8916 H 823.444 -3.2345 3.28202 0
M  V30 8917 H 821.759 -3.03341 2.8526 0
M  V30 8918 H 824.356 -5.22425 1.13915 0
M  V30 8919 H 824.699 -4.15814 -0.201036 0
M  V30 8920 H 825.232 -3.70924 1.43736 0
M  V30 8921 H 821.971 -5.13514 4.07411 0
M  V30 8922 H 821.491 -5.49684 2.40015 0
M  V30 8923 H 823.17 -5.76936 2.92839 0
M  V30 8924 N 823.302 -0.75937 -1.38099 0
M  V30 8925 C 824.542 -0.323116 -2.0183 0
M  V30 8926 C 824.906 1.07658 -1.58977 0
M  V30 8927 O 826.107 1.61227 -2.1508 0
M  V30 8928 C 824.378 -0.448234 -3.54578 0
M  V30 8929 S 825.937 -0.0954152 -4.38696 0
M  V30 8930 H 822.755 -0.125013 -0.699923 0
M  V30 8931 H 825.357 -0.991262 -1.68506 0
M  V30 8932 H 824.061 -1.46778 -3.83255 0
M  V30 8933 H 823.592 0.236895 -3.92686 0
M  V30 8934 H 825.607 1.11312 -4.83554 0
M  V30 8935 N 824.78 1.49157 -0.508906 0
M  V30 8936 C 826.005 2.07376 0.0315182 0
M  V30 8937 C 826.43 1.36575 1.2934 0
M  V30 8938 O 825.788 0.424963 1.76249 0
M  V30 8939 C 825.836 3.59661 0.260118 0
M  V30 8940 O 824.94 3.90255 1.33322 0
M  V30 8941 H 824.281 0.663334 -0.029739 0
M  V30 8942 H 826.811 1.91857 -0.710791 0
M  V30 8943 H 826.821 4.05056 0.489225 0
M  V30 8944 H 825.496 4.10601 -0.661794 0
M  V30 8945 H 824.073 3.56661 1.08844 0
M  V30 8946 N 826.258 0.243083 1.55714 0
M  V30 8947 C 827.488 -0.38641 2.02954 0
M  V30 8948 C 827.896 -1.52358 1.12177 0
M  V30 8949 O 827.239 -1.83255 0.127853 0
M  V30 8950 C 827.301 -0.959388 3.46462 0
M  V30 8951 C 826.965 0.0450546 4.56978 0
M  V30 8952 C 827.962 0.853224 5.12851 0
M  V30 8953 C 825.647 0.170041 5.02012 0
M  V30 8954 C 827.641 1.77288 6.12248 0
M  V30 8955 C 825.328 1.0932 6.01242 0
M  V30 8956 C 826.326 1.89315 6.56238 0
M  V30 8957 O 826.014 2.80075 7.53534 0
M  V30 8958 H 825.746 -0.0964333 0.669086 0
M  V30 8959 H 828.3 0.363399 2.0216 0
M  V30 8960 H 826.53 -1.75869 3.44394 0
M  V30 8961 H 828.219 -1.49856 3.77224 0
M  V30 8962 H 828.985 0.767229 4.78893 0
M  V30 8963 H 824.864 -0.442528 4.58871 0
M  V30 8964 H 828.408 2.39768 6.55101 0
M  V30 8965 H 824.305 1.18013 6.3462 0
M  V30 8966 H 825.073 2.74393 7.71136 0
M  V30 8967 N 827.736 -1.57571 -0.0300757 0
M  V30 8968 C 828.666 -2.0953 -1.03051 0
M  V30 8969 C 829.647 -0.99761 -1.37774 0
M  V30 8970 O 830.832 -1.27279 -1.46676 0
M  V30 8971 C 827.962 -2.57385 -2.33174 0
M  V30 8972 C 826.916 -3.71409 -2.12696 0
M  V30 8973 C 826.242 -4.05467 -3.4857 0
M  V30 8974 C 827.542 -4.99877 -1.51396 0
M  V30 8975 H 829.236 -2.93367 -0.597999 0
M  V30 8976 H 826.782 -1.41127 -0.286203 0
M  V30 8977 H 828.735 -2.92355 -3.03491 0
M  V30 8978 H 827.459 -1.70629 -2.78484 0
M  V30 8979 H 826.118 -3.36786 -1.44813 0
M  V30 8980 H 825.766 -3.15779 -3.91526 0
M  V30 8981 H 825.466 -4.82269 -3.35694 0
M  V30 8982 H 826.99 -4.4297 -4.2025 0
M  V30 8983 H 828.404 -5.3281 -2.11629 0
M  V30 8984 H 826.801 -5.81283 -1.49098 0
M  V30 8985 H 827.871 -4.82522 -0.479676 0
M  V30 8986 N 829.214 0.302327 -1.54673 0
M  V30 8987 C 830.164 1.37443 -1.81916 0
M  V30 8988 C 831.148 1.45999 -0.676251 0
M  V30 8989 O 832.34 1.50174 -0.93685 0
M  V30 8990 C 829.469 2.73966 -2.06876 0
M  V30 8991 C 828.555 2.69637 -3.27348 0
M  V30 8992 N 828.946 2.34926 -4.47933 0
M  V30 8993 C 827.244 3.00742 -3.29348 0
M  V30 8994 C 827.945 2.39862 -5.29944 0
M  V30 8995 N 826.921 2.77163 -4.67634 0
M  V30 8996 H 830.723 1.09567 -2.72713 0
M  V30 8997 H 828.237 0.5109 -1.54154 0
M  V30 8998 H 830.234 3.51265 -2.2454 0
M  V30 8999 H 828.894 3.02754 -1.17346 0
M  V30 9000 H 829.905 2.07403 -4.74557 0
M  V30 9001 H 826.582 3.34434 -2.49921 0
M  V30 9002 H 827.972 2.15835 -6.3629 0
M  V30 9003 N 830.692 1.47107 0.565454 0
M  V30 9004 C 832.108 1.32443 0.890566 0
M  V30 9005 C 832.308 0.308735 1.99121 0
M  V30 9006 O 831.364 -0.28265 2.50913 0
M  V30 9007 C 832.677 2.71548 1.2916 0
M  V30 9008 C 834.225 2.7977 1.40349 0
M  V30 9009 C 834.7 4.19497 1.83811 0
M  V30 9010 N 836.191 4.21998 1.90975 0
M  V30 9011 C 836.926 5.2702 2.25916 0
M  V30 9012 N 836.422 6.42353 2.59527 0
M  V30 9013 N 838.215 5.14393 2.26619 0
M  V30 9014 H 830.366 2.11786 -0.161328 0
M  V30 9015 H 832.629 0.947952 -0.00950631 0
M  V30 9016 H 832.335 3.47265 0.556753 0
M  V30 9017 H 832.209 3.02782 2.24951 0
M  V30 9018 H 834.596 2.0433 2.12916 0
M  V30 9019 H 834.677 2.522 0.427655 0
M  V30 9020 H 834.321 4.95439 1.11816 0
M  V30 9021 H 834.251 4.44486 2.82382 0
M  V30 9022 H 836.742 3.38791 1.6742 0
M  V30 9023 H 837.055 7.18252 2.85191 0
M  V30 9024 H 835.4 6.45687 2.57126 0
M  V30 9025 H 838.591 4.2332 1.99794 0
M  V30 9026 H 838.764 5.96349 2.5352 0
M  V30 9027 N 832.17 -0.811516 1.35101 0
M  V30 9028 C 833.1 -1.9378 1.30275 0
M  V30 9029 C 834.081 -1.69165 0.178075 0
M  V30 9030 O 835.266 -1.90599 0.372256 0
M  V30 9031 C 832.396 -3.30439 1.06899 0
M  V30 9032 C 831.35 -3.69523 2.15955 0
M  V30 9033 C 830.676 -5.0429 1.77751 0
M  V30 9034 C 831.976 -3.80419 3.57881 0
M  V30 9035 H 833.67 -1.98075 2.24514 0
M  V30 9036 H 831.216 -0.951586 1.08078 0
M  V30 9037 H 833.169 -4.08828 1.02164 0
M  V30 9038 H 831.893 -3.26473 0.0910462 0
M  V30 9039 H 830.552 -2.93416 2.19778 0
M  V30 9040 H 830.2 -4.96823 0.785876 0
M  V30 9041 H 829.9 -5.31411 2.5075 0
M  V30 9042 H 831.424 -5.85125 1.74533 0
M  V30 9043 H 832.838 -4.49051 3.56407 0
M  V30 9044 H 831.235 -4.19005 4.29598 0
M  V30 9045 H 832.305 -2.82105 3.94391 0
M  V30 9046 N 833.648 -1.19017 -1.03309 0
M  V30 9047 C 834.925 -0.899659 -1.73682 0
M  V30 9048 C 835.305 0.595677 -2.02521 0
M  V30 9049 O 834.653 1.55263 -1.67648 0
M  V30 9050 C 834.863 -1.75508 -3.01659 0
M  V30 9051 C 836.211 -1.98679 -3.75249 0
M  V30 9052 O 837.235 -1.72624 -3.11576 0
M  V30 9053 O 836.094 -2.42587 -4.89708 0
M  V30 9054 H 833.188 -0.334903 -0.756154 0
M  V30 9055 H 835.734 -1.29809 -1.09305 0
M  V30 9056 H 834.506 -2.7684 -2.76542 0
M  V30 9057 H 834.129 -1.35565 -3.73775 0
M  V30 9058 N 835.127 1.22348 -0.993418 0
M  V30 9059 C 836.075 2.26315 -0.537052 0
M  V30 9060 C 837.069 1.643 0.412545 0
M  V30 9061 O 838.275 1.77729 0.285008 0
M  V30 9062 H 834.65 0.735792 -0.155286 0
M  V30 9063 H 836.621 2.62157 -1.42535 0
M  V30 9064 C 835.37 3.47449 0.132118 0
M  V30 9065 H 834.693 3.9543 -0.589519 0
M  V30 9066 H 836.133 4.21965 0.414884 0
M  V30 9067 C 834.592 3.07893 1.36761 0
M  V30 9068 O 835.122 3.17338 2.46291 0
M  V30 9069 N 833.328 2.62672 1.24305 0
M  V30 9070 H 832.875 2.55186 0.351826 0
M  V30 9071 H 832.833 2.36574 2.07076 0
M  V30 9072 N 836.605 0.766683 1.37694 0
M  V30 9073 C 837.552 0.147725 2.30327 0
M  V30 9074 C 838.522 -0.695366 1.50844 0
M  V30 9075 O 839.707 -0.64878 1.79431 0
M  V30 9076 C 836.847 -0.72935 3.37305 0
M  V30 9077 C 835.96 0.129795 4.31805 0
M  V30 9078 C 835.095 -0.751511 5.25857 0
M  V30 9079 C 834.134 0.110475 6.12 0
M  V30 9080 N 833.271 -0.728522 6.9831 0
M  V30 9081 H 838.111 0.943204 2.82679 0
M  V30 9082 H 835.648 0.476736 1.3916 0
M  V30 9083 H 837.606 -1.25263 3.97951 0
M  V30 9084 H 836.236 -1.49048 2.86329 0
M  V30 9085 H 835.288 0.770829 3.72508 0
M  V30 9086 H 836.6 0.794923 4.92425 0
M  V30 9087 H 835.754 -1.34146 5.91684 0
M  V30 9088 H 834.493 -1.45034 4.65636 0
M  V30 9089 H 833.498 0.712999 5.45157 0
M  V30 9090 H 834.723 0.806557 6.74293 0
M  V30 9091 H 832.669 -1.41206 6.40622 0
M  V30 9092 H 832.586 -0.12058 7.55904 0
M  V30 9093 H 833.854 -1.30303 7.68532 0
M  V30 9094 N 838.083 -1.48885 0.516809 0
M  V30 9095 C 839.332 -2.01686 -0.0239899 0
M  V30 9096 C 839.645 -1.40029 -1.3657 0
M  V30 9097 O 840.851 -1.84249 -1.9941 0
M  V30 9098 C 839.307 -3.59779 -0.0931825 0
M  V30 9099 C 838.915 -4.30416 1.24283 0
M  V30 9100 C 840.659 -4.20471 -0.583507 0
M  V30 9101 C 838.566 -5.80408 1.13494 0
M  V30 9102 H 837.496 -0.753892 -0.0127376 0
M  V30 9103 H 840.147 -1.71273 0.65861 0
M  V30 9104 H 838.529 -3.86976 -0.840577 0
M  V30 9105 H 839.703 -4.14905 2.00476 0
M  V30 9106 H 838.018 -3.81539 1.66785 0
M  V30 9107 H 840.615 -5.30333 -0.681987 0
M  V30 9108 H 840.958 -3.84898 -1.58617 0
M  V30 9109 H 841.491 -3.97654 0.107814 0
M  V30 9110 H 838.23 -6.20532 2.11235 0
M  V30 9111 H 837.75 -5.98368 0.414167 0
M  V30 9112 H 839.429 -6.41781 0.820162 0
M  V30 9113 N 839.561 -0.251338 -1.55583 0
M  V30 9114 C 840.801 0.373651 -2.00956 0
M  V30 9115 C 841.165 1.54806 -1.13574 0
M  V30 9116 O 842.366 2.24108 -1.48422 0
M  V30 9117 C 840.637 0.768919 -3.49031 0
M  V30 9118 S 842.196 1.38381 -4.16409 0
M  V30 9119 H 839.014 0.117371 -0.701245 0
M  V30 9120 H 841.616 -0.367611 -1.92013 0
M  V30 9121 H 840.32 -0.0950492 -4.1029 0
M  V30 9122 H 839.851 1.54225 -3.61909 0
M  V30 9123 H 841.866 2.6728 -4.18062 0
M  V30 9124 N 841.039 1.57585 0.0217189 0
M  V30 9125 C 842.267 1.93871 0.722619 0
M  V30 9126 C 842.682 0.851706 1.68498 0
M  V30 9127 O 842.039 -0.17127 1.81695 0
M  V30 9128 C 842.09 3.30114 1.47333 0
M  V30 9129 O 841.811 4.34639 0.549597 0
M  V30 9130 C 843.312 3.80727 2.27072 0
M  V30 9131 H 840.532 0.639671 0.202637 0
M  V30 9132 H 843.076 2.04487 -0.0229414 0
M  V30 9133 H 841.231 3.20872 2.17071 0
M  V30 9134 H 841.645 5.13326 1.07686 0
M  V30 9135 H 843.119 4.78547 2.75131 0
M  V30 9136 H 843.596 3.12301 3.08812 0
M  V30 9137 H 844.202 3.93075 1.62395 0
M  V30 9138 N 842.517 -0.29412 1.54831 0
M  V30 9139 C 843.742 -1.05156 1.78765 0
M  V30 9140 C 844.167 -1.79916 0.548809 0
M  V30 9141 O 843.525 -1.74243 -0.500909 0
M  V30 9142 C 843.573 -2.00242 2.99893 0
M  V30 9143 O 842.677 -3.08662 2.73499 0
M  V30 9144 H 842.018 -0.301737 0.591482 0
M  V30 9145 H 844.548 -0.329449 2.0193 0
M  V30 9146 H 844.558 -2.42583 3.28051 0
M  V30 9147 H 843.233 -1.45235 3.89717 0
M  V30 9148 H 841.81 -2.70786 2.56377 0
M  V30 9149 N 843.995 -1.47404 -0.557645 0
M  V30 9150 C 845.272 -1.44488 -1.31843 0
M  V30 9151 C 845.652 -0.1416 -2.10625 0
M  V30 9152 O 845 0.876908 -2.11004 0
M  V30 9153 C 845.21 -2.69016 -2.22331 0
M  V30 9154 C 846.558 -3.16212 -2.83364 0
M  V30 9155 O 847.582 -2.69741 -2.32634 0
M  V30 9156 O 846.441 -3.96999 -3.75571 0
M  V30 9157 H 843.535 -0.57578 -0.593639 0
M  V30 9158 H 846.081 -1.59605 -0.576584 0
M  V30 9159 H 844.853 -3.55406 -1.63715 0
M  V30 9160 H 844.476 -2.56484 -3.03812 0
M  V30 9161 N 845.473 0.80434 -1.35529 0
M  V30 9162 C 846.719 1.56385 -1.29118 0
M  V30 9163 C 847.052 1.9374 0.133536 0
M  V30 9164 O 846.327 1.6153 1.08344 0
M  V30 9165 C 846.61 2.85097 -2.19981 0
M  V30 9166 C 846.463 2.54204 -3.7108 0
M  V30 9167 C 847.782 3.86817 -2.09907 0
M  V30 9168 H 844.901 0.567382 -0.470368 0
M  V30 9169 H 847.543 0.925235 -1.6595 0
M  V30 9170 H 845.693 3.39594 -1.88701 0
M  V30 9171 H 847.365 2.05872 -4.12813 0
M  V30 9172 H 845.608 1.87364 -3.91251 0
M  V30 9173 H 846.279 3.46068 -4.30048 0
M  V30 9174 H 848.755 3.41725 -2.37409 0
M  V30 9175 H 847.631 4.7465 -2.75678 0
M  V30 9176 H 847.892 4.28663 -1.08171 0
M  V30 9177 N 846.951 1.19563 1.02676 0
M  V30 9178 C 847.861 0.950691 2.14474 0
M  V30 9179 C 848.877 -0.0900219 1.73767 0
M  V30 9180 O 850.053 0.0951063 2.01175 0
M  V30 9181 C 847.118 0.494917 3.43149 0
M  V30 9182 C 846.179 1.60527 3.98158 0
M  V30 9183 C 845.412 1.17115 5.20692 0
M  V30 9184 O 845.635 0.0355937 5.70389 0
M  V30 9185 O 844.569 1.97454 5.68591 0
M  V30 9186 H 848.395 1.88651 2.38001 0
M  V30 9187 H 845.98 0.978635 1.12885 0
M  V30 9188 H 847.862 0.249492 4.20661 0
M  V30 9189 H 846.537 -0.412434 3.21062 0
M  V30 9190 H 845.444 1.90487 3.21971 0
M  V30 9191 H 846.777 2.48925 4.24614 0
M  V30 9192 N 848.429 -1.21819 0.999893 0
M  V30 9193 C 849.669 -1.92473 0.687996 0
M  V30 9194 C 850.033 -1.76033 -0.766569 0
M  V30 9195 O 851.234 -2.41013 -1.19021 0
M  V30 9196 C 849.505 -3.40332 1.09129 0
M  V30 9197 S 851.064 -4.29496 0.898822 0
M  V30 9198 H 847.882 -0.665097 0.251329 0
M  V30 9199 H 850.484 -1.47454 1.28364 0
M  V30 9200 H 849.188 -3.49812 2.14615 0
M  V30 9201 H 848.719 -3.90365 0.487724 0
M  V30 9202 H 850.734 -4.95769 -0.206873 0
M  V30 9203 N 849.908 -0.773975 -1.37286 0
M  V30 9204 C 850.838 -0.175782 -2.32837 0
M  V30 9205 C 851.819 0.680603 -1.5589 0
M  V30 9206 O 853.004 0.617607 -1.84117 0
M  V30 9207 C 850.134 0.702388 -3.40123 0
M  V30 9208 C 849.088 -0.0528687 -4.27967 0
M  V30 9209 C 848.414 0.944891 -5.26285 0
M  V30 9210 C 849.714 -1.23316 -5.07534 0
M  V30 9211 H 851.408 -0.974016 -2.83114 0
M  V30 9212 H 848.954 -0.469826 -1.3612 0
M  V30 9213 H 850.907 1.13069 -4.05947 0
M  V30 9214 H 849.631 1.53316 -2.88378 0
M  V30 9215 H 848.29 -0.461978 -3.63678 0
M  V30 9216 H 847.938 1.77028 -4.70819 0
M  V30 9217 H 847.638 0.444079 -5.8592 0
M  V30 9218 H 849.162 1.37209 -5.94984 0
M  V30 9219 H 850.576 -0.881395 -5.66484 0
M  V30 9220 H 848.973 -1.66621 -5.76504 0
M  V30 9221 H 850.043 -2.03617 -4.40077 0
M  V30 9222 N 851.386 1.48609 -0.524698 0
M  V30 9223 C 852.319 2.26374 0.288109 0
M  V30 9224 C 853.297 1.31997 0.949509 0
M  V30 9225 O 854.481 1.61329 0.974946 0
M  V30 9226 C 851.608 3.08065 1.4076 0
M  V30 9227 C 850.654 4.17777 0.858152 0
M  V30 9228 S 851.487 5.3482 -0.269827 0
M  V30 9229 C 852.643 6.2007 0.852266 0
M  V30 9230 H 852.876 2.94965 -0.371865 0
M  V30 9231 H 850.409 1.51248 -0.31039 0
M  V30 9232 H 852.367 3.5571 2.04892 0
M  V30 9233 H 851.028 2.38898 2.03928 0
M  V30 9234 H 850.221 4.74542 1.69783 0
M  V30 9235 H 849.823 3.72846 0.293627 0
M  V30 9236 H 852.115 6.54451 1.75213 0
M  V30 9237 H 853.058 7.07364 0.322717 0
M  V30 9238 H 853.466 5.53068 1.13029 0
M  V30 9239 N 852.864 0.259585 1.55447 0
M  V30 9240 C 854.112 -0.360893 1.98852 0
M  V30 9241 C 854.433 -1.57535 1.14924 0
M  V30 9242 O 853.703 -1.94485 0.235025 0
M  V30 9243 H 852.283 -0.136332 0.734454 0
M  V30 9244 H 854.945 0.361319 1.91522 0
M  V30 9245 H 854.041 -0.661388 3.05012 0
M  V30 9246 N 854.342 -1.57594 -0.0133615 0
M  V30 9247 C 855.758 -1.5527 -0.369255 0
M  V30 9248 C 855.958 -0.987751 -1.7563 0
M  V30 9249 O 855.014 -0.615683 -2.44879 0
M  V30 9250 C 856.327 -2.99602 -0.25672 0
M  V30 9251 C 857.875 -3.11227 -0.332647 0
M  V30 9252 C 858.35 -4.57321 -0.249387 0
M  V30 9253 N 859.841 -4.62177 -0.3077 0
M  V30 9254 C 860.576 -5.72781 -0.26641 0
M  V30 9255 N 860.072 -6.92575 -0.176494 0
M  V30 9256 N 861.865 -5.61204 -0.317295 0
M  V30 9257 H 854.016 -1.92662 0.894154 0
M  V30 9258 H 856.279 -0.884352 0.341505 0
M  V30 9259 H 855.985 -3.44723 0.697072 0
M  V30 9260 H 855.859 -3.6246 -1.04415 0
M  V30 9261 H 858.246 -2.66045 -1.27688 0
M  V30 9262 H 858.327 -2.51171 0.484412 0
M  V30 9263 H 857.971 -5.03174 0.691242 0
M  V30 9264 H 857.901 -5.15306 -1.08476 0
M  V30 9265 H 860.392 -3.75994 -0.379069 0
M  V30 9266 H 860.705 -7.72653 -0.150518 0
M  V30 9267 H 859.05 -6.94854 -0.142314 0
M  V30 9268 H 862.241 -4.66509 -0.385643 0
M  V30 9269 H 862.414 -6.47388 -0.28165 0
M  V30 9270 N 855.82 0.285905 -1.54985 0
M  V30 9271 C 856.75 1.35752 -1.89983 0
M  V30 9272 C 857.731 1.52163 -0.760295 0
M  V30 9273 O 858.916 1.65421 -1.01733 0
M  V30 9274 C 856.046 2.71925 -2.16042 0
M  V30 9275 C 855 2.70261 -3.31878 0
M  V30 9276 C 854.326 4.09864 -3.43388 0
M  V30 9277 C 855.626 2.30667 -4.68604 0
M  V30 9278 H 857.32 1.06709 -2.79738 0
M  V30 9279 H 854.866 0.511884 -1.34595 0
M  V30 9280 H 856.819 3.46992 -2.39113 0
M  V30 9281 H 855.543 3.02523 -1.23074 0
M  V30 9282 H 854.202 1.97651 -3.08755 0
M  V30 9283 H 853.85 4.37664 -2.47909 0
M  V30 9284 H 853.55 4.09648 -4.21262 0
M  V30 9285 H 855.074 4.86689 -3.68736 0
M  V30 9286 H 856.488 2.95453 -4.91305 0
M  V30 9287 H 854.885 2.41637 -5.49301 0
M  V30 9288 H 855.955 1.25793 -4.68299 0
M  V30 9289 N 857.298 1.47698 0.54982 0
M  V30 9290 C 858.23 1.56806 1.67166 0
M  V30 9291 C 859.243 0.453709 1.5635 0
M  V30 9292 O 860.432 0.723663 1.63173 0
M  V30 9293 C 857.532 1.4632 3.05686 0
M  V30 9294 C 856.705 2.72452 3.42182 0
M  V30 9295 C 855.764 2.55698 4.59897 0
M  V30 9296 O 854.79 3.29534 4.64108 0
M  V30 9297 N 855.992 1.64009 5.56849 0
M  V30 9298 H 858.757 2.53545 1.59797 0
M  V30 9299 H 856.318 1.44171 0.736635 0
M  V30 9300 H 858.31 1.32835 3.82279 0
M  V30 9301 H 856.88 0.57634 3.07241 0
M  V30 9302 H 856.1 3.00644 2.54964 0
M  V30 9303 H 857.388 3.56172 3.63344 0
M  V30 9304 H 856.786 1.03186 5.5621 0
M  V30 9305 H 855.343 1.56473 6.3274 0
M  V30 9306 N 858.776 -0.797141 1.35954 0
M  V30 9307 C 859.726 -1.89899 1.26184 0
M  V30 9308 C 860.71 -1.60152 0.155007 0
M  V30 9309 O 861.902 -1.72715 0.387108 0
M  V30 9310 C 859.031 -3.2699 1.04559 0
M  V30 9311 C 858.117 -3.62772 2.19675 0
M  V30 9312 N 858.508 -3.6992 3.44953 0
M  V30 9313 C 856.806 -3.92786 2.1127 0
M  V30 9314 C 857.507 -4.01718 4.20711 0
M  V30 9315 N 856.483 -4.16298 3.49567 0
M  V30 9316 H 860.285 -1.9364 2.2109 0
M  V30 9317 H 857.799 -0.992246 1.28562 0
M  V30 9318 H 859.796 -4.0578 0.956474 0
M  V30 9319 H 858.456 -3.24529 0.105467 0
M  V30 9320 H 859.467 -3.52759 3.79185 0
M  V30 9321 H 856.144 -3.98295 1.25168 0
M  V30 9322 H 857.534 -4.14237 5.29016 0
M  V30 9323 N 860.254 -1.20106 -1.0204 0
M  V30 9324 C 861.482 -1.0344 -1.79186 0
M  V30 9325 C 861.897 0.416542 -1.84148 0
M  V30 9326 O 861.254 1.28925 -1.29168 0
M  V30 9327 C 861.305 -1.60663 -3.23836 0
M  V30 9328 O 861.026 -3.00079 -3.19193 0
M  V30 9329 C 862.527 -1.48897 -4.17546 0
M  V30 9330 H 859.747 -0.364093 -0.563629 0
M  V30 9331 H 862.291 -1.5911 -1.28469 0
M  V30 9332 H 860.446 -1.09122 -3.71714 0
M  V30 9333 H 860.86 -3.27162 -4.09958 0
M  V30 9334 H 862.334 -1.93703 -5.16898 0
M  V30 9335 H 862.811 -0.440843 -4.36982 0
M  V30 9336 H 863.417 -1.9961 -3.75547 0
M  V30 9337 N 861.732 1.21287 -1.00634 0
M  V30 9338 C 862.979 1.90389 -0.6898 0
M  V30 9339 C 863.307 1.78193 0.779574 0
M  V30 9340 O 862.562 1.15358 1.58085 0
M  V30 9341 C 862.861 3.41374 -1.05824 0
M  V30 9342 C 862.527 3.73766 -2.5221 0
M  V30 9343 C 861.189 3.82317 -2.92211 0
M  V30 9344 C 863.541 3.88871 -3.47028 0
M  V30 9345 C 860.869 4.03423 -4.2599 0
M  V30 9346 C 863.221 4.11484 -4.80483 0
M  V30 9347 C 861.885 4.18263 -5.20204 0
M  V30 9348 H 861.155 0.696683 -0.252416 0
M  V30 9349 H 863.802 1.43769 -1.26502 0
M  V30 9350 H 862.107 3.8974 -0.401281 0
M  V30 9351 H 863.804 3.93118 -0.79116 0
M  V30 9352 H 860.394 3.67702 -2.20212 0
M  V30 9353 H 864.578 3.8163 -3.17289 0
M  V30 9354 H 859.834 4.06902 -4.56334 0
M  V30 9355 H 864.008 4.22115 -5.53888 0
M  V30 9356 H 861.635 4.34369 -6.23881 0
M  V30 9357 N 863.21 0.781244 1.36873 0
M  V30 9358 C 864.157 0.172146 2.30157 0
M  V30 9359 C 865.127 -0.679328 1.51573 0
M  V30 9360 O 866.312 -0.629713 1.80109 0
M  V30 9361 C 863.452 -0.693534 3.38059 0
M  V30 9362 C 862.565 0.175586 4.31643 0
M  V30 9363 C 861.7 -0.695695 5.26625 0
M  V30 9364 C 860.739 0.17538 6.11849 0
M  V30 9365 N 859.876 -0.654416 6.99043 0
M  V30 9366 H 864.716 0.973133 2.81663 0
M  V30 9367 H 862.253 0.491469 1.38647 0
M  V30 9368 H 864.211 -1.21035 3.99257 0
M  V30 9369 H 862.841 -1.46003 2.87894 0
M  V30 9370 H 861.893 0.810295 3.7167 0
M  V30 9371 H 863.205 0.847107 4.91554 0
M  V30 9372 H 862.359 -1.27863 5.93073 0
M  V30 9373 H 861.098 -1.40087 4.67148 0
M  V30 9374 H 860.103 0.77078 5.4437 0
M  V30 9375 H 861.328 0.87803 6.734 0
M  V30 9376 H 859.274 -1.34403 6.42084 0
M  V30 9377 H 859.191 -0.0403998 7.55989 0
M  V30 9378 H 860.459 -1.22144 7.69871 0
M  V30 9379 N 864.689 -1.48329 0.532571 0
M  V30 9380 C 865.621 -2.27652 -0.265931 0
M  V30 9381 C 866.634 -1.35522 -0.902083 0
M  V30 9382 O 867.823 -1.60552 -0.780088 0
M  V30 9383 C 864.923 -3.0899 -1.39207 0
M  V30 9384 C 864.096 -4.28915 -0.857349 0
M  V30 9385 C 863.155 -4.92044 -1.86493 0
M  V30 9386 O 862.181 -5.51181 -1.42084 0
M  V30 9387 N 863.383 -4.84518 -3.19723 0
M  V30 9388 H 866.148 -2.96821 0.414389 0
M  V30 9389 H 863.709 -1.57684 0.367066 0
M  V30 9390 H 865.701 -3.48091 -2.06433 0
M  V30 9391 H 864.271 -2.42224 -1.97601 0
M  V30 9392 H 863.491 -3.94199 -0.00901765 0
M  V30 9393 H 864.779 -5.0654 -0.479025 0
M  V30 9394 H 864.177 -4.37628 -3.58467 0
M  V30 9395 H 862.734 -5.27712 -3.82575 0
M  V30 9396 N 866.167 -0.267825 -1.55308 0
M  V30 9397 C 867.077 0.633055 -2.25897 0
M  V30 9398 C 868.093 1.17613 -1.28231 0
M  V30 9399 O 869.269 1.20797 -1.61153 0
M  V30 9400 C 866.334 1.80397 -2.96071 0
M  V30 9401 C 865.395 1.29829 -4.09198 0
M  V30 9402 C 864.628 2.4134 -4.76016 0
M  V30 9403 O 864.851 3.60537 -4.42006 0
M  V30 9404 O 863.785 2.09909 -5.64111 0
M  V30 9405 H 867.611 0.0614381 -3.03638 0
M  V30 9406 H 865.196 -0.0355072 -1.49358 0
M  V30 9407 H 867.078 2.48685 -3.40197 0
M  V30 9408 H 865.753 2.36281 -2.21253 0
M  V30 9409 H 864.66 0.582086 -3.69544 0
M  V30 9410 H 865.993 0.785288 -4.85895 0
M  V30 9411 N 867.645 1.57599 0.00500368 0
M  V30 9412 C 868.578 2.03541 1.03181 0
M  V30 9413 C 869.556 0.924301 1.33774 0
M  V30 9414 O 870.74 1.19204 1.46023 0
M  V30 9415 C 867.867 2.42879 2.36067 0
M  V30 9416 C 866.913 3.64673 2.21169 0
M  V30 9417 S 867.746 5.12805 1.54243 0
M  V30 9418 C 868.902 5.55408 2.88569 0
M  V30 9419 H 869.135 2.90316 0.640598 0
M  V30 9420 H 866.668 1.52886 0.215722 0
M  V30 9421 H 868.626 2.66212 3.12476 0
M  V30 9422 H 867.287 1.56512 2.72329 0
M  V30 9423 H 866.48 3.89932 3.19326 0
M  V30 9424 H 866.082 3.41316 1.52904 0
M  V30 9425 H 868.374 5.57563 3.84876 0
M  V30 9426 H 869.317 6.55418 2.68016 0
M  V30 9427 H 869.725 4.82961 2.92249 0
M  V30 9428 N 869.123 -0.277682 1.55134 0
M  V30 9429 C 870.351 -1.02826 1.7954 0
M  V30 9430 C 870.766 -1.80105 0.566373 0
M  V30 9431 O 870.123 -1.76491 -0.464448 0
M  V30 9432 C 870.174 -1.99053 3.01762 0
M  V30 9433 O 869.895 -1.24906 4.19917 0
M  V30 9434 C 871.396 -2.85961 3.38735 0
M  V30 9435 H 868.616 -0.303958 0.598206 0
M  V30 9436 H 871.16 -0.309884 2.02138 0
M  V30 9437 H 869.315 -2.66359 2.81303 0
M  V30 9438 H 869.729 -1.89725 4.88983 0
M  V30 9439 H 871.203 -3.49286 4.27438 0
M  V30 9440 H 871.68 -3.55486 2.57928 0
M  V30 9441 H 872.286 -2.24152 3.61436 0
M  V30 9442 N 870.601 -1.47988 -0.541979 0
M  V30 9443 C 871.849 -1.55086 -1.29587 0
M  V30 9444 C 872.17 -0.221304 -1.9374 0
M  V30 9445 O 871.44 0.756128 -1.80719 0
M  V30 9446 H 870.02 -0.571307 -0.481266 0
M  V30 9447 H 872.682 -1.8438 -0.631675 0
M  V30 9448 H 871.778 -2.32556 -2.08144 0
M  V30 9449 N 872.079 0.78992 -1.36375 0
M  V30 9450 C 873.325 1.55007 -1.3077 0
M  V30 9451 C 873.658 1.93871 0.112979 0
M  V30 9452 O 872.933 1.6267 1.06625 0
M  V30 9453 C 873.216 2.82748 -2.22993 0
M  V30 9454 C 873.069 2.50253 -3.73756 0
M  V30 9455 C 874.388 3.84569 -2.13998 0
M  V30 9456 H 871.507 0.562362 -0.476359 0
M  V30 9457 H 874.149 0.907582 -1.66922 0
M  V30 9458 H 872.299 3.37573 -1.92292 0
M  V30 9459 H 873.971 2.01482 -4.14973 0
M  V30 9460 H 872.214 1.83203 -3.93216 0
M  V30 9461 H 872.885 3.41487 -4.33694 0
M  V30 9462 H 875.361 3.39188 -2.4102 0
M  V30 9463 H 874.237 4.717 -2.80697 0
M  V30 9464 H 874.498 4.27491 -1.12711 0
M  V30 9465 N 873.557 1.20646 1.01402 0
M  V30 9466 C 874.805 1.01618 1.74695 0
M  V30 9467 C 875.126 -0.452438 1.89679 0
M  V30 9468 O 874.396 -1.32693 1.44116 0
M  V30 9469 H 872.976 0.373013 0.647202 0
M  V30 9470 H 875.638 1.518 1.22241 0
M  V30 9471 H 874.734 1.47666 2.74957 0
M  V30 9472 N 875.035 -1.20752 1.01276 0
M  V30 9473 C 875.998 -2.2162 0.584583 0
M  V30 9474 C 876.998 -1.57094 -0.343215 0
M  V30 9475 O 878.188 -1.73696 -0.132433 0
M  V30 9476 C 875.32 -3.40583 -0.146872 0
M  V30 9477 H 876.513 -2.61015 1.47686 0
M  V30 9478 H 874.066 -1.34148 0.802123 0
M  V30 9479 H 874.801 -3.06686 -1.05424 0
M  V30 9480 H 874.586 -3.88642 0.51958 0
M  V30 9481 H 876.076 -4.15339 -0.433924 0
M  V30 9482 N 876.513 -0.788492 -1.36457 0
M  V30 9483 C 877.738 -0.371224 -2.04051 0
M  V30 9484 C 878.163 1.004 -1.59064 0
M  V30 9485 O 877.521 1.64663 -0.758679 0
M  V30 9486 C 877.569 -0.442275 -3.57877 0
M  V30 9487 O 876.673 0.55113 -4.08701 0
M  V30 9488 H 876.014 -0.157808 -0.644975 0
M  V30 9489 H 878.544 -1.06935 -1.74431 0
M  V30 9490 H 878.554 -0.305548 -4.06854 0
M  V30 9491 H 877.229 -1.44547 -3.89973 0
M  V30 9492 H 875.806 0.37614 -3.70998 0
M  V30 9493 N 877.991 1.48044 -0.54043 0
M  V30 9494 C 878.921 2.32597 0.205178 0
M  V30 9495 C 879.902 1.42748 0.925041 0
M  V30 9496 O 881.087 1.71624 0.908784 0
M  V30 9497 C 878.217 3.24175 1.24612 0
M  V30 9498 C 877.171 4.23131 0.64376 0
M  V30 9499 C 876.497 5.03915 1.78812 0
M  V30 9500 C 877.797 5.20831 -0.39144 0
M  V30 9501 H 879.491 2.95184 -0.500676 0
M  V30 9502 H 877.037 1.41948 -0.242225 0
M  V30 9503 H 878.99 3.82158 1.77576 0
M  V30 9504 H 877.714 2.59608 1.98169 0
M  V30 9505 H 876.373 3.66349 0.135554 0
M  V30 9506 H 876.021 4.35765 2.51232 0
M  V30 9507 H 875.721 5.709 1.39094 0
M  V30 9508 H 877.245 5.64753 2.32134 0
M  V30 9509 H 878.659 5.73277 0.0515064 0
M  V30 9510 H 877.056 5.95926 -0.706569 0
M  V30 9511 H 878.126 4.6733 -1.29345 0
M  V30 9512 N 879.47 0.276058 1.55163 0
M  V30 9513 C 880.38 -0.621066 2.2623 0
M  V30 9514 C 881.396 -1.16931 1.28853 0
M  V30 9515 O 882.572 -1.1994 1.61791 0
M  V30 9516 C 879.637 -1.78824 2.97023 0
M  V30 9517 C 878.698 -1.27657 4.09881 0
M  V30 9518 C 877.931 -2.38812 4.77289 0
M  V30 9519 O 878.154 -3.58188 4.43912 0
M  V30 9520 O 877.088 -2.06915 5.65217 0
M  V30 9521 H 880.914 -0.0453346 3.03666 0
M  V30 9522 H 878.499 0.0434275 1.49337 0
M  V30 9523 H 880.381 -2.46877 3.41511 0
M  V30 9524 H 879.056 -2.35104 2.22503 0
M  V30 9525 H 877.963 -0.56248 3.69847 0
M  V30 9526 H 879.296 -0.759509 4.86305 0
M  V30 9527 N 880.948 -1.576 0.00335426 0
M  V30 9528 C 881.895 -2.08632 -0.986975 0
M  V30 9529 C 882.865 -0.982491 -1.33927 0
M  V30 9530 O 884.05 -1.25513 -1.43705 0
M  V30 9531 C 881.19 -2.59705 -2.27261 0
M  V30 9532 C 880.303 -3.84002 -1.97905 0
M  V30 9533 C 879.438 -4.23563 -3.20574 0
M  V30 9534 C 878.477 -5.40688 -2.8692 0
M  V30 9535 N 877.614 -5.75526 -4.02136 0
M  V30 9536 H 882.454 -2.92977 -0.544855 0
M  V30 9537 H 879.991 -1.44831 -0.257376 0
M  V30 9538 H 881.949 -2.87395 -3.02423 0
M  V30 9539 H 880.579 -1.7823 -2.69136 0
M  V30 9540 H 879.631 -3.63199 -1.13096 0
M  V30 9541 H 880.943 -4.69261 -1.69102 0
M  V30 9542 H 880.097 -4.52554 -4.04079 0
M  V30 9543 H 878.836 -3.37019 -3.52518 0
M  V30 9544 H 877.841 -5.11417 -2.01822 0
M  V30 9545 H 879.066 -6.2891 -2.5622 0
M  V30 9546 H 877.012 -4.9194 -4.33971 0
M  V30 9547 H 876.929 -6.55367 -3.76869 0
M  V30 9548 H 878.197 -6.0911 -4.8642 0
M  V30 9549 N 882.426 0.269451 -1.5528 0
M  V30 9550 C 883.842 0.616827 -1.47199 0
M  V30 9551 C 884.042 1.89354 -0.68901 0
M  V30 9552 O 883.098 2.51631 -0.209287 0
M  V30 9553 C 884.411 0.740492 -2.9144 0
M  V30 9554 C 885.959 0.834312 -3.01676 0
M  V30 9555 C 886.434 0.989725 -4.47178 0
M  V30 9556 N 887.925 1.05516 -4.51022 0
M  V30 9557 C 888.66 1.19427 -5.60825 0
M  V30 9558 N 888.156 1.30035 -6.80487 0
M  V30 9559 N 889.949 1.22566 -5.48575 0
M  V30 9560 H 882.1 -0.568962 -2.04638 0
M  V30 9561 H 884.363 -0.193153 -0.928114 0
M  V30 9562 H 884.069 -0.127234 -3.5147 0
M  V30 9563 H 883.943 1.61965 -3.40657 0
M  V30 9564 H 886.33 1.6925 -2.4174 0
M  V30 9565 H 886.411 -0.0695298 -2.55705 0
M  V30 9566 H 886.055 0.136179 -5.07717 0
M  V30 9567 H 885.985 1.90827 -4.90808 0
M  V30 9568 H 888.476 0.985434 -3.64825 0
M  V30 9569 H 888.789 1.40494 -7.59922 0
M  V30 9570 H 887.134 1.27033 -6.83292 0
M  V30 9571 H 890.325 1.13911 -4.54029 0
M  V30 9572 H 890.498 1.33063 -6.34191 0
M  V30 9573 N 883.904 1.48273 0.534124 0
M  V30 9574 C 885.15 1.5729 1.28963 0
M  V30 9575 C 885.505 0.241854 1.90874 0
M  V30 9576 O 884.798 -0.754874 1.76103 0
M  V30 9577 C 884.992 2.64468 2.40398 0
M  V30 9578 C 884.821 4.07865 1.8941 0
M  V30 9579 C 883.591 4.75052 1.72202 0
M  V30 9580 C 885.789 4.94163 1.42505 0
M  V30 9581 N 883.771 6.0288 1.15795 0
M  V30 9582 C 885.142 6.12203 0.980176 0
M  V30 9583 C 887.197 4.8042 1.30769 0
M  V30 9584 C 885.9 7.18016 0.429591 0
M  V30 9585 C 887.926 5.86351 0.771107 0
M  V30 9586 C 887.288 7.03597 0.336287 0
M  V30 9587 H 883.387 0.630141 0.463083 0
M  V30 9588 H 885.971 1.85135 0.602767 0
M  V30 9589 H 884.142 2.38453 3.06586 0
M  V30 9590 H 885.874 2.63194 3.07426 0
M  V30 9591 H 882.629 4.3132 1.95603 0
M  V30 9592 H 883.053 6.71043 0.896141 0
M  V30 9593 H 887.695 3.90119 1.62993 0
M  V30 9594 H 885.413 8.08044 0.0950224 0
M  V30 9595 H 888.999 5.77771 0.68354 0
M  V30 9596 H 887.879 7.84167 -0.0724668 0
M  V30 9597 N 885.382 -0.782676 1.36792 0
M  V30 9598 C 886.329 -1.89558 1.31667 0
M  V30 9599 C 887.299 -1.65076 0.184147 0
M  V30 9600 O 888.484 -1.87143 0.371753 0
M  V30 9601 C 885.624 -3.26469 1.11858 0
M  V30 9602 C 884.737 -3.62978 2.34245 0
M  V30 9603 C 883.872 -4.89041 2.07394 0
M  V30 9604 C 882.911 -5.18249 3.25706 0
M  V30 9605 N 882.048 -6.35497 2.98476 0
M  V30 9606 H 886.888 -1.93274 2.26824 0
M  V30 9607 H 884.425 -0.945057 1.12726 0
M  V30 9608 H 886.383 -4.05431 0.983968 0
M  V30 9609 H 885.013 -3.22158 0.203531 0
M  V30 9610 H 884.065 -2.79087 2.58485 0
M  V30 9611 H 885.377 -3.80507 3.22514 0
M  V30 9612 H 884.531 -5.75883 1.90901 0
M  V30 9613 H 883.27 -4.73594 1.16446 0
M  V30 9614 H 882.275 -4.29887 3.4275 0
M  V30 9615 H 883.5 -5.35611 4.1749 0
M  V30 9616 H 881.446 -6.21429 2.10146 0
M  V30 9617 H 881.363 -6.5339 3.80286 0
M  V30 9618 H 882.631 -7.25304 2.85577 0
M  V30 9619 N 886.86 -1.21182 -1.00761 0
M  V30 9620 C 888.107 -1.02746 -1.74498 0
M  V30 9621 C 888.435 0.439344 -1.89473 0
M  V30 9622 O 887.69 1.34232 -1.42409 0
M  V30 9623 C 887.989 -1.6667 -3.16158 0
M  V30 9624 C 887.655 -3.16515 -3.21137 0
M  V30 9625 C 886.317 -3.57405 -3.22203 0
M  V30 9626 C 888.669 -4.12495 -3.18587 0
M  V30 9627 C 885.997 -4.92786 -3.18401 0
M  V30 9628 C 888.349 -5.47833 -3.16326 0
M  V30 9629 C 887.013 -5.88124 -3.157 0
M  V30 9630 H 886.283 -0.375974 -0.638533 0
M  V30 9631 H 888.93 -1.50736 -1.18114 0
M  V30 9632 H 887.235 -1.10966 -3.75758 0
M  V30 9633 H 888.932 -1.49911 -3.71924 0
M  V30 9634 H 885.522 -2.83947 -3.21048 0
M  V30 9635 H 889.706 -3.81932 -3.16925 0
M  V30 9636 H 884.962 -5.23253 -3.16253 0
M  V30 9637 H 889.136 -6.21942 -3.13306 0
M  V30 9638 H 886.763 -6.92995 -3.12508 0
M  V30 9639 N 888.338 1.20213 -1.01915 0
M  V30 9640 C 889.578 1.91354 -0.71853 0
M  V30 9641 C 889.942 1.77231 0.738466 0
M  V30 9642 O 891.143 2.42876 1.15172 0
M  V30 9643 C 889.414 3.38552 -1.14529 0
M  V30 9644 S 890.973 4.28011 -0.967037 0
M  V30 9645 H 887.791 0.661015 -0.261879 0
M  V30 9646 H 890.393 1.45394 -1.30694 0
M  V30 9647 H 889.097 3.46354 -2.20153 0
M  V30 9648 H 888.628 3.8954 -0.549766 0
M  V30 9649 H 890.643 4.96035 0.127974 0
M  V30 9650 N 889.816 0.795718 1.36037 0
M  V30 9651 C 891.064 0.370291 1.98679 0
M  V30 9652 C 891.385 -1.06332 1.63458 0
M  V30 9653 O 890.655 -1.73394 0.911671 0
M  V30 9654 H 889.235 0.133928 0.734896 0
M  V30 9655 H 891.897 1.01915 1.6613 0
M  V30 9656 H 890.993 0.467207 3.08583 0
M  V30 9657 N 891.294 -1.47756 0.548274 0
M  V30 9658 C 892.541 -2.02489 0.0208955 0
M  V30 9659 C 892.869 -1.42356 -1.32533 0
M  V30 9660 O 892.124 -0.565448 -1.87353 0
M  V30 9661 C 892.423 -3.5716 -0.131069 0
M  V30 9662 C 892.089 -4.36169 1.14313 0
M  V30 9663 C 890.751 -4.57476 1.4923 0
M  V30 9664 C 893.103 -4.81801 1.9879 0
M  V30 9665 C 890.431 -5.21662 2.68487 0
M  V30 9666 C 892.783 -5.47303 3.17242 0
M  V30 9667 C 891.447 -5.66844 3.52483 0
M  V30 9668 H 890.717 -0.740961 0.00764621 0
M  V30 9669 H 893.364 -1.77531 0.717987 0
M  V30 9670 H 891.669 -3.8106 -0.911063 0
M  V30 9671 H 893.366 -3.9715 -0.55433 0
M  V30 9672 H 889.956 -4.19858 0.861235 0
M  V30 9673 H 894.14 -4.65126 1.73123 0
M  V30 9674 H 889.396 -5.34987 2.95971 0
M  V30 9675 H 893.57 -5.81626 3.82994 0
M  V30 9676 H 891.197 -6.16352 4.44988 0
M  V30 9677 N 892.772 -0.284283 -1.55015 0
M  V30 9678 C 893.682 0.60906 -2.26556 0
M  V30 9679 C 894.698 1.16246 -1.29472 0
M  V30 9680 O 895.874 1.1908 -1.62425 0
M  V30 9681 C 892.939 1.77246 -2.97968 0
M  V30 9682 C 892 1.25482 -4.10552 0
M  V30 9683 C 891.233 2.36277 -4.78549 0
M  V30 9684 O 891.456 3.55829 -4.45805 0
M  V30 9685 O 890.39 2.03914 -5.66306 0
M  V30 9686 H 894.216 0.0292298 -3.03686 0
M  V30 9687 H 891.801 -0.0513466 -1.49312 0
M  V30 9688 H 893.683 2.45062 -3.42815 0
M  V30 9689 H 892.358 2.33921 -2.23747 0
M  V30 9690 H 891.265 0.542859 -3.7014 0
M  V30 9691 H 892.598 0.733708 -4.86701 0
M  V30 9692 N 894.251 1.57596 -0.0117121 0
M  V30 9693 C 895.499 1.90694 0.669342 0
M  V30 9694 C 895.82 0.886999 1.73659 0
M  V30 9695 O 895.09 -0.0739779 1.9576 0
M  V30 9696 H 893.67 0.703846 0.250219 0
M  V30 9697 H 896.332 1.94821 -0.0554057 0
M  V30 9698 H 895.428 2.90802 1.13316 0
M  V30 9699 N 895.729 -0.261212 1.5542 0
M  V30 9700 C 896.659 -1.32712 1.92119 0
M  V30 9701 C 897.64 -1.50934 0.784406 0
M  V30 9702 O 898.825 -1.63781 1.04352 0
M  V30 9703 C 895.955 -2.68453 2.20341 0
M  V30 9704 C 894.909 -2.64947 3.36136 0
M  V30 9705 C 894.235 -4.04349 3.49865 0
M  V30 9706 C 895.535 -2.23182 4.72215 0
M  V30 9707 H 897.229 -1.02245 2.81401 0
M  V30 9708 H 894.775 -0.490406 1.35392 0
M  V30 9709 H 896.728 -3.43144 2.44603 0
M  V30 9710 H 895.452 -3.00527 1.27871 0
M  V30 9711 H 894.111 -1.92714 3.11861 0
M  V30 9712 H 893.759 -4.33665 2.5484 0
M  V30 9713 H 893.459 -4.02895 4.27726 0
M  V30 9714 H 894.983 -4.80761 3.76432 0
M  V30 9715 H 896.397 -2.87599 4.95943 0
M  V30 9716 H 894.794 -2.32867 5.53076 0
M  V30 9717 H 895.864 -1.18327 4.70241 0
M  V30 9718 N 897.207 -1.48554 -0.526253 0
M  V30 9719 C 898.154 -1.63354 -1.63046 0
M  V30 9720 C 899.124 -0.475509 -1.59148 0
M  V30 9721 O 900.309 -0.699453 -1.77517 0
M  V30 9722 C 897.449 -1.68271 -3.01295 0
M  V30 9723 C 896.562 -2.95207 -3.15399 0
M  V30 9724 C 895.697 -2.91262 -4.4423 0
M  V30 9725 C 894.736 -4.12886 -4.51876 0
M  V30 9726 N 893.873 -4.06996 -5.721 0
M  V30 9727 H 898.713 -2.57649 -1.49737 0
M  V30 9728 H 896.25 -1.27769 -0.728938 0
M  V30 9729 H 898.208 -1.69104 -3.81392 0
M  V30 9730 H 896.838 -0.774641 -3.13367 0
M  V30 9731 H 895.89 -3.04102 -2.2853 0
M  V30 9732 H 897.202 -3.85187 -3.1691 0
M  V30 9733 H 896.356 -2.90516 -5.32621 0
M  V30 9734 H 895.095 -1.99016 -4.45246 0
M  V30 9735 H 894.1 -4.13902 -3.61891 0
M  V30 9736 H 895.325 -5.06294 -4.52596 0
M  V30 9737 H 893.271 -3.17573 -5.74006 0
M  V30 9738 H 893.188 -4.90685 -5.75121 0
M  V30 9739 H 894.456 -4.10315 -6.62768 0
M  V30 9740 N 898.685 0.775411 -1.37205 0
M  V30 9741 C 899.615 1.90258 -1.35367 0
M  V30 9742 C 900.596 1.68634 -0.222864 0
M  V30 9743 O 901.781 1.89545 -0.422659 0
M  V30 9744 C 898.911 3.27488 -1.15623 0
M  V30 9745 C 897.865 3.63668 -2.25676 0
M  V30 9746 C 897.191 4.994 -1.91059 0
M  V30 9747 C 898.491 3.70797 -3.67841 0
M  V30 9748 H 900.185 1.92053 -2.29687 0
M  V30 9749 H 897.731 0.922597 -1.10563 0
M  V30 9750 H 899.684 4.05976 -1.12968 0
M  V30 9751 H 898.408 3.26117 -0.177573 0
M  V30 9752 H 897.067 2.87486 -2.2748 0
M  V30 9753 H 896.715 4.94565 -0.917324 0
M  V30 9754 H 896.415 5.24576 -2.64751 0
M  V30 9755 H 897.939 5.80291 -1.89985 0
M  V30 9756 H 899.353 4.39444 -3.68187 0
M  V30 9757 H 897.75 4.07468 -4.40556 0
M  V30 9758 H 898.82 2.71549 -4.01732 0
M  V30 9759 N 900.163 1.21714 1.00117 0
M  V30 9760 C 901.391 1.06278 1.77518 0
M  V30 9761 C 901.806 -0.387193 1.84787 0
M  V30 9762 O 901.163 -1.26854 1.31203 0
M  V30 9763 C 901.214 1.65795 3.21239 0
M  V30 9764 O 900.935 3.05119 3.14378 0
M  V30 9765 C 902.436 1.55521 4.15124 0
M  V30 9766 H 899.656 0.373013 0.557765 0
M  V30 9767 H 902.2 1.61133 1.25922 0
M  V30 9768 H 900.355 1.15022 3.69931 0
M  V30 9769 H 900.769 3.33643 4.04701 0
M  V30 9770 H 902.243 2.01902 5.13751 0
M  V30 9771 H 902.72 0.510307 4.36225 0
M  V30 9772 H 903.326 2.0556 3.72324 0
M  V30 9773 O 901.68 -1.13182 1.15204 0
M  V30 9774 H 902.371 -1.72675 0.877672 0
M  V30 END ATOM
M  V30 BEGIN BOND
M  V30 END BOND
M  V30 END CTAB
M  END
$$$$
