drugbank_target|P28223 5-hydroxytryptamine receptor 2A (DB00246; DB00247; DB00248; DB00315; DB00321; DB00334; DB00363; DB00370; DB00408; DB00409; DB00420; DB00434; DB00458; DB00477; DB00502; DB00540; DB00543; DB00555; DB00574; DB00589; DB00604; DB00623; DB00656; DB00679; DB00696; DB00714; DB00715; DB00726; DB00734; DB00751; DB00777; DB00805; DB00843; DB00875; DB00924; DB00933; DB00934; DB01079; DB01142; DB01149; DB01151; DB01175; DB01186; DB01200; DB01224; DB01238; DB01239; DB01242; DB01267; DB01392; DB01403; DB01442; DB01454; DB01488; DB01537; DB01614; DB01618; DB01621; DB01622; DB01623; DB01624; DB04599; DB04842; DB04908; DB04946; DB05079; DB05227; DB05316; DB05492; DB05687; DB06016; DB06077; DB06109; DB06144; DB06148; DB06153; DB06216; DB06229; DB06288; DB06446; DB06512; DB08810; DB08815; DB08839; DB08922; DB08927; DB09016; DB09061; DB09128; DB09167; DB09194; DB09195; DB09223; DB09225; DB09286; DB12163; DB12177; DB12465; DB12555; DB12693; DB13940; DB13948; DB14009; DB14010; DB14011; DB14185)
 OpenBabel12092119323D

  0  0  0     0  0            999 V3000
M  V30 BEGIN CTAB
M  V30 COUNTS 7431 7503 0 0 0
M  V30 BEGIN ATOM
M  V30 1 H -0.908 1.98254 -0.117106 0
M  V30 2 N 0 1.576 0 0
M  V30 3 C 0.933 2.03868 1.02534 0
M  V30 4 C 1.911 0.928543 1.3348 0
M  V30 5 O 3.095 1.19667 1.45644 0
M  V30 6 C 0.222 2.43627 2.35294 0
M  V30 7 C -0.732 3.65373 2.2001 0
M  V30 8 S 0.101 5.13292 1.52614 0
M  V30 9 C 1.257 5.56322 2.86805 0
M  V30 10 H 1.49 2.90518 0.631377 0
M  V30 11 H -0.977 1.52953 0.210867 0
M  V30 12 H 0.981 2.67203 3.11629 0
M  V30 13 H -0.358 1.57376 2.7183 0
M  V30 14 H -1.165 3.90944 3.18086 0
M  V30 15 H -1.563 3.418 1.51819 0
M  V30 16 H 0.729 5.58782 3.83104 0
M  V30 17 H 1.672 6.56266 2.65933 0
M  V30 18 H 2.08 4.83886 2.90714 0
M  V30 19 N 1.4781 -0.272755 1.55222 0
M  V30 20 C 2.7551 -1.02562 1.66555 0
M  V30 21 C 3.1351 -2.04282 0.532189 0
M  V30 22 O 2.4831 -2.23662 -0.467717 0
M  V30 23 C 2.6931 -1.6822 3.05782 0
M  V30 24 C 4.0411 -2.19373 3.63539 0
M  V30 25 O 5.0651 -1.78206 3.08417 0
M  V30 26 O 3.9241 -2.94883 4.60115 0
M  V30 27 H 1.0181 -0.475755 0.676451 0
M  V30 28 H 3.5641 -0.268593 1.67561 0
M  V30 29 H 2.3361 -0.945112 3.79715 0
M  V30 30 H 1.9591 -2.50609 3.08676 0
M  V30 31 N 2.9562 -1.48159 -0.537278 0
M  V30 32 C 4.2052 -1.5506 -1.28993 0
M  V30 33 C 4.5182 -0.226211 -1.94288 0
M  V30 34 O 5.7242 -0.173395 -2.70946 0
M  V30 35 C 4.1802 -2.73429 -2.34018 0
M  V30 36 C 3.7882 -4.1248 -1.74825 0
M  V30 37 C 5.5322 -2.89638 -3.10339 0
M  V30 38 C 3.4392 -5.22121 -2.77747 0
M  V30 39 H 2.3692 -0.577231 -0.485098 0
M  V30 40 H 5.0202 -1.74478 -0.568317 0
M  V30 41 H 3.4022 -2.47431 -3.09182 0
M  V30 42 H 4.5762 -4.48466 -1.05899 0
M  V30 43 H 2.8912 -4.01327 -1.11022 0
M  V30 44 H 5.4882 -3.68718 -3.87235 0
M  V30 45 H 5.8312 -1.9882 -3.65754 0
M  V30 46 H 6.3642 -3.15502 -2.42288 0
M  V30 47 H 3.1032 -6.1488 -2.27161 0
M  V30 48 H 2.6232 -4.90631 -3.45024 0
M  V30 49 H 4.3022 -5.49924 -3.4087 0
M  V30 50 N 4.4343 0.785586 -1.36625 0
M  V30 51 C 5.3643 1.91259 -1.33949 0
M  V30 52 C 6.3453 1.68795 -0.210325 0
M  V30 53 O 7.5303 1.89854 -0.408561 0
M  V30 54 C 4.6603 3.28339 -1.13186 0
M  V30 55 C 3.6143 3.65335 -2.22967 0
M  V30 56 C 2.9403 5.00806 -1.87342 0
M  V30 57 C 4.2403 3.7352 -3.65075 0
M  V30 58 H 5.9343 1.93755 -2.28253 0
M  V30 59 H 3.4803 0.930788 -1.09874 0
M  V30 60 H 5.4333 4.06804 -1.09948 0
M  V30 61 H 4.1573 3.2624 -0.153332 0
M  V30 62 H 2.8163 2.89169 -2.25337 0
M  V30 63 H 2.4643 4.95233 -0.880545 0
M  V30 64 H 2.1643 5.26529 -2.60846 0
M  V30 65 H 3.6883 5.81687 -1.85667 0
M  V30 66 H 5.1023 4.42168 -3.64911 0
M  V30 67 H 3.4993 4.10731 -4.37516 0
M  V30 68 H 4.5693 2.74527 -3.99703 0
M  V30 69 N 5.9124 1.20967 1.01018 0
M  V30 70 C 7.1524 1.03511 1.76252 0
M  V30 71 C 7.5164 -0.42458 1.87247 0
M  V30 72 O 8.7174 -0.719508 2.58991 0
M  V30 73 C 6.9884 1.70726 3.13986 0
M  V30 74 S 8.5474 1.68458 4.05176 0
M  V30 75 H 5.3654 0.371037 0.606508 0
M  V30 76 H 7.9674 1.53628 1.20908 0
M  V30 77 H 6.6714 2.76128 3.03614 0
M  V30 78 H 6.2024 1.20767 3.74405 0
M  V30 79 H 8.2174 0.721987 4.90919 0
M  V30 80 N 7.3905 -1.2043 1.01659 0
M  V30 81 C 8.3005 -2.2689 0.596484 0
M  V30 82 C 9.3165 -1.70107 -0.36599 0
M  V30 83 O 10.4925 -2.00117 -0.226942 0
M  V30 84 C 7.5575 -3.4665 -0.0586659 0
M  V30 85 C 6.6185 -4.18662 0.949751 0
M  V30 86 C 5.8515 -5.32705 0.32577 0
M  V30 87 O 6.0745 -5.63656 -0.874509 0
M  V30 88 O 5.0085 -5.92803 1.04249 0
M  V30 89 H 8.8345 -2.65041 1.4828 0
M  V30 90 H 6.4195 -1.27048 0.786082 0
M  V30 91 H 8.3015 -4.19256 -0.424564 0
M  V30 92 H 6.9765 -3.10375 -0.91918 0
M  V30 93 H 5.8835 -3.48229 1.36702 0
M  V30 94 H 7.2165 -4.58878 1.78023 0
M  V30 95 N 8.8686 -0.792821 -1.36206 0
M  V30 96 C 9.7786 -0.194808 -2.3379 0
M  V30 97 C 10.7946 0.654869 -1.61206 0
M  V30 98 O 11.9706 0.569856 -1.9317 0
M  V30 99 C 9.0356 0.657721 -3.40404 0
M  V30 100 C 8.0966 -0.210849 -4.28782 0
M  V30 101 C 7.3296 0.601086 -5.30304 0
M  V30 102 O 7.5526 1.83682 -5.40016 0
M  V30 103 O 6.4866 -0.000808277 -6.019 0
M  V30 104 H 10.3126 -1.00172 -2.86704 0
M  V30 105 H 7.8976 -0.554341 -1.38735 0
M  V30 106 H 9.7796 1.14375 -4.05581 0
M  V30 107 H 8.4546 1.44247 -2.89784 0
M  V30 108 H 7.3616 -0.743714 -3.66633 0
M  V30 109 H 8.6946 -0.959195 -4.82763 0
M  V30 110 N 10.3467 1.47872 -0.545128 0
M  V30 111 C 11.2947 2.31533 0.222512 0
M  V30 112 C 12.2887 1.42177 0.920985 0
M  V30 113 O 13.4947 1.59005 0.843645 0
M  V30 114 H 9.8697 0.746519 0.0906278 0
M  V30 115 H 11.8407 2.94139 -0.50246 0
M  V30 116 C 10.5897 3.2457 1.24699 0
M  V30 117 H 9.9127 3.93283 0.718944 0
M  V30 118 H 11.3527 3.85963 1.75523 0
M  V30 119 C 9.8117 2.47237 2.28856 0
M  V30 120 O 10.3417 2.20808 3.35569 0
M  V30 121 N 8.5477 2.08461 2.02466 0
M  V30 122 H 8.0947 2.30155 1.157 0
M  V30 123 H 8.0527 1.57033 2.72375 0
M  V30 124 N 11.8248 0.280983 1.55075 0
M  V30 125 C 13.0528 -0.337293 2.04132 0
M  V30 126 C 13.4678 -1.4903 1.15912 0
M  V30 127 O 12.8248 -1.81606 0.180459 0
M  V30 128 C 12.8758 -0.812706 3.52246 0
M  V30 129 O 12.5968 0.294387 4.3711 0
M  V30 130 C 14.0978 -1.4982 4.17216 0
M  V30 131 H 11.3178 -0.0761638 0.666663 0
M  V30 132 H 13.8618 0.414787 2.00249 0
M  V30 133 H 12.0168 -1.51486 3.56554 0
M  V30 134 H 12.4308 -0.0721325 5.2445 0
M  V30 135 H 13.9048 -1.7822 5.22438 0
M  V30 136 H 14.3818 -2.43168 3.65741 0
M  V30 137 H 14.9878 -0.839742 4.16927 0
M  V30 138 N 13.3029 -1.57598 0.00835791 0
M  V30 139 C 14.5279 -1.95617 -0.689103 0
M  V30 140 C 14.9529 -0.883753 -1.66046 0
M  V30 141 O 14.3109 0.157352 -1.80616 0
M  V30 142 C 14.3589 -3.32736 -1.38994 0
M  V30 143 O 13.4629 -3.27631 -2.50463 0
M  V30 144 H 12.8039 -0.638379 -0.182668 0
M  V30 145 H 15.3339 -2.045 0.064036 0
M  V30 146 H 15.3439 -3.68494 -1.75147 0
M  V30 147 H 14.0189 -4.1034 -0.677778 0
M  V30 148 H 12.5959 -3.03561 -2.16576 0
M  V30 149 N 14.781 0.264519 -1.55364 0
M  V30 150 C 15.711 1.33121 -1.91836 0
M  V30 151 C 16.692 1.51101 -0.781192 0
M  V30 152 O 17.877 1.64003 -1.04003 0
M  V30 153 C 15.007 2.68921 -2.19769 0
M  V30 154 C 13.961 2.65661 -3.35571 0
M  V30 155 C 13.287 4.05093 -3.49004 0
M  V30 156 C 14.587 2.24187 -4.71739 0
M  V30 157 H 16.281 1.02844 -2.81182 0
M  V30 158 H 13.827 0.493286 -1.35287 0
M  V30 159 H 15.78 3.43663 -2.43872 0
M  V30 160 H 14.504 3.00799 -1.27231 0
M  V30 161 H 13.163 1.93377 -3.1145 0
M  V30 162 H 12.811 4.34206 -2.53917 0
M  V30 163 H 12.511 4.03804 -4.26868 0
M  V30 164 H 14.035 4.81561 -3.75408 0
M  V30 165 H 15.449 2.88654 -4.9533 0
M  V30 166 H 13.846 2.34044 -5.52579 0
M  V30 167 H 14.916 1.19327 -4.69988 0
M  V30 168 N 16.2591 1.48442 0.529413 0
M  V30 169 C 17.4841 1.60406 1.31471 0
M  V30 170 C 17.9091 0.264738 1.86228 0
M  V30 171 O 17.2671 -0.763668 1.64432 0
M  V30 172 C 17.3151 2.65419 2.44101 0
M  V30 173 O 16.4191 2.22618 3.47153 0
M  V30 174 H 15.7601 0.537863 0.389357 0
M  V30 175 H 18.2901 1.94432 0.636965 0
M  V30 176 H 18.3001 2.86709 2.90279 0
M  V30 177 H 16.9751 3.62652 2.03608 0
M  V30 178 H 15.5521 2.11543 3.0709 0
M  V30 179 N 17.7372 -0.778329 1.37039 0
M  V30 180 C 18.9622 -1.57248 1.35233 0
M  V30 181 C 19.3872 -1.87999 -0.0615568 0
M  V30 182 O 18.7452 -1.48734 -1.03672 0
M  V30 183 C 18.7932 -2.86353 2.19167 0
M  V30 184 O 17.8972 -3.80442 1.59178 0
M  V30 185 H 17.2382 -0.476569 0.462362 0
M  V30 186 H 19.7682 -0.963853 1.80474 0
M  V30 187 H 19.7782 -3.35519 2.32145 0
M  V30 188 H 18.4532 -2.63299 3.21942 0
M  V30 189 H 17.0302 -3.39067 1.55203 0
M  V30 190 N 19.2153 -1.21501 -1.00376 0
M  V30 191 C 20.4433 -1.059 -1.77744 0
M  V30 192 C 20.8583 0.391125 -1.84704 0
M  V30 193 O 20.2153 1.27133 -1.30933 0
M  V30 194 C 20.2663 -1.65111 -3.21591 0
M  V30 195 O 19.9873 -3.0445 -3.15027 0
M  V30 196 C 21.4883 -1.54637 -4.15454 0
M  V30 197 H 18.7083 -0.371825 -0.558558 0
M  V30 198 H 21.2523 -1.60865 -1.26264 0
M  V30 199 H 19.4073 -1.14235 -3.70175 0
M  V30 200 H 19.8213 -3.3278 -4.0541 0
M  V30 201 H 21.2953 -2.00808 -5.14179 0
M  V30 202 H 21.7723 -0.501022 -4.36333 0
M  V30 203 H 22.3783 -2.04767 -3.72761 0
M  V30 204 N 20.6934 1.19889 -1.02296 0
M  V30 205 C 21.9214 1.9339 -0.735399 0
M  V30 206 C 22.3364 1.75148 0.704887 0
M  V30 207 O 21.6934 1.06954 1.47875 0
M  V30 208 C 21.7444 3.45313 -1.06962 0
M  V30 209 O 21.4654 3.62964 -2.45334 0
M  V30 210 C 22.9664 4.35948 -0.804021 0
M  V30 211 H 20.1864 0.61448 -0.269546 0
M  V30 212 H 22.7304 1.522 -1.36585 0
M  V30 213 H 20.8854 3.84359 -0.484455 0
M  V30 214 H 21.2994 4.56886 -2.57595 0
M  V30 215 H 22.7734 5.41174 -1.0879 0
M  V30 216 H 23.2504 4.3842 0.261691 0
M  V30 217 H 23.8564 4.02574 -1.37164 0
M  V30 218 N 22.1715 0.800033 1.35784 0
M  V30 219 C 23.1195 0.193851 2.31791 0
M  V30 220 C 24.1135 -0.652744 1.56319 0
M  V30 221 O 25.3195 -0.546641 1.71499 0
M  V30 222 H 21.6945 0.04392 0.750716 0
M  V30 223 H 23.6655 1.01883 2.80468 0
M  V30 224 C 22.4145 -0.648338 3.41602 0
M  V30 225 H 21.7375 -0.00624665 3.998 0
M  V30 226 H 23.1775 -1.03898 4.11073 0
M  V30 227 C 21.6365 -1.8111 2.84079 0
M  V30 228 O 22.1665 -2.90825 2.77099 0
M  V30 229 N 20.3725 -1.62056 2.41218 0
M  V30 230 H 19.9195 -0.728123 2.47095 0
M  V30 231 H 19.8775 -2.40013 2.03079 0
M  V30 232 N 23.6496 -1.47581 0.552962 0
M  V30 233 C 24.8746 -2.07378 0.0300593 0
M  V30 234 C 25.2996 -1.40355 -1.25229 0
M  V30 235 O 24.6576 -0.477099 -1.7491 0
M  V30 236 C 24.7056 -3.60274 -0.153231 0
M  V30 237 O 23.8096 -3.94041 -1.21678 0
M  V30 238 H 23.1506 -0.662158 0.0494182 0
M  V30 239 H 25.6806 -1.89662 0.767434 0
M  V30 240 H 25.6906 -4.0633 -0.368761 0
M  V30 241 H 24.3656 -4.08455 0.783397 0
M  V30 242 H 22.9426 -3.59735 -0.982079 0
M  V30 243 N 25.1277 -0.289203 -1.54924 0
M  V30 244 C 26.0577 0.58549 -2.2604 0
M  V30 245 C 27.0387 1.14753 -1.25562 0
M  V30 246 O 28.2237 1.17906 -1.54311 0
M  V30 247 C 25.3537 1.76305 -2.99222 0
M  V30 248 C 24.3077 1.33191 -4.06748 0
M  V30 249 C 23.6337 2.5937 -4.6758 0
M  V30 250 C 24.9337 0.471775 -5.20165 0
M  V30 251 H 26.6277 -0.00763532 -2.99399 0
M  V30 252 H 24.1737 -0.00511229 -1.43999 0
M  V30 253 H 26.1267 2.38097 -3.47689 0
M  V30 254 H 24.8507 2.38223 -2.23422 0
M  V30 255 H 23.5097 0.737121 -3.59113 0
M  V30 256 H 23.1577 3.19576 -3.88433 0
M  V30 257 H 22.8577 2.31228 -5.40192 0
M  V30 258 H 24.3817 3.21985 -5.18804 0
M  V30 259 H 25.7957 0.995056 -5.64599 0
M  V30 260 H 24.1927 0.284639 -5.99425 0
M  V30 261 H 25.2627 -0.506041 -4.82252 0
M  V30 262 N 26.6058 1.57591 -0.0167156 0
M  V30 263 C 27.5388 2.04944 1.00366 0
M  V30 264 C 28.5168 0.942648 1.32487 0
M  V30 265 O 29.7008 1.21205 1.44367 0
M  V30 266 C 26.8278 2.46109 2.32697 0
M  V30 267 C 25.8738 3.67686 2.16123 0
M  V30 268 S 26.7068 5.14882 1.47161 0
M  V30 269 C 27.8628 5.59332 2.80888 0
M  V30 270 H 28.0958 2.91172 0.600528 0
M  V30 271 H 25.6288 1.53168 0.194632 0
M  V30 272 H 27.5868 2.70493 3.08778 0
M  V30 273 H 26.2478 1.6025 2.70146 0
M  V30 274 H 25.4408 3.94296 3.13922 0
M  V30 275 H 25.0428 3.43391 1.48185 0
M  V30 276 H 27.3348 5.62814 3.77156 0
M  V30 277 H 28.2778 6.5905 2.58958 0
M  V30 278 H 28.6858 4.86942 2.85565 0
M  V30 279 N 28.0839 -0.256276 1.55502 0
M  V30 280 C 29.0159 -1.33981 1.85962 0
M  V30 281 C 30.0289 -1.44743 0.745212 0
M  V30 282 O 31.2179 -1.4626 1.02324 0
M  V30 283 C 28.3179 -2.7194 2.02242 0
M  V30 284 C 27.4909 -2.83562 3.33033 0
M  V30 285 C 26.5499 -4.02304 3.39172 0
M  V30 286 O 25.5759 -3.92273 4.12444 0
M  V30 287 N 26.7779 -5.15045 2.67784 0
M  V30 288 H 29.5429 -1.08191 2.7949 0
M  V30 289 H 27.1039 -0.446388 1.55624 0
M  V30 290 H 29.0959 -3.49697 2.03701 0
M  V30 291 H 27.6659 -2.90479 1.15502 0
M  V30 292 H 26.8859 -1.92555 3.43971 0
M  V30 293 H 28.1739 -2.88271 4.19258 0
M  V30 294 H 27.5719 -5.26085 2.07968 0
M  V30 295 H 26.1289 -5.90972 2.74947 0
M  V30 296 N 29.562 -1.4872 -0.521534 0
M  V30 297 C 30.492 -1.66771 -1.63431 0
M  V30 298 C 31.473 -0.516499 -1.62069 0
M  V30 299 O 32.658 -0.750013 -1.79132 0
M  V30 300 C 29.788 -1.71515 -3.01993 0
M  V30 301 C 28.742 -2.86222 -3.18216 0
M  V30 302 C 28.068 -2.76061 -4.57924 0
M  V30 303 C 29.368 -4.27419 -3.00184 0
M  V30 304 H 31.062 -2.59932 -1.48579 0
M  V30 305 H 28.608 -1.25089 -0.713358 0
M  V30 306 H 30.561 -1.82731 -3.7972 0
M  V30 307 H 29.285 -0.749393 -3.17886 0
M  V30 308 H 27.944 -2.74575 -2.42908 0
M  V30 309 H 27.592 -1.77437 -4.70665 0
M  V30 310 H 27.292 -3.53037 -4.69722 0
M  V30 311 H 28.816 -2.89256 -5.37739 0
M  V30 312 H 30.23 -4.39855 -3.67697 0
M  V30 313 H 28.627 -5.05458 -3.2347 0
M  V30 314 H 29.697 -4.43293 -1.96518 0
M  V30 315 N 31.0401 0.771051 -1.3745 0
M  V30 316 C 31.9881 1.90574 -1.33358 0
M  V30 317 C 32.9821 1.67936 -0.22224 0
M  V30 318 O 34.1881 1.75717 -0.390304 0
M  V30 319 H 30.5631 0.626714 -0.415612 0
M  V30 320 H 32.5341 1.91142 -2.29144 0
M  V30 321 C 31.2831 3.27845 -1.15813 0
M  V30 322 H 30.6061 3.45842 -2.00583 0
M  V30 323 H 32.0461 4.07538 -1.17 0
M  V30 324 C 30.5051 3.36625 0.136165 0
M  V30 325 O 31.0351 3.85785 1.11949 0
M  V30 326 N 29.2411 2.89997 0.187099 0
M  V30 327 H 28.7881 2.50182 -0.613753 0
M  V30 328 H 28.7461 2.96252 1.05272 0
M  V30 329 N 32.5182 1.22032 0.997298 0
M  V30 330 C 33.7952 0.950823 1.70935 0
M  V30 331 C 34.1752 -0.535292 2.042 0
M  V30 332 O 33.5232 -1.50217 1.72183 0
M  V30 333 C 33.7332 1.84386 2.96315 0
M  V30 334 C 35.0812 2.09732 3.69185 0
M  V30 335 O 36.1052 1.81798 3.06314 0
M  V30 336 O 34.9642 2.57018 4.82291 0
M  V30 337 H 32.0582 0.357204 0.745878 0
M  V30 338 H 34.6042 1.32997 1.05404 0
M  V30 339 H 33.3762 2.84928 2.68201 0
M  V30 340 H 32.9992 1.46602 3.69586 0
M  V30 341 N 33.9963 -1.19345 1.0293 0
M  V30 342 C 35.2733 -1.84811 0.640642 0
M  V30 343 C 35.6533 -1.91855 -0.88062 0
M  V30 344 O 35.0013 -1.43587 -1.7775 0
M  V30 345 C 35.2113 -3.23755 1.30321 0
M  V30 346 C 36.5593 -3.99912 1.42673 0
M  V30 347 O 37.5833 -3.33155 1.26041 0
M  V30 348 O 36.4423 -5.19494 1.6967 0
M  V30 349 H 33.5363 -0.796443 0.222726 0
M  V30 350 H 36.0823 -1.26831 1.12748 0
M  V30 351 H 34.8543 -3.13466 2.34211 0
M  V30 352 H 34.4773 -3.89381 0.804261 0
M  V30 353 N 35.4744 -0.807222 -1.35358 0
M  V30 354 C 36.7024 -0.400377 -2.02989 0
M  V30 355 C 37.1174 0.988859 -1.60832 0
M  V30 356 O 36.4744 1.63729 -0.806175 0
M  V30 357 C 36.5254 -0.474867 -3.58368 0
M  V30 358 O 36.2464 -1.80933 -3.98992 0
M  V30 359 C 37.7474 -0.0609112 -4.43258 0
M  V30 360 H 34.9674 -0.162587 -0.651004 0
M  V30 361 H 37.5114 -1.09102 -1.72965 0
M  V30 362 H 35.6664 0.167534 -3.87038 0
M  V30 363 H 36.0804 -1.77256 -4.9364 0
M  V30 364 H 37.5544 -0.164145 -5.51756 0
M  V30 365 H 38.0314 0.993831 -4.27808 0
M  V30 366 H 38.6374 -0.676492 -4.19885 0
M  V30 367 N 36.9525 1.47285 -0.560781 0
M  V30 368 C 38.3685 1.58065 -0.22081 0
M  V30 369 C 38.5685 1.55892 1.27671 0
M  V30 370 O 37.6245 1.46422 2.0571 0
M  V30 371 C 38.9375 2.88418 -0.850625 0
M  V30 372 C 40.4855 3.02009 -0.822184 0
M  V30 373 C 40.9605 4.35066 -1.43113 0
M  V30 374 N 42.4515 4.41711 -1.39448 0
M  V30 375 C 43.1865 5.43237 -1.83525 0
M  V30 376 N 42.6825 6.51555 -2.35474 0
M  V30 377 N 44.4755 5.34304 -1.74574 0
M  V30 378 H 36.6265 1.46941 -1.53369 0
M  V30 379 H 38.8895 0.699558 -0.639783 0
M  V30 380 H 38.5955 2.95755 -1.9032 0
M  V30 381 H 38.4695 3.75612 -0.345773 0
M  V30 382 H 40.8565 2.94266 0.221714 0
M  V30 383 H 40.9375 2.16347 -1.36483 0
M  V30 384 H 40.5815 4.43565 -2.47412 0
M  V30 385 H 40.5115 5.19465 -0.863899 0
M  V30 386 H 43.0025 3.64027 -1.01452 0
M  V30 387 H 43.3155 7.25203 -2.67021 0
M  V30 388 H 41.6605 6.52435 -2.39487 0
M  V30 389 H 44.8515 4.48581 -1.33763 0
M  V30 390 H 45.0245 6.13288 -2.09242 0
M  V30 391 N 38.4306 0.297415 1.54768 0
M  V30 392 C 39.3606 -0.573494 2.26348 0
M  V30 393 C 40.3416 -1.14085 1.26169 0
M  V30 394 O 41.5266 -1.17086 1.54934 0
M  V30 395 C 38.6566 -1.74716 3.00153 0
M  V30 396 C 37.6106 -1.31032 4.07449 0
M  V30 397 C 36.9366 -2.56887 4.68949 0
M  V30 398 C 38.2366 -0.444183 5.20408 0
M  V30 399 H 39.9306 0.0235131 2.99391 0
M  V30 400 H 37.4766 0.0127488 1.43994 0
M  V30 401 H 39.4296 -2.3625 3.48947 0
M  V30 402 H 38.1536 -2.37035 2.24682 0
M  V30 403 H 36.8126 -0.718066 3.59499 0
M  V30 404 H 36.4606 -3.17512 3.90122 0
M  V30 405 H 36.1606 -2.2836 5.41411 0
M  V30 406 H 37.6846 -3.19229 5.20505 0
M  V30 407 H 39.0986 -0.9651 5.65118 0
M  V30 408 H 37.4956 -0.252846 5.99567 0
M  V30 409 H 38.5656 0.531609 4.81977 0
M  V30 410 N 39.9087 -1.5758 0.0250728 0
M  V30 411 C 41.1387 -1.95646 -0.663783 0
M  V30 412 C 41.5467 -0.899935 -1.66427 0
M  V30 413 O 40.8897 0.127191 -1.83259 0
M  V30 414 C 40.9517 -3.29835 -1.43 0
M  V30 415 C 40.6157 -4.53197 -0.588305 0
M  V30 416 C 41.6127 -5.19726 0.13469 0
M  V30 417 C 39.2977 -4.99529 -0.526897 0
M  V30 418 C 41.2917 -6.30902 0.90781 0
M  V30 419 C 38.9787 -6.10589 0.24993 0
M  V30 420 C 39.9767 -6.76134 0.965994 0
M  V30 421 O 39.6647 -7.85062 1.7301 0
M  V30 422 H 39.3967 -0.649282 -0.188174 0
M  V30 423 H 41.9507 -2.05245 0.0799006 0
M  V30 424 H 40.1807 -3.16716 -2.21873 0
M  V30 425 H 41.8697 -3.52833 -2.00658 0
M  V30 426 H 42.6357 -4.84904 0.0965562 0
M  V30 427 H 38.5147 -4.48319 -1.07381 0
M  V30 428 H 42.0587 -6.81995 1.46724 0
M  V30 429 H 37.9557 -6.44849 0.289795 0
M  V30 430 H 38.7237 -8.01708 1.64944 0
M  V30 431 N 41.3868 0.248026 -1.55636 0
M  V30 432 C 42.6118 0.998028 -1.81808 0
M  V30 433 C 43.0368 1.78207 -0.601979 0
M  V30 434 O 42.3948 1.75653 0.448961 0
M  V30 435 C 42.4428 1.9125 -3.05705 0
M  V30 436 O 41.5468 3.00406 -2.82542 0
M  V30 437 H 40.8878 0.284045 -0.600179 0
M  V30 438 H 43.4178 0.269357 -2.02819 0
M  V30 439 H 43.4278 2.32737 -3.35108 0
M  V30 440 H 42.1028 1.33602 -3.93857 0
M  V30 441 H 40.6798 2.63056 -2.64303 0
M  V30 442 N 42.8649 1.48995 0.513639 0
M  V30 443 C 43.8129 1.65199 1.63744 0
M  V30 444 C 44.8069 0.51809 1.61283 0
M  V30 445 O 46.0129 0.697335 1.65943 0
M  V30 446 H 42.3879 0.52069 0.542574 0
M  V30 447 H 44.3589 2.59552 1.47226 0
M  V30 448 C 43.1079 1.72409 3.01945 0
M  V30 449 H 42.4309 2.59029 3.04539 0
M  V30 450 H 43.8709 1.87785 3.80148 0
M  V30 451 C 42.3299 0.46618 3.33659 0
M  V30 452 O 42.8599 -0.413744 3.99564 0
M  V30 453 N 41.0659 0.332931 2.88687 0
M  V30 454 H 40.6129 1.04996 2.35231 0
M  V30 455 H 40.5709 -0.507665 3.10274 0
M  V30 456 N 44.343 -0.763751 1.37857 0
M  V30 457 C 45.62 -1.51244 1.24035 0
M  V30 458 C 46 -2.10472 -0.162649 0
M  V30 459 O 45.348 -1.96206 -1.17112 0
M  V30 460 C 45.558 -2.58694 2.34261 0
M  V30 461 C 46.906 -3.25878 2.72193 0
M  V30 462 O 47.93 -2.68993 2.33497 0
M  V30 463 O 46.789 -4.2874 3.38887 0
M  V30 464 H 43.883 -0.670243 0.484462 0
M  V30 465 H 46.429 -0.800031 1.49658 0
M  V30 466 H 45.201 -2.13105 3.2818 0
M  V30 467 H 44.824 -3.37527 2.10146 0
M  V30 468 N 45.8211 -1.22559 -0.990812 0
M  V30 469 C 47.0681 -1.05141 -1.73065 0
M  V30 470 C 47.3961 0.413191 -1.9006 0
M  V30 471 O 46.6511 1.32257 -1.44245 0
M  V30 472 C 46.9501 -1.71011 -3.13831 0
M  V30 473 C 46.6161 -3.20911 -3.16745 0
M  V30 474 C 45.2781 -3.61812 -3.17247 0
M  V30 475 C 47.6301 -4.16846 -3.12872 0
M  V30 476 C 44.9581 -4.97127 -3.1158 0
M  V30 477 C 47.3101 -5.5214 -3.08746 0
M  V30 478 C 45.9741 -5.92419 -3.07565 0
M  V30 479 H 45.2441 -0.384738 -0.633291 0
M  V30 480 H 47.8911 -1.5235 -1.16025 0
M  V30 481 H 46.1961 -1.16133 -3.74193 0
M  V30 482 H 47.8931 -1.55023 -3.69823 0
M  V30 483 H 44.4831 -2.88344 -3.17105 0
M  V30 484 H 48.6671 -3.86263 -3.11632 0
M  V30 485 H 43.9231 -5.27562 -3.09012 0
M  V30 486 H 48.0971 -6.26201 -3.04705 0
M  V30 487 H 45.7241 -6.97236 -3.02929 0
M  V30 488 N 47.2992 1.18797 -1.03562 0
M  V30 489 C 48.2472 2.24297 -0.615905 0
M  V30 490 C 49.2412 1.65643 0.354808 0
M  V30 491 O 50.4472 1.78618 0.22265 0
M  V30 492 H 46.8222 0.729909 -0.180934 0
M  V30 493 H 48.7932 2.5701 -1.5162 0
M  V30 494 C 47.5422 3.47698 0.0104735 0
M  V30 495 H 46.8652 3.93125 -0.727509 0
M  V30 496 H 48.3052 4.23159 0.266995 0
M  V30 497 C 46.7642 3.12489 1.25905 0
M  V30 498 O 47.2942 3.25761 2.35038 0
M  V30 499 N 45.5002 2.6686 1.15039 0
M  V30 500 H 45.0472 2.56261 0.262328 0
M  V30 501 H 45.0052 2.43674 1.98672 0
M  V30 502 N 48.7773 0.814389 1.34928 0
M  V30 503 C 50.0023 0.410097 2.03305 0
M  V30 504 C 50.4273 -0.973464 1.60951 0
M  V30 505 O 49.7853 -1.63185 0.789964 0
M  V30 506 C 49.8333 0.51049 3.56968 0
M  V30 507 O 48.9373 -0.473035 4.09678 0
M  V30 508 H 48.2783 0.170088 0.641846 0
M  V30 509 H 50.8083 1.10244 1.72358 0
M  V30 510 H 50.8183 0.383135 4.06197 0
M  V30 511 H 49.4933 1.51963 3.87144 0
M  V30 512 H 48.0703 -0.305272 3.71648 0
M  V30 513 N 50.2554 -1.46986 0.568584 0
M  V30 514 C 51.5034 -2.02041 0.0487022 0
M  V30 515 C 51.8244 -1.44408 -1.31039 0
M  V30 516 O 51.0944 -0.623477 -1.85714 0
M  V30 517 H 49.6744 -0.746849 0.015014 0
M  V30 518 H 52.3364 -1.80257 0.741168 0
M  V30 519 H 51.4324 -3.12085 -0.0308961 0
M  V30 520 N 51.7335 -0.305618 -1.54608 0
M  V30 521 C 52.6435 0.57778 -2.27374 0
M  V30 522 C 53.6595 1.14451 -1.31061 0
M  V30 523 O 54.8355 1.16831 -1.6405 0
M  V30 524 C 51.9005 1.73123 -3.00382 0
M  V30 525 C 50.9615 1.19812 -4.12242 0
M  V30 526 C 50.1945 2.2966 -4.81759 0
M  V30 527 O 50.4175 3.49651 -4.50666 0
M  V30 528 O 49.3515 1.96091 -5.69062 0
M  V30 529 H 53.1775 -0.012624 -3.03697 0
M  V30 530 H 50.7625 -0.0719184 -1.49227 0
M  V30 531 H 52.6445 2.40315 -3.4616 0
M  V30 532 H 51.3195 2.30815 -2.26949 0
M  V30 533 H 50.2265 0.491798 -3.70853 0
M  V30 534 H 51.5595 0.666566 -4.87666 0
M  V30 535 N 53.2116 1.57565 -0.0334293 0
M  V30 536 C 54.1746 2.09393 0.932048 0
M  V30 537 C 55.1746 1.00986 1.25134 0
M  V30 538 O 56.3646 1.27129 1.19096 0
M  V30 539 C 53.4966 2.56338 2.2473 0
M  V30 540 H 54.6896 2.95984 0.483085 0
M  V30 541 H 52.2426 1.54819 0.21468 0
M  V30 542 H 52.9776 1.7309 2.74245 0
M  V30 543 H 52.7626 3.35542 2.02865 0
M  V30 544 H 54.2526 2.96646 2.93923 0
M  V30 545 N 54.6897 -0.239769 1.55765 0
M  V30 546 C 55.6377 -1.31668 1.91745 0
M  V30 547 C 56.6317 -1.49462 0.797338 0
M  V30 548 O 57.8377 -1.50852 0.982021 0
M  V30 549 H 54.2127 -0.441048 0.609082 0
M  V30 550 H 56.1837 -0.985923 2.81642 0
M  V30 551 C 54.9327 -2.66368 2.2348 0
M  V30 552 H 54.2557 -2.53478 3.09175 0
M  V30 553 H 55.6957 -3.40578 2.52553 0
M  V30 554 C 54.1547 -3.20002 1.05359 0
M  V30 555 O 54.6847 -4.00538 0.305261 0
M  V30 556 N 52.8907 -2.78126 0.842292 0
M  V30 557 H 52.4377 -2.12742 1.45253 0
M  V30 558 H 52.3957 -3.14354 0.053652 0
M  V30 559 N 56.1678 -1.49265 -0.50573 0
M  V30 560 C 57.3958 -1.62215 -1.28429 0
M  V30 561 C 57.8108 -0.291697 -1.86533 0
M  V30 562 O 57.1678 0.722233 -1.67601 0
M  V30 563 C 57.2188 -2.68735 -2.41793 0
M  V30 564 O 56.9398 -3.96619 -1.86078 0
M  V30 565 C 58.4408 -2.92346 -3.3324 0
M  V30 566 H 55.6608 -0.546239 -0.389697 0
M  V30 567 H 58.2048 -1.95265 -0.607609 0
M  V30 568 H 56.3598 -2.38476 -3.053 0
M  V30 569 H 56.7738 -4.55256 -2.60465 0
M  V30 570 H 58.2478 -3.70623 -4.09075 0
M  V30 571 H 58.7248 -2.02081 -3.89948 0
M  V30 572 H 59.3308 -3.24003 -2.75503 0
M  V30 573 N 57.6459 0.756429 -1.3826 0
M  V30 574 C 58.8709 1.55077 -1.37717 0
M  V30 575 C 59.2959 1.88073 0.03164 0
M  V30 576 O 58.6539 1.50364 1.01293 0
M  V30 577 C 58.7019 2.8283 -2.23695 0
M  V30 578 O 57.8059 3.77862 -1.6521 0
M  V30 579 H 57.1469 0.469152 -0.469885 0
M  V30 580 H 59.6769 0.935019 -1.81985 0
M  V30 581 H 59.6869 3.31783 -2.37453 0
M  V30 582 H 58.3619 2.58144 -3.2609 0
M  V30 583 H 56.9389 3.36555 -1.60578 0
M  V30 584 N 59.124 1.23083 0.984299 0
M  V30 585 C 60.401 0.9689 1.69917 0
M  V30 586 C 60.781 -0.513604 2.04757 0
M  V30 587 O 60.129 -1.48383 1.73767 0
M  V30 588 C 60.339 1.87518 2.94343 0
M  V30 589 C 61.687 2.13636 3.6694 0
M  V30 590 O 62.711 1.85036 3.04368 0
M  V30 591 O 61.57 2.62119 4.79537 0
M  V30 592 H 58.664 0.365095 0.742048 0
M  V30 593 H 61.21 1.34107 1.03987 0
M  V30 594 H 59.982 2.87756 2.65164 0
M  V30 595 H 59.605 1.50514 3.6801 0
M  V30 596 N 60.6021 -1.18246 1.0419 0
M  V30 597 C 61.5651 -2.20128 0.638452 0
M  V30 598 C 62.5651 -1.57885 -0.304805 0
M  V30 599 O 63.7551 -1.73967 -0.0900369 0
M  V30 600 C 60.8871 -3.4084 -0.0637751 0
M  V30 601 H 62.0801 -2.57336 1.54007 0
M  V30 602 H 59.6331 -1.32152 0.834598 0
M  V30 603 H 60.3681 -3.09166 -0.979136 0
M  V30 604 H 60.1531 -3.8726 0.614198 0
M  V30 605 H 61.6431 -4.16274 -0.332512 0
M  V30 606 N 62.0802 -0.821533 -1.34494 0
M  V30 607 C 63.3272 -0.408946 -1.98328 0
M  V30 608 C 63.6552 1.02764 -1.65136 0
M  V30 609 O 62.9102 1.73026 -0.914349 0
M  V30 610 C 63.2092 -0.556512 -3.53041 0
M  V30 611 C 62.8752 -1.95861 -4.0614 0
M  V30 612 C 61.5372 -2.34217 -4.20352 0
M  V30 613 C 63.8892 -2.87523 -4.34718 0
M  V30 614 C 61.2172 -3.63572 -4.6047 0
M  V30 615 C 63.5692 -4.1634 -4.76281 0
M  V30 616 C 62.2332 -4.54675 -4.88699 0
M  V30 617 H 61.5032 -0.149644 -0.725732 0
M  V30 618 H 64.1502 -1.04521 -1.6046 0
M  V30 619 H 62.4552 0.163148 -3.9146 0
M  V30 620 H 64.1522 -0.217826 -4.00408 0
M  V30 621 H 60.7422 -1.65066 -3.95539 0
M  V30 622 H 64.9262 -2.59133 -4.23277 0
M  V30 623 H 60.1822 -3.93101 -4.68275 0
M  V30 624 H 64.3562 -4.87455 -4.97354 0
M  V30 625 H 61.9832 -5.54959 -5.19542 0
M  V30 626 N 63.5583 1.46682 -0.576371 0
M  V30 627 C 64.5063 2.31953 0.17335 0
M  V30 628 C 65.5003 1.44098 0.89062 0
M  V30 629 O 66.7063 1.60759 0.809728 0
M  V30 630 H 63.0813 0.748273 0.0747727 0
M  V30 631 H 65.0523 2.93007 -0.564738 0
M  V30 632 C 63.8013 3.27142 1.17786 0
M  V30 633 H 63.1243 3.94719 0.635361 0
M  V30 634 H 64.5643 3.896 1.67296 0
M  V30 635 C 63.0233 2.52036 2.23561 0
M  V30 636 O 63.5533 2.27877 3.3081 0
M  V30 637 N 61.7593 2.12709 1.97998 0
M  V30 638 H 61.3063 2.32557 1.10792 0
M  V30 639 H 61.2643 1.62776 2.68982 0
M  V30 640 N 65.0364 0.313813 1.54444 0
M  V30 641 C 66.2824 -0.284918 2.01395 0
M  V30 642 C 66.6374 -1.50537 1.19818 0
M  V30 643 O 65.9304 -1.89692 0.269748 0
M  V30 644 C 66.1244 -0.680386 3.50864 0
M  V30 645 C 65.9534 0.500198 4.4691 0
M  V30 646 C 64.7234 0.996248 4.95382 0
M  V30 647 C 66.9214 1.34928 4.96285 0
M  V30 648 N 64.9034 2.14226 5.75309 0
M  V30 649 C 66.2744 2.3426 5.7404 0
M  V30 650 C 68.3294 1.37818 4.78446 0
M  V30 651 C 67.0324 3.36272 6.35856 0
M  V30 652 C 69.0584 2.38695 5.4109 0
M  V30 653 C 68.4204 3.36755 6.18688 0
M  V30 654 H 64.5194 -0.0683689 0.779006 0
M  V30 655 H 67.1034 0.44664 1.89508 0
M  V30 656 H 65.2744 -1.38109 3.63016 0
M  V30 657 H 67.0064 -1.25975 3.84594 0
M  V30 658 H 63.7614 0.56912 4.70168 0
M  V30 659 H 64.1854 2.72005 6.19953 0
M  V30 660 H 68.8274 0.633747 4.18023 0
M  V30 661 H 66.5454 4.11627 6.95405 0
M  V30 662 H 70.1314 2.41721 5.29209 0
M  V30 663 H 69.0114 4.13535 6.66302 0
M  V30 664 N 66.5145 -1.57545 0.0417849 0
M  V30 665 C 67.7425 -1.96624 -0.643928 0
M  V30 666 C 68.1575 -0.918897 -1.64929 0
M  V30 667 O 67.5145 0.0979323 -1.82237 0
M  V30 668 C 67.5655 -3.35781 -1.33914 0
M  V30 669 O 67.2865 -4.365 -0.374048 0
M  V30 670 C 68.7875 -3.89566 -2.1155 0
M  V30 671 H 66.0075 -0.647316 -0.176702 0
M  V30 672 H 68.5515 -2.04229 0.105304 0
M  V30 673 H 66.7065 -3.29357 -2.03968 0
M  V30 674 H 67.1205 -5.17248 -0.869179 0
M  V30 675 H 68.5945 -4.89242 -2.55628 0
M  V30 676 H 69.0715 -3.24488 -2.9598 0
M  V30 677 H 69.6775 -3.99298 -1.46427 0
M  V30 678 N 67.9926 0.231505 -1.5589 0
M  V30 679 C 69.2386 0.95877 -1.78705 0
M  V30 680 C 69.5716 1.8438 -0.609725 0
M  V30 681 O 68.8466 1.90521 0.391426 0
M  V30 682 C 69.1296 1.8062 -3.11526 0
M  V30 683 C 68.9826 0.948328 -4.39689 0
M  V30 684 C 70.3016 2.78585 -3.40703 0
M  V30 685 H 67.4206 0.347129 -0.650131 0
M  V30 686 H 70.0626 0.228259 -1.88624 0
M  V30 687 H 68.2126 2.42902 -3.03201 0
M  V30 688 H 69.8846 0.343016 -4.60023 0
M  V30 689 H 68.1276 0.253314 -4.3306 0
M  V30 690 H 68.7986 1.57543 -5.29041 0
M  V30 691 H 71.2746 2.26439 -3.49091 0
M  V30 692 H 70.1506 3.34988 -4.34826 0
M  V30 693 H 70.4116 3.55825 -2.62375 0
M  V30 694 N 69.4707 1.49531 0.497807 0
M  V30 695 C 70.7477 1.49682 1.25915 0
M  V30 696 C 71.1277 0.226339 2.09883 0
M  V30 697 O 70.4757 -0.791189 2.14365 0
M  V30 698 C 70.6857 2.77755 2.11313 0
M  V30 699 C 72.0337 3.27371 2.70395 0
M  V30 700 O 73.0577 2.78894 2.21578 0
M  V30 701 O 71.9167 4.11808 3.59272 0
M  V30 702 H 69.0107 0.599228 0.56996 0
M  V30 703 H 71.5567 1.61798 0.511816 0
M  V30 704 H 70.3287 3.61713 1.49264 0
M  V30 705 H 69.9517 2.68515 2.93233 0
M  V30 706 N 70.9488 -0.749086 1.3866 0
M  V30 707 C 72.1738 -1.54344 1.38538 0
M  V30 708 C 72.5988 -1.88088 -0.0216655 0
M  V30 709 O 71.9568 -1.50899 -1.00494 0
M  V30 710 C 72.0048 -2.8164 2.25192 0
M  V30 711 O 71.1088 -3.7698 1.67212 0
M  V30 712 H 70.4498 -0.466654 0.472367 0
M  V30 713 H 72.9798 -0.925355 1.82478 0
M  V30 714 H 72.9898 -3.30519 2.3921 0
M  V30 715 H 71.6648 -2.56411 3.27454 0
M  V30 716 H 70.2418 -3.35699 1.6236 0
M  V30 717 N 72.4269 -1.23603 -0.977757 0
M  V30 718 C 73.3369 -1.03632 -2.1047 0
M  V30 719 C 74.3529 0.0199435 -1.73989 0
M  V30 720 O 75.5289 -0.176076 -2.00629 0
M  V30 721 C 72.5939 -0.63276 -3.40877 0
M  V30 722 C 71.6549 -1.76437 -3.91367 0
M  V30 723 C 70.8879 -1.37997 -5.15551 0
M  V30 724 O 71.1109 -0.265357 -5.69782 0
M  V30 725 O 70.0449 -2.20201 -5.60174 0
M  V30 726 H 73.8709 -1.98086 -2.30208 0
M  V30 727 H 71.4559 -1.02332 -1.08851 0
M  V30 728 H 73.3379 -0.418761 -4.19314 0
M  V30 729 H 72.0129 0.282754 -3.22463 0
M  V30 730 H 70.9199 -2.03304 -3.14036 0
M  V30 731 H 72.2529 -2.6583 -4.14241 0
M  V30 732 N 73.905 1.17692 -1.04816 0
M  V30 733 C 74.853 2.23632 -0.63966 0
M  V30 734 C 75.847 1.6601 0.337219 0
M  V30 735 O 77.053 1.78844 0.203693 0
M  V30 736 H 73.428 0.727949 -0.188665 0
M  V30 737 H 75.399 2.55387 -1.54337 0
M  V30 738 C 74.148 3.4769 -0.0264051 0
M  V30 739 H 73.471 3.92331 -0.769164 0
M  V30 740 H 74.911 4.23418 0.222098 0
M  V30 741 C 73.37 3.13807 1.22584 0
M  V30 742 O 73.9 3.28236 2.31569 0
M  V30 743 N 72.106 2.68065 1.12202 0
M  V30 744 H 71.653 2.56525 0.235133 0
M  V30 745 H 71.611 2.45767 1.96076 0
M  V30 746 N 75.3831 0.828654 1.34056 0
M  V30 747 C 76.7991 0.515135 1.51058 0
M  V30 748 C 76.9991 -0.959581 1.77184 0
M  V30 749 O 76.0551 -1.74382 1.82612 0
M  V30 750 C 77.3681 1.37963 2.67183 0
M  V30 751 C 78.9161 1.37735 2.81066 0
M  V30 752 C 79.3911 2.22645 4.00241 0
M  V30 753 N 80.8821 2.203 4.07458 0
M  V30 754 C 81.6171 2.82744 4.98842 0
M  V30 755 N 81.1131 3.54201 5.9541 0
M  V30 756 N 82.9061 2.72268 4.91759 0
M  V30 757 H 75.0571 1.78343 1.15358 0
M  V30 758 H 77.3201 0.760304 0.566252 0
M  V30 759 H 77.0261 2.42714 2.54525 0
M  V30 760 H 76.9001 1.0484 3.62338 0
M  V30 761 H 79.2871 0.337593 2.93163 0
M  V30 762 H 79.3681 1.74859 1.86703 0
M  V30 763 H 79.0121 3.26674 3.88905 0
M  V30 764 H 78.9421 1.82869 4.93829 0
M  V30 765 H 81.4331 1.68327 3.38341 0
M  V30 766 H 81.7461 3.9908 6.61782 0
M  V30 767 H 80.0911 3.58308 5.95517 0
M  V30 768 H 83.2821 2.16014 4.15278 0
M  V30 769 H 83.4551 3.21219 5.62781 0
M  V30 770 N 76.8612 -1.46375 0.584142 0
M  V30 771 C 78.0892 -2.06761 0.0759296 0
M  V30 772 C 78.5042 -1.43266 -1.22965 0
M  V30 773 O 77.8612 -0.538458 -1.74376 0
M  V30 774 C 77.9122 -3.61375 -0.0950384 0
M  V30 775 O 77.6332 -4.22495 1.15887 0
M  V30 776 C 79.1342 -4.38693 -0.637434 0
M  V30 777 H 76.3542 -0.668479 0.0581075 0
M  V30 778 H 78.8982 -1.8798 0.805218 0
M  V30 779 H 77.0532 -3.79578 -0.774554 0
M  V30 780 H 77.4672 -5.15385 0.973598 0
M  V30 781 H 78.9412 -5.47464 -0.706237 0
M  V30 782 H 79.4182 -4.06836 -1.65472 0
M  V30 783 H 80.0242 -4.25299 0.00725967 0
M  V30 784 N 78.3393 -0.321999 -1.54275 0
M  V30 785 C 79.2873 0.560206 -2.25753 0
M  V30 786 C 80.2813 1.11984 -1.27106 0
M  V30 787 O 81.4873 1.06806 -1.44888 0
M  V30 788 H 77.8623 0.199304 -0.725108 0
M  V30 789 H 79.8333 -0.0649365 -2.98329 0
M  V30 790 C 78.5823 1.71023 -3.02731 0
M  V30 791 H 77.9053 1.28885 -3.78456 0
M  V30 792 H 79.3453 2.30314 -3.55993 0
M  V30 793 C 77.8043 2.62692 -2.10938 0
M  V30 794 O 78.3343 3.64364 -1.6912 0
M  V30 795 N 76.5403 2.30891 -1.76459 0
M  V30 796 H 76.0873 1.48253 -2.10663 0
M  V30 797 H 76.0453 2.92487 -1.1532 0
M  V30 798 N 79.8174 1.5752 -0.0501392 0
M  V30 799 C 80.7474 2.14502 0.922566 0
M  V30 800 C 81.7284 1.06642 1.3252 0
M  V30 801 O 82.9134 1.34577 1.4001 0
M  V30 802 C 80.0434 2.68916 2.19776 0
M  V30 803 C 78.9974 3.8175 1.93523 0
M  V30 804 C 78.3234 4.22677 3.27487 0
M  V30 805 C 79.6234 5.06932 1.25765 0
M  V30 806 H 81.3174 2.9603 0.447952 0
M  V30 807 H 78.8634 1.42401 0.214024 0
M  V30 808 H 80.8164 3.07419 2.88222 0
M  V30 809 H 79.5404 1.84578 2.69441 0
M  V30 810 H 78.1994 3.43718 1.27489 0
M  V30 811 H 77.8474 3.35291 3.74952 0
M  V30 812 H 77.5474 4.98725 3.1072 0
M  V30 813 H 79.0714 4.63779 3.97166 0
M  V30 814 H 80.4854 5.42888 1.84244 0
M  V30 815 H 78.8824 5.88116 1.19328 0
M  V30 816 H 79.9524 4.84337 0.233536 0
M  V30 817 N 81.2955 -0.223234 1.56011 0
M  V30 818 C 82.5205 -0.968978 1.83373 0
M  V30 819 C 82.9455 -1.77227 0.630254 0
M  V30 820 O 82.3035 -1.76345 -0.420959 0
M  V30 821 C 82.3515 -1.86363 3.08709 0
M  V30 822 O 81.4555 -2.95873 2.87285 0
M  V30 823 H 80.7965 -0.274461 0.604622 0
M  V30 824 H 83.3265 -0.237056 2.03222 0
M  V30 825 H 83.3365 -2.27376 3.38768 0
M  V30 826 H 82.0115 -1.27319 3.95933 0
M  V30 827 H 80.5885 -2.58818 2.68454 0
M  V30 828 N 82.7736 -1.49793 -0.48987 0
M  V30 829 C 84.0136 -1.61466 -1.25332 0
M  V30 830 C 84.3776 -0.299688 -1.89647 0
M  V30 831 O 85.5786 -0.291687 -2.67213 0
M  V30 832 C 83.8496 -2.74944 -2.28343 0
M  V30 833 S 85.4086 -3.06637 -3.13878 0
M  V30 834 H 82.2266 -0.569411 -0.425784 0
M  V30 835 H 84.8286 -1.875 -0.553541 0
M  V30 836 H 83.5326 -3.68994 -1.79643 0
M  V30 837 H 83.0636 -2.50938 -3.02975 0
M  V30 838 H 85.0786 -2.49015 -4.29192 0
M  V30 839 N 84.2517 0.741722 -1.39055 0
M  V30 840 C 85.1617 1.88621 -1.39496 0
M  V30 841 C 86.1777 1.71557 -0.290578 0
M  V30 842 O 87.3537 1.94275 -0.530954 0
M  V30 843 C 84.4187 3.24134 -1.23037 0
M  V30 844 C 83.4797 3.5364 -2.43387 0
M  V30 845 C 82.7127 4.82687 -2.27703 0
M  V30 846 O 82.9357 5.55922 -1.27696 0
M  V30 847 O 81.8697 5.1194 -3.16545 0
M  V30 848 H 85.6957 1.91203 -2.35956 0
M  V30 849 H 83.2807 0.888625 -1.20099 0
M  V30 850 H 85.1627 4.0513 -1.15964 0
M  V30 851 H 83.8377 3.22337 -0.296691 0
M  V30 852 H 82.7447 2.72758 -2.56035 0
M  V30 853 H 84.0777 3.60209 -3.35425 0
M  V30 854 N 85.7298 1.2412 0.971189 0
M  V30 855 C 86.9778 1.07668 1.71032 0
M  V30 856 C 87.2988 -0.385797 1.91146 0
M  V30 857 O 86.5688 -1.27569 1.4867 0
M  V30 858 H 85.1488 0.395429 0.633755 0
M  V30 859 H 87.8108 1.55984 1.16855 0
M  V30 860 H 86.9068 1.57195 2.69622 0
M  V30 861 N 87.2079 -1.17134 1.05439 0
M  V30 862 C 88.4479 -1.89137 0.77502 0
M  V30 863 C 88.8119 -1.79345 -0.685526 0
M  V30 864 O 90.0129 -2.46188 -1.0791 0
M  V30 865 C 88.2839 -3.35003 1.2453 0
M  V30 866 S 89.8429 -4.24952 1.09367 0
M  V30 867 H 86.6609 -0.652949 0.281387 0
M  V30 868 H 89.2629 -1.4145 1.34953 0
M  V30 869 H 87.9669 -3.39666 2.30338 0
M  V30 870 H 87.4979 -3.87736 0.665166 0
M  V30 871 H 89.5129 -4.96196 0.0193397 0
M  V30 872 N 88.686 -0.835752 -1.33615 0
M  V30 873 C 89.616 -0.281739 -2.31794 0
M  V30 874 C 90.597 0.608833 -1.58831 0
M  V30 875 O 91.782 0.533035 -1.86741 0
M  V30 876 C 88.912 0.546612 -3.42971 0
M  V30 877 C 87.866 -0.247904 -4.27281 0
M  V30 878 C 87.192 0.704001 -5.30045 0
M  V30 879 C 88.492 -1.46324 -5.01385 0
M  V30 880 H 90.186 -1.10206 -2.78379 0
M  V30 881 H 87.732 -0.531388 -1.33837 0
M  V30 882 H 89.685 0.944467 -4.1068 0
M  V30 883 H 88.409 1.40011 -2.95067 0
M  V30 884 H 87.068 -0.627281 -3.61194 0
M  V30 885 H 86.716 1.55381 -4.78399 0
M  V30 886 H 86.416 0.176524 -5.87335 0
M  V30 887 H 87.94 1.09944 -6.0062 0
M  V30 888 H 89.354 -1.13871 -5.61877 0
M  V30 889 H 87.751 -1.92728 -5.6831 0
M  V30 890 H 88.821 -2.23467 -4.30338 0
M  V30 891 N 90.1641 1.46063 -0.591896 0
M  V30 892 C 91.3891 2.07226 -0.0850314 0
M  V30 893 C 91.8141 1.43625 1.21463 0
M  V30 894 O 91.1721 0.523305 1.73583 0
M  V30 895 C 91.2201 3.60554 0.0576567 0
M  V30 896 O 90.3241 3.97128 1.11188 0
M  V30 897 H 89.6651 0.660615 -0.0669568 0
M  V30 898 H 92.1951 1.8756 -0.81745 0
M  V30 899 H 92.2051 4.07165 0.2609 0
M  V30 900 H 90.8801 4.06235 -0.891416 0
M  V30 901 H 89.4571 3.62213 0.886356 0
M  V30 902 N 91.6422 0.330177 1.54103 0
M  V30 903 C 93.0532 -0.15652 1.86043 0
M  V30 904 C 93.4042 -1.51086 1.2517 0
M  V30 905 O 92.5292 -2.09023 0.560217 0
M  V30 906 C 93.1242 -0.290784 3.3755 0
M  V30 907 C 91.6832 -0.721705 3.69416 0
M  V30 908 C 90.8302 0.152622 2.7688 0
M  V30 909 H 93.7812 0.550237 1.48856 0
M  V30 910 H 93.8022 -1.12058 3.63625 0
M  V30 911 H 93.3142 0.695068 3.81825 0
M  V30 912 H 91.4152 -1.71706 3.30678 0
M  V30 913 H 91.5282 -0.520869 4.7626 0
M  V30 914 H 89.8922 -0.372894 2.51956 0
M  V30 915 H 90.6752 1.13536 3.23982 0
M  V30 916 N 93.1203 -1.57491 0.0584922 0
M  V30 917 C 94.3453 -1.97711 -0.62652 0
M  V30 918 C 94.7703 -0.936132 -1.63151 0
M  V30 919 O 94.1283 0.099811 -1.81025 0
M  V30 920 C 94.1763 -3.36989 -1.28338 0
M  V30 921 O 93.2803 -3.35433 -2.39913 0
M  V30 922 H 92.6213 -0.643868 -0.162266 0
M  V30 923 H 95.1513 -2.04193 0.129064 0
M  V30 924 H 95.1613 -3.73879 -1.63335 0
M  V30 925 H 93.8363 -4.12289 -0.546889 0
M  V30 926 H 92.4133 -3.10298 -2.06809 0
M  V30 927 N 94.5984 0.214957 -1.56127 0
M  V30 928 C 95.8384 0.945364 -1.81224 0
M  V30 929 C 96.2024 1.81265 -0.633005 0
M  V30 930 O 97.4034 2.57731 -0.763423 0
M  V30 931 C 95.6744 1.75665 -3.1125 0
M  V30 932 S 97.2334 2.54179 -3.57685 0
M  V30 933 H 94.0514 0.317443 -0.6362 0
M  V30 934 H 96.6534 0.210381 -1.94365 0
M  V30 935 H 95.3574 1.10977 -3.9511 0
M  V30 936 H 94.8884 2.53381 -3.00934 0
M  V30 937 H 96.9034 3.7792 -3.21545 0
M  V30 938 N 96.0765 1.50051 0.48192 0
M  V30 939 C 97.0065 1.71046 1.58951 0
M  V30 940 C 97.9875 0.559288 1.60642 0
M  V30 941 O 99.1725 0.797243 1.77081 0
M  V30 942 C 96.3025 1.79462 2.97339 0
M  V30 943 C 95.2565 2.94558 3.10515 0
M  V30 944 C 94.5825 2.88105 4.50444 0
M  V30 945 C 95.8825 4.35227 2.88747 0
M  V30 946 H 97.5765 2.6378 1.41635 0
M  V30 947 H 95.1225 1.26936 0.679942 0
M  V30 948 H 97.0755 1.92734 3.74742 0
M  V30 949 H 95.7995 0.833412 3.15788 0
M  V30 950 H 94.4585 2.80918 2.35543 0
M  V30 951 H 94.1065 1.89853 4.65795 0
M  V30 952 H 93.8065 3.65366 4.60197 0
M  V30 953 H 95.3305 3.03412 5.29881 0
M  V30 954 H 96.7445 4.49449 3.55905 0
M  V30 955 H 95.1415 5.13856 3.09955 0
M  V30 956 H 96.2115 4.48347 1.84696 0
M  V30 957 N 97.5546 -0.734337 1.39446 0
M  V30 958 C 98.7796 -1.52866 1.40167 0
M  V30 959 C 99.2046 -1.881 -0.00171513 0
M  V30 960 O 98.5626 -1.51957 -0.988879 0
M  V30 961 C 98.6106 -2.79235 2.28167 0
M  V30 962 O 97.7146 -3.75185 1.71201 0
M  V30 963 H 97.0556 -0.461618 0.477289 0
M  V30 964 H 99.5856 -0.905949 1.8345 0
M  V30 965 H 99.5956 -3.27963 2.42702 0
M  V30 966 H 98.2706 -2.52923 3.30156 0
M  V30 967 H 96.8476 -3.33958 1.65912 0
M  V30 968 N 99.0327 -1.24633 -0.964593 0
M  V30 969 C 99.9627 -1.06611 -2.07741 0
M  V30 970 C 100.944 0.0218666 -1.70086 0
M  V30 971 O 102.129 -0.145793 -1.93652 0
M  V30 972 C 99.2587 -0.673444 -3.40708 0
M  V30 973 C 98.2127 -1.71054 -3.92332 0
M  V30 974 C 97.5387 -1.17285 -5.21678 0
M  V30 975 C 98.8387 -3.10718 -4.19824 0
M  V30 976 H 100.533 -1.99693 -2.23076 0
M  V30 977 H 98.0787 -0.96152 -1.07195 0
M  V30 978 H 100.032 -0.534345 -4.17998 0
M  V30 979 H 98.7557 0.293073 -3.25282 0
M  V30 980 H 97.4147 -1.83791 -3.17201 0
M  V30 981 H 97.0627 -0.196847 -5.02615 0
M  V30 982 H 96.7627 -1.86592 -5.57187 0
M  V30 983 H 98.2867 -1.04593 -6.01575 0
M  V30 984 H 99.7007 -3.01192 -4.87808 0
M  V30 985 H 98.0977 -3.77406 -4.66567 0
M  V30 986 H 99.1677 -3.58524 -3.26479 0
M  V30 987 N 100.511 1.16574 -1.06058 0
M  V30 988 C 101.441 2.23057 -0.690488 0
M  V30 989 C 102.422 1.67141 0.315901 0
M  V30 990 O 103.607 1.93253 0.191556 0
M  V30 991 C 100.737 3.47222 -0.073625 0
M  V30 992 C 99.6908 4.16016 -1.00573 0
M  V30 993 C 99.0168 5.34104 -0.252289 0
M  V30 994 C 100.317 4.67264 -2.33371 0
M  V30 995 H 102.011 2.54271 -1.58072 0
M  V30 996 H 99.5568 1.22218 -0.76149 0
M  V30 997 H 101.51 4.20939 0.19714 0
M  V30 998 H 100.234 3.15302 0.85161 0
M  V30 999 H 98.8928 3.44223 -1.2612 0
M  V30 1000 H 98.5408 4.98437 0.675988 0
M  V30 1001 H 98.2408 5.81072 -0.873455 0
M  V30 1002 H 99.7648 6.10599 0.0109857 0
M  V30 1003 H 101.179 5.32573 -2.12223 0
M  V30 1004 H 99.5758 5.24843 -2.90963 0
M  V30 1005 H 100.646 3.83602 -2.96611 0
M  V30 1006 N 101.989 0.842826 1.3317 0
M  V30 1007 C 102.939 0.250877 2.26616 0
M  V30 1008 C 103.923 -0.596427 1.49437 0
M  V30 1009 O 105.115 -0.447747 1.71243 0
M  V30 1010 C 102.244 -0.569779 3.38539 0
M  V30 1011 C 101.33 0.289254 4.23112 0
M  V30 1012 N 101.721 1.36987 4.86897 0
M  V30 1013 C 100.019 0.0769631 4.45934 0
M  V30 1014 C 100.72 1.89737 5.49886 0
M  V30 1015 N 99.6959 1.19827 5.30229 0
M  V30 1016 H 103.498 1.07718 2.73448 0
M  V30 1017 H 101.012 0.687693 1.47121 0
M  V30 1018 H 103.009 -1.01018 4.04476 0
M  V30 1019 H 101.669 -1.39401 2.93253 0
M  V30 1020 H 102.68 1.75277 4.87338 0
M  V30 1021 H 99.3569 -0.713507 4.11358 0
M  V30 1022 H 100.747 2.80253 6.10662 0
M  V30 1023 N 103.467 -1.45747 0.599634 0
M  V30 1024 C 104.397 -2.33235 -0.111306 0
M  V30 1025 C 105.378 -1.46359 -0.866781 0
M  V30 1026 O 106.563 -1.75146 -0.838904 0
M  V30 1027 C 103.693 -3.28932 -1.11451 0
M  V30 1028 C 102.647 -4.25381 -0.472772 0
M  V30 1029 C 101.973 -5.1071 -1.58365 0
M  V30 1030 C 103.273 -5.18831 0.600948 0
M  V30 1031 H 104.967 -2.92927 0.61919 0
M  V30 1032 H 102.513 -1.40857 0.299215 0
M  V30 1033 H 104.466 -3.89002 -1.62036 0
M  V30 1034 H 103.19 -2.67381 -1.8755 0
M  V30 1035 H 101.849 -3.66598 0.0121472 0
M  V30 1036 H 101.497 -4.45533 -2.33473 0
M  V30 1037 H 101.197 -5.7604 -1.15982 0
M  V30 1038 H 102.721 -5.73647 -2.09194 0
M  V30 1039 H 104.135 -5.73019 0.179491 0
M  V30 1040 H 102.532 -5.92595 0.946076 0
M  V30 1041 H 103.602 -4.6174 1.48068 0
M  V30 1042 N 104.945 -0.338344 -1.53925 0
M  V30 1043 C 105.877 0.555117 -2.22376 0
M  V30 1044 C 106.89 1.06812 -1.22862 0
M  V30 1045 O 108.079 0.979163 -1.49247 0
M  V30 1046 C 105.179 1.77609 -2.88631 0
M  V30 1047 C 104.352 1.39927 -4.14414 0
M  V30 1048 C 103.411 2.47936 -4.64127 0
M  V30 1049 O 102.437 2.11461 -5.28463 0
M  V30 1050 N 103.639 3.79107 -4.39612 0
M  V30 1051 H 106.404 -0.0310778 -2.99684 0
M  V30 1052 H 103.965 -0.162226 -1.61085 0
M  V30 1053 H 105.957 2.49287 -3.18807 0
M  V30 1054 H 104.527 2.26978 -2.14941 0
M  V30 1055 H 103.747 0.513481 -3.90841 0
M  V30 1056 H 105.035 1.12341 -4.96243 0
M  V30 1057 H 104.433 4.11531 -3.88148 0
M  V30 1058 H 102.99 4.4697 -4.74406 0
M  V30 1059 N 106.423 1.57458 -0.0668435 0
M  V30 1060 C 107.333 2.15937 0.916975 0
M  V30 1061 C 108.349 1.12123 1.33058 0
M  V30 1062 O 109.525 1.44366 1.40429 0
M  V30 1063 C 106.59 2.70547 2.16807 0
M  V30 1064 C 105.651 3.89215 1.81135 0
M  V30 1065 C 104.884 4.41211 3.0028 0
M  V30 1066 O 105.107 3.92225 4.14144 0
M  V30 1067 O 104.041 5.32605 2.80384 0
M  V30 1068 H 107.867 3.00354 0.449561 0
M  V30 1069 H 105.452 1.48584 0.155949 0
M  V30 1070 H 107.334 3.0557 2.90181 0
M  V30 1071 H 106.009 1.89192 2.62656 0
M  V30 1072 H 104.916 3.59054 1.05028 0
M  V30 1073 H 106.249 4.71848 1.40073 0
M  V30 1074 N 107.901 -0.206675 1.56239 0
M  V30 1075 C 108.848 -1.25617 1.93621 0
M  V30 1076 C 109.818 -1.45824 0.795274 0
M  V30 1077 O 111.003 -1.59148 1.05245 0
M  V30 1078 C 108.143 -2.59839 2.27107 0
M  V30 1079 C 107.256 -2.47308 3.54207 0
M  V30 1080 C 106.391 -3.74155 3.7707 0
M  V30 1081 C 105.43 -3.56407 4.97635 0
M  V30 1082 N 104.567 -4.75238 5.1681 0
M  V30 1083 H 109.407 -0.930383 2.83104 0
M  V30 1084 H 106.944 -0.448065 1.4011 0
M  V30 1085 H 108.902 -3.38021 2.44535 0
M  V30 1086 H 107.532 -2.90485 1.40778 0
M  V30 1087 H 106.584 -1.60483 3.4489 0
M  V30 1088 H 107.896 -2.30122 4.42544 0
M  V30 1089 H 107.05 -4.60778 3.94675 0
M  V30 1090 H 105.789 -3.94282 2.87042 0
M  V30 1091 H 104.794 -2.68168 4.79964 0
M  V30 1092 H 106.019 -3.37736 5.89161 0
M  V30 1093 H 103.965 -4.95651 4.29728 0
M  V30 1094 H 103.882 -4.60835 5.99306 0
M  V30 1095 H 105.15 -5.63246 5.38864 0
M  V30 1096 N 109.379 -1.50304 -0.473955 0
M  V30 1097 C 110.327 -1.69482 -1.59307 0
M  V30 1098 C 111.321 -0.560669 -1.59853 0
M  V30 1099 O 112.527 -0.741087 -1.64036 0
M  V30 1100 H 108.902 -0.534892 -0.528578 0
M  V30 1101 H 110.873 -2.63364 -1.40293 0
M  V30 1102 C 109.622 -1.80354 -2.97267 0
M  V30 1103 H 108.945 -2.67012 -2.97564 0
M  V30 1104 H 110.385 -1.97798 -3.75036 0
M  V30 1105 C 108.844 -0.55448 -3.32306 0
M  V30 1106 O 109.374 0.307661 -4.0052 0
M  V30 1107 N 107.58 -0.409354 -2.87702 0
M  V30 1108 H 107.127 -1.11196 -2.32364 0
M  V30 1109 H 107.085 0.425223 -3.11511 0
M  V30 1110 N 110.857 0.726932 -1.39834 0
M  V30 1111 C 112.103 1.48771 -1.38704 0
M  V30 1112 C 112.458 1.92394 0.0146387 0
M  V30 1113 O 111.751 1.64474 0.982797 0
M  V30 1114 C 111.945 2.73495 -2.30077 0
M  V30 1115 C 111.774 2.42068 -3.78989 0
M  V30 1116 C 110.544 2.33966 -4.4787 0
M  V30 1117 C 112.742 2.0708 -4.70768 0
M  V30 1118 N 110.724 1.95095 -5.82075 0
M  V30 1119 C 112.095 1.78719 -5.93683 0
M  V30 1120 C 114.15 1.93618 -4.58712 0
M  V30 1121 C 112.853 1.3825 -7.05889 0
M  V30 1122 C 114.879 1.54553 -5.70848 0
M  V30 1123 C 114.241 1.27082 -6.92842 0
M  V30 1124 H 110.34 0.542919 -0.562817 0
M  V30 1125 H 112.924 0.84408 -1.75452 0
M  V30 1126 H 111.095 3.35625 -1.95474 0
M  V30 1127 H 112.827 3.39755 -2.19883 0
M  V30 1128 H 109.582 2.51331 -4.0141 0
M  V30 1129 H 110.006 1.7823 -6.53118 0
M  V30 1130 H 114.648 2.13522 -3.64922 0
M  V30 1131 H 112.366 1.17088 -7.99572 0
M  V30 1132 H 115.952 1.44731 -5.6351 0
M  V30 1133 H 114.832 0.973069 -7.78139 0
M  V30 1134 N 112.336 1.25143 0.95797 0
M  V30 1135 C 113.561 1.12521 1.74223 0
M  V30 1136 C 113.986 -0.317402 1.85403 0
M  V30 1137 O 113.344 -1.2299 1.33204 0
M  V30 1138 C 113.392 1.78062 3.1357 0
M  V30 1139 O 112.496 1.058 3.98598 0
M  V30 1140 H 111.837 0.39304 0.535178 0
M  V30 1141 H 114.367 1.65641 1.201 0
M  V30 1142 H 114.377 1.84213 3.64046 0
M  V30 1143 H 113.052 2.83021 3.04749 0
M  V30 1144 H 111.629 1.07506 3.57067 0
M  V30 1145 N 113.814 -1.1601 1.06675 0
M  V30 1146 C 114.777 -2.18724 0.685001 0
M  V30 1147 C 115.777 -1.58496 -0.271246 0
M  V30 1148 O 116.967 -1.74119 -0.0531156 0
M  V30 1149 C 114.099 -3.40899 0.00853648 0
M  V30 1150 H 115.292 -2.54011 1.59431 0
M  V30 1151 H 112.845 -1.30352 0.862441 0
M  V30 1152 H 113.58 -3.11173 -0.913337 0
M  V30 1153 H 113.365 -3.8587 0.696204 0
M  V30 1154 H 114.855 -4.16886 -0.24414 0
M  V30 1155 N 115.292 -0.849877 -1.32721 0
M  V30 1156 C 116.222 -0.306308 -2.31482 0
M  V30 1157 C 117.203 0.591952 -1.59468 0
M  V30 1158 O 118.388 0.513199 -1.87296 0
M  V30 1159 C 115.518 0.510204 -3.43532 0
M  V30 1160 C 114.472 -0.293209 -4.26994 0
M  V30 1161 C 113.798 0.647743 -5.30762 0
M  V30 1162 C 115.098 -1.51634 -4.99804 0
M  V30 1163 H 116.792 -1.13153 -2.77195 0
M  V30 1164 H 114.338 -0.545553 -1.33266 0
M  V30 1165 H 116.291 0.900856 -4.11658 0
M  V30 1166 H 115.015 1.36874 -2.96535 0
M  V30 1167 H 113.674 -0.665555 -3.60508 0
M  V30 1168 H 113.322 1.50299 -4.8002 0
M  V30 1169 H 113.022 0.11422 -5.87489 0
M  V30 1170 H 114.546 1.03567 -6.01753 0
M  V30 1171 H 115.96 -1.19824 -5.60638 0
M  V30 1172 H 114.357 -1.98745 -5.66234 0
M  V30 1173 H 115.427 -2.28018 -4.27943 0
M  V30 1174 N 116.77 1.45427 -0.607355 0
M  V30 1175 C 117.7 2.3329 0.0989352 0
M  V30 1176 C 118.681 1.46816 0.859007 0
M  V30 1177 O 119.866 1.75588 0.829604 0
M  V30 1178 C 116.996 3.29518 1.09705 0
M  V30 1179 C 115.95 4.25626 0.450206 0
M  V30 1180 C 115.276 5.11542 1.55655 0
M  V30 1181 C 116.576 5.18505 -0.628455 0
M  V30 1182 H 118.27 2.92595 -0.634716 0
M  V30 1183 H 115.816 1.40696 -0.306681 0
M  V30 1184 H 117.769 3.89855 1.59971 0
M  V30 1185 H 116.493 2.68372 1.86129 0
M  V30 1186 H 115.152 3.66586 -0.0315886 0
M  V30 1187 H 114.8 4.46765 2.31107 0
M  V30 1188 H 114.5 5.76647 1.12925 0
M  V30 1189 H 116.024 5.74748 2.06148 0
M  V30 1190 H 117.438 5.72916 -0.209877 0
M  V30 1191 H 115.835 5.92085 -0.977489 0
M  V30 1192 H 116.905 4.60948 -1.50514 0
M  V30 1193 N 118.248 0.346503 1.53744 0
M  V30 1194 C 119.476 -0.25041 2.05379 0
M  V30 1195 C 119.891 -1.43979 1.22129 0
M  V30 1196 O 119.248 -1.80677 0.257321 0
M  V30 1197 C 119.299 -0.662575 3.55376 0
M  V30 1198 O 119.02 0.479515 4.35468 0
M  V30 1199 C 120.521 -1.31989 4.23195 0
M  V30 1200 H 117.741 -0.0478198 0.669294 0
M  V30 1201 H 120.285 0.499346 1.9831 0
M  V30 1202 H 118.44 -1.36227 3.62658 0
M  V30 1203 H 118.854 0.15037 5.24284 0
M  V30 1204 H 120.328 -1.55902 5.29527 0
M  V30 1205 H 120.805 -2.27436 3.75725 0
M  V30 1206 H 121.411 -0.662154 4.20114 0
M  V30 1207 N 119.726 -1.57421 0.075193 0
M  V30 1208 C 120.689 -2.11791 -0.876203 0
M  V30 1209 C 121.689 -1.04268 -1.22412 0
M  V30 1210 O 122.879 -1.30242 -1.15684 0
M  V30 1211 C 120.011 -2.62207 -2.17854 0
M  V30 1212 H 121.204 -2.9716 -0.40444 0
M  V30 1213 H 118.757 -1.55333 -0.173557 0
M  V30 1214 H 119.492 -1.803 -2.6956 0
M  V30 1215 H 119.277 -3.40802 -1.93897 0
M  V30 1216 H 120.767 -3.04335 -2.85955 0
M  V30 1217 N 121.204 0.198386 -1.56346 0
M  V30 1218 C 122.45 0.920648 -1.80698 0
M  V30 1219 C 122.783 1.83045 -0.648697 0
M  V30 1220 O 122.058 1.91308 0.350925 0
M  V30 1221 C 122.341 1.73971 -3.15287 0
M  V30 1222 C 122.194 0.85485 -4.41602 0
M  V30 1223 C 123.513 2.71296 -3.46535 0
M  V30 1224 H 120.632 0.333261 -0.657348 0
M  V30 1225 H 123.274 0.188198 -1.89066 0
M  V30 1226 H 121.424 2.36416 -3.08285 0
M  V30 1227 H 123.096 0.245362 -4.60647 0
M  V30 1228 H 121.339 0.161398 -4.335 0
M  V30 1229 H 122.01 1.46286 -5.32264 0
M  V30 1230 H 124.486 2.18983 -3.53816 0
M  V30 1231 H 123.362 3.2569 -4.41834 0
M  V30 1232 H 123.623 3.5018 -2.69864 0
M  V30 1233 N 122.682 1.50554 0.465978 0
M  V30 1234 C 123.928 1.62038 1.21949 0
M  V30 1235 C 124.261 0.322116 1.9151 0
M  V30 1236 O 123.536 -0.676723 1.82348 0
M  V30 1237 C 123.819 2.80421 2.25912 0
M  V30 1238 C 123.672 4.20144 1.60622 0
M  V30 1239 C 124.991 2.94354 3.27176 0
M  V30 1240 H 122.11 0.589752 0.441998 0
M  V30 1241 H 124.752 1.82956 0.51257 0
M  V30 1242 H 122.902 2.62717 2.86203 0
M  V30 1243 H 124.574 4.49449 1.03889 0
M  V30 1244 H 122.817 4.24165 0.909211 0
M  V30 1245 H 123.488 4.98914 2.36196 0
M  V30 1246 H 125.964 3.10578 2.76913 0
M  V30 1247 H 124.84 3.788 3.97242 0
M  V30 1248 H 125.101 2.05186 3.916 0
M  V30 1249 N 124.16 -0.719506 1.40217 0
M  V30 1250 C 125.409 -1.47486 1.37589 0
M  V30 1251 C 125.722 -1.9559 -0.0201568 0
M  V30 1252 O 126.928 -2.70973 -0.169049 0
M  V30 1253 C 125.384 -2.66575 2.41796 0
M  V30 1254 C 124.992 -2.25358 3.87192 0
M  V30 1255 C 126.736 -3.4433 2.48269 0
M  V30 1256 C 124.643 -3.41262 4.83005 0
M  V30 1257 H 123.573 -0.553901 0.511576 0
M  V30 1258 H 126.224 -0.783427 1.65936 0
M  V30 1259 H 124.606 -3.3787 2.06543 0
M  V30 1260 H 125.78 -1.61509 4.31569 0
M  V30 1261 H 124.095 -1.60657 3.84159 0
M  V30 1262 H 126.692 -4.30569 3.17041 0
M  V30 1263 H 127.035 -3.87872 1.51198 0
M  V30 1264 H 127.568 -2.80076 2.82493 0
M  V30 1265 H 124.307 -3.02755 5.81394 0
M  V30 1266 H 123.827 -4.0404 4.43297 0
M  V30 1267 H 125.506 -4.07383 5.02641 0
M  V30 1268 N 125.638 -1.25649 -0.95132 0
M  V30 1269 C 126.887 -1.09988 -1.69073 0
M  V30 1270 C 127.2 0.358355 -1.92289 0
M  V30 1271 O 128.406 0.635466 -2.63958 0
M  V30 1272 C 126.862 -1.92012 -3.044 0
M  V30 1273 C 126.47 -3.42347 -2.88968 0
M  V30 1274 C 128.214 -1.8493 -3.82101 0
M  V30 1275 C 126.121 -4.16655 -4.19705 0
M  V30 1276 H 125.051 -0.407993 -0.63408 0
M  V30 1277 H 127.702 -1.49873 -1.05879 0
M  V30 1278 H 126.084 -1.44952 -3.68517 0
M  V30 1279 H 127.258 -3.97104 -2.33762 0
M  V30 1280 H 125.573 -3.50557 -2.24719 0
M  V30 1281 H 128.17 -2.37739 -4.78941 0
M  V30 1282 H 128.513 -0.817883 -4.08187 0
M  V30 1283 H 129.046 -2.29758 -3.2474 0
M  V30 1284 H 125.785 -5.20224 -3.98807 0
M  V30 1285 H 125.305 -3.66681 -4.74663 0
M  V30 1286 H 126.984 -4.24551 -4.88227 0
M  V30 1287 N 127.117 1.15442 -1.07289 0
M  V30 1288 C 128.047 2.22312 -0.714107 0
M  V30 1289 C 129.028 1.67467 0.298155 0
M  V30 1290 O 130.213 1.93445 0.171048 0
M  V30 1291 C 127.343 3.47124 -0.110448 0
M  V30 1292 C 126.297 4.14926 -1.04979 0
M  V30 1293 C 125.623 5.33807 -0.308924 0
M  V30 1294 C 126.923 4.64762 -2.38314 0
M  V30 1295 H 128.617 2.5258 -1.6076 0
M  V30 1296 H 126.163 1.21404 -0.77441 0
M  V30 1297 H 128.116 4.21124 0.152482 0
M  V30 1298 H 126.84 3.16187 0.81812 0
M  V30 1299 H 125.499 3.42866 -1.29764 0
M  V30 1300 H 125.147 4.99126 0.623084 0
M  V30 1301 H 124.847 5.80113 -0.935036 0
M  V30 1302 H 126.371 6.10576 -0.0537771 0
M  V30 1303 H 127.785 5.30292 -2.1786 0
M  V30 1304 H 126.182 5.21728 -2.96514 0
M  V30 1305 H 127.252 3.80434 -3.00663 0
M  V30 1306 N 128.595 0.856903 1.32268 0
M  V30 1307 C 129.823 0.475439 2.01363 0
M  V30 1308 C 130.238 -0.928486 1.64392 0
M  V30 1309 O 129.595 -1.60624 0.866387 0
M  V30 1310 C 129.646 0.607545 3.56358 0
M  V30 1311 O 129.367 1.95617 3.92002 0
M  V30 1312 C 130.868 0.225382 4.42727 0
M  V30 1313 H 128.088 0.186636 0.644521 0
M  V30 1314 H 130.632 1.15446 1.68797 0
M  V30 1315 H 128.787 -0.0237719 3.87393 0
M  V30 1316 H 129.201 1.95455 4.86721 0
M  V30 1317 H 130.675 0.368813 5.50767 0
M  V30 1318 H 131.152 -0.834369 4.31202 0
M  V30 1319 H 131.758 0.831864 4.17085 0
M  V30 1320 N 130.073 -1.45103 0.615059 0
M  V30 1321 C 131.322 -2.01396 0.110718 0
M  V30 1322 C 131.635 -1.48834 -1.26916 0
M  V30 1323 O 132.841 -1.97152 -1.86664 0
M  V30 1324 C 131.297 -3.59599 0.14723 0
M  V30 1325 C 130.905 -4.21158 1.52743 0
M  V30 1326 C 132.649 -4.23428 -0.30148 0
M  V30 1327 C 130.556 -5.71535 1.51992 0
M  V30 1328 H 129.486 -0.753061 0.0376241 0
M  V30 1329 H 132.137 -1.66494 0.77149 0
M  V30 1330 H 130.519 -3.91724 -0.580339 0
M  V30 1331 H 131.693 -4.00594 2.2773 0
M  V30 1332 H 130.008 -3.69552 1.91886 0
M  V30 1333 H 132.605 -5.33703 -0.326392 0
M  V30 1334 H 132.948 -3.94629 -1.32565 0
M  V30 1335 H 133.481 -3.96047 0.373065 0
M  V30 1336 H 130.22 -6.05044 2.52193 0
M  V30 1337 H 129.74 -5.94268 0.81274 0
M  V30 1338 H 131.419 -6.34873 1.24681 0
M  V30 1339 N 131.551 -0.354651 -1.53558 0
M  V30 1340 C 132.514 0.484566 -2.24019 0
M  V30 1341 C 133.514 1.01861 -1.24422 0
M  V30 1342 O 134.704 0.906097 -1.4878 0
M  V30 1343 C 131.836 1.67615 -2.96847 0
M  V30 1344 H 133.029 -0.131843 -2.9961 0
M  V30 1345 H 130.582 -0.106165 -1.55939 0
M  V30 1346 H 131.317 2.33095 -2.25471 0
M  V30 1347 H 131.102 1.30029 -3.69912 0
M  V30 1348 H 132.592 2.27114 -3.50441 0
M  V30 1349 N 133.029 1.57378 -0.0835403 0
M  V30 1350 C 134.277 1.93547 0.581718 0
M  V30 1351 C 134.598 0.96524 1.69435 0
M  V30 1352 O 133.868 0.0153369 1.95894 0
M  V30 1353 H 132.448 0.714521 0.217874 0
M  V30 1354 H 135.11 1.94366 -0.144158 0
M  V30 1355 H 134.206 2.95665 0.999423 0
M  V30 1356 N 134.507 -0.190092 1.56449 0
M  V30 1357 C 135.455 -1.25501 1.95837 0
M  V30 1358 C 136.449 -1.4685 0.844485 0
M  V30 1359 O 137.655 -1.47651 1.02952 0
M  V30 1360 H 134.03 -0.421447 0.622805 0
M  V30 1361 H 136.001 -0.895821 2.84636 0
M  V30 1362 C 134.75 -2.59124 2.31841 0
M  V30 1363 H 134.073 -2.43514 3.17082 0
M  V30 1364 H 135.513 -3.32371 2.6326 0
M  V30 1365 C 133.972 -3.16488 1.15486 0
M  V30 1366 O 134.502 -3.99365 0.432535 0
M  V30 1367 N 132.708 -2.75305 0.930349 0
M  V30 1368 H 132.255 -2.08013 1.51948 0
M  V30 1369 H 132.213 -3.14024 0.153634 0
M  V30 1370 N 135.985 -1.50799 -0.457987 0
M  V30 1371 C 137.234 -1.6168 -1.20593 0
M  V30 1372 C 137.547 -0.32888 -1.92815 0
M  V30 1373 O 138.753 -0.316773 -2.69646 0
M  V30 1374 C 137.209 -2.8545 -2.19195 0
M  V30 1375 C 136.817 -4.21168 -1.52715 0
M  V30 1376 C 138.561 -3.05681 -2.94549 0
M  V30 1377 C 136.468 -5.3611 -2.4968 0
M  V30 1378 H 135.398 -0.602134 -0.453818 0
M  V30 1379 H 138.049 -1.77245 -0.475031 0
M  V30 1380 H 136.431 -2.63472 -2.95632 0
M  V30 1381 H 137.605 -4.53449 -0.819775 0
M  V30 1382 H 135.92 -4.06648 -0.895922 0
M  V30 1383 H 138.517 -3.88727 -3.67145 0
M  V30 1384 H 138.86 -2.17929 -3.54701 0
M  V30 1385 H 139.393 -3.27901 -2.25223 0
M  V30 1386 H 136.132 -6.26057 -1.94249 0
M  V30 1387 H 135.652 -5.0823 -3.18532 0
M  V30 1388 H 137.331 -5.6722 -3.11241 0
M  V30 1389 N 137.463 0.71206 -1.40597 0
M  V30 1390 C 138.393 1.83889 -1.43899 0
M  V30 1391 C 139.374 1.67442 -0.299504 0
M  V30 1392 O 140.559 1.87421 -0.508624 0
M  V30 1393 C 137.689 3.21877 -1.30431 0
M  V30 1394 C 136.643 3.53002 -2.42019 0
M  V30 1395 C 135.969 4.90172 -2.13626 0
M  V30 1396 C 137.269 3.53643 -3.84362 0
M  V30 1397 H 138.963 1.81383 -2.38203 0
M  V30 1398 H 136.509 0.871237 -1.14654 0
M  V30 1399 H 138.462 4.00404 -1.31357 0
M  V30 1400 H 137.186 3.24968 -0.326049 0
M  V30 1401 H 135.845 2.76818 -2.40349 0
M  V30 1402 H 135.493 4.89869 -1.14182 0
M  V30 1403 H 135.193 5.11962 -2.88389 0
M  V30 1404 H 136.717 5.71028 -2.1624 0
M  V30 1405 H 138.131 4.22203 -3.87837 0
M  V30 1406 H 136.528 3.86961 -4.58673 0
M  V30 1407 H 137.598 2.52954 -4.13693 0
M  V30 1408 N 138.941 1.26152 0.944643 0
M  V30 1409 C 140.187 1.11657 1.69294 0
M  V30 1410 C 140.52 -0.339926 1.91202 0
M  V30 1411 O 139.795 -1.24994 1.49019 0
M  V30 1412 C 140.078 1.88236 3.06984 0
M  V30 1413 C 139.931 3.41772 2.92424 0
M  V30 1414 C 141.25 1.67343 4.07043 0
M  V30 1415 H 138.369 0.407004 0.614424 0
M  V30 1416 H 141.011 1.55106 1.09737 0
M  V30 1417 H 139.161 1.51308 3.57824 0
M  V30 1418 H 140.833 3.88433 2.48832 0
M  V30 1419 H 139.076 3.68974 2.28124 0
M  V30 1420 H 139.747 3.90579 3.90067 0
M  V30 1421 H 142.223 1.99509 3.65151 0
M  V30 1422 H 141.099 2.23346 5.01406 0
M  V30 1423 H 141.36 0.617158 4.37771 0
M  V30 1424 N 140.419 -1.14872 1.07899 0
M  V30 1425 C 141.668 -1.85135 0.800499 0
M  V30 1426 C 141.981 -1.83547 -0.676014 0
M  V30 1427 O 143.187 -2.49548 -1.06948 0
M  V30 1428 C 141.643 -3.3231 1.38197 0
M  V30 1429 C 141.251 -3.42329 2.8899 0
M  V30 1430 C 142.995 -4.0772 1.18174 0
M  V30 1431 C 140.902 -4.83684 3.403 0
M  V30 1432 H 139.832 -0.693563 0.29578 0
M  V30 1433 H 142.483 -1.29532 1.29976 0
M  V30 1434 H 140.865 -3.87618 0.810431 0
M  V30 1435 H 142.039 -2.97097 3.52236 0
M  V30 1436 H 140.354 -2.80369 3.07867 0
M  V30 1437 H 142.951 -5.12049 1.5398 0
M  V30 1438 H 143.294 -4.16124 0.12117 0
M  V30 1439 H 143.827 -3.58696 1.71994 0
M  V30 1440 H 140.566 -4.80465 4.45907 0
M  V30 1441 H 140.086 -5.29474 2.81811 0
M  V30 1442 H 141.765 -5.52558 3.36584 0
M  V30 1443 N 141.898 -0.863906 -1.31812 0
M  V30 1444 C 142.831 -0.259963 -2.26714 0
M  V30 1445 C 143.809 0.607392 -1.50829 0
M  V30 1446 O 144.993 0.562155 -1.79922 0
M  V30 1447 C 142.12 0.632456 -3.32743 0
M  V30 1448 C 141.166 -0.162743 -4.26189 0
M  V30 1449 S 141.999 -1.53726 -5.12961 0
M  V30 1450 C 143.155 -0.650803 -6.22507 0
M  V30 1451 H 143.388 -1.06445 -2.77591 0
M  V30 1452 H 140.921 -0.662071 -1.39485 0
M  V30 1453 H 142.879 1.14167 -3.94305 0
M  V30 1454 H 141.54 1.41083 -2.80632 0
M  V30 1455 H 140.733 0.517366 -5.01338 0
M  V30 1456 H 140.335 -0.60385 -3.69093 0
M  V30 1457 H 142.627 0.141134 -6.77353 0
M  V30 1458 H 143.57 -1.37322 -6.94657 0
M  V30 1459 H 143.978 -0.221041 -5.64067 0
M  V30 1460 N 143.376 1.44774 -0.622745 0
M  V30 1461 C 144.339 2.29069 0.0774015 0
M  V30 1462 C 145.339 1.4059 0.780461 0
M  V30 1463 O 146.529 1.62551 0.626322 0
M  V30 1464 C 143.661 3.21974 1.12006 0
M  V30 1465 H 144.854 2.92459 -0.663901 0
M  V30 1466 H 142.407 1.51548 -0.382486 0
M  V30 1467 H 143.142 2.63417 1.89162 0
M  V30 1468 H 142.927 3.87168 0.619951 0
M  V30 1469 H 144.417 3.85318 1.60995 0
M  V30 1470 N 144.854 0.36279 1.53368 0
M  V30 1471 C 146.1 -0.228113 2.01513 0
M  V30 1472 C 146.433 -1.48648 1.2497 0
M  V30 1473 O 145.708 -1.91459 0.342616 0
M  V30 1474 C 145.991 -0.522884 3.56284 0
M  V30 1475 C 145.844 0.74892 4.43521 0
M  V30 1476 C 147.163 -1.32461 4.19693 0
M  V30 1477 H 144.282 -0.0814343 0.732487 0
M  V30 1478 H 146.924 0.48713 1.83649 0
M  V30 1479 H 145.074 -1.1322 3.71636 0
M  V30 1480 H 146.746 1.38648 4.39971 0
M  V30 1481 H 144.989 1.36986 4.11603 0
M  V30 1482 H 145.66 0.497667 5.49752 0
M  V30 1483 H 148.136 -0.809203 4.08156 0
M  V30 1484 H 147.012 -1.49961 5.28018 0
M  V30 1485 H 147.273 -2.33232 3.75573 0
M  V30 1486 N 146.332 -1.57332 0.0918853 0
M  V30 1487 C 147.557 -1.98995 -0.584442 0
M  V30 1488 C 147.982 -0.970528 -1.61128 0
M  V30 1489 O 147.34 0.0613904 -1.81196 0
M  V30 1490 C 147.388 -3.39636 -1.21161 0
M  V30 1491 O 146.492 -3.40447 -2.32744 0
M  V30 1492 H 145.833 -0.647165 -0.148572 0
M  V30 1493 H 148.363 -2.03873 0.172347 0
M  V30 1494 H 148.373 -3.7726 -1.55367 0
M  V30 1495 H 147.048 -4.13356 -0.459313 0
M  V30 1496 H 145.625 -3.14614 -2.0018 0
M  V30 1497 N 147.81 0.181792 -1.56548 0
M  V30 1498 C 148.74 1.22765 -1.98623 0
M  V30 1499 C 149.721 1.46747 -0.860189 0
M  V30 1500 O 150.906 1.58259 -1.12551 0
M  V30 1501 C 148.036 2.56894 -2.33715 0
M  V30 1502 C 146.99 2.475 -3.49182 0
M  V30 1503 C 146.316 3.86023 -3.69986 0
M  V30 1504 C 147.616 1.98866 -4.82959 0
M  V30 1505 H 149.31 0.877942 -2.86239 0
M  V30 1506 H 146.856 0.42088 -1.37712 0
M  V30 1507 H 148.809 3.30253 -2.61746 0
M  V30 1508 H 147.533 2.93632 -1.42997 0
M  V30 1509 H 146.192 1.76596 -3.21262 0
M  V30 1510 H 145.84 4.20136 -2.76576 0
M  V30 1511 H 145.54 3.80609 -4.47672 0
M  V30 1512 H 147.064 4.60984 -4.00407 0
M  V30 1513 H 148.478 2.61992 -5.09934 0
M  V30 1514 H 146.875 2.04424 -5.64208 0
M  V30 1515 H 147.945 0.942465 -4.75653 0
M  V30 1516 N 149.288 1.51039 0.449983 0
M  V30 1517 C 150.198 1.74261 1.57067 0
M  V30 1518 C 151.214 0.626363 1.62335 0
M  V30 1519 O 152.39 0.907162 1.79812 0
M  V30 1520 C 149.455 1.85114 2.93144 0
M  V30 1521 C 148.516 3.0893 2.98095 0
M  V30 1522 C 147.749 3.19256 4.27681 0
M  V30 1523 O 147.972 2.35835 5.19363 0
M  V30 1524 O 146.906 4.12144 4.38658 0
M  V30 1525 H 150.732 2.69303 1.40391 0
M  V30 1526 H 148.317 1.35389 0.631688 0
M  V30 1527 H 150.199 1.94311 3.73926 0
M  V30 1528 H 148.874 0.932588 3.09975 0
M  V30 1529 H 147.781 3.0522 2.16314 0
M  V30 1530 H 149.114 4.00433 2.86206 0
M  V30 1531 N 150.766 -0.704594 1.40972 0
M  V30 1532 C 151.713 -1.81862 1.42109 0
M  V30 1533 C 152.683 -1.63781 0.276593 0
M  V30 1534 O 153.868 -1.84759 0.4763 0
M  V30 1535 C 151.008 -3.19669 1.30022 0
M  V30 1536 C 150.121 -3.49246 2.54267 0
M  V30 1537 C 149.256 -4.76618 2.3454 0
M  V30 1538 C 148.295 -4.99133 3.54306 0
M  V30 1539 N 147.432 -6.17726 3.33706 0
M  V30 1540 H 152.272 -1.80226 2.37324 0
M  V30 1541 H 149.809 -0.880238 1.17857 0
M  V30 1542 H 151.767 -3.99263 1.21018 0
M  V30 1543 H 150.397 -3.20506 0.384192 0
M  V30 1544 H 149.449 -2.64125 2.73756 0
M  V30 1545 H 150.761 -3.61788 3.43381 0
M  V30 1546 H 149.915 -5.64249 2.22952 0
M  V30 1547 H 148.654 -4.66305 1.42867 0
M  V30 1548 H 147.659 -4.09953 3.66359 0
M  V30 1549 H 148.884 -5.11311 4.4692 0
M  V30 1550 H 146.83 -6.08642 2.44725 0
M  V30 1551 H 146.747 -6.30995 4.16391 0
M  V30 1552 H 148.015 -7.08115 3.25873 0
M  V30 1553 N 152.244 -1.26651 -0.937939 0
M  V30 1554 C 153.191 -1.0849 -2.03712 0
M  V30 1555 C 154.161 0.011033 -1.66096 0
M  V30 1556 O 155.346 -0.149353 -1.90215 0
M  V30 1557 C 152.486 -0.72735 -3.37348 0
M  V30 1558 C 151.599 -1.89986 -3.87981 0
M  V30 1559 C 150.734 -1.48513 -5.10017 0
M  V30 1560 C 149.773 -2.62575 -5.5292 0
M  V30 1561 N 148.91 -2.21762 -6.66158 0
M  V30 1562 H 153.75 -2.02551 -2.18579 0
M  V30 1563 H 151.287 -1.00844 -1.07093 0
M  V30 1564 H 153.245 -0.50092 -4.14182 0
M  V30 1565 H 151.875 0.176298 -3.22318 0
M  V30 1566 H 150.927 -2.23913 -3.07518 0
M  V30 1567 H 152.239 -2.75586 -4.15757 0
M  V30 1568 H 151.393 -1.21934 -5.94321 0
M  V30 1569 H 150.132 -0.60009 -4.83994 0
M  V30 1570 H 149.137 -2.8988 -4.67172 0
M  V30 1571 H 150.362 -3.51685 -5.80943 0
M  V30 1572 H 148.308 -1.35696 -6.41812 0
M  V30 1573 H 148.225 -3.00903 -6.93537 0
M  V30 1574 H 149.493 -1.98403 -7.53828 0
M  V30 1575 N 153.722 1.14298 -1.08507 0
M  V30 1576 C 154.652 2.21542 -0.737646 0
M  V30 1577 C 155.633 1.67773 0.280377 0
M  V30 1578 O 156.818 1.93616 0.150521 0
M  V30 1579 C 153.948 3.46988 -0.147259 0
M  V30 1580 C 152.902 4.13789 -1.09374 0
M  V30 1581 C 152.228 5.33449 -0.365524 0
M  V30 1582 C 153.528 4.62208 -2.4323 0
M  V30 1583 H 155.222 2.5086 -1.6343 0
M  V30 1584 H 152.768 1.20576 -0.787243 0
M  V30 1585 H 154.721 4.21262 0.107808 0
M  V30 1586 H 153.445 3.17037 0.784538 0
M  V30 1587 H 152.104 3.4147 -1.33393 0
M  V30 1588 H 151.752 4.99759 0.57011 0
M  V30 1589 H 151.452 5.79088 -0.996512 0
M  V30 1590 H 152.976 6.10485 -0.118534 0
M  V30 1591 H 154.39 5.27952 -2.23472 0
M  V30 1592 H 152.787 5.18553 -3.02031 0
M  V30 1593 H 153.857 3.77224 -3.04681 0
M  V30 1594 N 155.201 0.870884 1.31352 0
M  V30 1595 C 156.133 0.28455 2.27427 0
M  V30 1596 C 157.146 -0.552927 1.53123 0
M  V30 1597 O 158.335 -0.374771 1.74521 0
M  V30 1598 C 155.435 -0.615164 3.3327 0
M  V30 1599 C 154.608 0.190079 4.36987 0
M  V30 1600 C 153.667 -0.637917 5.22319 0
M  V30 1601 O 152.693 -0.065626 5.69162 0
M  V30 1602 N 153.895 -1.94973 5.46778 0
M  V30 1603 H 156.66 1.11017 2.7838 0
M  V30 1604 H 154.221 0.732458 1.44384 0
M  V30 1605 H 156.213 -1.1748 3.87273 0
M  V30 1606 H 154.783 -1.34146 2.82354 0
M  V30 1607 H 154.003 0.931165 3.83044 0
M  V30 1608 H 155.291 0.742579 5.03352 0
M  V30 1609 H 154.689 -2.4378 5.10478 0
M  V30 1610 H 153.246 -2.45713 6.03712 0
M  V30 1611 N 156.679 -1.44442 0.630414 0
M  V30 1612 C 157.627 -2.32437 -0.0871428 0
M  V30 1613 C 158.621 -1.47304 -0.836525 0
M  V30 1614 O 159.827 -1.63653 -0.749506 0
M  V30 1615 H 156.202 -0.750533 -0.0469495 0
M  V30 1616 H 158.173 -2.90709 0.673096 0
M  V30 1617 C 156.922 -3.31288 -1.05563 0
M  V30 1618 H 156.245 -3.96805 -0.488426 0
M  V30 1619 H 157.685 -3.9554 -1.52721 0
M  V30 1620 C 156.144 -2.6016 -2.14052 0
M  V30 1621 O 156.674 -2.39997 -3.22124 0
M  V30 1622 N 154.88 -2.19911 -1.89967 0
M  V30 1623 H 154.427 -2.36509 -1.02085 0
M  V30 1624 H 154.385 -1.72646 -2.62756 0
M  V30 1625 N 158.157 -0.370918 -1.53173 0
M  V30 1626 C 159.12 0.460778 -2.24521 0
M  V30 1627 C 160.12 1.00536 -1.25496 0
M  V30 1628 O 161.31 0.890266 -1.49733 0
M  V30 1629 C 158.442 1.64457 -2.98608 0
M  V30 1630 H 159.635 -0.163613 -2.99453 0
M  V30 1631 H 157.188 -0.122699 -1.55818 0
M  V30 1632 H 157.923 2.30691 -2.2793 0
M  V30 1633 H 157.708 1.26099 -3.7127 0
M  V30 1634 H 159.198 2.23384 -3.5283 0
M  V30 1635 N 159.635 1.57281 -0.100228 0
M  V30 1636 C 160.863 1.98879 0.570509 0
M  V30 1637 C 161.278 0.979476 1.61405 0
M  V30 1638 O 160.635 -0.0302288 1.82475 0
M  V30 1639 C 160.686 3.4052 1.2136 0
M  V30 1640 O 160.407 4.37588 0.211786 0
M  V30 1641 C 161.908 3.97149 1.96945 0
M  V30 1642 H 159.128 0.653428 0.152555 0
M  V30 1643 H 161.672 2.03697 -0.18103 0
M  V30 1644 H 159.827 3.367 1.91603 0
M  V30 1645 H 160.241 5.20118 0.676607 0
M  V30 1646 H 161.715 4.98393 2.37294 0
M  V30 1647 H 162.192 3.3525 2.83733 0
M  V30 1648 H 162.798 4.04458 1.31506 0
M  V30 1649 N 161.113 -0.173488 1.56642 0
M  V30 1650 C 162.061 -1.23417 1.97157 0
M  V30 1651 C 163.055 -1.45946 0.860013 0
M  V30 1652 O 164.261 -1.46551 1.04512 0
M  V30 1653 H 160.636 -0.414818 0.62724 0
M  V30 1654 H 162.607 -0.865582 2.8557 0
M  V30 1655 C 161.356 -2.5665 2.34576 0
M  V30 1656 H 160.679 -2.40137 3.19647 0
M  V30 1657 H 162.119 -3.2956 2.6677 0
M  V30 1658 C 160.578 -3.15245 1.18836 0
M  V30 1659 O 161.108 -3.98883 0.474869 0
M  V30 1660 N 159.314 -2.74303 0.959497 0
M  V30 1661 H 158.861 -2.0639 1.54146 0
M  V30 1662 H 158.819 -3.13844 0.186932 0
M  V30 1663 N 162.591 -1.51276 -0.441967 0
M  V30 1664 C 163.821 -1.67273 -1.21257 0
M  V30 1665 C 164.229 -0.367624 -1.85594 0
M  V30 1666 O 163.572 0.663349 -1.71305 0
M  V30 1667 C 163.634 -2.72807 -2.34129 0
M  V30 1668 C 163.298 -4.1554 -1.90198 0
M  V30 1669 C 164.295 -5.00471 -1.40801 0
M  V30 1670 C 161.98 -4.61616 -1.9803 0
M  V30 1671 C 163.974 -6.29536 -0.998174 0
M  V30 1672 C 161.661 -5.90679 -1.56658 0
M  V30 1673 C 162.659 -6.74466 -1.07633 0
M  V30 1674 O 162.347 -8.01116 -0.668459 0
M  V30 1675 H 162.079 -0.564614 -0.371734 0
M  V30 1676 H 164.633 -1.9843 -0.530521 0
M  V30 1677 H 162.863 -2.36954 -3.05597 0
M  V30 1678 H 164.552 -2.77729 -2.96009 0
M  V30 1679 H 165.318 -4.66079 -1.34148 0
M  V30 1680 H 161.197 -3.96526 -2.35135 0
M  V30 1681 H 164.741 -6.94885 -0.61482 0
M  V30 1682 H 160.638 -6.24586 -1.62979 0
M  V30 1683 H 161.406 -8.14633 -0.794722 0
M  V30 1684 N 164.069 0.697108 -1.41344 0
M  V30 1685 C 165.316 1.45714 -1.40619 0
M  V30 1686 C 165.644 1.94494 -0.0147907 0
M  V30 1687 O 164.899 1.69794 0.973066 0
M  V30 1688 C 165.198 2.68553 -2.35826 0
M  V30 1689 C 164.864 2.38438 -3.82698 0
M  V30 1690 C 163.526 2.29936 -4.22709 0
M  V30 1691 C 165.878 2.13567 -4.75435 0
M  V30 1692 C 163.206 1.94656 -5.53467 0
M  V30 1693 C 165.558 1.79797 -6.06511 0
M  V30 1694 C 164.222 1.69789 -6.45545 0
M  V30 1695 H 163.492 0.533206 -0.51456 0
M  V30 1696 H 166.139 0.796901 -1.74131 0
M  V30 1697 H 164.444 3.39503 -1.95563 0
M  V30 1698 H 166.141 3.2669 -2.32539 0
M  V30 1699 H 162.731 2.4595 -3.51008 0
M  V30 1700 H 166.915 2.19082 -4.45328 0
M  V30 1701 H 162.171 1.8546 -5.82593 0
M  V30 1702 H 166.345 1.59572 -6.77872 0
M  V30 1703 H 163.972 1.4222 -7.46778 0
M  V30 1704 N 165.547 1.27147 0.931209 0
M  V30 1705 C 166.477 1.12081 2.04842 0
M  V30 1706 C 167.458 0.0232364 1.70084 0
M  V30 1707 O 168.643 0.197085 1.93197 0
M  V30 1708 C 165.773 0.76354 3.38803 0
M  V30 1709 C 164.727 1.81396 3.87659 0
M  V30 1710 C 164.053 1.31075 5.18385 0
M  V30 1711 C 165.353 3.21739 4.11438 0
M  V30 1712 H 167.047 2.05537 2.17703 0
M  V30 1713 H 164.593 0.989603 1.04608 0
M  V30 1714 H 166.546 0.644982 4.16435 0
M  V30 1715 H 165.27 -0.206727 3.25945 0
M  V30 1716 H 163.929 1.92136 3.12217 0
M  V30 1717 H 163.577 0.330037 5.01916 0
M  V30 1718 H 163.277 2.013 5.52044 0
M  V30 1719 H 164.801 1.20506 5.98591 0
M  V30 1720 H 166.215 3.14019 4.79651 0
M  V30 1721 H 164.612 3.89644 4.56397 0
M  V30 1722 H 165.682 3.67054 3.16859 0
M  V30 1723 N 167.025 -1.13721 1.09112 0
M  V30 1724 C 167.958 -2.18094 0.67158 0
M  V30 1725 C 168.936 -1.59414 -0.320299 0
M  V30 1726 O 170.12 -1.87183 -0.222444 0
M  V30 1727 C 167.247 -3.38698 -0.0111189 0
M  V30 1728 C 166.293 -4.15966 0.942055 0
M  V30 1729 S 167.126 -4.7604 2.45246 0
M  V30 1730 C 168.282 -5.99994 1.78208 0
M  V30 1731 H 168.515 -2.53344 1.55577 0
M  V30 1732 H 166.048 -1.24967 0.906789 0
M  V30 1733 H 168.006 -4.08559 -0.398716 0
M  V30 1734 H 166.667 -3.01756 -0.871905 0
M  V30 1735 H 165.86 -5.02318 0.411396 0
M  V30 1736 H 165.462 -3.51745 1.2709 0
M  V30 1737 H 167.754 -6.68441 1.10424 0
M  V30 1738 H 168.697 -6.57662 2.62463 0
M  V30 1739 H 169.105 -5.50432 1.25238 0
M  V30 1740 N 168.503 -0.877838 -1.30888 0
M  V30 1741 C 169.728 -0.506629 -2.01117 0
M  V30 1742 C 170.153 0.895564 -1.65412 0
M  V30 1743 O 169.511 1.5923 -0.866922 0
M  V30 1744 C 169.559 -0.680223 -3.54126 0
M  V30 1745 O 168.663 0.277033 -4.11468 0
M  V30 1746 H 168.004 -0.200518 -0.633 0
M  V30 1747 H 170.534 -1.18342 -1.66902 0
M  V30 1748 H 170.544 -0.5765 -4.03907 0
M  V30 1749 H 169.219 -1.70261 -3.79452 0
M  V30 1750 H 167.796 0.127606 -3.72682 0
M  V30 1751 N 169.982 1.44106 -0.638065 0
M  V30 1752 C 170.912 2.33448 0.0494287 0
M  V30 1753 C 171.893 1.48606 0.827672 0
M  V30 1754 O 173.078 1.77308 0.792173 0
M  V30 1755 C 170.208 3.31771 1.02691 0
M  V30 1756 C 169.162 4.26485 0.359823 0
M  V30 1757 C 168.488 5.14729 1.44769 0
M  V30 1758 C 169.788 5.17056 -0.738296 0
M  V30 1759 H 171.482 2.91183 -0.696636 0
M  V30 1760 H 169.028 1.40014 -0.336456 0
M  V30 1761 H 170.981 3.93161 1.51666 0
M  V30 1762 H 169.705 2.7226 1.80395 0
M  V30 1763 H 168.364 3.66437 -0.10934 0
M  V30 1764 H 168.012 4.51566 2.21578 0
M  V30 1765 H 167.712 5.78913 1.00668 0
M  V30 1766 H 169.236 5.78991 1.93911 0
M  V30 1767 H 170.65 5.72342 -0.331354 0
M  V30 1768 H 169.047 5.89879 -1.10286 0
M  V30 1769 H 170.117 4.57652 -1.60258 0
M  V30 1770 N 171.46 0.379036 1.52974 0
M  V30 1771 C 172.423 -0.448865 2.24762 0
M  V30 1772 C 173.423 -0.998689 1.26027 0
M  V30 1773 O 174.613 -0.882313 1.50203 0
M  V30 1774 C 171.745 -1.62872 2.99476 0
M  V30 1775 H 172.938 0.179491 2.99362 0
M  V30 1776 H 170.491 0.13096 1.5575 0
M  V30 1777 H 171.226 -2.29479 2.29151 0
M  V30 1778 H 171.011 -1.24128 3.71934 0
M  V30 1779 H 172.501 -2.2151 3.5401 0
M  V30 1780 N 172.938 -1.57226 0.108567 0
M  V30 1781 C 174.187 -1.94008 -0.551703 0
M  V30 1782 C 174.5 -0.993442 -1.68494 0
M  V30 1783 O 175.706 -1.25551 -2.40726 0
M  V30 1784 C 174.162 -3.44763 -1.03279 0
M  V30 1785 C 173.77 -4.47943 0.0714193 0
M  V30 1786 C 175.514 -3.90483 -1.66503 0
M  V30 1787 C 173.421 -5.89865 -0.425779 0
M  V30 1788 H 172.351 -0.724206 -0.209863 0
M  V30 1789 H 175.002 -1.82547 0.186741 0
M  V30 1790 H 173.384 -3.51422 -1.82533 0
M  V30 1791 H 174.558 -4.52942 0.847365 0
M  V30 1792 H 172.873 -4.11913 0.609669 0
M  V30 1793 H 175.47 -4.93925 -2.04798 0
M  V30 1794 H 175.813 -3.29877 -2.53942 0
M  V30 1795 H 176.346 -3.86581 -0.938074 0
M  V30 1796 H 173.085 -6.54202 0.412316 0
M  V30 1797 H 172.605 -5.88309 -1.16843 0
M  V30 1798 H 174.284 -6.40844 -0.890397 0
M  V30 1799 N 174.416 0.165178 -1.56732 0
M  V30 1800 C 175.379 1.18822 -1.95995 0
M  V30 1801 C 176.379 1.3685 -0.84431 0
M  V30 1802 O 177.569 1.34152 -1.11126 0
M  V30 1803 C 174.701 2.5521 -2.26011 0
M  V30 1804 H 175.894 0.851825 -2.87548 0
M  V30 1805 H 173.447 0.407857 -1.50885 0
M  V30 1806 H 174.182 2.93852 -1.37191 0
M  V30 1807 H 173.967 2.43489 -3.07336 0
M  V30 1808 H 175.457 3.28927 -2.57288 0
M  V30 1809 N 175.894 1.51508 0.433938 0
M  V30 1810 C 177.171 1.54888 1.19453 0
M  V30 1811 C 177.551 0.315154 2.08734 0
M  V30 1812 O 176.899 -0.699558 2.17528 0
M  V30 1813 C 177.109 2.86467 1.99342 0
M  V30 1814 C 178.457 3.38545 2.56267 0
M  V30 1815 O 179.481 2.88041 2.0955 0
M  V30 1816 O 178.34 4.26675 3.41483 0
M  V30 1817 H 175.434 0.622863 0.544032 0
M  V30 1818 H 177.98 1.63823 0.442732 0
M  V30 1819 H 176.752 3.67718 1.33788 0
M  V30 1820 H 176.375 2.8071 2.8158 0
M  V30 1821 N 177.372 -0.689602 1.41712 0
M  V30 1822 C 178.305 -1.81403 1.3845 0
M  V30 1823 C 179.283 -1.60653 0.250874 0
M  V30 1824 O 180.467 -1.83323 0.43874 0
M  V30 1825 C 177.594 -3.18176 1.1611 0
M  V30 1826 C 176.64 -3.57705 2.3227 0
M  V30 1827 S 177.473 -3.61827 3.94767 0
M  V30 1828 C 178.629 -5.01318 3.74742 0
M  V30 1829 H 178.862 -1.83893 2.33603 0
M  V30 1830 H 176.395 -0.858878 1.28307 0
M  V30 1831 H 178.353 -3.97132 1.03907 0
M  V30 1832 H 177.014 -3.13288 0.225668 0
M  V30 1833 H 176.207 -4.57082 2.12349 0
M  V30 1834 H 175.809 -2.86073 2.40911 0
M  V30 1835 H 178.101 -5.88986 3.34817 0
M  V30 1836 H 179.044 -5.26283 4.73743 0
M  V30 1837 H 179.452 -4.73138 3.07898 0
M  V30 1838 N 178.85 -1.27639 -0.924453 0
M  V30 1839 C 179.78 -1.13166 -2.04244 0
M  V30 1840 C 180.761 -0.032256 -1.70069 0
M  V30 1841 O 181.946 -0.207328 -1.9309 0
M  V30 1842 C 179.076 -0.781496 -3.38393 0
M  V30 1843 C 178.03 -1.83449 -3.86692 0
M  V30 1844 C 177.356 -1.33822 -5.17683 0
M  V30 1845 C 178.656 -3.23917 -4.09726 0
M  V30 1846 H 180.35 -2.06689 -2.1661 0
M  V30 1847 H 177.896 -0.995136 -1.04082 0
M  V30 1848 H 179.849 -0.667057 -4.16087 0
M  V30 1849 H 178.573 0.189439 -3.2605 0
M  V30 1850 H 177.232 -1.93789 -3.11193 0
M  V30 1851 H 176.88 -0.35665 -5.01734 0
M  V30 1852 H 176.58 -2.04224 -5.50968 0
M  V30 1853 H 178.104 -1.23679 -5.97943 0
M  V30 1854 H 179.518 -3.16559 -4.77978 0
M  V30 1855 H 177.915 -3.92059 -4.54324 0
M  V30 1856 H 178.985 -3.68729 -3.14908 0
M  V30 1857 N 180.328 1.1314 -1.09713 0
M  V30 1858 C 181.258 2.20748 -0.761102 0
M  V30 1859 C 182.239 1.68061 0.262566 0
M  V30 1860 O 183.424 1.93765 0.129977 0
M  V30 1861 C 180.554 3.46812 -0.184054 0
M  V30 1862 C 179.508 4.12606 -1.13757 0
M  V30 1863 C 178.834 5.33031 -0.422083 0
M  V30 1864 C 180.134 4.59603 -2.48118 0
M  V30 1865 H 181.828 2.49113 -1.66082 0
M  V30 1866 H 179.374 1.19734 -0.799987 0
M  V30 1867 H 181.327 4.21353 0.0631215 0
M  V30 1868 H 180.051 3.17851 0.750868 0
M  V30 1869 H 178.71 3.40036 -1.37007 0
M  V30 1870 H 178.358 5.00335 0.517072 0
M  V30 1871 H 178.058 5.77999 -1.05788 0
M  V30 1872 H 179.582 6.10325 -0.183277 0
M  V30 1873 H 180.996 5.25552 -2.29059 0
M  V30 1874 H 179.393 5.15321 -3.07514 0
M  V30 1875 H 180.463 3.73971 -3.08665 0
M  V30 1876 N 181.806 0.884767 1.30421 0
M  V30 1877 C 183.054 0.502112 1.95763 0
M  V30 1878 C 183.375 -0.951815 1.70192 0
M  V30 1879 O 182.645 -1.6692 1.0254 0
M  V30 1880 H 181.225 0.182694 0.724315 0
M  V30 1881 H 183.887 1.1278 1.58955 0
M  V30 1882 H 182.983 0.672188 3.04775 0
M  V30 1883 N 183.284 -1.43765 0.645699 0
M  V30 1884 C 184.531 -2.01898 0.15604 0
M  V30 1885 C 184.859 -1.50887 -1.22733 0
M  V30 1886 O 184.114 -0.689271 -1.8316 0
M  V30 1887 C 184.413 -3.57238 0.107679 0
M  V30 1888 C 184.079 -4.27564 1.43178 0
M  V30 1889 C 182.741 -4.46492 1.7944 0
M  V30 1890 C 185.093 -4.67454 2.30513 0
M  V30 1891 C 182.421 -5.02573 3.02716 0
M  V30 1892 C 184.773 -5.24901 3.53074 0
M  V30 1893 C 183.437 -5.42046 3.89541 0
M  V30 1894 H 182.707 -0.738797 0.057099 0
M  V30 1895 H 185.354 -1.72341 0.834912 0
M  V30 1896 H 183.659 -3.86293 -0.654618 0
M  V30 1897 H 185.356 -3.99965 -0.287938 0
M  V30 1898 H 181.946 -4.13171 1.13963 0
M  V30 1899 H 186.13 -4.5253 2.0379 0
M  V30 1900 H 181.386 -5.14033 3.31028 0
M  V30 1901 H 185.56 -5.54758 4.20971 0
M  V30 1902 H 183.187 -5.85268 4.85145 0
M  V30 1903 N 184.763 -0.387143 -1.52771 0
M  V30 1904 C 185.693 0.440551 -2.29306 0
M  V30 1905 C 186.674 1.06535 -1.32606 0
M  V30 1906 O 187.859 1.07853 -1.61497 0
M  V30 1907 C 184.989 1.56919 -3.09829 0
M  V30 1908 C 183.943 1.07054 -4.14395 0
M  V30 1909 C 183.269 2.29109 -4.83129 0
M  V30 1910 C 184.569 0.140015 -5.22112 0
M  V30 1911 H 186.263 -0.198026 -2.98744 0
M  V30 1912 H 183.809 -0.09668 -1.43675 0
M  V30 1913 H 185.762 2.15503 -3.62128 0
M  V30 1914 H 184.486 2.23532 -2.3812 0
M  V30 1915 H 183.145 0.507247 -3.63074 0
M  V30 1916 H 182.793 2.94227 -4.0797 0
M  V30 1917 H 182.493 1.96406 -5.53804 0
M  V30 1918 H 184.017 2.88339 -5.38231 0
M  V30 1919 H 185.431 0.633978 -5.69784 0
M  V30 1920 H 183.828 -0.0971485 -6.00021 0
M  V30 1921 H 184.898 -0.811711 -4.78058 0
M  V30 1922 N 186.241 1.57166 -0.116904 0
M  V30 1923 C 187.487 1.95412 0.542405 0
M  V30 1924 C 187.82 1.00019 1.66463 0
M  V30 1925 O 187.095 0.0370346 1.94465 0
M  V30 1926 C 187.378 3.43615 1.07708 0
M  V30 1927 C 187.231 4.49781 -0.0415868 0
M  V30 1928 C 188.55 3.93616 1.96861 0
M  V30 1929 H 185.669 0.710543 0.195696 0
M  V30 1930 H 188.311 1.89027 -0.192038 0
M  V30 1931 H 186.461 3.49187 1.70296 0
M  V30 1932 H 188.133 4.56308 -0.676793 0
M  V30 1933 H 186.376 4.28033 -0.705019 0
M  V30 1934 H 187.047 5.50733 0.373717 0
M  V30 1935 H 189.523 3.90335 1.44146 0
M  V30 1936 H 188.399 4.97838 2.3119 0
M  V30 1937 H 188.66 3.34188 2.89432 0
M  V30 1938 N 187.719 -0.156864 1.56817 0
M  V30 1939 C 188.652 -1.22316 1.9265 0
M  V30 1940 C 189.63 -1.42059 0.791076 0
M  V30 1941 O 190.814 -1.56831 1.04576 0
M  V30 1942 C 187.941 -2.58375 2.18998 0
M  V30 1943 C 186.987 -2.55284 3.41661 0
M  V30 1944 S 187.82 -2.02946 4.95553 0
M  V30 1945 C 188.976 -3.40753 5.25013 0
M  V30 1946 H 189.209 -0.917403 2.82791 0
M  V30 1947 H 186.742 -0.362059 1.50095 0
M  V30 1948 H 188.7 -3.36677 2.34859 0
M  V30 1949 H 187.361 -2.86145 1.29538 0
M  V30 1950 H 186.554 -3.55418 3.57343 0
M  V30 1951 H 186.156 -1.85086 3.24991 0
M  V30 1952 H 188.448 -4.36819 5.17876 0
M  V30 1953 H 189.391 -3.29933 6.26538 0
M  V30 1954 H 189.799 -3.37433 4.52548 0
M  V30 1955 N 189.197 -1.51736 -0.425897 0
M  V30 1956 C 190.608 -1.5732 -1.00536 0
M  V30 1957 C 190.959 -0.403537 -1.92005 0
M  V30 1958 O 190.084 0.478256 -2.11049 0
M  V30 1959 C 190.679 -2.85119 -1.8301 0
M  V30 1960 C 189.238 -2.93236 -2.35987 0
M  V30 1961 C 188.385 -2.52098 -1.15508 0
M  V30 1962 H 191.336 -1.57348 -0.206739 0
M  V30 1963 H 191.357 -2.69526 -2.68581 0
M  V30 1964 H 190.869 -3.7023 -1.16411 0
M  V30 1965 H 188.97 -2.12581 -3.06007 0
M  V30 1966 H 189.083 -3.9713 -2.68001 0
M  V30 1967 H 187.447 -2.05558 -1.50393 0
M  V30 1968 H 188.23 -3.39565 -0.505014 0
M  V30 1969 N 190.675 0.682077 -1.42076 0
M  V30 1970 C 191.921 1.44428 -1.42367 0
M  V30 1971 C 192.254 1.94164 -0.0373056 0
M  V30 1972 O 191.529 1.70429 0.937239 0
M  V30 1973 C 191.812 2.64654 -2.44194 0
M  V30 1974 C 191.665 2.20596 -3.91991 0
M  V30 1975 C 192.984 3.66865 -2.431 0
M  V30 1976 H 190.103 0.523834 -0.518428 0
M  V30 1977 H 192.745 0.77576 -1.73442 0
M  V30 1978 H 190.895 3.2169 -2.17826 0
M  V30 1979 H 192.567 1.68783 -4.29313 0
M  V30 1980 H 190.81 1.52242 -4.06208 0
M  V30 1981 H 191.481 3.06921 -4.58807 0
M  V30 1982 H 193.957 3.19531 -2.66532 0
M  V30 1983 H 192.833 4.48577 -3.16339 0
M  V30 1984 H 193.094 4.17493 -1.45437 0
M  V30 1985 N 192.153 1.28127 0.917671 0
M  V30 1986 C 193.378 1.18007 1.70555 0
M  V30 1987 C 193.803 -0.258257 1.86319 0
M  V30 1988 O 193.161 -1.1869 1.37049 0
M  V30 1989 C 193.209 1.87948 3.07746 0
M  V30 1990 O 192.313 1.18427 3.9503 0
M  V30 1991 H 191.654 0.409867 0.522403 0
M  V30 1992 H 194.184 1.69379 1.1477 0
M  V30 1993 H 194.194 1.95701 3.58001 0
M  V30 1994 H 192.869 2.92573 2.95591 0
M  V30 1995 H 191.446 1.18811 3.53466 0
M  V30 1996 N 193.631 -1.12557 1.10312 0
M  V30 1997 C 194.564 -2.1737 0.694674 0
M  V30 1998 C 195.542 -1.59745 -0.303373 0
M  V30 1999 O 196.726 -1.87408 -0.202578 0
M  V30 2000 C 193.853 -3.38691 0.0248052 0
M  V30 2001 C 192.899 -4.14943 0.986121 0
M  V30 2002 S 193.732 -4.73413 2.50281 0
M  V30 2003 C 194.888 -5.9807 1.84562 0
M  V30 2004 H 195.121 -2.5168 1.58255 0
M  V30 2005 H 192.654 -1.23998 0.919992 0
M  V30 2006 H 194.612 -4.08959 -0.355361 0
M  V30 2007 H 193.273 -3.02664 -0.839851 0
M  V30 2008 H 192.466 -5.01854 0.464651 0
M  V30 2009 H 192.068 -3.50377 1.30813 0
M  V30 2010 H 194.36 -6.67232 1.17507 0
M  V30 2011 H 195.303 -6.54841 2.69423 0
M  V30 2012 H 195.711 -5.49073 1.31069 0
M  V30 2013 N 195.109 -0.891671 -1.2995 0
M  V30 2014 C 196.039 -0.379797 -2.30391 0
M  V30 2015 C 197.02 0.540919 -1.6127 0
M  V30 2016 O 198.205 0.453352 -1.88834 0
M  V30 2017 C 195.335 0.400654 -3.44981 0
M  V30 2018 C 194.289 -0.428905 -4.25846 0
M  V30 2019 C 193.615 0.478557 -5.32554 0
M  V30 2020 C 194.915 -1.67458 -4.94727 0
M  V30 2021 H 196.609 -1.21914 -2.73454 0
M  V30 2022 H 194.155 -0.587675 -1.31462 0
M  V30 2023 H 196.108 0.769434 -4.14316 0
M  V30 2024 H 194.832 1.27371 -3.0074 0
M  V30 2025 H 193.491 -0.779911 -3.58208 0
M  V30 2026 H 193.139 1.34951 -4.84559 0
M  V30 2027 H 192.839 -0.0727433 -5.87555 0
M  V30 2028 H 194.363 0.843705 -6.04743 0
M  V30 2029 H 195.777 -1.376 -5.56542 0
M  V30 2030 H 194.174 -2.16659 -5.59624 0
M  V30 2031 H 195.244 -2.41518 -4.20473 0
M  V30 2032 N 196.587 1.43421 -0.653314 0
M  V30 2033 C 197.815 2.06163 -0.174491 0
M  V30 2034 C 198.23 1.48969 1.1599 0
M  V30 2035 O 197.587 0.621042 1.71608 0
M  V30 2036 C 197.638 3.61417 -0.0774865 0
M  V30 2037 O 197.359 4.16485 -1.35912 0
M  V30 2038 C 198.86 4.41235 0.427402 0
M  V30 2039 H 196.08 0.664946 -0.0899353 0
M  V30 2040 H 198.624 1.83924 -0.893988 0
M  V30 2041 H 196.779 3.82841 0.59257 0
M  V30 2042 H 197.193 5.10153 -1.21839 0
M  V30 2043 H 198.667 5.5021 0.44423 0
M  V30 2044 H 199.144 4.14268 1.45873 0
M  V30 2045 H 199.75 4.2478 -0.210167 0
M  V30 2046 N 198.065 0.39524 1.52563 0
M  V30 2047 C 199.314 -0.186321 2.00838 0
M  V30 2048 C 199.627 -1.47402 1.28577 0
M  V30 2049 O 200.833 -2.13599 1.67593 0
M  V30 2050 C 199.289 -0.382595 3.57861 0
M  V30 2051 C 198.897 0.892202 4.39026 0
M  V30 2052 C 200.641 -0.9202 4.14406 0
M  V30 2053 C 198.548 0.66388 5.87662 0
M  V30 2054 H 197.478 -0.0734041 0.750418 0
M  V30 2055 H 200.129 0.518552 1.76021 0
M  V30 2056 H 198.511 -1.14946 3.7895 0
M  V30 2057 H 199.685 1.66414 4.29701 0
M  V30 2058 H 198 1.35519 3.9373 0
M  V30 2059 H 200.597 -1.10683 5.23119 0
M  V30 2060 H 200.94 -1.89096 3.70875 0
M  V30 2061 H 201.473 -0.212751 3.97231 0
M  V30 2062 H 198.212 1.6058 6.35527 0
M  V30 2063 H 197.732 -0.0690193 5.9976 0
M  V30 2064 H 199.411 0.300699 6.46301 0
M  V30 2065 N 199.544 -1.57102 0.125237 0
M  V30 2066 C 200.474 -2.18659 -0.819174 0
M  V30 2067 C 201.455 -1.12843 -1.27281 0
M  V30 2068 O 202.64 -1.41104 -1.33429 0
M  V30 2069 C 199.77 -2.79096 -2.06695 0
M  V30 2070 C 198.724 -3.90548 -1.75088 0
M  V30 2071 C 198.05 -4.37821 -3.06948 0
M  V30 2072 C 199.35 -5.12356 -1.01435 0
M  V30 2073 H 201.044 -2.9783 -0.306202 0
M  V30 2074 H 198.59 -1.4326 -0.145839 0
M  V30 2075 H 200.543 -3.2082 -2.73226 0
M  V30 2076 H 199.267 -1.97223 -2.60328 0
M  V30 2077 H 197.926 -3.49409 -1.10944 0
M  V30 2078 H 197.574 -3.52799 -3.58527 0
M  V30 2079 H 197.274 -5.12982 -2.86571 0
M  V30 2080 H 198.798 -4.822 -3.74587 0
M  V30 2081 H 200.212 -5.5106 -1.58132 0
M  V30 2082 H 198.609 -5.9314 -0.911319 0
M  V30 2083 H 199.679 -4.849 -0.00218681 0
M  V30 2084 N 201.022 0.148545 -1.56898 0
M  V30 2085 C 202.252 0.875118 -1.8715 0
M  V30 2086 C 202.66 1.75322 -0.711262 0
M  V30 2087 O 202.003 1.80745 0.328151 0
M  V30 2088 C 202.065 1.7844 -3.12089 0
M  V30 2089 C 201.729 1.08361 -4.43967 0
M  V30 2090 C 202.726 0.438247 -5.1805 0
M  V30 2091 C 200.411 1.07358 -4.90693 0
M  V30 2092 C 202.405 -0.20779 -6.37061 0
M  V30 2093 C 200.092 0.42373 -6.09629 0
M  V30 2094 C 201.09 -0.215829 -6.82659 0
M  V30 2095 O 200.778 -0.855378 -7.99336 0
M  V30 2096 H 200.51 0.258504 -0.624621 0
M  V30 2097 H 203.064 0.14652 -2.04877 0
M  V30 2098 H 201.294 2.55389 -2.90367 0
M  V30 2099 H 202.983 2.38279 -3.286 0
M  V30 2100 H 203.749 0.437817 -4.8302 0
M  V30 2101 H 199.628 1.5608 -4.33774 0
M  V30 2102 H 203.172 -0.70758 -6.94002 0
M  V30 2103 H 199.069 0.421822 -6.4412 0
M  V30 2104 H 199.837 -0.756892 -8.14993 0
M  V30 2105 N 202.5 1.5196 0.417844 0
M  V30 2106 C 203.748 1.65263 1.16329 0
M  V30 2107 C 204.069 0.380634 1.91249 0
M  V30 2108 O 203.339 -0.604214 1.86349 0
M  V30 2109 H 201.919 0.60912 0.432414 0
M  V30 2110 H 204.581 1.88969 0.477162 0
M  V30 2111 H 203.677 2.4896 1.88217 0
M  V30 2112 N 203.978 -0.674533 1.42435 0
M  V30 2113 C 205.208 -1.46071 1.46105 0
M  V30 2114 C 205.616 -1.89067 0.0709605 0
M  V30 2115 O 204.959 -1.58731 -0.924677 0
M  V30 2116 C 205.021 -2.74145 2.32561 0
M  V30 2117 C 204.685 -2.53224 3.8043 0
M  V30 2118 C 205.682 -2.17809 4.72075 0
M  V30 2119 C 203.367 -2.6821 4.24698 0
M  V30 2120 C 205.361 -1.97648 6.05982 0
M  V30 2121 C 203.048 -2.47665 5.58664 0
M  V30 2122 C 204.046 -2.12437 6.49122 0
M  V30 2123 O 203.734 -1.9209 7.80613 0
M  V30 2124 H 203.466 -0.455959 0.499076 0
M  V30 2125 H 206.02 -0.836193 1.87609 0
M  V30 2126 H 204.25 -3.3908 1.85908 0
M  V30 2127 H 205.939 -3.36028 2.27683 0
M  V30 2128 H 206.705 -2.05826 4.39159 0
M  V30 2129 H 202.584 -2.94609 3.54579 0
M  V30 2130 H 206.128 -1.70075 6.7655 0
M  V30 2131 H 202.025 -2.59244 5.91154 0
M  V30 2132 H 202.793 -2.06686 7.91974 0
M  V30 2133 N 205.456 -1.28612 -0.910864 0
M  V30 2134 C 206.872 -1.06381 -1.18976 0
M  V30 2135 C 207.072 0.191998 -2.00583 0
M  V30 2136 O 206.128 0.892869 -2.36187 0
M  V30 2137 C 207.441 -2.31295 -1.92154 0
M  V30 2138 C 208.989 -2.36503 -2.05025 0
M  V30 2139 C 209.464 -3.61191 -2.81612 0
M  V30 2140 N 210.955 -3.61847 -2.89172 0
M  V30 2141 C 211.69 -4.55004 -3.4894 0
M  V30 2142 N 211.186 -5.58482 -4.09963 0
M  V30 2143 N 212.979 -4.42594 -3.46506 0
M  V30 2144 H 205.13 -2.09221 -0.366094 0
M  V30 2145 H 207.393 -0.921003 -0.224629 0
M  V30 2146 H 207.099 -3.228 -1.39618 0
M  V30 2147 H 206.973 -2.37934 -2.9269 0
M  V30 2148 H 209.36 -1.45494 -2.5674 0
M  V30 2149 H 209.441 -2.33857 -1.03657 0
M  V30 2150 H 209.085 -4.52545 -2.30576 0
M  V30 2151 H 209.015 -3.61092 -3.83302 0
M  V30 2152 H 211.506 -2.87022 -2.45819 0
M  V30 2153 H 211.819 -6.25704 -4.53557 0
M  V30 2154 H 210.164 -5.62305 -4.08459 0
M  V30 2155 H 213.355 -3.60953 -2.98045 0
M  V30 2156 H 213.528 -5.15381 -3.92793 0
M  V30 2157 N 206.934 1.1197 -1.10907 0
M  V30 2158 C 208.18 1.84059 -0.865674 0
M  V30 2159 C 208.535 1.82731 0.602254 0
M  V30 2160 O 207.828 1.26543 1.43866 0
M  V30 2161 C 208.022 3.30749 -1.35425 0
M  V30 2162 C 207.851 3.46363 -2.86815 0
M  V30 2163 C 206.621 3.59712 -3.54874 0
M  V30 2164 C 208.819 3.41116 -3.84895 0
M  V30 2165 N 206.801 3.63741 -4.94536 0
M  V30 2166 C 208.172 3.51698 -5.10596 0
M  V30 2167 C 210.227 3.24612 -3.77533 0
M  V30 2168 C 208.93 3.4748 -6.29802 0
M  V30 2169 C 210.956 3.21708 -4.96244 0
M  V30 2170 C 210.318 3.32856 -6.20795 0
M  V30 2171 H 206.417 0.689015 -0.369841 0
M  V30 2172 H 209.001 1.34016 -1.41237 0
M  V30 2173 H 207.172 3.79322 -0.834814 0
M  V30 2174 H 208.904 3.90718 -1.05458 0
M  V30 2175 H 205.659 3.62038 -3.05329 0
M  V30 2176 H 206.083 3.69408 -5.67333 0
M  V30 2177 H 210.725 3.14883 -2.8215 0
M  V30 2178 H 208.443 3.55978 -7.25469 0
M  V30 2179 H 212.029 3.10113 -4.92261 0
M  V30 2180 H 210.909 3.3059 -7.11112 0
M  V30 2181 N 208.412 0.89855 1.29475 0
M  V30 2182 C 209.823 0.572537 1.77705 0
M  V30 2183 C 210.174 -0.911778 1.73727 0
M  V30 2184 O 209.299 -1.71288 1.32247 0
M  V30 2185 C 209.894 1.03252 3.22683 0
M  V30 2186 C 208.453 0.757687 3.68695 0
M  V30 2187 C 207.6 1.20787 2.49612 0
M  V30 2188 H 210.551 1.08139 1.16153 0
M  V30 2189 H 210.572 0.367307 3.78723 0
M  V30 2190 H 210.084 2.11285 3.25546 0
M  V30 2191 H 208.185 -0.310079 3.71308 0
M  V30 2192 H 208.298 1.35476 4.59547 0
M  V30 2193 H 206.662 0.626888 2.46865 0
M  V30 2194 H 207.445 2.29622 2.55203 0
M  V30 2195 N 209.89 -1.43072 0.660911 0
M  V30 2196 C 210.82 -2.33497 -0.0122829 0
M  V30 2197 C 211.801 -1.49903 -0.803925 0
M  V30 2198 O 212.986 -1.78546 -0.763864 0
M  V30 2199 C 210.116 -3.33363 -0.973994 0
M  V30 2200 C 209.07 -4.27003 -0.291928 0
M  V30 2201 C 208.396 -5.16967 -1.36562 0
M  V30 2202 C 209.696 -5.15816 0.820462 0
M  V30 2203 H 211.39 -2.90038 0.742873 0
M  V30 2204 H 208.936 -1.39461 0.358688 0
M  V30 2205 H 210.889 -3.95524 -1.45392 0
M  V30 2206 H 209.613 -2.75095 -1.7604 0
M  V30 2207 H 208.272 -3.66217 0.167623 0
M  V30 2208 H 207.92 -4.55034 -2.14366 0
M  V30 2209 H 207.62 -5.80441 -0.914454 0
M  V30 2210 H 209.144 -5.82003 -1.84675 0
M  V30 2211 H 210.558 -5.71742 0.422366 0
M  V30 2212 H 208.955 -5.8805 1.19656 0
M  V30 2213 H 210.025 -4.55045 1.67518 0
M  V30 2214 N 211.368 -0.403325 -1.52352 0
M  V30 2215 C 212.779 0.0675782 -1.86578 0
M  V30 2216 C 213.13 1.44941 -1.32236 0
M  V30 2217 O 212.255 2.06112 -0.659307 0
M  V30 2218 C 212.85 0.129404 -3.38553 0
M  V30 2219 C 211.409 0.544629 -3.72439 0
M  V30 2220 C 210.556 -0.284551 -2.75836 0
M  V30 2221 H 213.507 -0.620631 -1.46061 0
M  V30 2222 H 213.528 0.94581 -3.68558 0
M  V30 2223 H 213.04 -0.87645 -3.78074 0
M  V30 2224 H 211.141 1.55734 -3.38493 0
M  V30 2225 H 211.254 0.293046 -4.78203 0
M  V30 2226 H 209.618 0.252258 -2.53448 0
M  V30 2227 H 210.401 -1.28865 -3.18196 0
M  V30 2228 N 212.846 1.57033 -0.133567 0
M  V30 2229 C 214.071 2.00475 0.531477 0
M  V30 2230 C 214.496 1.01291 1.58499 0
M  V30 2231 O 213.854 -0.0133279 1.81295 0
M  V30 2232 C 213.902 3.42729 1.12113 0
M  V30 2233 O 213.006 3.46498 2.23636 0
M  V30 2234 H 212.347 0.650876 0.131362 0
M  V30 2235 H 214.877 2.03344 -0.22634 0
M  V30 2236 H 214.887 3.81246 1.4531 0
M  V30 2237 H 213.562 4.14428 0.349557 0
M  V30 2238 H 212.139 3.19811 1.91769 0
M  V30 2239 N 214.325 -0.140222 1.56975 0
M  V30 2240 C 215.272 -1.17292 1.98774 0
M  V30 2241 C 216.242 -1.4232 0.856408 0
M  V30 2242 O 217.427 -1.54541 1.119 0
M  V30 2243 C 214.567 -2.49973 2.37923 0
M  V30 2244 C 213.68 -2.32062 3.64378 0
M  V30 2245 C 212.815 -3.57825 3.926 0
M  V30 2246 C 211.854 -3.3498 5.12303 0
M  V30 2247 N 210.991 -4.52891 5.36502 0
M  V30 2248 H 215.831 -0.809472 2.86795 0
M  V30 2249 H 213.368 -0.388237 1.41884 0
M  V30 2250 H 215.326 -3.27346 2.58652 0
M  V30 2251 H 213.956 -2.84252 1.52972 0
M  V30 2252 H 213.008 -1.45711 3.51387 0
M  V30 2253 H 214.32 -2.11145 4.51906 0
M  V30 2254 H 213.474 -4.43624 4.13863 0
M  V30 2255 H 212.213 -3.81753 3.03506 0
M  V30 2256 H 211.218 -2.4757 4.90906 0
M  V30 2257 H 212.443 -3.12444 6.02956 0
M  V30 2258 H 210.389 -4.76979 4.50363 0
M  V30 2259 H 210.306 -4.35001 6.18312 0
M  V30 2260 H 211.574 -5.39884 5.62268 0
M  V30 2261 N 215.803 -1.52179 -0.40978 0
M  V30 2262 C 216.733 -1.78435 -1.5061 0
M  V30 2263 C 217.714 -0.635295 -1.57791 0
M  V30 2264 O 218.899 -0.880823 -1.73076 0
M  V30 2265 C 216.029 -1.93444 -2.88439 0
M  V30 2266 C 214.983 -3.09038 -2.96108 0
M  V30 2267 C 214.309 -3.09268 -4.36185 0
M  V30 2268 C 215.609 -4.48508 -2.67652 0
M  V30 2269 H 217.303 -2.70237 -1.28889 0
M  V30 2270 H 214.849 -1.30036 -0.618605 0
M  V30 2271 H 216.802 -2.10394 -3.65119 0
M  V30 2272 H 215.526 -0.983129 -3.11452 0
M  V30 2273 H 214.185 -2.91837 -2.21872 0
M  V30 2274 H 213.833 -2.11861 -4.56206 0
M  V30 2275 H 213.533 -3.86907 -4.42241 0
M  V30 2276 H 215.057 -3.28348 -5.14801 0
M  V30 2277 H 216.471 -4.65918 -3.34056 0
M  V30 2278 H 214.868 -5.28059 -2.85085 0
M  V30 2279 H 215.938 -4.56649 -1.63095 0
M  V30 2280 N 217.281 0.66697 -1.42791 0
M  V30 2281 C 218.521 1.43892 -1.4517 0
M  V30 2282 C 218.885 1.91877 -0.0687551 0
M  V30 2283 O 220.086 2.6878 0.0327455 0
M  V30 2284 C 218.357 2.59839 -2.45395 0
M  V30 2285 S 219.916 3.48572 -2.66539 0
M  V30 2286 H 216.734 0.491356 -0.513897 0
M  V30 2287 H 219.336 0.775656 -1.79454 0
M  V30 2288 H 218.04 2.22838 -3.44632 0
M  V30 2289 H 217.571 3.3103 -2.12562 0
M  V30 2290 H 219.586 4.56094 -1.95429 0
M  V30 2291 N 218.759 1.29093 0.90403 0
M  V30 2292 C 219.722 1.1386 1.98919 0
M  V30 2293 C 220.722 0.0753457 1.60623 0
M  V30 2294 O 221.912 0.321931 1.71199 0
M  V30 2295 C 219.044 0.740198 3.32767 0
M  V30 2296 H 220.237 2.10246 2.13861 0
M  V30 2297 H 217.79 1.12218 1.08797 0
M  V30 2298 H 218.525 -0.223997 3.23525 0
M  V30 2299 H 218.31 1.50838 3.61926 0
M  V30 2300 H 219.8 0.656546 4.12407 0
M  V30 2301 N 220.237 -1.11381 1.11499 0
M  V30 2302 C 221.483 -1.83403 0.865512 0
M  V30 2303 C 221.816 -1.84459 -0.607329 0
M  V30 2304 O 221.091 -1.29811 -1.44842 0
M  V30 2305 C 221.374 -3.30552 1.42855 0
M  V30 2306 C 221.227 -3.37886 2.96906 0
M  V30 2307 C 222.546 -4.26643 1.08 0
M  V30 2308 H 219.665 -0.665879 0.31587 0
M  V30 2309 H 222.307 -1.30601 1.37998 0
M  V30 2310 H 220.457 -3.75648 0.990985 0
M  V30 2311 H 222.129 -3.01343 3.49271 0
M  V30 2312 H 220.372 -2.78088 3.32941 0
M  V30 2313 H 221.043 -4.41458 3.31389 0
M  V30 2314 H 223.519 -3.89729 1.45775 0
M  V30 2315 H 222.395 -5.27986 1.50072 0
M  V30 2316 H 222.656 -4.42099 -0.00915037 0
M  V30 2317 N 221.715 -0.905404 -1.28997 0
M  V30 2318 C 222.961 -0.544465 -1.95977 0
M  V30 2319 C 223.316 0.90041 -1.70031 0
M  V30 2320 O 222.609 1.63064 -1.00601 0
M  V30 2321 C 222.803 -0.779906 -3.48787 0
M  V30 2322 C 222.632 -2.24612 -3.89589 0
M  V30 2323 C 221.402 -2.89464 -4.14172 0
M  V30 2324 C 223.6 -3.22182 -4.00878 0
M  V30 2325 N 221.582 -4.26469 -4.41585 0
M  V30 2326 C 222.953 -4.44323 -4.32409 0
M  V30 2327 C 225.008 -3.17694 -3.83373 0
M  V30 2328 C 223.711 -5.62546 -4.48258 0
M  V30 2329 C 225.737 -4.35208 -4.00435 0
M  V30 2330 C 225.099 -5.56121 -4.3233 0
M  V30 2331 H 221.198 -0.248948 -0.741316 0
M  V30 2332 H 223.782 -1.1674 -1.5582 0
M  V30 2333 H 221.953 -0.186308 -3.87953 0
M  V30 2334 H 223.685 -0.383833 -4.02876 0
M  V30 2335 H 220.44 -2.40232 -4.08149 0
M  V30 2336 H 220.864 -4.97283 -4.5939 0
M  V30 2337 H 225.506 -2.25297 -3.57773 0
M  V30 2338 H 223.224 -6.55429 -4.72692 0
M  V30 2339 H 226.81 -4.33228 -3.88336 0
M  V30 2340 H 225.69 -6.45537 -4.45255 0
M  V30 2341 N 223.193 1.4272 -0.668489 0
M  V30 2342 C 224.442 2.00846 -0.185389 0
M  V30 2343 C 224.755 1.53442 1.21305 0
M  V30 2344 O 225.961 2.03944 1.79218 0
M  V30 2345 C 224.417 3.58805 -0.280591 0
M  V30 2346 C 224.025 4.15198 -1.68268 0
M  V30 2347 C 225.769 4.24255 0.14412 0
M  V30 2348 C 223.676 5.655 -1.73099 0
M  V30 2349 H 222.606 0.751145 -0.0655475 0
M  V30 2350 H 225.257 1.63516 -0.832752 0
M  V30 2351 H 223.639 3.93608 0.434553 0
M  V30 2352 H 224.813 3.91866 -2.42441 0
M  V30 2353 H 223.128 3.62176 -2.05469 0
M  V30 2354 H 225.725 5.34547 0.128086 0
M  V30 2355 H 226.068 3.99277 1.17827 0
M  V30 2356 H 226.601 3.94389 -0.519798 0
M  V30 2357 H 223.34 5.95268 -2.74475 0
M  V30 2358 H 222.86 5.90842 -1.03274 0
M  V30 2359 H 224.539 6.29808 -1.48158 0
M  V30 2360 N 224.671 0.411399 1.52136 0
M  V30 2361 C 225.901 -0.16284 2.05957 0
M  V30 2362 C 226.309 -1.3922 1.28119 0
M  V30 2363 O 225.652 -1.80768 0.326881 0
M  V30 2364 C 225.714 -0.575946 3.54856 0
M  V30 2365 C 225.378 0.542998 4.53763 0
M  V30 2366 C 226.375 1.40726 5.00492 0
M  V30 2367 C 224.06 0.716337 4.97166 0
M  V30 2368 C 226.054 2.4298 5.8927 0
M  V30 2369 C 223.741 1.74218 5.8574 0
M  V30 2370 C 224.739 2.59731 6.31687 0
M  V30 2371 O 224.427 3.60558 7.18507 0
M  V30 2372 H 224.159 -0.0229125 0.675612 0
M  V30 2373 H 226.713 0.581634 1.96993 0
M  V30 2374 H 224.943 -1.37274 3.61515 0
M  V30 2375 H 226.632 -1.07836 3.91313 0
M  V30 2376 H 227.398 1.28476 4.67674 0
M  V30 2377 H 223.277 0.0603857 4.6096 0
M  V30 2378 H 226.821 3.0976 6.25055 0
M  V30 2379 H 222.718 1.86498 6.17971 0
M  V30 2380 H 223.486 3.56829 7.36624 0
M  V30 2381 N 226.149 -1.5696 0.141893 0
M  V30 2382 C 227.079 -2.19516 -0.795936 0
M  V30 2383 C 228.06 -1.14187 -1.26077 0
M  V30 2384 O 229.245 -1.42511 -1.31925 0
M  V30 2385 C 226.375 -2.81272 -2.03723 0
M  V30 2386 C 225.329 -3.92384 -1.70936 0
M  V30 2387 C 224.655 -4.41052 -3.02287 0
M  V30 2388 C 225.955 -5.13403 -0.959954 0
M  V30 2389 H 227.649 -2.98138 -0.274596 0
M  V30 2390 H 225.195 -1.43406 -0.130636 0
M  V30 2391 H 227.148 -3.237 -2.69808 0
M  V30 2392 H 225.872 -1.99973 -2.58221 0
M  V30 2393 H 224.531 -3.50566 -1.07232 0
M  V30 2394 H 224.179 -3.56582 -3.54765 0
M  V30 2395 H 223.879 -5.15993 -2.81114 0
M  V30 2396 H 225.403 -4.86146 -3.69451 0
M  V30 2397 H 226.817 -5.52706 -1.52279 0
M  V30 2398 H 225.214 -5.94073 -0.848357 0
M  V30 2399 H 226.284 -4.84875 0.0492434 0
M  V30 2400 N 227.627 0.131896 -1.57047 0
M  V30 2401 C 228.904 0.871495 -1.75112 0
M  V30 2402 C 229.284 1.9866 -0.713949 0
M  V30 2403 O 228.632 2.26965 0.264447 0
M  V30 2404 C 228.842 1.40007 -3.19686 0
M  V30 2405 C 230.19 1.85752 -3.81813 0
M  V30 2406 O 231.214 1.49715 -3.23209 0
M  V30 2407 O 230.073 2.5226 -4.84796 0
M  V30 2408 H 227.167 0.412919 -0.716538 0
M  V30 2409 H 229.713 0.116641 -1.69299 0
M  V30 2410 H 228.485 0.599404 -3.86682 0
M  V30 2411 H 228.108 2.218 -3.29986 0
M  V30 2412 N 229.106 1.52395 0.401703 0
M  V30 2413 C 230.352 1.67065 1.14966 0
M  V30 2414 C 230.685 0.403052 1.89971 0
M  V30 2415 O 229.96 -0.598774 1.85054 0
M  V30 2416 C 230.243 2.8975 2.13815 0
M  V30 2417 C 230.096 4.26578 1.42658 0
M  V30 2418 C 231.415 3.07965 3.14397 0
M  V30 2419 H 228.534 0.607968 0.416587 0
M  V30 2420 H 231.176 1.84965 0.434511 0
M  V30 2421 H 229.326 2.74619 2.74803 0
M  V30 2422 H 230.998 4.53451 0.847329 0
M  V30 2423 H 229.241 4.27639 0.72849 0
M  V30 2424 H 229.912 5.08483 2.14823 0
M  V30 2425 H 232.388 3.22043 2.63491 0
M  V30 2426 H 231.264 3.95308 3.80819 0
M  V30 2427 H 231.525 2.21611 3.82545 0
M  V30 2428 N 230.584 -0.659388 1.43143 0
M  V30 2429 C 231.514 -1.78422 1.50625 0
M  V30 2430 C 232.495 -1.66216 0.361443 0
M  V30 2431 O 233.68 -1.85404 0.577834 0
M  V30 2432 C 230.81 -3.16815 1.42287 0
M  V30 2433 C 229.764 -3.43777 2.54954 0
M  V30 2434 C 229.09 -4.81905 2.31671 0
M  V30 2435 C 230.39 -3.39134 3.97222 0
M  V30 2436 H 232.084 -1.72417 2.44771 0
M  V30 2437 H 229.63 -0.828084 1.17808 0
M  V30 2438 H 231.583 -3.95253 1.46127 0
M  V30 2439 H 230.307 -3.23534 0.446435 0
M  V30 2440 H 228.966 -2.67707 2.50457 0
M  V30 2441 H 228.614 -4.85294 1.32284 0
M  V30 2442 H 228.314 -5.00906 3.07192 0
M  V30 2443 H 229.838 -5.62609 2.37284 0
M  V30 2444 H 231.252 -4.07518 4.03239 0
M  V30 2445 H 229.649 -3.69671 4.72719 0
M  V30 2446 H 230.719 -2.37426 4.22797 0
M  V30 2447 N 232.062 -1.29571 -0.897171 0
M  V30 2448 C 233.309 -1.17689 -1.6479 0
M  V30 2449 C 233.637 0.27107 -1.92602 0
M  V30 2450 O 232.892 1.21193 -1.53658 0
M  V30 2451 C 233.191 -1.9382 -3.00281 0
M  V30 2452 C 232.857 -3.43522 -2.92068 0
M  V30 2453 C 231.519 -3.84348 -2.89535 0
M  V30 2454 C 233.871 -4.38906 -2.81089 0
M  V30 2455 C 231.199 -5.18869 -2.73846 0
M  V30 2456 C 233.551 -5.73521 -2.66939 0
M  V30 2457 C 232.215 -6.13601 -2.62774 0
M  V30 2458 H 231.485 -0.430654 -0.603008 0
M  V30 2459 H 234.132 -1.60536 -1.04404 0
M  V30 2460 H 232.437 -1.4357 -3.64547 0
M  V30 2461 H 234.134 -1.82028 -3.57305 0
M  V30 2462 H 230.724 -3.11072 -2.94842 0
M  V30 2463 H 234.908 -4.08315 -2.82121 0
M  V30 2464 H 230.164 -5.4903 -2.69027 0
M  V30 2465 H 234.338 -6.47078 -2.57416 0
M  V30 2466 H 231.965 -7.17786 -2.50375 0
M  V30 2467 N 233.54 1.10788 -1.12088 0
M  V30 2468 C 234.765 1.87002 -0.896949 0
M  V30 2469 C 235.19 1.79933 0.548261 0
M  V30 2470 O 234.548 1.16662 1.38779 0
M  V30 2471 C 234.596 3.3349 -1.37174 0
M  V30 2472 O 233.7 4.08745 -0.547831 0
M  V30 2473 H 233.041 0.580397 -0.322545 0
M  V30 2474 H 235.571 1.39996 -1.49206 0
M  V30 2475 H 235.581 3.84339 -1.36922 0
M  V30 2476 H 234.256 3.37951 -2.42408 0
M  V30 2477 H 232.833 3.6776 -0.617034 0
M  V30 2478 N 235.018 0.912232 1.28515 0
M  V30 2479 C 236.246 0.560416 1.99166 0
M  V30 2480 C 236.661 -0.857927 1.68182 0
M  V30 2481 O 236.018 -1.56805 0.933733 0
M  V30 2482 C 236.069 0.758142 3.53461 0
M  V30 2483 O 235.79 2.12067 3.83352 0
M  V30 2484 C 237.291 0.412954 4.41372 0
M  V30 2485 H 234.511 0.213805 0.636026 0
M  V30 2486 H 237.055 1.22502 1.63749 0
M  V30 2487 H 235.21 0.140556 3.87145 0
M  V30 2488 H 235.624 2.15923 4.77993 0
M  V30 2489 H 237.098 0.60208 5.48707 0
M  V30 2490 H 237.575 -0.65073 4.34353 0
M  V30 2491 H 238.181 1.00802 4.13182 0
M  V30 2492 N 236.496 -1.42363 0.676048 0
M  V30 2493 C 237.459 -2.29199 0.00766941 0
M  V30 2494 C 238.459 -1.43389 -0.727745 0
M  V30 2495 O 239.649 -1.64764 -0.56556 0
M  V30 2496 C 236.781 -3.2591 -0.999785 0
M  V30 2497 H 237.974 -2.89794 0.771988 0
M  V30 2498 H 235.527 -1.50024 0.438468 0
M  V30 2499 H 236.262 -2.70256 -1.79255 0
M  V30 2500 H 236.047 -3.89202 -0.475829 0
M  V30 2501 H 237.537 -3.91028 -1.46583 0
M  V30 2502 N 237.974 -0.419461 -1.51915 0
M  V30 2503 C 239.199 0.154572 -2.06823 0
M  V30 2504 C 239.624 1.3722 -1.28656 0
M  V30 2505 O 238.982 1.78461 -0.319583 0
M  V30 2506 C 239.03 0.473172 -3.57482 0
M  V30 2507 O 238.134 1.56255 -3.81652 0
M  V30 2508 H 237.475 0.0096924 -0.663929 0
M  V30 2509 H 240.005 -0.595642 -1.95738 0
M  V30 2510 H 240.015 0.728825 -4.01438 0
M  V30 2511 H 238.69 -0.416873 -4.13805 0
M  V30 2512 H 237.267 1.29825 -3.49571 0
M  V30 2513 N 239.452 1.56882 -0.150215 0
M  V30 2514 C 240.701 1.95403 0.500071 0
M  V30 2515 C 241.014 1.03777 1.658 0
M  V30 2516 O 242.22 1.31889 2.37313 0
M  V30 2517 C 240.676 3.4738 0.941018 0
M  V30 2518 C 240.284 4.47596 -0.190158 0
M  V30 2519 C 242.028 3.9476 1.56091 0
M  V30 2520 C 239.935 5.90787 0.269237 0
M  V30 2521 H 238.865 0.729515 0.190588 0
M  V30 2522 H 241.516 1.81988 -0.235074 0
M  V30 2523 H 239.898 3.56138 1.73152 0
M  V30 2524 H 241.072 4.50536 -0.967157 0
M  V30 2525 H 239.387 4.10151 -0.718666 0
M  V30 2526 H 241.984 4.99181 1.9163 0
M  V30 2527 H 242.327 3.36494 2.45107 0
M  V30 2528 H 242.86 3.88932 0.835249 0
M  V30 2529 H 239.599 6.52879 -0.585621 0
M  V30 2530 H 239.119 5.912 1.01204 0
M  V30 2531 H 240.798 6.42979 0.720176 0
M  V30 2532 N 240.93 -0.123565 1.57115 0
M  V30 2533 C 241.863 -1.18202 1.95201 0
M  V30 2534 C 242.841 -1.40349 0.821031 0
M  V30 2535 O 244.025 -1.54578 1.07879 0
M  V30 2536 C 241.152 -2.53671 2.24429 0
M  V30 2537 C 240.198 -2.4798 3.46999 0
M  V30 2538 S 241.031 -1.92389 4.99747 0
M  V30 2539 C 242.187 -3.2954 5.32123 0
M  V30 2540 H 242.42 -0.857212 2.84674 0
M  V30 2541 H 239.953 -0.33014 1.50829 0
M  V30 2542 H 241.911 -3.3162 2.41947 0
M  V30 2543 H 240.572 -2.83332 1.35579 0
M  V30 2544 H 239.765 -3.47758 3.64801 0
M  V30 2545 H 239.367 -1.7815 3.28844 0
M  V30 2546 H 241.659 -4.25736 5.27025 0
M  V30 2547 H 242.602 -3.16569 6.33395 0
M  V30 2548 H 243.01 -3.27758 4.59603 0
M  V30 2549 N 242.408 -1.52605 -0.393616 0
M  V30 2550 C 243.358 -1.73436 -1.48 0
M  V30 2551 C 244.342 -0.588386 -1.49756 0
M  V30 2552 O 245.534 -0.846047 -1.5547 0
M  V30 2553 C 242.663 -1.90247 -2.85764 0
M  V30 2554 C 241.749 -3.10763 -2.88595 0
M  V30 2555 N 242.14 -4.33196 -2.61103 0
M  V30 2556 C 240.438 -3.10914 -3.19763 0
M  V30 2557 C 241.139 -5.1477 -2.70899 0
M  V30 2558 N 240.115 -4.50356 -3.04435 0
M  V30 2559 H 243.917 -2.65727 -1.25563 0
M  V30 2560 H 241.431 -1.5085 -0.601513 0
M  V30 2561 H 243.428 -2.03291 -3.63976 0
M  V30 2562 H 242.088 -0.991663 -3.09186 0
M  V30 2563 H 243.099 -4.61408 -2.35209 0
M  V30 2564 H 239.776 -2.29626 -3.4868 0
M  V30 2565 H 241.166 -6.22355 -2.53227 0
M  V30 2566 N 243.887 0.651787 -1.4349 0
M  V30 2567 C 244.817 1.77621 -1.51569 0
M  V30 2568 C 245.798 1.66022 -0.370253 0
M  V30 2569 O 246.983 1.85095 -0.587658 0
M  V30 2570 C 244.113 3.16056 -1.43966 0
M  V30 2571 C 243.067 3.4242 -2.56774 0
M  V30 2572 C 242.393 4.8067 -2.34223 0
M  V30 2573 C 243.693 3.37023 -3.99015 0
M  V30 2574 H 245.387 1.71117 -2.45681 0
M  V30 2575 H 242.933 0.821825 -1.18246 0
M  V30 2576 H 244.886 3.94472 -1.48221 0
M  V30 2577 H 243.61 3.23293 -0.463586 0
M  V30 2578 H 242.269 2.66375 -2.51873 0
M  V30 2579 H 241.917 4.84585 -1.34856 0
M  V30 2580 H 241.617 4.9927 -3.09844 0
M  V30 2581 H 243.141 5.61342 -2.40265 0
M  V30 2582 H 244.555 4.05374 -4.05395 0
M  V30 2583 H 242.952 3.67159 -4.74673 0
M  V30 2584 H 244.022 2.3518 -4.2405 0
M  V30 2585 N 245.365 1.30045 0.890287 0
M  V30 2586 C 246.605 1.19839 1.65584 0
M  V30 2587 C 246.969 -0.244175 1.90441 0
M  V30 2588 O 248.17 -0.469378 2.6467 0
M  V30 2589 C 246.441 1.99876 2.96284 0
M  V30 2590 S 248 2.06309 3.87275 0
M  V30 2591 H 244.818 0.427157 0.568382 0
M  V30 2592 H 247.42 1.64453 1.05715 0
M  V30 2593 H 246.124 3.03809 2.75913 0
M  V30 2594 H 245.655 1.55903 3.61189 0
M  V30 2595 H 247.67 1.18661 4.81803 0
M  V30 2596 N 246.843 -1.10192 1.12674 0
M  V30 2597 C 247.806 -2.14786 0.799979 0
M  V30 2598 C 248.806 -1.59711 -0.18685 0
M  V30 2599 O 249.996 -1.74156 0.0392558 0
M  V30 2600 C 247.128 -3.40374 0.189228 0
M  V30 2601 H 248.321 -2.45203 1.72671 0
M  V30 2602 H 245.874 -1.25597 0.930326 0
M  V30 2603 H 246.609 -3.15577 -0.747107 0
M  V30 2604 H 246.394 -3.81637 0.899766 0
M  V30 2605 H 247.884 -4.17594 -0.0228143 0
M  V30 2606 N 248.321 -0.919034 -1.28029 0
M  V30 2607 C 249.57 -0.550802 -1.94034 0
M  V30 2608 C 249.883 0.910877 -1.73096 0
M  V30 2609 O 251.089 1.3875 -2.33368 0
M  V30 2610 C 249.545 -0.934249 -3.47563 0
M  V30 2611 C 249.153 -2.41602 -3.7727 0
M  V30 2612 C 250.897 -0.636854 -4.19696 0
M  V30 2613 C 248.804 -2.73932 -5.24133 0
M  V30 2614 H 247.734 -0.202273 -0.726362 0
M  V30 2615 H 250.385 -1.11867 -1.45458 0
M  V30 2616 H 248.767 -0.295115 -3.94899 0
M  V30 2617 H 249.941 -3.10233 -3.40723 0
M  V30 2618 H 248.256 -2.68441 -3.18321 0
M  V30 2619 H 250.853 -0.855005 -5.2782 0
M  V30 2620 H 251.196 0.425575 -4.14119 0
M  V30 2621 H 251.729 -1.23469 -3.78154 0
M  V30 2622 H 248.468 -3.79049 -5.34792 0
M  V30 2623 H 247.988 -2.09942 -5.61858 0
M  V30 2624 H 249.667 -2.61215 -5.91925 0
M  V30 2625 N 249.799 1.42003 -0.683588 0
M  V30 2626 C 251.024 2.06265 -0.216647 0
M  V30 2627 C 251.449 1.51059 1.12083 0
M  V30 2628 O 250.807 0.632638 1.69904 0
M  V30 2629 C 250.855 3.60191 -0.171759 0
M  V30 2630 O 249.959 4.03396 0.857069 0
M  V30 2631 H 249.3 0.65502 -0.108834 0
M  V30 2632 H 251.83 1.81982 -0.935077 0
M  V30 2633 H 251.84 4.08 0.0014303 0
M  V30 2634 H 250.515 3.99743 -1.14796 0
M  V30 2635 H 249.092 3.67117 0.654208 0
M  V30 2636 N 251.277 0.427512 1.51691 0
M  V30 2637 C 252.207 -0.3796 2.30394 0
M  V30 2638 C 253.188 -1.02982 1.35384 0
M  V30 2639 O 254.373 -1.03534 1.643 0
M  V30 2640 C 251.503 -1.48649 3.1388 0
M  V30 2641 C 250.457 -0.960294 4.17088 0
M  V30 2642 C 249.783 -2.16219 4.89033 0
M  V30 2643 C 251.083 -0.00153679 5.223 0
M  V30 2644 H 252.777 0.277164 2.98114 0
M  V30 2645 H 250.323 0.134739 1.43368 0
M  V30 2646 H 252.276 -2.05826 3.67714 0
M  V30 2647 H 251 -2.1714 2.43962 0
M  V30 2648 H 249.659 -0.410806 3.64291 0
M  V30 2649 H 249.307 -2.83307 4.15628 0
M  V30 2650 H 249.007 -1.81654 5.58816 0
M  V30 2651 H 250.531 -2.73968 5.45687 0
M  V30 2652 H 251.945 -0.482687 5.71264 0
M  V30 2653 H 250.342 0.256199 5.99553 0
M  V30 2654 H 251.412 0.938174 4.75738 0
M  V30 2655 N 252.755 -1.56801 0.158532 0
M  V30 2656 C 254.032 -1.88131 -0.535357 0
M  V30 2657 C 254.412 -1.06638 -1.82186 0
M  V30 2658 O 253.76 -0.156533 -2.27963 0
M  V30 2659 C 253.97 -3.39949 -0.789653 0
M  V30 2660 C 255.318 -4.09416 -1.12533 0
M  V30 2661 O 256.342 -3.45194 -0.878622 0
M  V30 2662 O 255.201 -5.22855 -1.59014 0
M  V30 2663 H 252.295 -0.780143 -0.27442 0
M  V30 2664 H 254.841 -1.68564 0.19601 0
M  V30 2665 H 253.613 -3.91115 0.120353 0
M  V30 2666 H 253.236 -3.65084 -1.57479 0
M  V30 2667 N 254.233 0.115231 -1.57178 0
M  V30 2668 C 255.649 0.468877 -1.52557 0
M  V30 2669 C 255.849 1.81649 -0.872125 0
M  V30 2670 O 254.905 2.48347 -0.45606 0
M  V30 2671 C 256.218 0.4499 -2.97315 0
M  V30 2672 C 257.766 0.533185 -3.08425 0
M  V30 2673 C 258.241 0.54456 -4.54751 0
M  V30 2674 N 259.732 0.605892 -4.5922 0
M  V30 2675 C 260.467 0.636203 -5.6986 0
M  V30 2676 N 259.963 0.623931 -6.89985 0
M  V30 2677 N 261.756 0.679496 -5.57978 0
M  V30 2678 H 253.907 -0.767712 -1.9804 0
M  V30 2679 H 256.17 -0.283609 -0.904583 0
M  V30 2680 H 255.876 -0.472721 -3.48509 0
M  V30 2681 H 255.75 1.27632 -3.5495 0
M  V30 2682 H 258.137 1.44623 -2.57232 0
M  V30 2683 H 258.218 -0.320995 -2.53778 0
M  V30 2684 H 257.862 -0.364452 -5.06591 0
M  V30 2685 H 257.792 1.41568 -5.07214 0
M  V30 2686 H 260.283 0.621386 -3.72756 0
M  V30 2687 H 260.596 0.649787 -7.70063 0
M  V30 2688 H 258.941 0.591296 -6.9248 0
M  V30 2689 H 262.132 0.686472 -4.63039 0
M  V30 2690 H 262.305 0.69965 -6.44212 0
M  V30 2691 N 255.711 1.52812 0.385517 0
M  V30 2692 C 256.941 1.71658 1.14966 0
M  V30 2693 C 257.349 0.436253 1.84102 0
M  V30 2694 O 256.692 -0.599313 1.73649 0
M  V30 2695 C 256.754 2.81309 2.23843 0
M  V30 2696 C 256.418 4.22313 1.74644 0
M  V30 2697 C 257.415 5.05352 1.22129 0
M  V30 2698 C 255.1 4.68648 1.80761 0
M  V30 2699 C 257.094 6.32807 0.763838 0
M  V30 2700 C 254.781 5.96086 1.34627 0
M  V30 2701 C 255.779 6.77996 0.825264 0
M  V30 2702 O 255.467 8.03045 0.370669 0
M  V30 2703 H 255.199 0.578022 0.350523 0
M  V30 2704 H 257.753 2.00263 0.456509 0
M  V30 2705 H 255.983 2.48133 2.96592 0
M  V30 2706 H 257.672 2.88524 2.85497 0
M  V30 2707 H 258.438 4.70736 1.16758 0
M  V30 2708 H 254.317 4.04979 2.20256 0
M  V30 2709 H 257.861 6.96689 0.356494 0
M  V30 2710 H 253.758 6.30205 1.39686 0
M  V30 2711 H 254.526 8.17021 0.491829 0
M  V30 2712 N 257.189 -0.644168 1.43834 0
M  V30 2713 C 258.435 -1.40603 1.46146 0
M  V30 2714 C 258.768 -1.93997 0.0887717 0
M  V30 2715 O 258.043 -1.72854 -0.891724 0
M  V30 2716 C 258.326 -2.58086 2.51124 0
M  V30 2717 C 258.179 -2.10126 3.97702 0
M  V30 2718 C 259.498 -3.60291 2.52742 0
M  V30 2719 H 256.617 -0.509905 0.532134 0
M  V30 2720 H 259.259 -0.729502 1.75437 0
M  V30 2721 H 257.409 -3.15801 2.26278 0
M  V30 2722 H 259.081 -1.57342 4.33637 0
M  V30 2723 H 257.324 -1.41419 4.10101 0
M  V30 2724 H 257.995 -2.94649 4.66783 0
M  V30 2725 H 260.471 -3.12352 2.7491 0
M  V30 2726 H 259.347 -4.40032 3.28121 0
M  V30 2727 H 259.608 -4.1349 1.56455 0
M  V30 2728 N 258.668 -1.30515 -0.883378 0
M  V30 2729 C 259.631 -1.1701 -1.97082 0
M  V30 2730 C 260.631 -0.10089 -1.60483 0
M  V30 2731 O 261.821 -0.349127 -1.70666 0
M  V30 2732 C 258.953 -0.793045 -3.31547 0
M  V30 2733 H 260.146 -2.13622 -2.10489 0
M  V30 2734 H 257.699 -1.13935 -1.06998 0
M  V30 2735 H 258.434 0.172499 -3.23841 0
M  V30 2736 H 258.219 -1.56576 -3.5948 0
M  V30 2737 H 259.709 -0.722073 -4.1131 0
M  V30 2738 N 260.146 1.09593 -1.13257 0
M  V30 2739 C 261.395 1.81105 -0.887917 0
M  V30 2740 C 261.708 1.86563 0.587672 0
M  V30 2741 O 262.914 2.54367 0.949204 0
M  V30 2742 C 261.37 3.25338 -1.53895 0
M  V30 2743 C 260.978 3.28151 -3.04994 0
M  V30 2744 C 262.722 4.01617 -1.37492 0
M  V30 2745 C 260.629 4.66897 -3.6299 0
M  V30 2746 H 259.559 0.678661 -0.328534 0
M  V30 2747 H 262.21 1.23183 -1.36008 0
M  V30 2748 H 260.592 3.8331 -0.994446 0
M  V30 2749 H 261.766 2.79953 -3.66009 0
M  V30 2750 H 260.081 2.65361 -3.20893 0
M  V30 2751 H 262.678 5.04119 -1.78235 0
M  V30 2752 H 263.021 4.15072 -0.31957 0
M  V30 2753 H 263.554 3.50082 -1.88912 0
M  V30 2754 H 260.293 4.58643 -4.68323 0
M  V30 2755 H 259.813 5.15426 -3.06752 0
M  V30 2756 H 261.492 5.3587 -3.62563 0
M  V30 2757 N 261.624 0.925811 1.2754 0
M  V30 2758 C 262.556 0.380753 2.26015 0
M  V30 2759 C 263.569 -0.487485 1.5533 0
M  V30 2760 O 264.758 -0.300413 1.75954 0
M  V30 2761 C 261.858 -0.473259 3.35579 0
M  V30 2762 C 261.031 0.375249 4.35787 0
M  V30 2763 C 260.09 -0.415809 5.24555 0
M  V30 2764 O 259.116 0.175834 5.68928 0
M  V30 2765 N 260.318 -1.71607 5.54555 0
M  V30 2766 H 263.083 1.22725 2.73421 0
M  V30 2767 H 260.644 0.793037 1.41147 0
M  V30 2768 H 262.636 -1.00949 3.91907 0
M  V30 2769 H 261.206 -1.2205 2.87789 0
M  V30 2770 H 260.426 1.09279 3.7875 0
M  V30 2771 H 261.714 0.955399 4.99749 0
M  V30 2772 H 261.112 -2.2191 5.20358 0
M  V30 2773 H 259.669 -2.19887 6.1359 0
M  V30 2774 N 263.102 -1.41638 0.69111 0
M  V30 2775 C 264.05 -2.32597 0.0115199 0
M  V30 2776 C 265.044 -1.5072 -0.773296 0
M  V30 2777 O 266.25 -1.66685 -0.67942 0
M  V30 2778 H 262.625 -0.751849 -0.0150746 0
M  V30 2779 H 264.596 -2.87593 0.795791 0
M  V30 2780 C 263.345 -3.35467 -0.914172 0
M  V30 2781 H 262.668 -3.9852 -0.319687 0
M  V30 2782 H 264.108 -4.01662 -1.35808 0
M  V30 2783 C 262.567 -2.69004 -2.02826 0
M  V30 2784 O 263.097 -2.53444 -3.11655 0
M  V30 2785 N 261.303 -2.2777 -1.80469 0
M  V30 2786 H 260.85 -2.40626 -0.919615 0
M  V30 2787 H 260.808 -1.83635 -2.55197 0
M  V30 2788 N 264.58 -0.43555 -1.51462 0
M  V30 2789 C 265.991 0.0279871 -1.86679 0
M  V30 2790 C 266.342 1.42104 -1.35281 0
M  V30 2791 O 265.467 2.04667 -0.702878 0
M  V30 2792 C 266.062 0.0575626 -3.38751 0
M  V30 2793 C 264.621 0.465507 -3.7351 0
M  V30 2794 C 263.768 -0.342996 -2.75171 0
M  V30 2795 H 266.719 -0.651473 -1.44712 0
M  V30 2796 H 266.74 0.867421 -3.70481 0
M  V30 2797 H 266.252 -0.956448 -3.7613 0
M  V30 2798 H 264.353 1.48519 -3.41721 0
M  V30 2799 H 264.466 0.191546 -4.78717 0
M  V30 2800 H 262.83 0.198442 -2.53926 0
M  V30 2801 H 263.613 -1.35585 -3.15391 0
M  V30 2802 N 266.058 1.56714 -0.166846 0
M  V30 2803 C 267.307 1.95922 0.479318 0
M  V30 2804 C 267.62 1.05529 1.6469 0
M  V30 2805 O 268.826 1.34399 2.35901 0
M  V30 2806 C 267.282 3.48359 0.90412 0
M  V30 2807 C 266.89 4.47369 -0.237621 0
M  V30 2808 C 268.634 3.96394 1.51896 0
M  V30 2809 C 266.541 5.91039 0.206561 0
M  V30 2810 H 265.471 0.731495 0.18284 0
M  V30 2811 H 268.122 1.81728 -0.254363 0
M  V30 2812 H 266.504 3.57955 1.69365 0
M  V30 2813 H 267.678 4.49485 -1.01489 0
M  V30 2814 H 265.993 4.09366 -0.762128 0
M  V30 2815 H 268.59 5.01186 1.86325 0
M  V30 2816 H 268.933 3.39075 2.41524 0
M  V30 2817 H 269.466 3.89796 0.79395 0
M  V30 2818 H 266.205 6.52221 -0.654834 0
M  V30 2819 H 265.725 5.9224 0.949282 0
M  V30 2820 H 267.404 6.43707 0.651939 0
M  V30 2821 N 267.536 -0.106894 1.57237 0
M  V30 2822 C 268.486 -1.1366 1.9765 0
M  V30 2823 C 269.47 -1.36416 0.853203 0
M  V30 2824 O 270.662 -1.37305 1.11697 0
M  V30 2825 C 267.791 -2.46 2.39455 0
M  V30 2826 C 266.877 -2.26668 3.58445 0
M  V30 2827 N 267.268 -1.77176 4.73754 0
M  V30 2828 C 265.566 -2.57279 3.64312 0
M  V30 2829 C 266.267 -1.71836 5.5574 0
M  V30 2830 N 265.243 -2.16623 4.98573 0
M  V30 2831 H 269.045 -0.74669 2.84256 0
M  V30 2832 H 266.559 -0.314483 1.59326 0
M  V30 2833 H 268.556 -3.2049 2.6663 0
M  V30 2834 H 267.216 -2.85738 1.54219 0
M  V30 2835 H 268.227 -1.46545 4.96734 0
M  V30 2836 H 264.904 -3.00622 2.89711 0
M  V30 2837 H 266.294 -1.34723 6.58255 0
M  V30 2838 N 269.014 -1.53014 -0.377408 0
M  V30 2839 C 269.964 -1.74996 -1.46152 0
M  V30 2840 C 270.948 -0.604236 -1.49123 0
M  V30 2841 O 272.14 -0.862489 -1.54564 0
M  V30 2842 C 269.269 -1.93267 -2.8373 0
M  V30 2843 C 268.355 -3.13807 -2.85283 0
M  V30 2844 N 268.746 -4.35941 -2.56493 0
M  V30 2845 C 267.044 -3.14288 -3.16448 0
M  V30 2846 C 267.745 -5.17615 -2.65424 0
M  V30 2847 N 266.721 -4.53559 -2.99641 0
M  V30 2848 H 270.523 -2.67044 -1.22738 0
M  V30 2849 H 268.037 -1.51479 -0.585479 0
M  V30 2850 H 270.034 -2.0714 -3.61799 0
M  V30 2851 H 268.694 -1.0244 -3.08117 0
M  V30 2852 H 269.705 -4.63876 -2.30302 0
M  V30 2853 H 266.382 -2.33312 -3.46225 0
M  V30 2854 H 267.772 -6.25006 -2.46612 0
M  V30 2855 N 270.492 0.636531 -1.44174 0
M  V30 2856 C 271.717 1.42847 -1.50364 0
M  V30 2857 C 272.142 1.87665 -0.127867 0
M  V30 2858 O 271.5 1.58408 0.88185 0
M  V30 2859 C 271.548 2.62854 -2.4686 0
M  V30 2860 O 270.652 3.62501 -1.9664 0
M  V30 2861 H 269.993 0.427642 -0.507955 0
M  V30 2862 H 272.523 0.777422 -1.89255 0
M  V30 2863 H 272.533 3.10465 -2.64718 0
M  V30 2864 H 271.208 2.29578 -3.46795 0
M  V30 2865 H 269.785 3.21735 -1.88523 0
M  V30 2866 N 271.97 1.30982 0.876444 0
M  V30 2867 C 273.386 1.09498 1.16113 0
M  V30 2868 C 273.586 -0.13875 2.01022 0
M  V30 2869 O 272.642 -0.829935 2.38471 0
M  V30 2870 C 273.955 2.36308 1.85954 0
M  V30 2871 C 275.503 2.41856 1.98683 0
M  V30 2872 C 275.978 3.6853 2.71937 0
M  V30 2873 N 277.469 3.69387 2.79477 0
M  V30 2874 C 278.204 4.64096 3.36753 0
M  V30 2875 N 277.7 5.69155 3.95012 0
M  V30 2876 N 279.493 4.51626 3.3465 0
M  V30 2877 H 271.644 2.10118 0.310494 0
M  V30 2878 H 273.907 0.926634 0.200131 0
M  V30 2879 H 273.613 3.26388 1.31011 0
M  V30 2880 H 273.487 2.4561 2.86278 0
M  V30 2881 H 275.874 1.52249 2.52793 0
M  V30 2882 H 275.955 2.36523 0.9742 0
M  V30 2883 H 275.599 4.58499 2.18496 0
M  V30 2884 H 275.529 3.71127 3.73593 0
M  V30 2885 H 278.02 2.93438 2.38123 0
M  V30 2886 H 278.333 6.3751 4.36808 0
M  V30 2887 H 276.678 5.72937 3.93406 0
M  V30 2888 H 279.869 3.68728 2.8837 0
M  V30 2889 H 280.042 5.25614 3.7899 0
M  V30 2890 N 273.449 -1.08991 1.13837 0
M  V30 2891 C 274.696 -1.81258 0.902882 0
M  V30 2892 C 275.024 -1.85936 -0.570803 0
M  V30 2893 O 274.279 -1.3267 -1.43865 0
M  V30 2894 C 274.578 -3.27042 1.44147 0
M  V30 2895 C 274.244 -3.4249 2.93276 0
M  V30 2896 C 272.906 -3.46414 3.33992 0
M  V30 2897 C 275.258 -3.4666 3.892 0
M  V30 2898 C 272.586 -3.52091 4.69307 0
M  V30 2899 C 274.938 -3.53872 5.24364 0
M  V30 2900 C 273.602 -3.56066 5.646 0
M  V30 2901 H 272.872 -0.663268 0.330388 0
M  V30 2902 H 275.519 -1.28368 1.42105 0
M  V30 2903 H 273.824 -3.82599 0.844097 0
M  V30 2904 H 275.521 -3.81499 1.23528 0
M  V30 2905 H 272.111 -3.40124 2.60794 0
M  V30 2906 H 276.295 -3.42865 3.58828 0
M  V30 2907 H 271.551 -3.52079 4.9985 0
M  V30 2908 H 275.725 -3.56043 5.98503 0
M  V30 2909 H 273.352 -3.60218 6.69438 0
M  V30 2910 N 274.927 -0.932562 -1.27047 0
M  V30 2911 C 275.875 -0.42603 -2.28665 0
M  V30 2912 C 276.869 0.49219 -1.62092 0
M  V30 2913 O 278.075 0.371355 -1.76128 0
M  V30 2914 H 274.45 -0.119213 -0.742491 0
M  V30 2915 H 276.421 -1.29579 -2.68797 0
M  V30 2916 C 275.17 0.301426 -3.46391 0
M  V30 2917 H 274.493 -0.39595 -3.97834 0
M  V30 2918 H 275.933 0.6202 -4.1944 0
M  V30 2919 C 274.392 1.51616 -3.00856 0
M  V30 2920 O 274.922 2.61476 -3.04948 0
M  V30 2921 N 273.128 1.36969 -2.56296 0
M  V30 2922 H 272.675 0.475873 -2.53166 0
M  V30 2923 H 272.633 2.18368 -2.26192 0
M  V30 2924 N 276.405 1.4127 -0.698611 0
M  V30 2925 C 277.63 2.06024 -0.238512 0
M  V30 2926 C 278.055 1.5224 1.10475 0
M  V30 2927 O 277.413 0.650623 1.69223 0
M  V30 2928 C 277.461 3.59988 -0.209952 0
M  V30 2929 O 276.565 4.04282 0.814235 0
M  V30 2930 H 275.906 0.653829 -0.115775 0
M  V30 2931 H 278.436 1.8098 -0.954326 0
M  V30 2932 H 278.446 4.07979 -0.0418436 0
M  V30 2933 H 277.121 3.98503 -1.1903 0
M  V30 2934 H 275.698 3.6779 0.615234 0
M  V30 2935 N 277.883 0.443576 1.51229 0
M  V30 2936 C 279.299 0.0962001 1.5931 0
M  V30 2937 C 279.499 -1.39501 1.45402 0
M  V30 2938 O 278.555 -2.16557 1.29843 0
M  V30 2939 C 279.868 0.621875 2.94199 0
M  V30 2940 C 281.416 0.582865 3.07525 0
M  V30 2941 C 281.891 1.08562 4.44948 0
M  V30 2942 N 283.382 1.04387 4.51284 0
M  V30 2943 C 284.117 1.40368 5.55954 0
M  V30 2944 N 283.613 1.83664 6.68011 0
M  V30 2945 N 285.406 1.32145 5.46346 0
M  V30 2946 H 277.557 1.41376 1.58514 0
M  V30 2947 H 279.82 0.582965 0.747567 0
M  V30 2948 H 279.526 1.66546 3.09767 0
M  V30 2949 H 279.4 0.0502125 3.77167 0
M  V30 2950 H 281.787 -0.451749 2.91622 0
M  V30 2951 H 281.868 1.191 2.26382 0
M  V30 2952 H 281.512 2.11873 4.61598 0
M  V30 2953 H 281.442 0.453956 5.2464 0
M  V30 2954 H 283.933 0.725986 3.70861 0
M  V30 2955 H 284.246 2.0934 7.43906 0
M  V30 2956 H 282.591 1.87596 6.69203 0
M  V30 2957 H 285.782 0.981808 4.57688 0
M  V30 2958 H 285.955 1.60514 6.27805 0
M  V30 2959 N 279.361 -1.56624 0.175154 0
M  V30 2960 C 280.589 -2.01374 -0.474971 0
M  V30 2961 C 281.004 -1.05537 -1.56548 0
M  V30 2962 O 280.361 -0.0568668 -1.82411 0
M  V30 2963 C 280.412 -3.45923 -1.04975 0
M  V30 2964 O 280.133 -4.381 -0.00276605 0
M  V30 2965 C 281.634 -4.06093 -1.77773 0
M  V30 2966 H 278.854 -0.659962 -0.121206 0
M  V30 2967 H 281.398 -2.02601 0.27801 0
M  V30 2968 H 279.553 -3.45458 -1.75321 0
M  V30 2969 H 279.967 -5.22753 -0.427681 0
M  V30 2970 H 281.441 -5.09147 -2.13245 0
M  V30 2971 H 281.918 -3.48405 -2.67414 0
M  V30 2972 H 282.524 -4.10272 -1.12059 0
M  V30 2973 N 280.839 0.0985539 -1.57292 0
M  V30 2974 C 281.786 1.11981 -2.01814 0
M  V30 2975 C 282.756 1.39999 -0.89384 0
M  V30 2976 O 283.941 1.5152 -1.15958 0
M  V30 2977 C 281.081 2.43577 -2.44467 0
M  V30 2978 C 280.194 2.2232 -3.70402 0
M  V30 2979 C 279.329 3.4729 -4.01949 0
M  V30 2980 C 278.368 3.2128 -5.21005 0
M  V30 2981 N 277.505 4.38507 -5.48321 0
M  V30 2982 H 282.345 0.733149 -2.88841 0
M  V30 2983 H 279.882 0.350482 -1.42864 0
M  V30 2984 H 281.84 3.20373 -2.6724 0
M  V30 2985 H 280.47 2.80097 -1.60455 0
M  V30 2986 H 279.522 1.36343 -3.55126 0
M  V30 2987 H 280.834 1.99089 -4.57345 0
M  V30 2988 H 279.988 4.32495 -4.25479 0
M  V30 2989 H 278.727 3.73572 -3.13521 0
M  V30 2990 H 277.732 2.34468 -4.97298 0
M  V30 2991 H 278.957 2.96348 -6.11028 0
M  V30 2992 H 276.903 4.64871 -4.62851 0
M  V30 2993 H 276.82 4.18455 -6.29628 0
M  V30 2994 H 278.088 5.24787 -5.76385 0
M  V30 2995 N 282.317 1.53212 0.369288 0
M  V30 2996 C 283.28 1.7872 1.43498 0
M  V30 2997 C 284.28 0.657554 1.46741 0
M  V30 2998 O 285.47 0.925736 1.47566 0
M  V30 2999 C 282.602 1.90591 2.82645 0
M  V30 3000 H 283.795 2.73894 1.22156 0
M  V30 3001 H 281.348 1.44233 0.602203 0
M  V30 3002 H 282.083 0.974709 3.09306 0
M  V30 3003 H 281.868 2.72751 2.8169 0
M  V30 3004 H 283.358 2.11931 3.59826 0
M  V30 3005 N 283.795 -0.628877 1.44509 0
M  V30 3006 C 285.042 -1.38839 1.47411 0
M  V30 3007 C 285.37 -1.94202 0.10757 0
M  V30 3008 O 284.625 -1.74243 -0.890947 0
M  V30 3009 C 284.924 -2.56995 2.48371 0
M  V30 3010 C 284.59 -2.19908 3.93639 0
M  V30 3011 C 283.252 -2.09506 4.33198 0
M  V30 3012 C 285.604 -1.9064 4.85083 0
M  V30 3013 C 282.932 -1.68028 5.62124 0
M  V30 3014 C 285.284 -1.50655 6.14399 0
M  V30 3015 C 283.948 -1.38796 6.5291 0
M  V30 3016 H 283.218 -0.508048 0.539414 0
M  V30 3017 H 285.865 -0.712913 1.77735 0
M  V30 3018 H 284.17 -3.29786 2.11538 0
M  V30 3019 H 285.867 -3.15223 2.47861 0
M  V30 3020 H 282.457 -2.28922 3.62343 0
M  V30 3021 H 286.641 -1.97585 4.55273 0
M  V30 3022 H 281.897 -1.57452 5.90778 0
M  V30 3023 H 286.071 -1.27048 6.84713 0
M  V30 3024 H 283.698 -1.06429 7.52713 0
M  V30 3025 N 285.273 -1.31445 -0.869486 0
M  V30 3026 C 286.203 -1.21727 -1.99261 0
M  V30 3027 C 287.184 -0.104359 -1.6978 0
M  V30 3028 O 288.369 -0.289038 -1.92037 0
M  V30 3029 C 285.499 -0.924317 -3.34774 0
M  V30 3030 C 284.453 -1.99685 -3.78563 0
M  V30 3031 C 283.779 -1.55658 -5.11541 0
M  V30 3032 C 285.079 -3.41003 -3.95619 0
M  V30 3033 H 286.773 -2.1569 -2.07649 0
M  V30 3034 H 284.319 -1.03839 -0.997675 0
M  V30 3035 H 286.272 -0.842934 -4.12883 0
M  V30 3036 H 284.996 0.0509793 -3.2656 0
M  V30 3037 H 283.655 -2.06813 -3.02694 0
M  V30 3038 H 283.303 -0.569132 -4.9977 0
M  V30 3039 H 283.003 -2.27409 -5.41811 0
M  V30 3040 H 284.527 -1.48928 -5.92159 0
M  V30 3041 H 285.941 -3.36547 -4.64122 0
M  V30 3042 H 284.338 -4.10975 -4.37286 0
M  V30 3043 H 285.408 -3.81754 -2.98985 0
M  V30 3044 N 286.751 1.08385 -1.14413 0
M  V30 3045 C 287.698 2.15311 -0.831265 0
M  V30 3046 C 288.668 1.64751 0.211292 0
M  V30 3047 O 289.853 1.90627 0.0811674 0
M  V30 3048 C 286.993 3.43658 -0.315143 0
M  V30 3049 C 286.106 4.08064 -1.41802 0
M  V30 3050 C 285.241 5.24207 -0.859126 0
M  V30 3051 C 284.28 5.80554 -1.93967 0
M  V30 3052 N 283.417 6.88042 -1.39793 0
M  V30 3053 H 288.257 2.41415 -1.74708 0
M  V30 3054 H 285.794 1.18474 -0.871909 0
M  V30 3055 H 287.752 4.172 0.00230884 0
M  V30 3056 H 286.382 3.17839 0.56378 0
M  V30 3057 H 285.434 3.3228 -1.85187 0
M  V30 3058 H 286.746 4.45962 -2.23427 0
M  V30 3059 H 285.9 6.04689 -0.49359 0
M  V30 3060 H 284.639 4.87699 -0.011932 0
M  V30 3061 H 283.644 4.98725 -2.31415 0
M  V30 3062 H 284.869 6.19121 -2.79046 0
M  V30 3063 H 282.815 6.53493 -0.572919 0
M  V30 3064 H 282.732 7.24767 -2.15054 0
M  V30 3065 H 284 7.72255 -1.0603 0
M  V30 3066 N 288.23 0.939286 1.26551 0
M  V30 3067 C 289.479 0.581601 1.93133 0
M  V30 3068 C 289.792 -0.883224 1.74524 0
M  V30 3069 O 290.998 -1.3502 2.35546 0
M  V30 3070 C 289.454 0.989425 3.46032 0
M  V30 3071 C 289.062 2.47573 3.73379 0
M  V30 3072 C 290.806 0.703544 4.18629 0
M  V30 3073 C 288.713 2.82235 5.19709 0
M  V30 3074 H 287.643 0.213803 0.723052 0
M  V30 3075 H 290.294 1.14167 1.4366 0
M  V30 3076 H 288.676 0.357902 3.94379 0
M  V30 3077 H 289.85 3.15614 3.35744 0
M  V30 3078 H 288.165 2.73471 3.1401 0
M  V30 3079 H 290.762 0.938869 5.26393 0
M  V30 3080 H 291.105 -0.359639 4.14744 0
M  V30 3081 H 291.638 1.2947 3.76141 0
M  V30 3082 H 288.377 3.87509 5.28694 0
M  V30 3083 H 287.897 2.18854 5.58447 0
M  V30 3084 H 289.576 2.70599 5.87695 0
M  V30 3085 N 289.708 -1.40897 0.706093 0
M  V30 3086 C 290.957 -2.00284 0.238574 0
M  V30 3087 C 291.27 -1.56604 -1.17194 0
M  V30 3088 O 292.476 -2.08624 -1.73748 0
M  V30 3089 C 290.932 -3.57934 0.375623 0
M  V30 3090 C 290.54 -4.10591 1.79217 0
M  V30 3091 C 292.284 -4.24488 -0.0315857 0
M  V30 3092 C 290.191 -5.60712 1.88032 0
M  V30 3093 H 289.121 -0.749144 0.0854398 0
M  V30 3094 H 291.772 -1.61251 0.875813 0
M  V30 3095 H 290.154 -3.94622 -0.330042 0
M  V30 3096 H 291.328 -3.85301 2.52745 0
M  V30 3097 H 289.643 -3.56601 2.15 0
M  V30 3098 H 292.24 -5.34698 0.0136842 0
M  V30 3099 H 292.583 -4.02261 -1.072 0
M  V30 3100 H 293.116 -3.92873 0.624181 0
M  V30 3101 H 289.855 -5.87781 2.90161 0
M  V30 3102 H 289.375 -5.87896 1.18903 0
M  V30 3103 H 291.054 -6.25658 1.64805 0
M  V30 3104 N 291.186 -0.45159 -1.50991 0
M  V30 3105 C 292.149 0.341117 -2.26647 0
M  V30 3106 C 293.149 0.937422 -1.30649 0
M  V30 3107 O 294.339 0.809644 -1.54241 0
M  V30 3108 C 291.471 1.48398 -3.06905 0
M  V30 3109 H 292.664 -0.322117 -2.98165 0
M  V30 3110 H 290.217 -0.205122 -1.54948 0
M  V30 3111 H 290.952 2.18284 -2.39838 0
M  V30 3112 H 290.737 1.06241 -3.77432 0
M  V30 3113 H 292.227 2.04367 -3.64176 0
M  V30 3114 N 292.664 1.56529 -0.183458 0
M  V30 3115 C 293.91 1.97537 0.459036 0
M  V30 3116 C 294.243 1.06989 1.62071 0
M  V30 3117 O 293.518 0.11948 1.94133 0
M  V30 3118 C 293.801 3.47874 0.930368 0
M  V30 3119 C 293.654 4.492 -0.232317 0
M  V30 3120 C 294.973 4.01612 1.79989 0
M  V30 3121 H 292.092 0.718204 0.165383 0
M  V30 3122 H 294.734 1.88042 -0.272038 0
M  V30 3123 H 292.884 3.56095 1.55333 0
M  V30 3124 H 294.556 4.53027 -0.86972 0
M  V30 3125 H 292.799 4.24657 -0.885928 0
M  V30 3126 H 293.47 5.51823 0.139796 0
M  V30 3127 H 295.946 3.96097 1.27461 0
M  V30 3128 H 294.822 5.07195 2.09867 0
M  V30 3129 H 295.083 3.46163 2.74998 0
M  V30 3130 N 294.142 -0.090211 1.57342 0
M  V30 3131 C 295.388 -0.788838 1.8748 0
M  V30 3132 C 295.743 -1.76105 0.7749 0
M  V30 3133 O 295.036 -1.90302 -0.222663 0
M  V30 3134 C 295.23 -1.55222 3.21933 0
M  V30 3135 C 295.059 -0.655441 4.44898 0
M  V30 3136 C 293.829 -0.299325 5.04413 0
M  V30 3137 C 296.027 0.0397458 5.14285 0
M  V30 3138 N 294.009 0.605108 6.10911 0
M  V30 3139 C 295.38 0.802061 6.1479 0
M  V30 3140 C 297.435 0.113154 4.97771 0
M  V30 3141 C 296.138 1.63093 7.00566 0
M  V30 3142 C 298.164 0.928942 5.84059 0
M  V30 3143 C 297.526 1.67936 6.84088 0
M  V30 3144 H 293.625 -0.26467 0.735849 0
M  V30 3145 H 296.209 -0.0511453 1.94633 0
M  V30 3146 H 294.38 -2.26076 3.15823 0
M  V30 3147 H 296.112 -2.19843 3.39781 0
M  V30 3148 H 292.867 -0.648079 4.69145 0
M  V30 3149 H 293.291 1.05002 6.68808 0
M  V30 3150 H 297.933 -0.452676 4.2037 0
M  V30 3151 H 295.651 2.20781 7.77355 0
M  V30 3152 H 299.237 0.988478 5.73341 0
M  V30 3153 H 298.117 2.30044 7.49699 0
M  V30 3154 N 295.62 -1.53406 -0.361157 0
M  V30 3155 C 296.848 -1.73717 -1.12383 0
M  V30 3156 C 297.263 -0.468161 -1.82904 0
M  V30 3157 O 296.62 0.559198 -1.73722 0
M  V30 3158 C 296.671 -2.90558 -2.15078 0
M  V30 3159 O 296.392 -4.12549 -1.47428 0
M  V30 3160 C 297.893 -3.22777 -3.03858 0
M  V30 3161 H 295.113 -0.580896 -0.335858 0
M  V30 3162 H 297.657 -2.00167 -0.418728 0
M  V30 3163 H 295.812 -2.66489 -2.8118 0
M  V30 3164 H 296.226 -4.78009 -2.15887 0
M  V30 3165 H 297.7 -4.07927 -3.71887 0
M  V30 3166 H 298.177 -2.38329 -3.68912 0
M  V30 3167 H 298.783 -3.48787 -2.43367 0
M  V30 3168 N 297.098 0.621204 -1.44841 0
M  V30 3169 C 298.347 1.37658 -1.47422 0
M  V30 3170 C 298.66 1.95264 -0.114629 0
M  V30 3171 O 299.866 2.71494 -0.0180199 0
M  V30 3172 C 298.322 2.49285 -2.59586 0
M  V30 3173 C 297.93 1.98149 -4.01797 0
M  V30 3174 C 299.674 3.26409 -2.71399 0
M  V30 3175 C 297.581 3.07178 -5.05367 0
M  V30 3176 H 296.511 0.517344 -0.548517 0
M  V30 3177 H 299.162 0.667257 -1.70938 0
M  V30 3178 H 297.544 3.22839 -2.29328 0
M  V30 3179 H 298.718 1.31395 -4.41669 0
M  V30 3180 H 297.033 1.33812 -3.94314 0
M  V30 3181 H 299.63 4.07706 -3.45948 0
M  V30 3182 H 299.973 3.76535 -1.77559 0
M  V30 3183 H 300.506 2.5995 -3.01116 0
M  V30 3184 H 297.245 2.61985 -6.00869 0
M  V30 3185 H 296.765 3.72542 -4.70077 0
M  V30 3186 H 298.444 3.71789 -5.29511 0
M  V30 3187 N 298.576 1.31904 0.862503 0
M  V30 3188 C 299.801 1.25135 1.65397 0
M  V30 3189 C 300.226 -0.179 1.87246 0
M  V30 3190 O 299.584 -1.1277 1.4196 0
M  V30 3191 C 299.632 2.00832 2.99498 0
M  V30 3192 O 298.736 1.35075 3.89652 0
M  V30 3193 H 298.077 0.431655 0.504549 0
M  V30 3194 H 300.607 1.74094 1.07483 0
M  V30 3195 H 300.617 2.10709 3.49379 0
M  V30 3196 H 299.292 3.04847 2.82916 0
M  V30 3197 H 297.869 1.33696 3.48109 0
M  V30 3198 N 300.054 -1.07777 1.14986 0
M  V30 3199 C 301.3 -1.80557 0.923422 0
M  V30 3200 C 301.633 -1.86298 -0.548337 0
M  V30 3201 O 300.908 -1.34354 -1.40639 0
M  V30 3202 C 301.191 -3.25839 1.53299 0
M  V30 3203 C 301.044 -3.28269 3.07505 0
M  V30 3204 C 302.363 -4.22991 1.21518 0
M  V30 3205 H 299.482 -0.655493 0.336894 0
M  V30 3206 H 302.124 -1.26144 1.42083 0
M  V30 3207 H 300.274 -3.72306 1.10999 0
M  V30 3208 H 301.946 -2.90079 3.58681 0
M  V30 3209 H 300.189 -2.67355 3.4162 0
M  V30 3210 H 300.86 -4.30691 3.45266 0
M  V30 3211 H 303.336 -3.84894 1.581 0
M  V30 3212 H 302.212 -5.22945 1.66793 0
M  V30 3213 H 302.473 -4.41904 0.131505 0
M  V30 3214 N 301.532 -0.945985 -1.26051 0
M  V30 3215 C 302.78 -0.594941 -1.93145 0
M  V30 3216 C 303.101 0.86953 -1.7454 0
M  V30 3217 O 302.371 1.61838 -1.10387 0
M  V30 3218 H 300.951 -0.217044 -0.714773 0
M  V30 3219 H 303.613 -1.20235 -1.53393 0
M  V30 3220 H 302.709 -0.816835 -3.01221 0
M  V30 3221 N 303.011 1.40521 -0.713556 0
M  V30 3222 C 304.26 2.00155 -0.249192 0
M  V30 3223 C 304.573 1.57224 1.16362 0
M  V30 3224 O 305.779 2.09542 1.72639 0
M  V30 3225 C 304.235 3.5773 -0.3946 0
M  V30 3226 C 303.843 4.09635 -1.81392 0
M  V30 3227 C 305.587 4.24499 0.00907364 0
M  V30 3228 C 303.494 5.59707 -1.91003 0
M  V30 3229 H 302.424 0.74868 -0.0894114 0
M  V30 3230 H 305.075 1.60784 -0.884352 0
M  V30 3231 H 303.457 3.94792 0.30911 0
M  V30 3232 H 304.631 3.83955 -2.54785 0
M  V30 3233 H 302.946 3.55456 -2.16888 0
M  V30 3234 H 305.543 5.34683 -0.0420404 0
M  V30 3235 H 305.886 4.02824 1.05065 0
M  V30 3236 H 306.419 3.92536 -0.645007 0
M  V30 3237 H 303.158 5.86234 -2.93275 0
M  V30 3238 H 302.678 5.87258 -1.22019 0
M  V30 3239 H 304.357 6.24776 -1.6812 0
M  V30 3240 N 304.489 0.459591 1.5075 0
M  V30 3241 C 305.714 -0.0996819 2.0716 0
M  V30 3242 C 306.139 -1.33761 1.32249 0
M  V30 3243 O 305.497 -1.77551 0.366786 0
M  V30 3244 C 305.545 -0.378226 3.58611 0
M  V30 3245 O 304.649 -1.46081 3.85661 0
M  V30 3246 H 303.99 0.00791392 0.663953 0
M  V30 3247 H 306.52 0.647329 1.9409 0
M  V30 3248 H 306.53 -0.622135 4.03229 0
M  V30 3249 H 305.205 0.526439 4.12555 0
M  V30 3250 H 303.782 -1.20511 3.5289 0
M  V30 3251 N 305.967 -1.56429 0.191757 0
M  V30 3252 C 306.9 -2.14829 -0.76967 0
M  V30 3253 C 307.878 -1.08405 -1.2119 0
M  V30 3254 O 309.062 -1.36498 -1.30002 0
M  V30 3255 C 306.189 -2.70446 -2.03903 0
M  V30 3256 C 305.235 -3.89428 -1.7392 0
M  V30 3257 S 306.068 -5.28048 -0.890265 0
M  V30 3258 C 307.224 -5.87085 -2.16984 0
M  V30 3259 H 307.457 -2.96042 -0.273204 0
M  V30 3260 H 304.99 -1.54383 -0.0231975 0
M  V30 3261 H 306.948 -3.03134 -2.76803 0
M  V30 3262 H 305.609 -1.89281 -2.50662 0
M  V30 3263 H 304.802 -4.26742 -2.68155 0
M  V30 3264 H 304.404 -3.57732 -1.09103 0
M  V30 3265 H 306.696 -6.01244 -3.12269 0
M  V30 3266 H 307.639 -6.83747 -1.84108 0
M  V30 3267 H 308.047 -5.15663 -2.29678 0
M  V30 3268 N 307.445 0.0818655 -1.57387 0
M  V30 3269 C 308.856 0.634871 -1.75574 0
M  V30 3270 C 309.207 1.78435 -0.815809 0
M  V30 3271 O 308.332 2.164 0.0025366 0
M  V30 3272 C 308.927 1.15845 -3.18379 0
M  V30 3273 C 307.486 1.65741 -3.37945 0
M  V30 3274 C 306.633 0.572549 -2.71325 0
M  V30 3275 H 309.584 -0.144268 -1.58043 0
M  V30 3276 H 309.605 2.02751 -3.21982 0
M  V30 3277 H 309.117 0.321631 -3.86765 0
M  V30 3278 H 307.218 2.51781 -2.74658 0
M  V30 3279 H 307.331 1.74129 -4.46336 0
M  V30 3280 H 305.695 1.01518 -2.33594 0
M  V30 3281 H 306.478 -0.253918 -3.4236 0
M  V30 3282 N 308.923 1.53595 0.353017 0
M  V30 3283 C 310.172 1.69603 1.09168 0
M  V30 3284 C 310.485 0.460925 1.90092 0
M  V30 3285 O 311.691 0.501774 2.66823 0
M  V30 3286 C 310.147 2.99872 1.9901 0
M  V30 3287 C 309.755 4.30687 1.23339 0
M  V30 3288 C 311.499 3.25246 2.72792 0
M  V30 3289 C 309.406 5.52036 2.12156 0
M  V30 3290 H 308.336 0.631966 0.411261 0
M  V30 3291 H 310.987 1.80096 0.351802 0
M  V30 3292 H 309.369 2.83212 2.7678 0
M  V30 3293 H 310.543 4.58019 0.505456 0
M  V30 3294 H 308.858 4.11853 0.613663 0
M  V30 3295 H 311.455 4.13095 3.39495 0
M  V30 3296 H 311.798 2.41846 3.38846 0
M  V30 3297 H 312.331 3.42638 2.021 0
M  V30 3298 H 309.07 6.37951 1.50659 0
M  V30 3299 H 308.59 5.28966 2.82764 0
M  V30 3300 H 310.269 5.87313 2.71427 0
M  V30 3301 N 310.401 -0.613514 1.45168 0
M  V30 3302 C 311.812 -1.19539 1.43413 0
M  V30 3303 C 312.163 -1.95558 0.158632 0
M  V30 3304 O 311.288 -2.0335 -0.740119 0
M  V30 3305 C 311.883 -2.17445 2.59813 0
M  V30 3306 C 310.442 -2.71022 2.61197 0
M  V30 3307 C 309.589 -1.46323 2.35552 0
M  V30 3308 H 312.54 -0.403163 1.53494 0
M  V30 3309 H 312.561 -3.00373 2.33574 0
M  V30 3310 H 312.073 -1.62089 3.52631 0
M  V30 3311 H 310.174 -3.30332 1.7237 0
M  V30 3312 H 310.287 -3.15859 3.60236 0
M  V30 3313 H 308.651 -1.75072 1.84992 0
M  V30 3314 H 309.434 -0.92844 3.30507 0
M  V30 3315 N 311.879 -1.3236 -0.855495 0
M  V30 3316 C 313.125 -1.23054 -1.612 0
M  V30 3317 C 313.458 0.207404 -1.93089 0
M  V30 3318 O 312.733 1.14432 -1.57275 0
M  V30 3319 C 313.016 -2.08937 -2.93287 0
M  V30 3320 C 312.869 -3.61105 -2.68185 0
M  V30 3321 C 314.188 -1.94986 -3.94549 0
M  V30 3322 H 311.307 -0.448364 -0.584926 0
M  V30 3323 H 313.949 -1.62297 -0.987917 0
M  V30 3324 H 312.099 -1.75599 -3.46551 0
M  V30 3325 H 313.771 -4.04652 -2.21483 0
M  V30 3326 H 312.014 -3.83813 -2.02164 0
M  V30 3327 H 312.685 -4.16522 -3.62234 0
M  V30 3328 H 315.161 -2.24189 -3.5054 0
M  V30 3329 H 314.037 -2.57356 -4.84829 0
M  V30 3330 H 314.298 -0.917263 -4.3248 0
M  V30 3331 N 313.357 1.07166 -1.15556 0
M  V30 3332 C 314.604 1.79798 -0.931604 0
M  V30 3333 C 314.932 1.8682 0.54115 0
M  V30 3334 O 314.187 1.34942 1.41736 0
M  V30 3335 C 314.486 3.24707 -1.49332 0
M  V30 3336 C 314.152 3.37781 -2.98688 0
M  V30 3337 C 312.814 3.41057 -3.39461 0
M  V30 3338 C 315.166 3.40424 -3.94665 0
M  V30 3339 C 312.494 3.4458 -4.74849 0
M  V30 3340 C 314.846 3.45485 -5.29927 0
M  V30 3341 C 313.51 3.47039 -5.70193 0
M  V30 3342 H 312.78 0.657928 -0.340898 0
M  V30 3343 H 315.427 1.26091 -1.44129 0
M  V30 3344 H 313.732 3.81208 -0.904859 0
M  V30 3345 H 315.429 3.79486 -1.29582 0
M  V30 3346 H 312.019 3.35932 -2.66172 0
M  V30 3347 H 316.203 3.37113 -3.64237 0
M  V30 3348 H 311.459 3.44083 -5.05388 0
M  V30 3349 H 315.633 3.46476 -6.04092 0
M  V30 3350 H 313.26 3.49522 -6.75084 0
M  V30 3351 N 314.835 0.952656 1.25548 0
M  V30 3352 C 316.083 0.605176 1.92826 0
M  V30 3353 C 316.404 -0.860261 1.74999 0
M  V30 3354 O 315.674 -1.6125 1.11244 0
M  V30 3355 H 314.254 0.220832 0.713612 0
M  V30 3356 H 316.916 1.21047 1.52754 0
M  V30 3357 H 316.012 0.832798 3.00784 0
M  V30 3358 N 316.313 -1.40141 0.720998 0
M  V30 3359 C 317.243 -2.33339 0.0867621 0
M  V30 3360 C 318.224 -1.53178 -0.739622 0
M  V30 3361 O 319.409 -1.81625 -0.687449 0
M  V30 3362 C 316.539 -3.37194 -0.831728 0
M  V30 3363 C 315.493 -4.27857 -0.110558 0
M  V30 3364 C 314.819 -5.22294 -1.14513 0
M  V30 3365 C 316.119 -5.11872 1.0385 0
M  V30 3366 H 317.813 -2.86626 0.865219 0
M  V30 3367 H 315.359 -1.37814 0.417516 0
M  V30 3368 H 317.312 -4.01335 -1.28485 0
M  V30 3369 H 316.036 -2.82314 -1.64214 0
M  V30 3370 H 314.695 -3.65176 0.322797 0
M  V30 3371 H 314.343 -4.63717 -1.94874 0
M  V30 3372 H 314.043 -5.83797 -0.667446 0
M  V30 3373 H 315.567 -5.89312 -1.59824 0
M  V30 3374 H 316.981 -5.69436 0.664482 0
M  V30 3375 H 315.378 -5.82445 1.4449 0
M  V30 3376 H 316.448 -4.4753 1.86668 0
M  V30 3377 N 317.792 -0.46758 -1.50504 0
M  V30 3378 C 318.724 0.364655 -2.26281 0
M  V30 3379 C 319.737 0.960151 -1.31472 0
M  V30 3380 O 320.926 0.849153 -1.57008 0
M  V30 3381 C 318.026 1.52509 -3.02645 0
M  V30 3382 C 317.199 1.04302 -4.24782 0
M  V30 3383 C 316.258 2.07709 -4.8347 0
M  V30 3384 O 315.284 1.65913 -5.44483 0
M  V30 3385 N 316.486 3.40485 -4.70159 0
M  V30 3386 H 319.251 -0.28495 -2.98342 0
M  V30 3387 H 316.812 -0.298163 -1.59131 0
M  V30 3388 H 318.804 2.21371 -3.38787 0
M  V30 3389 H 317.374 2.07945 -2.33404 0
M  V30 3390 H 316.594 0.180393 -3.93787 0
M  V30 3391 H 317.882 0.698798 -5.03978 0
M  V30 3392 H 317.28 3.77155 -4.21629 0
M  V30 3393 H 315.837 4.05156 -5.1058 0
M  V30 3394 N 319.27 1.56325 -0.20005 0
M  V30 3395 C 320.547 1.89484 0.48529 0
M  V30 3396 C 320.927 1.1143 1.79294 0
M  V30 3397 O 320.275 0.216919 2.27468 0
M  V30 3398 C 320.485 3.41923 0.699243 0
M  V30 3399 C 321.833 4.12256 1.01638 0
M  V30 3400 O 322.857 3.47402 0.786792 0
M  V30 3401 O 321.716 5.26887 1.45095 0
M  V30 3402 H 318.81 0.787144 0.253639 0
M  V30 3403 H 321.356 1.67985 -0.240633 0
M  V30 3404 H 320.128 3.90658 -0.224008 0
M  V30 3405 H 319.751 3.69131 1.47744 0
M  V30 3406 N 320.748 -0.0735177 1.57428 0
M  V30 3407 C 322.025 -0.805903 1.78226 0
M  V30 3408 C 322.405 -1.95874 0.787189 0
M  V30 3409 O 321.753 -2.2779 -0.180029 0
M  V30 3410 C 321.963 -1.28045 3.24662 0
M  V30 3411 C 323.311 -1.71453 3.88444 0
M  V30 3412 O 324.335 -1.37616 3.28543 0
M  V30 3413 O 323.194 -2.34093 4.93825 0
M  V30 3414 H 320.288 -0.386041 0.73137 0
M  V30 3415 H 322.834 -0.0537269 1.69615 0
M  V30 3416 H 321.606 -0.455476 3.8864 0
M  V30 3417 H 321.229 -2.094 3.37991 0
M  V30 3418 N 322.226 -1.5378 -0.344866 0
M  V30 3419 C 323.451 -1.75211 -1.10977 0
M  V30 3420 C 323.876 -0.48936 -1.81623 0
M  V30 3421 O 323.234 0.557925 -1.72502 0
M  V30 3422 C 323.282 -2.93147 -2.09993 0
M  V30 3423 O 322.386 -2.63203 -3.17487 0
M  V30 3424 H 321.727 -0.581241 -0.321021 0
M  V30 3425 H 324.257 -2.00738 -0.395661 0
M  V30 3426 H 324.267 -3.19898 -2.53237 0
M  V30 3427 H 322.942 -3.84731 -1.5797 0
M  V30 3428 H 321.519 -2.47336 -2.79069 0
M  V30 3429 N 323.704 0.605807 -1.45491 0
M  V30 3430 C 324.651 1.7164 -1.54299 0
M  V30 3431 C 325.621 1.61486 -0.388761 0
M  V30 3432 O 326.806 1.81039 -0.602445 0
M  V30 3433 C 323.946 3.09953 -1.51734 0
M  V30 3434 C 323.059 3.309 -2.77721 0
M  V30 3435 C 322.194 4.59329 -2.66816 0
M  V30 3436 C 321.233 4.7354 -3.87848 0
M  V30 3437 N 320.37 5.9327 -3.75467 0
M  V30 3438 H 325.21 1.63449 -2.49176 0
M  V30 3439 H 322.747 0.796957 -1.23641 0
M  V30 3440 H 324.705 3.89977 -1.48235 0
M  V30 3441 H 323.335 3.17098 -0.604068 0
M  V30 3442 H 322.387 2.44639 -2.913 0
M  V30 3443 H 323.699 3.37274 -3.67488 0
M  V30 3444 H 322.853 5.4755 -2.61292 0
M  V30 3445 H 321.592 4.55355 -1.74651 0
M  V30 3446 H 320.597 3.83741 -3.93729 0
M  V30 3447 H 321.822 4.79309 -4.81082 0
M  V30 3448 H 319.768 5.90338 -2.86072 0
M  V30 3449 H 319.685 6.00811 -4.5887 0
M  V30 3450 H 320.953 6.83984 -3.73879 0
M  V30 3451 N 325.182 1.32811 0.848464 0
M  V30 3452 C 326.428 1.23907 1.60546 0
M  V30 3453 C 326.761 -0.197161 1.93197 0
M  V30 3454 O 326.036 -1.13596 1.5788 0
M  V30 3455 C 326.319 2.10489 2.92175 0
M  V30 3456 C 326.172 3.62522 2.66266 0
M  V30 3457 C 327.491 1.97075 3.93509 0
M  V30 3458 H 324.61 0.451459 0.58254 0
M  V30 3459 H 327.252 1.62818 0.979296 0
M  V30 3460 H 325.402 1.77434 3.45614 0
M  V30 3461 H 327.074 4.05821 2.19334 0
M  V30 3462 H 325.317 3.84879 2.00126 0
M  V30 3463 H 325.988 4.18437 3.6002 0
M  V30 3464 H 328.464 2.26045 3.49346 0
M  V30 3465 H 327.34 2.59923 4.83457 0
M  V30 3466 H 327.601 0.940186 4.31987 0
M  V30 3467 N 326.66 -1.06551 1.16123 0
M  V30 3468 C 327.907 -1.79302 0.941126 0
M  V30 3469 C 328.235 -1.87105 -0.531235 0
M  V30 3470 O 327.49 -1.35692 -1.41018 0
M  V30 3471 C 327.789 -3.23911 1.51052 0
M  V30 3472 C 327.455 -3.36193 3.00475 0
M  V30 3473 C 326.117 -3.39252 3.41265 0
M  V30 3474 C 328.469 -3.38326 3.96465 0
M  V30 3475 C 325.797 -3.42057 4.76669 0
M  V30 3476 C 328.149 -3.4267 5.31752 0
M  V30 3477 C 326.813 -3.4401 5.72026 0
M  V30 3478 H 326.083 -0.656111 0.344382 0
M  V30 3479 H 328.73 -1.25325 1.44796 0
M  V30 3480 H 327.035 -3.80723 0.925063 0
M  V30 3481 H 328.732 -3.78793 1.31593 0
M  V30 3482 H 325.322 -3.34516 2.6795 0
M  V30 3483 H 329.506 -3.35176 3.6602 0
M  V30 3484 H 324.762 -3.41398 5.07206 0
M  V30 3485 H 328.936 -3.43268 6.05921 0
M  V30 3486 H 326.563 -3.45937 6.76928 0
M  V30 3487 N 328.138 -0.959301 -1.25041 0
M  V30 3488 C 329.085 -0.482057 -2.2571 0
M  V30 3489 C 330.055 0.467939 -1.59372 0
M  V30 3490 O 331.24 0.380159 -1.86974 0
M  V30 3491 C 328.38 0.229623 -3.44335 0
M  V30 3492 C 327.493 -0.758156 -4.25295 0
M  V30 3493 C 326.628 -0.0234403 -5.31195 0
M  V30 3494 C 325.667 -1.00184 -6.03846 0
M  V30 3495 N 324.804 -0.29769 -7.01469 0
M  V30 3496 H 329.644 -1.34538 -2.65901 0
M  V30 3497 H 327.181 -0.674592 -1.3072 0
M  V30 3498 H 329.139 0.658856 -4.11965 0
M  V30 3499 H 327.769 1.05696 -3.05005 0
M  V30 3500 H 326.821 -1.30586 -3.57284 0
M  V30 3501 H 328.133 -1.50458 -4.75567 0
M  V30 3502 H 327.287 0.464201 -6.04922 0
M  V30 3503 H 326.026 0.755741 -4.81809 0
M  V30 3504 H 325.031 -1.50044 -5.2893 0
M  V30 3505 H 326.256 -1.78133 -6.55321 0
M  V30 3506 H 324.202 0.462668 -6.54366 0
M  V30 3507 H 324.119 -0.983128 -7.4958 0
M  V30 3508 H 325.387 0.16826 -7.79318 0
M  V30 3509 N 329.616 1.39756 -0.72842 0
M  V30 3510 C 330.526 2.34444 -0.0855374 0
M  V30 3511 C 331.542 1.57976 0.729356 0
M  V30 3512 O 332.718 1.90301 0.659346 0
M  V30 3513 C 329.783 3.36965 0.815798 0
M  V30 3514 C 328.844 4.29299 -0.0105996 0
M  V30 3515 C 328.077 5.26923 0.84781 0
M  V30 3516 O 328.3 5.30859 2.08673 0
M  V30 3517 O 327.234 6.01249 0.279969 0
M  V30 3518 H 331.06 2.91065 -0.866892 0
M  V30 3519 H 328.645 1.4117 -0.48902 0
M  V30 3520 H 330.527 3.99804 1.33171 0
M  V30 3521 H 329.202 2.82739 1.57608 0
M  V30 3522 H 328.109 3.69703 -0.571877 0
M  V30 3523 H 329.442 4.86712 -0.73295 0
M  V30 3524 N 331.094 0.475555 1.50254 0
M  V30 3525 C 332.342 -0.077738 2.0195 0
M  V30 3526 C 332.663 -1.39813 1.35931 0
M  V30 3527 O 331.933 -1.89249 0.506123 0
M  V30 3528 H 330.513 -0.031719 0.746326 0
M  V30 3529 H 333.175 0.626995 1.84539 0
M  V30 3530 H 332.271 -0.225995 3.11281 0
M  V30 3531 N 332.573 -1.56217 0.208337 0
M  V30 3532 C 333.798 -2.02782 -0.435222 0
M  V30 3533 C 334.223 -1.08738 -1.53485 0
M  V30 3534 O 333.581 -0.0731855 -1.81152 0
M  V30 3535 C 333.629 -3.47687 -0.956335 0
M  V30 3536 O 332.733 -3.56773 -2.06849 0
M  V30 3537 H 332.074 -0.656403 -0.100158 0
M  V30 3538 H 334.604 -2.02033 0.3231 0
M  V30 3539 H 334.614 -3.87745 -1.26955 0
M  V30 3540 H 333.289 -4.15624 -0.15143 0
M  V30 3541 H 331.866 -3.28597 -1.76292 0
M  V30 3542 N 334.051 0.0651679 -1.57465 0
M  V30 3543 C 335.291 0.768329 -1.8941 0
M  V30 3544 C 335.655 1.74406 -0.802894 0
M  V30 3545 O 336.856 2.49281 -1.0056 0
M  V30 3546 C 335.127 1.45199 -3.26576 0
M  V30 3547 S 336.686 2.1893 -3.80283 0
M  V30 3548 H 333.504 0.255359 -0.663561 0
M  V30 3549 H 336.106 0.024167 -1.95485 0
M  V30 3550 H 334.81 0.728123 -4.03889 0
M  V30 3551 H 334.341 2.23545 -3.23715 0
M  V30 3552 H 336.356 3.45551 -3.56102 0
M  V30 3553 N 335.529 1.53961 0.336706 0
M  V30 3554 C 336.459 1.85417 1.41925 0
M  V30 3555 C 337.44 0.709856 1.5458 0
M  V30 3556 O 338.625 0.962396 1.68676 0
M  V30 3557 C 335.755 2.06985 2.78881 0
M  V30 3558 C 334.709 3.22813 2.81026 0
M  V30 3559 C 334.035 3.29727 4.20932 0
M  V30 3560 C 335.335 4.60767 2.45949 0
M  V30 3561 H 337.029 2.76079 1.15848 0
M  V30 3562 H 334.575 1.32839 0.555859 0
M  V30 3563 H 336.528 2.27575 3.54665 0
M  V30 3564 H 335.252 1.13061 3.06406 0
M  V30 3565 H 333.911 3.0209 2.07695 0
M  V30 3566 H 333.559 2.33385 4.45579 0
M  V30 3567 H 333.259 4.07566 4.23277 0
M  V30 3568 H 334.783 3.52536 4.98549 0
M  V30 3569 H 336.197 4.81325 3.11446 0
M  V30 3570 H 334.594 5.4106 2.59566 0
M  V30 3571 H 335.664 4.6391 1.41122 0
M  V30 3572 N 337.007 -0.598083 1.45811 0
M  V30 3573 C 337.937 -1.71873 1.58057 0
M  V30 3574 C 338.918 -1.64533 0.431615 0
M  V30 3575 O 340.103 -1.82787 0.65595 0
M  V30 3576 C 337.233 -3.10495 1.55597 0
M  V30 3577 C 336.187 -3.32654 2.69305 0
M  V30 3578 C 335.513 -4.71646 2.51902 0
M  V30 3579 C 336.813 -3.21981 4.11248 0
M  V30 3580 H 338.507 -1.61881 2.51863 0
M  V30 3581 H 336.053 -0.777372 1.21214 0
M  V30 3582 H 338.006 -3.88699 1.6276 0
M  V30 3583 H 336.73 -3.2135 0.583255 0
M  V30 3584 H 335.389 -2.56843 2.61586 0
M  V30 3585 H 335.037 -4.79246 1.52748 0
M  V30 3586 H 334.737 -4.87426 3.2816 0
M  V30 3587 H 336.261 -5.52038 2.60933 0
M  V30 3588 H 337.675 -3.90049 4.20161 0
M  V30 3589 H 336.072 -3.49289 4.87972 0
M  V30 3590 H 337.142 -2.1928 4.32486 0
M  V30 3591 N 338.485 -1.33259 -0.841409 0
M  V30 3592 C 339.448 -1.23221 -1.9326 0
M  V30 3593 C 340.448 -0.151895 -1.60081 0
M  V30 3594 O 341.638 -0.403246 -1.69468 0
M  V30 3595 C 338.77 -0.898123 -3.28856 0
M  V30 3596 H 339.963 -2.2021 -2.03587 0
M  V30 3597 H 337.516 -1.17281 -1.03319 0
M  V30 3598 H 338.251 0.0693841 -3.24226 0
M  V30 3599 H 338.036 -1.67934 -3.54317 0
M  V30 3600 H 339.526 -0.852563 -4.08805 0
M  V30 3601 N 339.963 1.05934 -1.16686 0
M  V30 3602 C 341.24 1.75643 -0.860747 0
M  V30 3603 C 341.62 2.01144 0.640641 0
M  V30 3604 O 340.968 1.64147 1.58959 0
M  V30 3605 C 341.178 3.05493 -1.68745 0
M  V30 3606 C 342.526 3.79581 -1.90271 0
M  V30 3607 O 343.55 3.15344 -1.65641 0
M  V30 3608 O 342.409 4.9499 -2.31618 0
M  V30 3609 H 339.503 0.763426 -0.317977 0
M  V30 3610 H 342.049 1.1217 -1.27342 0
M  V30 3611 H 340.821 2.8264 -2.70611 0
M  V30 3612 H 340.444 3.76702 -1.27206 0
M  V30 3613 N 341.441 0.965919 1.2453 0
M  V30 3614 C 342.718 0.543777 1.87889 0
M  V30 3615 C 343.098 -0.97909 1.87021 0
M  V30 3616 O 342.446 -1.84969 1.3416 0
M  V30 3617 C 342.656 1.13327 3.30088 0
M  V30 3618 C 344.004 1.21707 4.06783 0
M  V30 3619 O 345.028 1.08566 3.39252 0
M  V30 3620 O 343.887 1.42456 5.27606 0
M  V30 3621 H 340.981 0.181054 0.806938 0
M  V30 3622 H 343.527 1.06007 1.32516 0
M  V30 3623 H 342.299 2.17612 3.25209 0
M  V30 3624 H 341.922 0.600911 3.93033 0
M  V30 3625 N 342.919 -1.39368 0.735821 0
M  V30 3626 C 343.867 -2.32443 0.0855131 0
M  V30 3627 C 344.861 -1.53104 -0.724954 0
M  V30 3628 O 346.067 -1.68762 -0.626047 0
M  V30 3629 H 342.442 -0.751948 0.00885257 0
M  V30 3630 H 344.413 -2.84916 0.886883 0
M  V30 3631 C 343.162 -3.38206 -0.806983 0
M  V30 3632 H 342.485 -3.99335 -0.19274 0
M  V30 3633 H 343.925 -4.05779 -1.2296 0
M  V30 3634 C 342.384 -2.75321 -1.94165 0
M  V30 3635 O 342.914 -2.63231 -3.03435 0
M  V30 3636 N 341.12 -2.33396 -1.73132 0
M  V30 3637 H 340.667 -2.4343 -0.842596 0
M  V30 3638 H 340.625 -1.91661 -2.49225 0
M  V30 3639 N 344.397 -0.483516 -1.5 0
M  V30 3640 C 345.644 0.0671597 -2.02389 0
M  V30 3641 C 345.972 1.38597 -1.36459 0
M  V30 3642 O 345.227 1.89634 -0.483458 0
M  V30 3643 C 345.526 0.286226 -3.56252 0
M  V30 3644 C 345.192 -0.952416 -4.40726 0
M  V30 3645 C 343.854 -1.29199 -4.63531 0
M  V30 3646 C 346.206 -1.77655 -4.89988 0
M  V30 3647 C 343.534 -2.45553 -5.32842 0
M  V30 3648 C 345.886 -2.93147 -5.60578 0
M  V30 3649 C 344.55 -3.27505 -5.81633 0
M  V30 3650 H 343.82 0.0245755 -0.740592 0
M  V30 3651 H 346.467 -0.640124 -1.80485 0
M  V30 3652 H 344.772 1.07587 -3.76739 0
M  V30 3653 H 346.469 0.726473 -3.94365 0
M  V30 3654 H 343.059 -0.677881 -4.23205 0
M  V30 3655 H 347.243 -1.52737 -4.72213 0
M  V30 3656 H 342.499 -2.72431 -5.47349 0
M  V30 3657 H 346.673 -3.57344 -5.97727 0
M  V30 3658 H 344.3 -4.1777 -6.35116 0
M  V30 3659 N 345.875 1.56104 -0.216619 0
M  V30 3660 C 347.121 1.98466 0.417033 0
M  V30 3661 C 347.454 1.10403 1.59765 0
M  V30 3662 O 346.729 0.160632 1.93836 0
M  V30 3663 C 347.012 3.49769 0.85637 0
M  V30 3664 C 346.865 4.48606 -0.327546 0
M  V30 3665 C 348.184 4.05339 1.7143 0
M  V30 3666 H 345.303 0.721551 0.150112 0
M  V30 3667 H 347.945 1.87423 -0.311864 0
M  V30 3668 H 346.095 3.5931 1.47745 0
M  V30 3669 H 347.767 4.5108 -0.965618 0
M  V30 3670 H 346.01 4.22682 -0.975805 0
M  V30 3671 H 346.681 5.51995 0.0227149 0
M  V30 3672 H 349.157 3.98712 1.19031 0
M  V30 3673 H 348.033 5.11533 1.99061 0
M  V30 3674 H 348.294 3.51918 2.67593 0
M  V30 3675 N 347.353 -0.0568162 1.57498 0
M  V30 3676 C 348.283 -1.06593 2.0775 0
M  V30 3677 C 349.264 -1.39448 0.974082 0
M  V30 3678 O 350.449 -1.48815 1.24771 0
M  V30 3679 C 347.579 -2.37509 2.5339 0
M  V30 3680 C 346.533 -2.1897 3.67745 0
M  V30 3681 C 345.859 -3.55402 3.99492 0
M  V30 3682 C 347.159 -1.59859 4.97235 0
M  V30 3683 H 348.853 -0.647706 2.9231 0
M  V30 3684 H 346.399 -0.310116 1.40621 0
M  V30 3685 H 348.352 -3.08409 2.87162 0
M  V30 3686 H 347.076 -2.8134 1.65878 0
M  V30 3687 H 345.735 -1.50508 3.3428 0
M  V30 3688 H 345.383 -3.9683 3.09088 0
M  V30 3689 H 345.083 -3.43831 4.76502 0
M  V30 3690 H 346.607 -4.27708 4.35773 0
M  V30 3691 H 348.021 -2.20642 5.29141 0
M  V30 3692 H 346.418 -1.58942 5.78669 0
M  V30 3693 H 347.488 -0.561506 4.81638 0
M  V30 3694 N 348.832 -1.54138 -0.328536 0
M  V30 3695 C 350.081 -1.71318 -1.06456 0
M  V30 3696 C 350.394 -0.491109 -1.89334 0
M  V30 3697 O 351.6 -0.54416 -2.65991 0
M  V30 3698 C 350.056 -3.03 -1.94214 0
M  V30 3699 C 349.664 -4.32595 -1.16471 0
M  V30 3700 C 351.408 -3.29544 -2.67583 0
M  V30 3701 C 349.315 -5.55341 -2.03347 0
M  V30 3702 H 348.245 -0.638429 -0.401155 0
M  V30 3703 H 350.896 -1.80633 -0.323106 0
M  V30 3704 H 349.278 -2.87579 -2.72239 0
M  V30 3705 H 350.452 -4.58766 -0.432525 0
M  V30 3706 H 348.767 -4.12777 -0.548063 0
M  V30 3707 H 351.364 -4.18444 -3.3288 0
M  V30 3708 H 351.707 -2.47206 -3.34955 0
M  V30 3709 H 352.24 -3.45809 -1.96623 0
M  V30 3710 H 348.979 -6.40268 -1.40491 0
M  V30 3711 H 348.499 -5.33397 -2.74313 0
M  V30 3712 H 350.178 -5.91557 -2.62049 0
M  V30 3713 N 350.31 0.590341 -1.46126 0
M  V30 3714 C 351.558 1.34616 -1.50742 0
M  V30 3715 C 351.879 1.94363 -0.157486 0
M  V30 3716 O 351.149 1.78136 0.815136 0
M  V30 3717 H 349.729 0.499789 -0.555175 0
M  V30 3718 H 352.391 0.691953 -1.82203 0
M  V30 3719 H 351.487 2.15678 -2.25587 0
M  V30 3720 N 351.788 1.33704 0.83433 0
M  V30 3721 C 353.013 1.28615 1.62705 0
M  V30 3722 C 353.438 -0.139242 1.87584 0
M  V30 3723 O 352.796 -1.09734 1.4432 0
M  V30 3724 C 352.844 2.07139 2.95171 0
M  V30 3725 O 351.948 1.4331 3.86699 0
M  V30 3726 H 351.289 0.44226 0.49528 0
M  V30 3727 H 353.819 1.76335 1.03766 0
M  V30 3728 H 353.829 2.18073 3.44831 0
M  V30 3729 H 352.504 3.10779 2.76386 0
M  V30 3730 H 351.081 1.4105 3.45195 0
M  V30 3731 N 353.266 -1.05314 1.17247 0
M  V30 3732 C 354.513 -1.78293 0.960091 0
M  V30 3733 C 354.841 -1.87658 -0.51136 0
M  V30 3734 O 354.096 -1.3718 -1.39571 0
M  V30 3735 C 354.395 -3.2229 1.54479 0
M  V30 3736 C 354.061 -3.32987 3.04024 0
M  V30 3737 C 352.723 -3.35613 3.44844 0
M  V30 3738 C 355.075 -3.34102 4.00031 0
M  V30 3739 C 352.403 -3.36982 4.8027 0
M  V30 3740 C 354.755 -3.3701 5.35357 0
M  V30 3741 C 353.419 -3.37923 5.75642 0
M  V30 3742 H 352.689 -0.652422 0.351322 0
M  V30 3743 H 355.336 -1.23782 1.46117 0
M  V30 3744 H 353.641 -3.7972 0.965391 0
M  V30 3745 H 355.338 -3.77376 1.35603 0
M  V30 3746 H 351.928 -3.31655 2.71483 0
M  V30 3747 H 356.112 -3.31276 3.69554 0
M  V30 3748 H 351.368 -3.35999 5.10798 0
M  V30 3749 H 355.542 -3.36822 6.09528 0
M  V30 3750 H 353.169 -3.38738 6.80559 0
M  V30 3751 N 354.744 -0.972509 -1.24016 0
M  V30 3752 C 355.99 -0.637978 -1.92504 0
M  V30 3753 C 356.323 0.825383 -1.75787 0
M  V30 3754 O 355.598 1.59442 -1.11393 0
M  V30 3755 C 355.881 -1.01942 -3.45369 0
M  V30 3756 C 355.734 -2.53983 -3.71231 0
M  V30 3757 C 357.053 -0.55751 -4.36555 0
M  V30 3758 H 354.172 -0.233248 -0.699117 0
M  V30 3759 H 356.814 -1.21238 -1.46292 0
M  V30 3760 H 354.964 -0.530656 -3.84859 0
M  V30 3761 H 356.636 -3.10374 -3.41271 0
M  V30 3762 H 354.879 -2.96968 -3.16216 0
M  V30 3763 H 355.55 -2.75723 -4.78206 0
M  V30 3764 H 358.026 -0.977029 -4.04467 0
M  V30 3765 H 356.902 -0.85292 -5.42233 0
M  V30 3766 H 357.163 0.542328 -4.38761 0
M  V30 3767 N 356.222 1.38976 -0.743202 0
M  V30 3768 C 357.447 2.05161 -0.303936 0
M  V30 3769 C 357.872 1.55677 1.05576 0
M  V30 3770 O 357.23 0.704131 1.67068 0
M  V30 3771 C 357.278 3.59138 -0.324373 0
M  V30 3772 O 356.382 4.06668 0.685204 0
M  V30 3773 H 355.723 0.649815 -0.136518 0
M  V30 3774 H 358.253 1.77852 -1.01142 0
M  V30 3775 H 358.263 4.07639 -0.171618 0
M  V30 3776 H 356.938 3.94515 -1.31647 0
M  V30 3777 H 355.515 3.69561 0.497913 0
M  V30 3778 N 357.7 0.491464 1.49741 0
M  V30 3779 C 358.947 -0.0564256 2.02421 0
M  V30 3780 C 359.275 -1.37872 1.37192 0
M  V30 3781 O 358.53 -1.89375 0.493508 0
M  V30 3782 C 358.829 -0.267329 3.56399 0
M  V30 3783 C 358.495 0.975775 4.40215 0
M  V30 3784 C 357.157 1.31655 4.62839 0
M  V30 3785 C 359.509 1.80251 4.89039 0
M  V30 3786 C 356.837 2.48375 5.31532 0
M  V30 3787 C 359.189 2.96116 5.59015 0
M  V30 3788 C 357.853 3.30585 5.79888 0
M  V30 3789 H 357.123 -0.0206476 0.740712 0
M  V30 3790 H 359.77 0.649686 1.80143 0
M  V30 3791 H 358.075 -1.05588 3.77304 0
M  V30 3792 H 359.772 -0.705549 3.94744 0
M  V30 3793 H 356.362 0.700315 4.2284 0
M  V30 3794 H 360.546 1.55239 4.71396 0
M  V30 3795 H 355.802 2.7533 5.45897 0
M  V30 3796 H 359.976 3.60509 5.95824 0
M  V30 3797 H 357.603 4.21132 6.32892 0
M  V30 3798 N 359.178 -1.55987 0.224894 0
M  V30 3799 C 360.425 -1.9839 -0.4059 0
M  V30 3800 C 360.753 -1.11261 -1.59535 0
M  V30 3801 O 360.008 -0.158314 -1.95059 0
M  V30 3802 C 360.307 -3.46394 -0.880106 0
M  V30 3803 C 359.973 -4.5046 0.19918 0
M  V30 3804 C 358.635 -4.7864 0.495661 0
M  V30 3805 C 360.987 -5.12855 0.928939 0
M  V30 3806 C 358.315 -5.66497 1.52636 0
M  V30 3807 C 360.667 -6.01828 1.949 0
M  V30 3808 C 359.331 -6.28351 2.25236 0
M  V30 3809 H 358.601 -0.725961 -0.148529 0
M  V30 3810 H 361.248 -1.88668 0.328113 0
M  V30 3811 H 359.553 -3.53337 -1.69294 0
M  V30 3812 H 361.25 -3.76577 -1.37808 0
M  V30 3813 H 357.84 -4.28579 -0.0420526 0
M  V30 3814 H 362.024 -4.9115 0.713129 0
M  V30 3815 H 357.28 -5.8531 1.76698 0
M  V30 3816 H 361.454 -6.49225 2.51951 0
M  V30 3817 H 359.081 -6.96226 3.05244 0
M  V30 3818 N 360.656 0.0484629 -1.57525 0
M  V30 3819 C 361.905 0.742065 -1.87553 0
M  V30 3820 C 362.218 1.77545 -0.820802 0
M  V30 3821 O 363.424 2.52027 -1.00967 0
M  V30 3822 C 361.88 1.37081 -3.32771 0
M  V30 3823 C 361.488 0.374786 -4.4643 0
M  V30 3824 C 363.232 2.04542 -3.71972 0
M  V30 3825 C 361.139 1.01077 -5.82698 0
M  V30 3826 H 360.069 0.280903 -0.699721 0
M  V30 3827 H 362.72 -0.00411877 -1.835 0
M  V30 3828 H 361.102 2.16605 -3.31509 0
M  V30 3829 H 362.276 -0.392331 -4.59127 0
M  V30 3830 H 360.591 -0.196653 -4.15935 0
M  V30 3831 H 363.188 2.52943 -4.71088 0
M  V30 3832 H 363.531 2.85515 -3.02964 0
M  V30 3833 H 364.064 1.31819 -3.75325 0
M  V30 3834 H 360.803 0.240878 -6.55057 0
M  V30 3835 H 360.323 1.74819 -5.73758 0
M  V30 3836 H 362.002 1.52383 -6.28799 0
M  V30 3837 N 362.134 1.5431 0.320358 0
M  V30 3838 C 363.545 1.63872 0.894594 0
M  V30 3839 C 363.896 0.534847 1.88769 0
M  V30 3840 O 363.021 -0.331732 2.13842 0
M  V30 3841 C 363.616 2.97049 1.62934 0
M  V30 3842 C 362.175 3.08796 2.15226 0
M  V30 3843 C 361.322 2.59456 0.978671 0
M  V30 3844 H 364.273 1.58398 0.0978544 0
M  V30 3845 H 364.294 2.87388 2.49376 0
M  V30 3846 H 363.806 3.7737 0.906302 0
M  V30 3847 H 361.907 2.33156 2.90636 0
M  V30 3848 H 362.02 4.14649 2.40006 0
M  V30 3849 H 360.384 2.1543 1.35875 0
M  V30 3850 H 361.167 3.42237 0.269895 0
M  V30 3851 N 363.613 -0.582584 1.46437 0
M  V30 3852 C 364.543 -1.70187 1.59871 0
M  V30 3853 C 365.524 -1.64066 0.449042 0
M  V30 3854 O 366.709 -1.82081 0.6753 0
M  V30 3855 C 363.839 -3.08827 1.58881 0
M  V30 3856 C 362.793 -3.29779 2.72819 0
M  V30 3857 C 362.119 -4.68947 2.5689 0
M  V30 3858 C 363.419 -3.17601 4.1464 0
M  V30 3859 H 365.113 -1.592 2.53566 0
M  V30 3860 H 362.659 -0.764472 1.22032 0
M  V30 3861 H 364.612 -3.86951 1.66873 0
M  V30 3862 H 363.336 -3.20713 0.617306 0
M  V30 3863 H 361.995 -2.54054 2.64296 0
M  V30 3864 H 361.643 -4.77599 1.57823 0
M  V30 3865 H 361.343 -4.83919 3.33312 0
M  V30 3866 H 362.867 -5.4924 2.66773 0
M  V30 3867 H 364.281 -3.8557 4.24274 0
M  V30 3868 H 362.678 -3.44094 4.9165 0
M  V30 3869 H 363.748 -2.14681 4.34788 0
M  V30 3870 N 365.091 -1.34144 -0.827227 0
M  V30 3871 C 366.319 -1.29325 -1.61501 0
M  V30 3872 C 366.734 0.13354 -1.88327 0
M  V30 3873 O 366.091 1.0793 -1.47164 0
M  V30 3874 C 366.142 -2.07746 -2.95844 0
M  V30 3875 O 365.863 -3.4486 -2.70191 0
M  V30 3876 C 367.364 -2.10273 -3.90256 0
M  V30 3877 H 364.584 -0.445069 -0.50215 0
M  V30 3878 H 367.128 -1.76693 -1.02955 0
M  V30 3879 H 365.283 -1.6403 -3.5096 0
M  V30 3880 H 365.697 -3.85345 -3.55822 0
M  V30 3881 H 367.171 -2.69575 -4.81698 0
M  V30 3882 H 367.648 -1.096 -4.25305 0
M  V30 3883 H 368.254 -2.54059 -3.41078 0
M  V30 3884 N 366.569 1.04691 -1.17803 0
M  V30 3885 C 367.818 1.77176 -0.963931 0
M  V30 3886 C 368.131 1.88888 0.508015 0
M  V30 3887 O 369.337 2.58164 0.840465 0
M  V30 3888 C 367.793 3.18518 -1.67555 0
M  V30 3889 C 367.401 3.14919 -3.18637 0
M  V30 3890 C 369.145 3.95424 -1.54402 0
M  V30 3891 C 367.052 4.51081 -3.82466 0
M  V30 3892 H 365.982 0.664116 -0.357023 0
M  V30 3893 H 368.633 1.17303 -1.4111 0
M  V30 3894 H 367.015 3.78748 -1.15613 0
M  V30 3895 H 368.189 2.64178 -3.77554 0
M  V30 3896 H 366.504 2.51512 -3.31859 0
M  V30 3897 H 369.101 4.96106 -1.99456 0
M  V30 3898 H 369.444 4.13343 -0.495329 0
M  V30 3899 H 369.977 3.41754 -2.0359 0
M  V30 3900 H 366.716 4.38368 -4.87354 0
M  V30 3901 H 366.236 5.01951 -3.28337 0
M  V30 3902 H 367.915 5.2001 -3.84965 0
M  V30 3903 N 368.047 0.979072 1.23499 0
M  V30 3904 C 368.98 0.463027 2.23453 0
M  V30 3905 C 369.958 -0.469128 1.55685 0
M  V30 3906 O 371.142 -0.397882 1.84253 0
M  V30 3907 C 368.269 -0.330308 3.37086 0
M  V30 3908 C 367.315 0.545795 4.22993 0
M  V30 3909 S 368.148 1.99285 4.97037 0
M  V30 3910 C 369.304 1.20862 6.1412 0
M  V30 3911 H 369.537 1.31005 2.6688 0
M  V30 3912 H 367.07 0.784965 1.32957 0
M  V30 3913 H 369.028 -0.782027 4.02982 0
M  V30 3914 H 367.689 -1.15244 2.92194 0
M  V30 3915 H 366.882 -0.0638928 5.03959 0
M  V30 3916 H 366.484 0.933705 3.62157 0
M  V30 3917 H 368.776 0.469284 6.75873 0
M  V30 3918 H 369.719 1.99307 6.79472 0
M  V30 3919 H 370.127 0.727992 5.59786 0
M  V30 3920 N 369.525 -1.3858 0.750561 0
M  V30 3921 C 370.771 -2.00481 0.305825 0
M  V30 3922 C 371.104 -1.5944 -1.10872 0
M  V30 3923 O 370.379 -0.83052 -1.75877 0
M  V30 3924 C 370.662 -3.5758 0.425287 0
M  V30 3925 C 370.515 -4.08594 1.88072 0
M  V30 3926 C 371.834 -4.39719 -0.183122 0
M  V30 3927 H 368.953 -0.728348 0.112598 0
M  V30 3928 H 371.595 -1.64566 0.949638 0
M  V30 3929 H 369.745 -3.88306 -0.122828 0
M  V30 3930 H 371.417 -3.88523 2.48691 0
M  V30 3931 H 369.66 -3.61574 2.39681 0
M  V30 3932 H 370.331 -5.177 1.91548 0
M  V30 3933 H 372.807 -4.15128 0.284303 0
M  V30 3934 H 371.683 -5.48856 -0.0692757 0
M  V30 3935 H 371.944 -4.23434 -1.27106 0
M  V30 3936 N 371.003 -0.499398 -1.49478 0
M  V30 3937 C 372.252 0.0475259 -2.01644 0
M  V30 3938 C 372.565 1.38195 -1.38425 0
M  V30 3939 O 373.771 2.01547 -1.8191 0
M  V30 3940 C 372.227 0.135164 -3.59646 0
M  V30 3941 C 371.835 -1.19252 -4.31837 0
M  V30 3942 C 373.579 0.632538 -4.19761 0
M  V30 3943 C 371.486 -1.06713 -5.81693 0
M  V30 3944 H 370.416 0.0215349 -0.753692 0
M  V30 3945 H 373.067 -0.638577 -1.7203 0
M  V30 3946 H 371.449 0.885681 -3.85969 0
M  V30 3947 H 372.623 -1.9562 -4.17216 0
M  V30 3948 H 370.938 -1.62321 -3.83459 0
M  V30 3949 H 373.535 0.743833 -5.29501 0
M  V30 3950 H 373.878 1.63098 -3.83021 0
M  V30 3951 H 374.411 -0.0613987 -3.97753 0
M  V30 3952 H 371.15 -2.03979 -6.22955 0
M  V30 3953 H 370.67 -0.344307 -5.98811 0
M  V30 3954 H 372.349 -0.745208 -6.42694 0
M  V30 3955 N 372.481 1.55866 -0.233164 0
M  V30 3956 C 373.709 2.02998 0.399905 0
M  V30 3957 C 374.124 1.11274 1.52524 0
M  V30 3958 O 373.481 0.124528 1.82075 0
M  V30 3959 C 373.532 3.4958 0.920639 0
M  V30 3960 O 373.253 4.37808 -0.159834 0
M  V30 3961 C 374.754 4.12411 1.62578 0
M  V30 3962 H 371.974 0.664006 0.0966281 0
M  V30 3963 H 374.518 2.0143 -0.353013 0
M  V30 3964 H 372.673 3.51727 1.62379 0
M  V30 3965 H 373.087 5.23981 0.23337 0
M  V30 3966 H 374.561 5.16711 1.94201 0
M  V30 3967 H 375.038 3.5809 2.54299 0
M  V30 3968 H 375.644 4.14148 0.967553 0
M  V30 3969 N 373.959 -0.0401083 1.57549 0
M  V30 3970 C 375.189 -0.744115 1.92734 0
M  V30 3971 C 375.597 -1.70005 0.830348 0
M  V30 3972 O 374.94 -1.82576 -0.20286 0
M  V30 3973 C 375.002 -1.56516 3.2364 0
M  V30 3974 C 374.666 -0.7752 4.50377 0
M  V30 3975 C 375.663 -0.0803326 5.19838 0
M  V30 3976 C 373.348 -0.733002 4.96923 0
M  V30 3977 C 375.342 0.646154 6.34116 0
M  V30 3978 C 373.029 -0.00276321 6.111 0
M  V30 3979 C 374.027 0.685585 6.7955 0
M  V30 3980 O 373.715 1.40399 7.91545 0
M  V30 3981 H 373.447 -0.214861 0.640945 0
M  V30 3982 H 376.001 -0.00503675 2.05399 0
M  V30 3983 H 374.231 -2.3478 3.07271 0
M  V30 3984 H 375.92 -2.15076 3.44234 0
M  V30 3985 H 376.686 -0.104035 4.84888 0
M  V30 3986 H 372.565 -1.25827 4.43496 0
M  V30 3987 H 376.109 1.18398 6.87479 0
M  V30 3988 H 372.006 0.0229012 6.45496 0
M  V30 3989 H 372.774 1.31653 8.07843 0
M  V30 3990 N 375.437 -1.54477 -0.31217 0
M  V30 3991 C 376.684 -1.73227 -1.04875 0
M  V30 3992 C 377.012 -0.512042 -1.87639 0
M  V30 3993 O 376.267 0.506131 -1.89042 0
M  V30 3994 C 376.566 -2.967 -1.99258 0
M  V30 3995 C 376.232 -4.30974 -1.32559 0
M  V30 3996 C 374.894 -4.67477 -1.141 0
M  V30 3997 C 377.246 -5.14258 -0.847835 0
M  V30 3998 C 374.574 -5.84852 -0.465326 0
M  V30 3999 C 376.926 -6.32327 -0.185931 0
M  V30 4000 C 375.59 -6.67499 0.0107077 0
M  V30 4001 H 374.86 -0.633881 -0.383765 0
M  V30 4002 H 377.507 -1.88727 -0.324731 0
M  V30 4003 H 375.812 -2.75935 -2.7815 0
M  V30 4004 H 377.509 -3.08401 -2.563 0
M  V30 4005 H 374.099 -4.02262 -1.4793 0
M  V30 4006 H 378.283 -4.86565 -0.978192 0
M  V30 4007 H 373.539 -6.10654 -0.301883 0
M  V30 4008 H 377.713 -6.96135 0.192211 0
M  V30 4009 H 375.34 -7.58306 0.536287 0
M  V30 4010 N 376.915 0.57481 -1.46744 0
M  V30 4011 C 377.845 1.69337 -1.60771 0
M  V30 4012 C 378.826 1.63825 -0.457736 0
M  V30 4013 O 380.011 1.8172 -0.684947 0
M  V30 4014 C 377.141 3.0798 -1.60517 0
M  V30 4015 C 376.095 3.28327 -2.74564 0
M  V30 4016 C 375.421 4.67578 -2.59373 0
M  V30 4017 C 376.721 3.15398 -4.16319 0
M  V30 4018 H 378.415 1.57853 -2.54407 0
M  V30 4019 H 375.961 0.75799 -1.22436 0
M  V30 4020 H 377.914 3.86061 -1.68923 0
M  V30 4021 H 376.638 3.20381 -0.634305 0
M  V30 4022 H 375.297 2.52649 -2.65639 0
M  V30 4023 H 374.945 4.76755 -1.60353 0
M  V30 4024 H 374.645 4.82144 -3.35873 0
M  V30 4025 H 376.169 5.47817 -2.69682 0
M  V30 4026 H 377.583 3.83315 -4.26313 0
M  V30 4027 H 375.98 3.41482 -4.93468 0
M  V30 4028 H 377.05 2.12372 -4.3592 0
M  V30 4029 N 378.394 1.34581 0.820102 0
M  V30 4030 C 379.622 1.3018 1.60813 0
M  V30 4031 C 380.037 -0.123551 1.88395 0
M  V30 4032 O 379.394 -1.07148 1.47735 0
M  V30 4033 C 379.445 2.09312 2.94739 0
M  V30 4034 O 379.166 3.46288 2.68358 0
M  V30 4035 C 380.667 2.1234 3.89136 0
M  V30 4036 H 377.887 0.447726 0.499782 0
M  V30 4037 H 380.431 1.77237 1.02017 0
M  V30 4038 H 378.586 1.65889 3.50085 0
M  V30 4039 H 379 3.87227 3.53774 0
M  V30 4040 H 380.474 2.72126 4.80262 0
M  V30 4041 H 380.951 1.11854 4.24718 0
M  V30 4042 H 381.557 2.55864 3.39726 0
M  V30 4043 N 379.872 -1.04064 1.18357 0
M  V30 4044 C 381.121 -1.76662 0.973313 0
M  V30 4045 C 381.434 -1.89154 -0.497991 0
M  V30 4046 O 382.64 -2.58606 -0.826762 0
M  V30 4047 C 381.096 -3.17624 1.69242 0
M  V30 4048 C 380.704 -3.13225 3.20303 0
M  V30 4049 C 382.448 -3.946 1.56497 0
M  V30 4050 C 380.355 -4.49046 3.84853 0
M  V30 4051 H 379.285 -0.662214 0.36054 0
M  V30 4052 H 381.936 -1.16553 1.41731 0
M  V30 4053 H 380.318 -3.78129 1.1762 0
M  V30 4054 H 381.492 -2.62172 3.78949 0
M  V30 4055 H 379.807 -2.49749 3.33189 0
M  V30 4056 H 382.404 -4.95042 2.02084 0
M  V30 4057 H 382.747 -4.13074 0.517243 0
M  V30 4058 H 383.28 -3.4067 2.05399 0
M  V30 4059 H 380.019 -4.35777 4.89672 0
M  V30 4060 H 379.539 -5.00203 3.30994 0
M  V30 4061 H 381.218 -5.17961 3.87718 0
M  V30 4062 N 381.35 -0.985608 -1.22978 0
M  V30 4063 C 382.297 -0.529825 -2.24636 0
M  V30 4064 C 383.267 0.434028 -1.60329 0
M  V30 4065 O 384.452 0.340414 -1.87739 0
M  V30 4066 C 381.592 0.156533 -3.44745 0
M  V30 4067 C 380.705 -0.848197 -4.23591 0
M  V30 4068 C 379.84 -0.136109 -5.31026 0
M  V30 4069 C 378.879 -1.1297 -6.01585 0
M  V30 4070 N 378.016 -0.446415 -7.00679 0
M  V30 4071 H 382.856 -1.40148 -2.62988 0
M  V30 4072 H 380.393 -0.702168 -1.29259 0
M  V30 4073 H 382.351 0.571324 -4.1327 0
M  V30 4074 H 380.981 0.992025 -3.07179 0
M  V30 4075 H 380.033 -1.38135 -3.54433 0
M  V30 4076 H 381.345 -1.60512 -4.72268 0
M  V30 4077 H 380.499 0.335784 -6.0577 0
M  V30 4078 H 379.238 0.653373 -4.83304 0
M  V30 4079 H 378.243 -1.6123 -5.25628 0
M  V30 4080 H 379.468 -1.91993 -6.51395 0
M  V30 4081 H 377.414 0.323763 -6.55201 0
M  V30 4082 H 377.331 -1.1419 -7.47326 0
M  V30 4083 H 378.599 0.00291697 -7.795 0
M  V30 4084 N 382.828 1.3818 -0.7579 0
M  V30 4085 C 384.053 2.04827 -0.325679 0
M  V30 4086 C 384.478 1.56788 1.03919 0
M  V30 4087 O 383.836 0.721811 1.66312 0
M  V30 4088 C 383.884 3.58774 -0.362447 0
M  V30 4089 O 382.988 4.07372 0.642033 0
M  V30 4090 H 382.329 0.64833 -0.143402 0
M  V30 4091 H 384.859 1.7677 -1.03023 0
M  V30 4092 H 384.869 4.07434 -0.214844 0
M  V30 4093 H 383.544 3.93096 -1.35824 0
M  V30 4094 H 382.121 3.70068 0.458688 0
M  V30 4095 N 384.306 0.507319 1.49211 0
M  V30 4096 C 385.236 -0.256939 2.32082 0
M  V30 4097 C 386.217 -0.956609 1.40652 0
M  V30 4098 O 387.402 -0.946788 1.69557 0
M  V30 4099 C 384.532 -1.31802 3.21318 0
M  V30 4100 C 383.486 -0.737855 4.21592 0
M  V30 4101 C 382.812 -1.89992 4.99807 0
M  V30 4102 C 384.112 0.275325 5.21574 0
M  V30 4103 H 385.806 0.434798 2.96226 0
M  V30 4104 H 383.352 0.210546 1.42452 0
M  V30 4105 H 385.305 -1.86045 3.78107 0
M  V30 4106 H 384.029 -2.03903 2.5513 0
M  V30 4107 H 382.688 -0.217126 3.65956 0
M  V30 4108 H 382.336 -2.60877 4.30061 0
M  V30 4109 H 382.036 -1.51777 5.6766 0
M  V30 4110 H 383.56 -2.44657 5.59442 0
M  V30 4111 H 384.974 -0.179193 5.7302 0
M  V30 4112 H 383.371 0.573649 5.97352 0
M  V30 4113 H 384.441 1.18903 4.70096 0
M  V30 4114 N 385.784 -1.5574 0.241426 0
M  V30 4115 C 386.716 -2.18469 -0.693091 0
M  V30 4116 C 387.729 -1.15942 -1.14286 0
M  V30 4117 O 388.918 -1.42832 -1.07058 0
M  V30 4118 C 386.018 -2.7696 -1.95311 0
M  V30 4119 C 385.191 -4.04853 -1.65568 0
M  V30 4120 C 384.25 -4.47715 -2.76474 0
M  V30 4121 O 383.276 -5.14205 -2.44094 0
M  V30 4122 N 384.478 -4.15044 -4.05855 0
M  V30 4123 H 387.243 -2.99292 -0.156388 0
M  V30 4124 H 384.804 -1.61784 0.0611752 0
M  V30 4125 H 386.796 -3.02594 -2.68736 0
M  V30 4126 H 385.366 -2.00326 -2.39975 0
M  V30 4127 H 384.586 -3.86865 -0.756886 0
M  V30 4128 H 385.874 -4.88246 -1.43153 0
M  V30 4129 H 385.272 -3.61654 -4.34998 0
M  V30 4130 H 383.829 -4.45526 -4.75762 0
M  V30 4131 N 387.262 0.0317525 -1.57568 0
M  V30 4132 C 388.209 1.0332 -2.06382 0
M  V30 4133 C 389.179 1.36082 -0.952414 0
M  V30 4134 O 390.364 1.46466 -1.2228 0
M  V30 4135 C 387.504 2.32989 -2.54578 0
M  V30 4136 C 386.617 2.0641 -3.79498 0
M  V30 4137 C 385.752 3.2993 -4.16317 0
M  V30 4138 C 384.791 2.98893 -5.34162 0
M  V30 4139 N 383.928 4.14857 -5.66426 0
M  V30 4140 H 388.768 0.609982 -2.9169 0
M  V30 4141 H 386.305 0.289573 -1.44222 0
M  V30 4142 H 388.263 3.0875 -2.80587 0
M  V30 4143 H 386.893 2.73039 -1.7219 0
M  V30 4144 H 385.945 1.21158 -3.6059 0
M  V30 4145 H 387.257 1.79513 -4.65378 0
M  V30 4146 H 386.411 4.1406 -4.4344 0
M  V30 4147 H 385.15 3.59938 -3.29083 0
M  V30 4148 H 384.155 2.13164 -5.06795 0
M  V30 4149 H 385.38 2.70165 -6.23047 0
M  V30 4150 H 383.326 4.44821 -4.82151 0
M  V30 4151 H 383.243 3.91374 -6.4681 0
M  V30 4152 H 384.511 4.99868 -5.98124 0
M  V30 4153 N 388.74 1.54641 0.303973 0
M  V30 4154 C 389.65 1.88439 1.39743 0
M  V30 4155 C 390.666 0.778239 1.55626 0
M  V30 4156 O 391.842 1.07442 1.70347 0
M  V30 4157 C 388.907 2.12212 2.74166 0
M  V30 4158 C 387.968 3.35936 2.67293 0
M  V30 4159 C 387.201 3.58566 3.95305 0
M  V30 4160 O 387.424 2.84263 4.9452 0
M  V30 4161 O 386.358 4.52078 3.97378 0
M  V30 4162 H 390.184 2.81458 1.14083 0
M  V30 4163 H 387.769 1.40793 0.499768 0
M  V30 4164 H 389.651 2.29067 3.53704 0
M  V30 4165 H 388.326 1.22379 2.99675 0
M  V30 4166 H 387.233 3.24448 1.86237 0
M  V30 4167 H 388.566 4.2589 2.46736 0
M  V30 4168 N 390.218 -0.567019 1.47046 0
M  V30 4169 C 391.181 -1.65696 1.58359 0
M  V30 4170 C 392.181 -1.54097 0.459441 0
M  V30 4171 O 393.371 -1.58432 0.724225 0
M  V30 4172 C 390.503 -3.05197 1.51879 0
M  V30 4173 H 391.696 -1.57019 2.5551 0
M  V30 4174 H 389.249 -0.786148 1.3509 0
M  V30 4175 H 389.984 -3.19417 0.560673 0
M  V30 4176 H 389.769 -3.15025 2.33455 0
M  V30 4177 H 391.259 -3.84511 1.62913 0
M  V30 4178 N 391.696 -1.35014 -0.812953 0
M  V30 4179 C 392.924 -1.31031 -1.6012 0
M  V30 4180 C 393.339 0.113558 -1.88458 0
M  V30 4181 O 392.696 1.06363 -1.48301 0
M  V30 4182 C 392.747 -2.10872 -2.93624 0
M  V30 4183 O 392.468 -3.47706 -2.66518 0
M  V30 4184 C 393.969 -2.14401 -3.88004 0
M  V30 4185 H 391.189 -0.45037 -0.497401 0
M  V30 4186 H 393.733 -1.77775 -1.01076 0
M  V30 4187 H 391.888 -1.67744 -3.492 0
M  V30 4188 H 392.302 -3.89097 -3.51715 0
M  V30 4189 H 393.776 -2.74669 -4.78812 0
M  V30 4190 H 394.253 -1.14105 -4.24119 0
M  V30 4191 H 394.859 -2.57662 -3.38364 0
M  V30 4192 N 393.175 1.03435 -1.18907 0
M  V30 4193 C 394.105 2.13503 -0.945448 0
M  V30 4194 C 395.086 1.69682 0.119189 0
M  V30 4195 O 396.271 1.94169 -0.034707 0
M  V30 4196 C 393.401 3.44004 -0.477316 0
M  V30 4197 C 392.355 4.0148 -1.48316 0
M  V30 4198 C 391.681 5.27537 -0.872311 0
M  V30 4199 C 392.981 4.36921 -2.86177 0
M  V30 4200 H 394.675 2.34141 -1.86597 0
M  V30 4201 H 392.221 1.12523 -0.898584 0
M  V30 4202 H 394.174 4.20372 -0.294204 0
M  V30 4203 H 392.898 3.23072 0.478786 0
M  V30 4204 H 391.557 3.27201 -1.65332 0
M  V30 4205 H 391.205 5.02917 0.0911752 0
M  V30 4206 H 390.905 5.66954 -1.54393 0
M  V30 4207 H 392.429 6.06576 -0.699871 0
M  V30 4208 H 393.843 5.04248 -2.72776 0
M  V30 4209 H 392.24 4.87405 -3.50081 0
M  V30 4210 H 393.31 3.46466 -3.39248 0
M  V30 4211 N 394.653 0.992116 1.22453 0
M  V30 4212 C 395.893 0.675727 1.92907 0
M  V30 4213 C 396.257 -0.777762 1.75542 0
M  V30 4214 O 397.458 -1.20553 2.40251 0
M  V30 4215 C 395.729 1.0696 3.4102 0
M  V30 4216 S 397.288 0.871456 4.30059 0
M  V30 4217 H 394.106 0.247089 0.666684 0
M  V30 4218 H 396.708 1.27423 1.48269 0
M  V30 4219 H 395.412 2.12383 3.51172 0
M  V30 4220 H 394.943 0.462858 3.90668 0
M  V30 4221 H 396.958 -0.238436 4.95627 0
M  V30 4222 N 396.131 -1.37776 0.765217 0
M  V30 4223 C 397.377 -2.00145 0.327072 0
M  V30 4224 C 397.71 -1.60607 -1.09175 0
M  V30 4225 O 396.985 -0.849127 -1.74986 0
M  V30 4226 C 397.268 -3.57109 0.46319 0
M  V30 4227 C 397.121 -4.06576 1.92395 0
M  V30 4228 C 398.44 -4.39888 -0.136473 0
M  V30 4229 H 395.559 -0.727113 0.120316 0
M  V30 4230 H 398.201 -1.63549 0.967039 0
M  V30 4231 H 396.351 -3.88414 -0.0816358 0
M  V30 4232 H 398.023 -3.85864 2.52798 0
M  V30 4233 H 396.266 -3.59011 2.43503 0
M  V30 4234 H 396.937 -5.15639 1.97028 0
M  V30 4235 H 399.413 -4.14803 0.328317 0
M  V30 4236 H 398.289 -5.48899 -0.0110582 0
M  V30 4237 H 398.55 -4.24758 -1.22608 0
M  V30 4238 N 397.609 -0.515225 -1.4894 0
M  V30 4239 C 398.834 0.022727 -2.07388 0
M  V30 4240 C 399.259 1.2876 -1.37122 0
M  V30 4241 O 398.617 1.76067 -0.432431 0
M  V30 4242 C 398.665 0.244869 -3.59768 0
M  V30 4243 O 397.769 1.31667 -3.90817 0
M  V30 4244 H 397.11 -0.0325506 -0.663202 0
M  V30 4245 H 399.64 -0.718918 -1.91553 0
M  V30 4246 H 399.65 0.47205 -4.0526 0
M  V30 4247 H 398.325 -0.679194 -4.10317 0
M  V30 4248 H 396.902 1.07331 -3.5712 0
M  V30 4249 N 399.087 1.5561 -0.249682 0
M  V30 4250 C 400.364 1.90932 0.424761 0
M  V30 4251 C 400.744 1.17078 1.75658 0
M  V30 4252 O 400.092 0.289176 2.26663 0
M  V30 4253 C 400.302 3.43975 0.590109 0
M  V30 4254 C 401.65 4.15281 0.884714 0
M  V30 4255 O 402.674 3.49729 0.67587 0
M  V30 4256 O 401.533 5.31236 1.28259 0
M  V30 4257 H 398.627 0.794815 0.228468 0
M  V30 4258 H 401.173 1.67135 -0.293954 0
M  V30 4259 H 399.945 3.89748 -0.34818 0
M  V30 4260 H 399.568 3.73644 1.35926 0
M  V30 4261 N 400.565 -0.0233959 1.57583 0
M  V30 4262 C 401.495 -1.02162 2.09965 0
M  V30 4263 C 402.476 -1.3735 1.00344 0
M  V30 4264 O 403.661 -1.46135 1.27899 0
M  V30 4265 C 400.791 -2.32081 2.58371 0
M  V30 4266 C 399.745 -2.1112 3.72307 0
M  V30 4267 C 399.071 -3.46848 4.06941 0
M  V30 4268 C 400.371 -1.49276 5.00514 0
M  V30 4269 H 402.065 -0.585557 2.93618 0
M  V30 4270 H 399.611 -0.280218 1.41247 0
M  V30 4271 H 401.564 -3.02249 2.93639 0
M  V30 4272 H 400.288 -2.77758 1.71808 0
M  V30 4273 H 398.947 -1.43384 3.37397 0
M  V30 4274 H 398.595 -3.90184 3.17436 0
M  V30 4275 H 398.295 -3.33646 4.83688 0
M  V30 4276 H 399.819 -4.18369 4.44747 0
M  V30 4277 H 401.233 -2.09368 5.33702 0
M  V30 4278 H 399.63 -1.46632 5.8191 0
M  V30 4279 H 400.7 -0.459217 4.82721 0
M  V30 4280 N 402.043 -1.548 -0.295768 0
M  V30 4281 C 403.291 -1.73985 -1.02828 0
M  V30 4282 C 403.612 -0.531406 -1.87619 0
M  V30 4283 O 402.882 0.454221 -1.90561 0
M  V30 4284 H 401.462 -0.641556 -0.382642 0
M  V30 4285 H 404.124 -1.92163 -0.325489 0
M  V30 4286 H 403.22 -2.63129 -1.67838 0
M  V30 4287 N 403.521 0.559213 -1.47345 0
M  V30 4288 C 404.749 1.34194 -1.57479 0
M  V30 4289 C 405.164 1.87463 -0.224261 0
M  V30 4290 O 404.521 1.64888 0.782185 0
M  V30 4291 C 404.572 2.51324 -2.59843 0
M  V30 4292 O 404.293 2.00256 -3.89653 0
M  V30 4293 C 405.794 3.43563 -2.80142 0
M  V30 4294 H 403.014 0.409136 -0.531835 0
M  V30 4295 H 405.558 0.677609 -1.92947 0
M  V30 4296 H 403.713 3.13699 -2.27314 0
M  V30 4297 H 404.127 2.76708 -4.4557 0
M  V30 4298 H 405.601 4.2217 -3.55635 0
M  V30 4299 H 406.078 3.9698 -1.87892 0
M  V30 4300 H 406.684 2.87005 -3.1386 0
M  V30 4301 N 404.999 1.35443 0.805782 0
M  V30 4302 C 406.415 1.15499 1.10146 0
M  V30 4303 C 406.615 -0.0319975 2.01475 0
M  V30 4304 O 405.671 -0.70236 2.42535 0
M  V30 4305 C 406.984 2.45833 1.73166 0
M  V30 4306 C 408.532 2.52047 1.85583 0
M  V30 4307 C 409.007 3.82427 2.52019 0
M  V30 4308 N 410.498 3.83682 2.59504 0
M  V30 4309 C 411.233 4.81294 3.11679 0
M  V30 4310 N 410.729 5.89294 3.64287 0
M  V30 4311 N 412.522 4.6873 3.1024 0
M  V30 4312 H 404.673 2.11469 0.198678 0
M  V30 4313 H 406.936 0.93594 0.150731 0
M  V30 4314 H 406.642 3.32874 1.13526 0
M  V30 4315 H 406.516 2.6044 2.72857 0
M  V30 4316 H 408.903 1.65435 2.44367 0
M  V30 4317 H 408.984 2.41354 0.847455 0
M  V30 4318 H 408.628 4.69437 1.93885 0
M  V30 4319 H 408.558 3.90409 3.53395 0
M  V30 4320 H 411.049 3.05648 2.22234 0
M  V30 4321 H 411.362 6.59768 4.02401 0
M  V30 4322 H 409.707 5.92985 3.62483 0
M  V30 4323 H 412.898 3.83496 2.68419 0
M  V30 4324 H 413.071 5.44965 3.50596 0
M  V30 4325 N 406.477 -1.02803 1.19454 0
M  V30 4326 C 407.44 -2.09264 0.934955 0
M  V30 4327 C 408.44 -1.60576 -0.0849015 0
M  V30 4328 O 409.63 -1.73554 0.149933 0
M  V30 4329 C 406.762 -3.38482 0.40531 0
M  V30 4330 H 407.955 -2.33726 1.87916 0
M  V30 4331 H 405.508 -1.19426 1.00832 0
M  V30 4332 H 406.243 -3.19689 -0.544899 0
M  V30 4333 H 406.028 -3.75142 1.14065 0
M  V30 4334 H 407.518 -4.16894 0.242806 0
M  V30 4335 N 407.956 -0.998596 -1.21925 0
M  V30 4336 C 408.903 -0.553621 -2.24062 0
M  V30 4337 C 409.873 0.416999 -1.6078 0
M  V30 4338 O 411.058 0.320482 -1.88089 0
M  V30 4339 C 408.198 0.119959 -3.44891 0
M  V30 4340 C 407.311 -0.893077 -4.22668 0
M  V30 4341 C 406.446 -0.192424 -5.30851 0
M  V30 4342 C 405.485 -1.19344 -6.00353 0
M  V30 4343 N 404.622 -0.520707 -7.00166 0
M  V30 4344 H 409.462 -1.4293 -2.61486 0
M  V30 4345 H 406.999 -0.715838 -1.28507 0
M  V30 4346 H 408.957 0.527459 -4.13852 0
M  V30 4347 H 407.587 0.959389 -3.08214 0
M  V30 4348 H 406.639 -1.41886 -3.52948 0
M  V30 4349 H 407.951 -1.65512 -4.70539 0
M  V30 4350 H 407.105 0.271515 -6.06092 0
M  V30 4351 H 405.844 0.602075 -4.83969 0
M  V30 4352 H 404.849 -1.66795 -5.23889 0
M  V30 4353 H 406.074 -1.98891 -6.49322 0
M  V30 4354 H 404.02 0.254252 -6.55507 0
M  V30 4355 H 403.937 -1.2211 -7.46073 0
M  V30 4356 H 405.205 -0.0797596 -7.79459 0
M  V30 4357 N 409.434 1.37368 -0.772513 0
M  V30 4358 C 410.364 2.32856 -0.173304 0
M  V30 4359 C 411.345 1.55818 0.682262 0
M  V30 4360 O 412.53 1.84052 0.619566 0
M  V30 4361 C 409.66 3.40048 0.706007 0
M  V30 4362 C 408.614 4.27973 -0.0483144 0
M  V30 4363 C 407.94 5.26184 0.950491 0
M  V30 4364 C 409.24 5.07665 -1.22776 0
M  V30 4365 H 410.934 2.83217 -0.971002 0
M  V30 4366 H 408.48 1.3617 -0.468377 0
M  V30 4367 H 410.433 4.05827 1.13501 0
M  V30 4368 H 409.157 2.88214 1.53623 0
M  V30 4369 H 407.816 3.63726 -0.458107 0
M  V30 4370 H 407.464 4.7063 1.77529 0
M  V30 4371 H 407.164 5.85872 0.450314 0
M  V30 4372 H 408.688 5.94838 1.37842 0
M  V30 4373 H 410.102 5.66578 -0.875366 0
M  V30 4374 H 408.499 5.76681 -1.66007 0
M  V30 4375 H 409.569 4.40294 -2.03149 0
M  V30 4376 N 410.912 0.523116 1.48665 0
M  V30 4377 C 411.875 -0.232592 2.28017 0
M  V30 4378 C 412.875 -0.874021 1.34972 0
M  V30 4379 O 414.065 -0.735132 1.57929 0
M  V30 4380 C 411.197 -1.33586 3.13636 0
M  V30 4381 H 412.39 0.464008 2.96289 0
M  V30 4382 H 409.943 0.278816 1.53793 0
M  V30 4383 H 410.678 -2.06593 2.4998 0
M  V30 4384 H 410.463 -0.881125 3.82071 0
M  V30 4385 H 411.953 -1.86759 3.73511 0
M  V30 4386 N 412.39 -1.55475 0.257931 0
M  V30 4387 C 413.615 -2.04064 -0.370488 0
M  V30 4388 C 414.04 -1.13565 -1.49948 0
M  V30 4389 O 413.398 -0.130781 -1.80828 0
M  V30 4390 C 413.446 -3.50554 -0.845237 0
M  V30 4391 O 412.55 -3.63173 -1.95394 0
M  V30 4392 H 411.891 -0.659257 -0.0792243 0
M  V30 4393 H 414.421 -2.00903 0.387212 0
M  V30 4394 H 414.431 -3.91588 -1.14555 0
M  V30 4395 H 413.106 -4.15896 -0.0191259 0
M  V30 4396 H 411.683 -3.34039 -1.65748 0
M  V30 4397 N 413.868 0.0150385 -1.57593 0
M  V30 4398 C 415.115 0.703001 -1.89906 0
M  V30 4399 C 415.443 1.74604 -0.856944 0
M  V30 4400 O 414.698 1.95197 0.140287 0
M  V30 4401 C 414.997 1.39686 -3.28972 0
M  V30 4402 C 414.663 0.488457 -4.48246 0
M  V30 4403 C 413.325 0.2383 -4.8061 0
M  V30 4404 C 415.677 -0.137881 -5.21018 0
M  V30 4405 C 413.005 -0.646738 -5.83125 0
M  V30 4406 C 415.357 -1.0107 -6.24474 0
M  V30 4407 C 414.021 -1.27019 -6.55303 0
M  V30 4408 H 413.291 0.257246 -0.694914 0
M  V30 4409 H 415.938 -0.037259 -1.91464 0
M  V30 4410 H 414.243 2.21079 -3.23468 0
M  V30 4411 H 415.94 1.93495 -3.51227 0
M  V30 4412 H 412.53 0.693593 -4.22951 0
M  V30 4413 H 416.714 0.0423953 -4.96282 0
M  V30 4414 H 411.97 -0.855937 -6.05379 0
M  V30 4415 H 416.144 -1.50247 -6.79999 0
M  V30 4416 H 413.771 -1.95769 -7.3456 0
M  V30 4417 N 415.346 1.54954 0.287554 0
M  V30 4418 C 416.571 1.79209 1.04397 0
M  V30 4419 C 416.996 0.556431 1.79682 0
M  V30 4420 O 416.354 -0.493518 1.74454 0
M  V30 4421 C 416.402 3.00739 1.98969 0
M  V30 4422 O 415.506 2.74805 3.075 0
M  V30 4423 H 414.847 0.592755 0.299227 0
M  V30 4424 H 417.377 2.02068 0.320886 0
M  V30 4425 H 417.387 3.29077 2.4119 0
M  V30 4426 H 416.062 3.90329 1.43582 0
M  V30 4427 H 414.639 2.57523 2.69697 0
M  V30 4428 N 416.824 -0.551391 1.4764 0
M  V30 4429 C 418.071 -1.3083 1.54563 0
M  V30 4430 C 418.399 -1.93359 0.210361 0
M  V30 4431 O 417.654 -1.78721 -0.797332 0
M  V30 4432 C 417.953 -2.43469 2.61644 0
M  V30 4433 C 417.619 -1.98732 4.04742 0
M  V30 4434 C 416.281 -1.86248 4.43695 0
M  V30 4435 C 418.633 -1.64659 4.94507 0
M  V30 4436 C 415.961 -1.37995 5.70241 0
M  V30 4437 C 418.313 -1.17875 6.21521 0
M  V30 4438 C 416.977 -1.03992 6.5935 0
M  V30 4439 H 416.247 -0.478741 0.565587 0
M  V30 4440 H 418.894 -0.617697 1.81264 0
M  V30 4441 H 417.199 -3.18109 2.28722 0
M  V30 4442 H 418.896 -3.01642 2.64222 0
M  V30 4443 H 415.486 -2.09393 3.73968 0
M  V30 4444 H 419.67 -1.73174 4.65107 0
M  V30 4445 H 414.926 -1.25915 5.98294 0
M  V30 4446 H 419.1 -0.905739 6.90485 0
M  V30 4447 H 416.727 -0.663794 7.57296 0
M  V30 4448 N 418.302 -1.35869 -0.798587 0
M  V30 4449 C 419.232 -1.32118 -1.92528 0
M  V30 4450 C 420.213 -0.194209 -1.68988 0
M  V30 4451 O 421.398 -0.390426 -1.90235 0
M  V30 4452 C 418.528 -1.10047 -3.29404 0
M  V30 4453 C 417.482 -2.19471 -3.67446 0
M  V30 4454 C 416.808 -1.82555 -5.02571 0
M  V30 4455 C 418.108 -3.61495 -3.76987 0
M  V30 4456 H 419.802 -2.26394 -1.95924 0
M  V30 4457 H 417.348 -1.08981 -0.94123 0
M  V30 4458 H 419.301 -1.06061 -4.07835 0
M  V30 4459 H 418.025 -0.122195 -3.26371 0
M  V30 4460 H 416.684 -2.22568 -2.91306 0
M  V30 4461 H 416.332 -0.833249 -4.9605 0
M  V30 4462 H 416.032 -2.5581 -5.28995 0
M  V30 4463 H 417.556 -1.80108 -5.83432 0
M  V30 4464 H 418.97 -3.60676 -4.4563 0
M  V30 4465 H 417.367 -4.33577 -4.14887 0
M  V30 4466 H 418.437 -3.97065 -2.78329 0
M  V30 4467 N 419.78 1.02168 -1.19998 0
M  V30 4468 C 421.191 1.57135 -1.00825 0
M  V30 4469 C 421.542 1.91276 0.436818 0
M  V30 4470 O 420.667 1.71679 1.3174 0
M  V30 4471 C 421.262 2.85514 -1.82393 0
M  V30 4472 C 419.821 3.37027 -1.67601 0
M  V30 4473 C 418.968 2.10388 -1.80644 0
M  V30 4474 H 421.919 0.846106 -1.34264 0
M  V30 4475 H 421.94 3.56711 -1.32429 0
M  V30 4476 H 421.452 2.60634 -2.87561 0
M  V30 4477 H 419.553 3.66878 -0.650485 0
M  V30 4478 H 419.666 4.09572 -2.4857 0
M  V30 4479 H 418.03 2.22601 -1.23778 0
M  V30 4480 H 418.813 1.8794 -2.87286 0
M  V30 4481 N 421.258 1.00505 1.21394 0
M  V30 4482 C 422.19 0.52372 2.23136 0
M  V30 4483 C 423.203 -0.387714 1.58116 0
M  V30 4484 O 424.392 -0.187905 1.77508 0
M  V30 4485 C 421.492 -0.258885 3.3791 0
M  V30 4486 C 420.665 0.651634 4.32519 0
M  V30 4487 C 419.724 -0.0813705 5.26137 0
M  V30 4488 O 418.75 0.537295 5.66658 0
M  V30 4489 N 419.952 -1.35992 5.64346 0
M  V30 4490 H 422.717 1.39865 2.65062 0
M  V30 4491 H 420.278 0.881196 1.35818 0
M  V30 4492 H 422.27 -0.758208 3.97534 0
M  V30 4493 H 420.84 -1.035 2.94968 0
M  V30 4494 H 420.06 1.33145 3.71034 0
M  V30 4495 H 421.348 1.27129 4.92662 0
M  V30 4496 H 420.746 -1.88368 5.33417 0
M  V30 4497 H 419.303 -1.8042 6.26332 0
M  V30 4498 N 422.737 -1.36956 0.779787 0
M  V30 4499 C 423.962 -2.04283 0.358224 0
M  V30 4500 C 424.387 -1.58422 -1.01411 0
M  V30 4501 O 423.745 -0.748179 -1.65142 0
M  V30 4502 C 423.793 -3.58152 0.419479 0
M  V30 4503 O 422.897 -4.08342 -0.577142 0
M  V30 4504 H 422.238 -0.645967 0.153698 0
M  V30 4505 H 424.768 -1.75108 1.05822 0
M  V30 4506 H 424.778 -4.07041 0.279636 0
M  V30 4507 H 423.453 -3.90886 1.42061 0
M  V30 4508 H 422.03 -3.70751 -0.399755 0
M  V30 4509 N 424.215 -0.530993 -1.48385 0
M  V30 4510 C 425.44 0.000729535 -2.074 0
M  V30 4511 C 425.865 1.27298 -1.3848 0
M  V30 4512 O 425.223 1.75599 -0.451081 0
M  V30 4513 C 425.271 0.206697 -3.60007 0
M  V30 4514 O 424.375 1.27514 -3.92191 0
M  V30 4515 H 423.716 -0.039583 -0.662819 0
M  V30 4516 H 426.246 -0.739194 -1.9078 0
M  V30 4517 H 426.256 0.42904 -4.05738 0
M  V30 4518 H 424.931 -0.722675 -4.09573 0
M  V30 4519 H 423.508 1.03537 -3.58238 0
M  V30 4520 N 425.693 1.55336 -0.266172 0
M  V30 4521 C 426.623 2.25146 0.618981 0
M  V30 4522 C 427.604 1.23845 1.16604 0
M  V30 4523 O 428.789 1.52544 1.20183 0
M  V30 4524 C 425.919 2.96572 1.80728 0
M  V30 4525 C 424.873 4.04726 1.39215 0
M  V30 4526 C 424.199 4.63678 2.66283 0
M  V30 4527 C 425.499 5.19407 0.548942 0
M  V30 4528 H 427.193 2.99377 0.0368116 0
M  V30 4529 H 424.739 1.43991 0.0162651 0
M  V30 4530 H 426.692 3.44116 2.43232 0
M  V30 4531 H 425.416 2.19861 2.41514 0
M  V30 4532 H 424.075 3.57979 0.790351 0
M  V30 4533 H 423.723 3.83646 3.25308 0
M  V30 4534 H 423.423 5.367 2.39222 0
M  V30 4535 H 424.947 5.13967 3.29651 0
M  V30 4536 H 426.361 5.63059 1.07876 0
M  V30 4537 H 424.758 5.98936 0.373593 0
M  V30 4538 H 425.828 4.8295 -0.434394 0
M  V30 4539 N 427.171 -0.0066808 1.57599 0
M  V30 4540 C 428.396 -0.707738 1.94951 0
M  V30 4541 C 428.821 -1.66882 0.867868 0
M  V30 4542 O 428.179 -1.80457 -0.17458 0
M  V30 4543 C 428.227 -1.42162 3.31394 0
M  V30 4544 O 427.331 -2.53578 3.25226 0
M  V30 4545 H 426.672 -0.188752 0.636607 0
M  V30 4546 H 429.202 0.0445193 2.04552 0
M  V30 4547 H 429.212 -1.78655 3.66806 0
M  V30 4548 H 427.887 -0.716903 4.09675 0
M  V30 4549 H 426.464 -2.19463 3.01481 0
M  V30 4550 N 428.649 -1.55105 -0.279332 0
M  V30 4551 C 429.874 -1.7976 -1.03446 0
M  V30 4552 C 430.299 -0.565952 -1.79384 0
M  V30 4553 O 429.657 0.484259 -1.74713 0
M  V30 4554 C 429.705 -3.0179 -1.97371 0
M  V30 4555 O 428.809 -2.76432 -3.06038 0
M  V30 4556 H 428.15 -0.594334 -0.29608 0
M  V30 4557 H 430.68 -2.02235 -0.310165 0
M  V30 4558 H 430.69 -3.30351 -2.39441 0
M  V30 4559 H 429.365 -3.91085 -1.4151 0
M  V30 4560 H 427.942 -2.58949 -2.68328 0
M  V30 4561 N 430.127 0.543554 -1.4793 0
M  V30 4562 C 431.037 1.67657 -1.64098 0
M  V30 4563 C 432.053 1.65934 -0.523622 0
M  V30 4564 O 433.229 1.85133 -0.792943 0
M  V30 4565 C 430.294 3.04146 -1.66421 0
M  V30 4566 C 429.355 3.16831 -2.89684 0
M  V30 4567 C 428.588 4.46809 -2.91886 0
M  V30 4568 O 428.811 5.33095 -2.02895 0
M  V30 4569 O 427.745 4.63573 -3.83906 0
M  V30 4570 H 431.571 1.56957 -2.59997 0
M  V30 4571 H 429.156 0.715116 -1.31173 0
M  V30 4572 H 431.038 3.85346 -1.70548 0
M  V30 4573 H 429.713 3.152 -0.736923 0
M  V30 4574 H 428.62 2.34977 -2.91095 0
M  V30 4575 H 429.953 3.10687 -3.81752 0
M  V30 4576 N 431.605 1.3629 0.791371 0
M  V30 4577 C 432.552 1.30458 1.90393 0
M  V30 4578 C 433.522 0.173632 1.6519 0
M  V30 4579 O 434.707 0.35983 1.87376 0
M  V30 4580 C 431.847 1.09777 3.27174 0
M  V30 4581 C 430.96 2.31929 3.64462 0
M  V30 4582 C 430.095 2.04276 4.90352 0
M  V30 4583 C 429.134 3.224 5.20312 0
M  V30 4584 N 428.271 2.94424 6.37385 0
M  V30 4585 H 433.111 2.25589 1.94714 0
M  V30 4586 H 430.648 1.12122 0.952216 0
M  V30 4587 H 432.606 0.958133 4.06049 0
M  V30 4588 H 431.236 0.183014 3.22281 0
M  V30 4589 H 430.288 2.56703 2.80727 0
M  V30 4590 H 431.6 3.20085 3.82553 0
M  V30 4591 H 430.754 1.87231 5.77087 0
M  V30 4592 H 429.493 1.13428 4.74326 0
M  V30 4593 H 428.498 3.40005 4.32061 0
M  V30 4594 H 429.723 4.14071 5.38258 0
M  V30 4595 H 427.669 2.06185 6.22755 0
M  V30 4596 H 427.586 3.76118 6.55798 0
M  V30 4597 H 428.854 2.80953 7.27108 0
M  V30 4598 N 433.083 -1.0153 1.20538 0
M  V30 4599 C 434.013 -2.11972 0.979295 0
M  V30 4600 C 434.994 -1.6985 -0.0921787 0
M  V30 4601 O 436.179 -1.94089 0.0655932 0
M  V30 4602 C 433.309 -3.43201 0.531984 0
M  V30 4603 C 432.263 -3.9907 1.54685 0
M  V30 4604 C 431.589 -5.26082 0.956127 0
M  V30 4605 C 432.889 -4.32313 2.93092 0
M  V30 4606 H 434.583 -2.31143 1.90298 0
M  V30 4607 H 432.129 -1.11079 0.916372 0
M  V30 4608 H 434.082 -4.1985 0.361044 0
M  V30 4609 H 432.806 -3.23792 -0.427327 0
M  V30 4610 H 431.465 -3.2453 1.70517 0
M  V30 4611 H 431.113 -5.02999 -0.0111538 0
M  V30 4612 H 430.813 -5.64426 1.63393 0
M  V30 4613 H 432.337 -6.05386 0.796284 0
M  V30 4614 H 433.751 -4.99845 2.80763 0
M  V30 4615 H 432.148 -4.81774 3.57791 0
M  V30 4616 H 433.218 -3.41025 3.44717 0
M  V30 4617 N 434.561 -1.01147 -1.20859 0
M  V30 4618 C 435.808 -0.697865 -1.90095 0
M  V30 4619 C 436.136 0.772014 -1.78522 0
M  V30 4620 O 435.391 1.57595 -1.16027 0
M  V30 4621 C 435.69 -1.0727 -3.40922 0
M  V30 4622 C 435.356 -2.53792 -3.72693 0
M  V30 4623 C 434.018 -2.93829 -3.81075 0
M  V30 4624 C 436.37 -3.48674 -3.87397 0
M  V30 4625 C 433.698 -4.27696 -4.01613 0
M  V30 4626 C 436.05 -4.82223 -4.09444 0
M  V30 4627 C 434.714 -5.21973 -4.16054 0
M  V30 4628 H 433.984 -0.255367 -0.695607 0
M  V30 4629 H 436.631 -1.27111 -1.43231 0
M  V30 4630 H 434.936 -0.417799 -3.89566 0
M  V30 4631 H 436.633 -0.807818 -3.92779 0
M  V30 4632 H 433.223 -2.21768 -3.66765 0
M  V30 4633 H 437.407 -3.18904 -3.80281 0
M  V30 4634 H 432.663 -4.58055 -4.04964 0
M  V30 4635 H 436.837 -5.55672 -4.19763 0
M  V30 4636 H 434.464 -6.25717 -4.31721 0
M  V30 4637 N 436.039 1.36541 -0.78704 0
M  V30 4638 C 436.971 2.28761 -0.141773 0
M  V30 4639 C 437.984 1.49365 0.647599 0
M  V30 4640 O 439.173 1.71836 0.483173 0
M  V30 4641 C 436.273 3.28771 0.822368 0
M  V30 4642 C 435.446 4.3732 0.0835594 0
M  V30 4643 C 434.505 5.17307 0.963296 0
M  V30 4644 O 433.531 5.67638 0.421419 0
M  V30 4645 N 434.733 5.33515 2.28784 0
M  V30 4646 H 437.498 2.84777 -0.933919 0
M  V30 4647 H 435.059 1.48682 -0.640735 0
M  V30 4648 H 437.051 3.79169 1.41468 0
M  V30 4649 H 435.621 2.73412 1.5154 0
M  V30 4650 H 434.841 3.88118 -0.689809 0
M  V30 4651 H 436.129 5.0701 -0.426358 0
M  V30 4652 H 435.527 4.94234 2.75226 0
M  V30 4653 H 434.084 5.87165 2.82985 0
M  V30 4654 N 437.518 0.538854 1.48102 0
M  V30 4655 C 438.934 0.19732 1.58376 0
M  V30 4656 C 439.134 -1.29971 1.5398 0
M  V30 4657 O 438.19 -2.07861 1.43352 0
M  V30 4658 C 439.503 0.807716 2.89649 0
M  V30 4659 C 441.051 0.77726 3.03196 0
M  V30 4660 C 441.526 1.36639 4.37143 0
M  V30 4661 N 443.017 1.32875 4.43732 0
M  V30 4662 C 443.752 1.7544 5.45901 0
M  V30 4663 N 443.248 2.25776 6.54979 0
M  V30 4664 N 445.041 1.66623 5.36836 0
M  V30 4665 H 437.192 1.5117 1.49202 0
M  V30 4666 H 439.455 0.629327 0.708979 0
M  V30 4667 H 439.161 1.85909 2.98548 0
M  V30 4668 H 439.035 0.289975 3.76084 0
M  V30 4669 H 441.422 -0.265374 2.93904 0
M  V30 4670 H 441.503 1.33256 2.18349 0
M  V30 4671 H 441.147 2.408 4.47189 0
M  V30 4672 H 441.077 0.786689 5.20691 0
M  V30 4673 H 443.568 0.96037 3.65493 0
M  V30 4674 H 443.881 2.56226 7.29087 0
M  V30 4675 H 442.226 2.29775 6.55918 0
M  V30 4676 H 445.417 1.27089 4.50517 0
M  V30 4677 H 445.59 2.00115 6.16326 0
M  V30 4678 N 438.996 -1.55193 0.274407 0
M  V30 4679 C 440.221 -2.04446 -0.348824 0
M  V30 4680 C 440.646 -1.15149 -1.48735 0
M  V30 4681 O 440.004 -0.149952 -1.80679 0
M  V30 4682 C 440.052 -3.51431 -0.808009 0
M  V30 4683 O 439.156 -3.65225 -1.91531 0
M  V30 4684 H 438.497 -0.66006 -0.0722276 0
M  V30 4685 H 441.027 -2.00481 0.408498 0
M  V30 4686 H 441.037 -3.92781 -1.10395 0
M  V30 4687 H 439.712 -4.15892 0.0249865 0
M  V30 4688 H 438.289 -3.35778 -1.62196 0
M  V30 4689 N 440.474 -0.00167713 -1.576 0
M  V30 4690 C 441.723 0.682021 -1.89819 0
M  V30 4691 C 442.036 1.74844 -0.876871 0
M  V30 4692 O 443.242 2.48688 -1.08934 0
M  V30 4693 C 441.698 1.26425 -3.36964 0
M  V30 4694 C 441.306 0.232568 -4.47396 0
M  V30 4695 C 443.05 1.92604 -3.78291 0
M  V30 4696 C 440.957 0.824882 -5.85619 0
M  V30 4697 H 439.887 0.258499 -0.708304 0
M  V30 4698 H 442.538 -0.0624957 -1.83394 0
M  V30 4699 H 440.92 2.05949 -3.38232 0
M  V30 4700 H 442.094 -0.5382 -4.57646 0
M  V30 4701 H 440.409 -0.32888 -4.15099 0
M  V30 4702 H 443.006 2.37827 -4.78897 0
M  V30 4703 H 443.349 2.75732 -3.11894 0
M  V30 4704 H 443.882 1.19812 -3.79328 0
M  V30 4705 H 440.621 0.0323542 -6.55492 0
M  V30 4706 H 440.141 1.56477 -5.79029 0
M  V30 4707 H 441.82 1.32301 -6.33329 0
M  V30 4708 N 441.952 1.55251 0.271103 0
M  V30 4709 C 442.902 1.84649 1.33749 0
M  V30 4710 C 443.886 0.705529 1.44607 0
M  V30 4711 O 445.078 0.966916 1.48256 0
M  V30 4712 C 442.207 2.12354 2.69742 0
M  V30 4713 C 441.293 3.32714 2.62988 0
M  V30 4714 N 441.684 4.52575 2.25853 0
M  V30 4715 C 439.982 3.35341 2.94045 0
M  V30 4716 C 440.683 5.34669 2.29136 0
M  V30 4717 N 439.659 4.73123 2.67685 0
M  V30 4718 H 443.461 2.74865 1.0405 0
M  V30 4719 H 440.975 1.55152 0.479738 0
M  V30 4720 H 442.972 2.31572 3.4667 0
M  V30 4721 H 441.632 1.23422 3.00328 0
M  V30 4722 H 442.643 4.78639 1.978 0
M  V30 4723 H 439.32 2.56608 3.2933 0
M  V30 4724 H 440.71 6.40509 2.02971 0
M  V30 4725 N 443.43 -0.535701 1.48216 0
M  V30 4726 C 444.846 -0.863701 1.3421 0
M  V30 4727 C 445.046 -1.98458 0.34879 0
M  V30 4728 O 444.102 -2.51432 -0.23204 0
M  V30 4729 C 445.415 -1.23662 2.74095 0
M  V30 4730 C 446.963 -1.34683 2.82541 0
M  V30 4731 C 447.438 -1.75322 4.23115 0
M  V30 4732 N 448.929 -1.82434 4.2576 0
M  V30 4733 C 449.664 -2.15252 5.31464 0
M  V30 4734 N 449.16 -2.46533 6.47452 0
M  V30 4735 N 450.953 -2.16209 5.18855 0
M  V30 4736 H 443.104 0.203965 2.11418 0
M  V30 4737 H 445.367 0.0286033 0.947568 0
M  V30 4738 H 445.073 -0.486674 3.48316 0
M  V30 4739 H 444.947 -2.18805 3.07253 0
M  V30 4740 H 447.334 -2.08756 2.08579 0
M  V30 4741 H 447.415 -0.376756 2.5301 0
M  V30 4742 H 447.059 -1.01812 4.97591 0
M  V30 4743 H 446.989 -2.7337 4.50085 0
M  V30 4744 H 449.48 -1.6056 3.42095 0
M  V30 4745 H 449.793 -2.70662 7.23852 0
M  V30 4746 H 448.138 -2.44065 6.50736 0
M  V30 4747 H 451.329 -1.91224 4.2726 0
M  V30 4748 H 451.502 -2.41453 6.01335 0
M  V30 4749 N 444.908 -1.36708 -0.784132 0
M  V30 4750 C 445.818 -1.3363 -1.92822 0
M  V30 4751 C 446.834 -0.237686 -1.72369 0
M  V30 4752 O 448.01 -0.470962 -1.95816 0
M  V30 4753 C 445.075 -1.13011 -3.27764 0
M  V30 4754 C 444.136 -2.32397 -3.60957 0
M  V30 4755 C 443.369 -2.12752 -4.89461 0
M  V30 4756 O 443.592 -1.10541 -5.59586 0
M  V30 4757 O 442.526 -3.00653 -5.21432 0
M  V30 4758 H 446.352 -2.29964 -1.98369 0
M  V30 4759 H 443.937 -1.1731 -0.925136 0
M  V30 4760 H 445.819 -1.03451 -4.08504 0
M  V30 4761 H 444.494 -0.19743 -3.23097 0
M  V30 4762 H 443.401 -2.47527 -2.80502 0
M  V30 4763 H 444.734 -3.2419 -3.70354 0
M  V30 4764 N 446.386 1.0089 -1.21074 0
M  V30 4765 C 447.797 1.56056 -1.02486 0
M  V30 4766 C 448.148 1.91728 0.416506 0
M  V30 4767 O 447.273 1.73066 1.29912 0
M  V30 4768 C 447.868 2.83563 -1.85411 0
M  V30 4769 C 446.427 3.3523 -1.71166 0
M  V30 4770 C 445.574 2.0846 -1.82865 0
M  V30 4771 H 448.525 0.831818 -1.35154 0
M  V30 4772 H 448.546 3.55286 -1.36205 0
M  V30 4773 H 448.058 2.57569 -2.9031 0
M  V30 4774 H 446.159 3.66167 -0.689361 0
M  V30 4775 H 446.272 4.06913 -2.52901 0
M  V30 4776 H 444.636 2.21275 -1.26132 0
M  V30 4777 H 445.419 1.84883 -2.89263 0
M  V30 4778 N 447.864 1.01787 1.20321 0
M  V30 4779 C 449.112 0.706538 1.89347 0
M  V30 4780 C 449.433 -0.766289 1.79313 0
M  V30 4781 O 448.703 -1.55126 1.19635 0
M  V30 4782 H 447.283 0.258348 0.700903 0
M  V30 4783 H 449.945 1.28974 1.46122 0
M  V30 4784 H 449.041 0.991066 2.95946 0
M  V30 4785 N 449.342 -1.36122 0.79427 0
M  V30 4786 C 450.567 -2.03891 0.379871 0
M  V30 4787 C 450.992 -1.59488 -0.997251 0
M  V30 4788 O 450.35 -0.765652 -1.64339 0
M  V30 4789 C 450.398 -3.57687 0.457442 0
M  V30 4790 O 449.502 -4.08931 -0.5338 0
M  V30 4791 H 448.843 -0.6443 0.160541 0
M  V30 4792 H 451.373 -1.73976 1.07673 0
M  V30 4793 H 451.383 -4.06721 0.322792 0
M  V30 4794 H 450.058 -3.89357 1.46199 0
M  V30 4795 H 448.635 -3.71154 -0.360409 0
M  V30 4796 N 450.82 -0.546701 -1.47814 0
M  V30 4797 C 452.05 -0.0232519 -2.06587 0
M  V30 4798 C 452.458 1.2712 -1.40133 0
M  V30 4799 O 451.801 1.77091 -0.488305 0
M  V30 4800 C 451.863 0.254117 -3.58601 0
M  V30 4801 C 451.527 -0.949331 -4.47031 0
M  V30 4802 C 452.524 -1.85216 -4.85789 0
M  V30 4803 C 450.209 -1.16104 -4.88697 0
M  V30 4804 C 452.203 -2.95047 -5.65001 0
M  V30 4805 C 449.89 -2.26247 -5.67676 0
M  V30 4806 C 450.888 -3.1555 -6.05737 0
M  V30 4807 O 450.576 -4.23784 -6.83127 0
M  V30 4808 H 450.308 -0.0380082 -0.674931 0
M  V30 4809 H 452.862 -0.756631 -1.90956 0
M  V30 4810 H 451.092 1.04168 -3.72406 0
M  V30 4811 H 452.781 0.72167 -3.99433 0
M  V30 4812 H 453.547 -1.70061 -4.54207 0
M  V30 4813 H 449.426 -0.475159 -4.58545 0
M  V30 4814 H 452.97 -3.64778 -5.94628 0
M  V30 4815 H 448.867 -2.41379 -5.98671 0
M  V30 4816 H 449.635 -4.21701 -7.01506 0
M  V30 4817 N 452.299 1.55045 -0.282633 0
M  V30 4818 C 453.527 2.04168 0.33512 0
M  V30 4819 C 453.942 1.16071 1.48906 0
M  V30 4820 O 453.299 0.182391 1.81586 0
M  V30 4821 C 453.35 3.52332 0.808957 0
M  V30 4822 O 453.071 4.37078 -0.299038 0
M  V30 4823 C 454.572 4.17375 1.49375 0
M  V30 4824 H 451.792 0.666744 0.0754543 0
M  V30 4825 H 454.336 2.00205 -0.416918 0
M  V30 4826 H 452.491 3.56715 1.51106 0
M  V30 4827 H 452.905 5.24458 0.0665514 0
M  V30 4828 H 454.379 5.22627 1.77664 0
M  V30 4829 H 454.856 3.65999 2.42778 0
M  V30 4830 H 455.462 4.17016 0.835305 0
M  V30 4831 N 453.777 0.010035 1.57597 0
M  V30 4832 C 455.025 -0.671371 1.90623 0
M  V30 4833 C 455.346 -1.73753 0.885151 0
M  V30 4834 O 454.616 -1.95752 -0.0760611 0
M  V30 4835 H 453.196 -0.250968 0.703579 0
M  V30 4836 H 455.858 0.0533325 1.94827 0
M  V30 4837 H 454.954 -1.13626 2.90681 0
M  V30 4838 N 455.255 -1.55392 -0.262866 0
M  V30 4839 C 456.671 -1.47459 -0.610582 0
M  V30 4840 C 456.871 -0.697031 -1.8906 0
M  V30 4841 O 455.927 -0.219952 -2.5154 0
M  V30 4842 C 457.24 -2.91751 -0.728131 0
M  V30 4843 C 458.788 -3.02027 -0.821517 0
M  V30 4844 C 459.263 -4.47594 -0.97076 0
M  V30 4845 N 460.754 -4.51465 -1.03603 0
M  V30 4846 C 461.489 -5.61326 -1.17049 0
M  V30 4847 N 460.985 -6.81032 -1.2715 0
M  V30 4848 N 462.778 -5.49089 -1.20239 0
M  V30 4849 H 454.929 -2.04395 0.577632 0
M  V30 4850 H 457.192 -0.927287 0.197086 0
M  V30 4851 H 456.898 -3.51413 0.142132 0
M  V30 4852 H 456.772 -3.4134 -1.6052 0
M  V30 4853 H 459.159 -2.42456 -1.68224 0
M  V30 4854 H 459.24 -2.55674 0.0803688 0
M  V30 4855 H 458.884 -5.07771 -0.114655 0
M  V30 4856 H 458.814 -4.91613 -1.88745 0
M  V30 4857 H 461.305 -3.6524 -0.96996 0
M  V30 4858 H 461.618 -7.60511 -1.37271 0
M  V30 4859 H 459.963 -6.83824 -1.24136 0
M  V30 4860 H 463.154 -4.54507 -1.11985 0
M  V30 4861 H 463.327 -6.34749 -1.30373 0
M  V30 4862 N 456.733 0.527833 -1.48498 0
M  V30 4863 C 458.149 0.856571 -1.34666 0
M  V30 4864 C 458.349 1.98271 -0.35931 0
M  V30 4865 O 457.405 2.51551 0.218703 0
M  V30 4866 C 458.718 1.22207 -2.74747 0
M  V30 4867 C 460.266 1.33183 -2.83251 0
M  V30 4868 C 460.741 1.73075 -4.24039 0
M  V30 4869 N 462.232 1.80174 -4.26722 0
M  V30 4870 C 462.967 2.1243 -5.32598 0
M  V30 4871 N 462.463 2.43096 -6.4875 0
M  V30 4872 N 464.256 2.13454 -5.19994 0
M  V30 4873 H 456.407 -0.215174 -2.11307 0
M  V30 4874 H 458.67 -0.0336281 -0.947403 0
M  V30 4875 H 458.376 0.468195 -3.4857 0
M  V30 4876 H 458.25 2.17173 -3.08409 0
M  V30 4877 H 460.637 2.07647 -2.09683 0
M  V30 4878 H 460.718 0.363333 -2.53206 0
M  V30 4879 H 460.362 0.991712 -4.98124 0
M  V30 4880 H 460.292 2.70979 -4.51529 0
M  V30 4881 H 462.783 1.58744 -3.42942 0
M  V30 4882 H 463.096 2.6682 -7.25277 0
M  V30 4883 H 461.441 2.40611 -6.52021 0
M  V30 4884 H 464.632 1.88956 -4.28268 0
M  V30 4885 H 464.805 2.38261 -6.02608 0
M  V30 4886 N 458.211 1.37122 0.776871 0
M  V30 4887 C 459.439 1.3523 1.5659 0
M  V30 4888 C 459.854 -0.0635518 1.88693 0
M  V30 4889 O 459.211 -1.02394 1.51069 0
M  V30 4890 C 459.262 2.18583 2.8793 0
M  V30 4891 O 458.983 3.5465 2.57206 0
M  V30 4892 C 460.484 2.24612 3.82183 0
M  V30 4893 H 457.704 0.4634 0.485285 0
M  V30 4894 H 460.248 1.80392 0.963266 0
M  V30 4895 H 458.403 1.76943 3.4463 0
M  V30 4896 H 458.817 3.98286 3.41275 0
M  V30 4897 H 460.291 2.87267 4.71361 0
M  V30 4898 H 460.768 1.25309 4.20944 0
M  V30 4899 H 461.374 2.66543 3.31414 0
M  V30 4900 N 459.689 -1.00246 1.21608 0
M  V30 4901 C 460.622 -2.08794 0.920892 0
M  V30 4902 C 461.6 -1.62059 -0.132552 0
M  V30 4903 O 462.784 -1.885 -0.0030366 0
M  V30 4904 C 459.911 -3.36525 0.383226 0
M  V30 4905 C 458.957 -4.02172 1.41987 0
M  V30 4906 S 459.79 -4.44256 2.98994 0
M  V30 4907 C 460.946 -5.7517 2.4684 0
M  V30 4908 H 461.179 -2.33511 1.8401 0
M  V30 4909 H 458.712 -1.13562 1.04609 0
M  V30 4910 H 460.67 -4.10423 0.0795871 0
M  V30 4911 H 459.331 -3.09854 -0.514711 0
M  V30 4912 H 458.524 -4.94114 0.993335 0
M  V30 4913 H 458.126 -3.34559 1.67171 0
M  V30 4914 H 460.418 -6.51042 1.87484 0
M  V30 4915 H 461.361 -6.22638 3.37235 0
M  V30 4916 H 461.769 -5.32112 1.88461 0
M  V30 4917 N 461.167 -1.02423 -1.1978 0
M  V30 4918 C 462.099 -0.559152 -2.22275 0
M  V30 4919 C 463.112 0.36251 -1.58713 0
M  V30 4920 O 464.301 0.159641 -1.77785 0
M  V30 4921 C 461.401 0.205094 -3.38279 0
M  V30 4922 C 460.574 -0.720361 -4.31427 0
M  V30 4923 C 459.633 -0.00234368 -5.262 0
M  V30 4924 O 458.659 -0.627378 -5.65732 0
M  V30 4925 N 459.861 1.26996 -5.66438 0
M  V30 4926 H 462.626 -1.44064 -2.62804 0
M  V30 4927 H 460.187 -0.902692 -1.34399 0
M  V30 4928 H 462.179 0.694868 -3.9869 0
M  V30 4929 H 460.749 0.987947 -2.96578 0
M  V30 4930 H 459.969 -1.39031 -3.68869 0
M  V30 4931 H 461.257 -1.3495 -4.90577 0
M  V30 4932 H 460.655 1.79858 -5.36347 0
M  V30 4933 H 459.212 1.70432 -6.29123 0
M  V30 4934 N 462.645 1.35699 -0.801477 0
M  V30 4935 C 463.87 2.03687 -0.390678 0
M  V30 4936 C 464.295 1.60015 0.988778 0
M  V30 4937 O 463.653 0.774357 1.63931 0
M  V30 4938 C 463.701 3.57439 -0.476404 0
M  V30 4939 O 462.805 4.09208 0.512106 0
M  V30 4940 H 462.146 0.64344 -0.163956 0
M  V30 4941 H 464.676 1.73403 -1.08594 0
M  V30 4942 H 464.686 4.06544 -0.344357 0
M  V30 4943 H 463.361 3.88576 -1.48262 0
M  V30 4944 H 461.938 3.7134 0.340721 0
M  V30 4945 N 464.123 0.554532 1.47522 0
M  V30 4946 C 465.372 0.0273458 2.01681 0
M  V30 4947 C 465.685 -1.32962 1.43459 0
M  V30 4948 O 466.891 -1.94657 1.89265 0
M  V30 4949 C 465.347 -0.00159057 3.599 0
M  V30 4950 C 464.955 1.35197 4.27113 0
M  V30 4951 C 466.699 -0.476311 4.21819 0
M  V30 4952 C 464.606 1.28229 5.77331 0
M  V30 4953 H 463.536 0.00645269 0.753972 0
M  V30 4954 H 466.187 0.701985 1.69542 0
M  V30 4955 H 464.569 -0.741821 3.8899 0
M  V30 4956 H 465.743 2.1097 4.09668 0
M  V30 4957 H 464.058 1.76441 3.77171 0
M  V30 4958 H 466.655 -0.5468 5.31897 0
M  V30 4959 H 466.998 -1.4877 3.8881 0
M  V30 4960 H 467.531 0.20898 3.97251 0
M  V30 4961 H 464.27 2.26959 6.14955 0
M  V30 4962 H 463.79 0.566314 5.97121 0
M  V30 4963 H 465.469 0.983226 6.39485 0
M  V30 4964 N 465.601 -1.54893 0.290851 0
M  V30 4965 C 466.826 -2.04804 -0.32712 0
M  V30 4966 C 467.251 -1.16721 -1.47506 0
M  V30 4967 O 466.609 -0.169107 -1.8051 0
M  V30 4968 C 466.657 -3.52268 -0.770689 0
M  V30 4969 O 465.761 -3.67236 -1.87647 0
M  V30 4970 H 465.102 -0.660789 -0.0652227 0
M  V30 4971 H 467.632 -2.00036 0.429739 0
M  V30 4972 H 467.642 -3.9393 -1.06223 0
M  V30 4973 H 466.317 -4.15843 0.069096 0
M  V30 4974 H 464.894 -3.37479 -1.58626 0
M  V30 4975 N 467.08 -0.0183926 -1.57589 0
M  V30 4976 C 468.028 0.985111 -2.10709 0
M  V30 4977 C 469.022 1.34397 -1.0312 0
M  V30 4978 O 470.228 1.32746 -1.21567 0
M  V30 4979 H 466.603 0.335418 -0.673052 0
M  V30 4980 H 468.574 0.511689 -2.9398 0
M  V30 4981 C 467.323 2.26202 -2.64061 0
M  V30 4982 H 466.646 1.9946 -3.4649 0
M  V30 4983 H 468.086 2.94652 -3.04887 0
M  V30 4984 C 466.545 2.98444 -1.5631 0
M  V30 4985 O 467.075 3.90142 -0.956674 0
M  V30 4986 N 465.281 2.6059 -1.28612 0
M  V30 4987 H 464.828 1.86101 -1.78112 0
M  V30 4988 H 464.786 3.09238 -0.567406 0
M  V30 4989 N 468.558 1.5553 0.254621 0
M  V30 4990 C 469.468 1.92789 1.33677 0
M  V30 4991 C 470.484 0.827356 1.53071 0
M  V30 4992 O 471.66 1.12807 1.66843 0
M  V30 4993 C 468.725 2.20827 2.67275 0
M  V30 4994 C 467.786 3.4427 2.5647 0
M  V30 4995 C 467.019 3.70961 3.83697 0
M  V30 4996 O 467.242 2.99852 4.85227 0
M  V30 4997 O 466.176 4.64491 3.82794 0
M  V30 4998 H 470.002 2.84945 1.05071 0
M  V30 4999 H 467.587 1.42312 0.454723 0
M  V30 5000 H 469.469 2.40204 3.46237 0
M  V30 5001 H 468.144 1.31851 2.9563 0
M  V30 5002 H 467.051 3.30209 1.75821 0
M  V30 5003 H 468.384 4.33524 2.33062 0
M  V30 5004 N 470.036 -0.519951 1.48776 0
M  V30 5005 C 470.968 -1.63973 1.60142 0
M  V30 5006 C 471.981 -1.55404 0.485117 0
M  V30 5007 O 473.17 -1.61682 0.756391 0
M  V30 5008 C 470.27 -3.02676 1.52449 0
M  V30 5009 C 469.443 -3.36624 2.79291 0
M  V30 5010 C 468.502 -4.54652 2.64912 0
M  V30 5011 O 467.528 -4.57374 3.38818 0
M  V30 5012 N 468.73 -5.53432 1.75195 0
M  V30 5013 H 471.495 -1.54656 2.56713 0
M  V30 5014 H 469.056 -0.707439 1.45626 0
M  V30 5015 H 471.048 -3.79525 1.4051 0
M  V30 5016 H 469.618 -3.06018 0.638125 0
M  V30 5017 H 468.838 -2.48855 3.0572 0
M  V30 5018 H 470.126 -3.56094 3.6342 0
M  V30 5019 H 469.524 -5.54018 1.14371 0
M  V30 5020 H 468.081 -6.29459 1.69189 0
M  V30 5021 N 471.514 -1.37532 -0.769588 0
M  V30 5022 C 472.461 -1.3347 -1.88293 0
M  V30 5023 C 473.431 -0.199891 -1.64893 0
M  V30 5024 O 474.616 -0.389594 -1.8678 0
M  V30 5025 C 471.756 -1.14968 -3.25387 0
M  V30 5026 C 470.869 -2.37698 -3.60727 0
M  V30 5027 C 470.004 -2.12051 -4.8704 0
M  V30 5028 C 469.043 -3.30636 -5.15117 0
M  V30 5029 N 468.18 -3.04527 -6.3262 0
M  V30 5030 H 473.02 -2.28658 -1.911 0
M  V30 5031 H 470.557 -1.13622 -0.934257 0
M  V30 5032 H 472.515 -1.02261 -4.04473 0
M  V30 5033 H 471.145 -0.234263 -3.21949 0
M  V30 5034 H 470.197 -2.61137 -2.76608 0
M  V30 5035 H 471.509 -3.26131 -3.77413 0
M  V30 5036 H 470.663 -1.96388 -5.74035 0
M  V30 5037 H 469.402 -1.20959 -4.72462 0
M  V30 5038 H 468.407 -3.46836 -4.26597 0
M  V30 5039 H 469.632 -4.22582 -5.31603 0
M  V30 5040 H 467.578 -2.16067 -6.19396 0
M  V30 5041 H 467.495 -3.86503 -6.49732 0
M  V30 5042 H 468.763 -2.92485 -7.22546 0
M  V30 5043 N 472.992 0.995999 -1.22138 0
M  V30 5044 C 473.955 2.06711 -0.990109 0
M  V30 5045 C 474.955 1.60744 0.0422978 0
M  V30 5046 O 476.145 1.73095 -0.195895 0
M  V30 5047 C 473.277 3.37288 -0.49491 0
M  V30 5048 H 474.47 2.28661 -1.94047 0
M  V30 5049 H 472.023 1.16711 -1.03963 0
M  V30 5050 H 472.758 3.21022 0.459948 0
M  V30 5051 H 472.543 3.71986 -1.23971 0
M  V30 5052 H 474.033 4.16103 -0.353253 0
M  V30 5053 N 474.47 1.03057 1.19235 0
M  V30 5054 C 475.71 0.736757 1.9066 0
M  V30 5055 C 476.074 -0.721521 1.77927 0
M  V30 5056 O 477.275 -1.12849 2.43964 0
M  V30 5057 C 475.546 1.17755 3.37444 0
M  V30 5058 S 477.105 1.00783 4.27069 0
M  V30 5059 H 473.923 0.268174 0.658486 0
M  V30 5060 H 476.525 1.32076 1.4414 0
M  V30 5061 H 475.229 2.23448 3.44237 0
M  V30 5062 H 474.76 0.586912 3.88997 0
M  V30 5063 H 476.775 -0.0806356 4.96134 0
M  V30 5064 N 475.948 -1.35272 0.808662 0
M  V30 5065 C 476.895 -2.29764 0.218482 0
M  V30 5066 C 477.865 -1.52911 -0.648652 0
M  V30 5067 O 479.05 -1.81341 -0.593297 0
M  V30 5068 C 476.19 -3.39388 -0.625282 0
M  V30 5069 C 475.303 -4.31202 0.262516 0
M  V30 5070 C 474.438 -5.27919 -0.589451 0
M  V30 5071 C 473.477 -6.11371 0.298617 0
M  V30 5072 N 472.614 -7.0022 -0.513443 0
M  V30 5073 H 477.454 -2.79645 1.02968 0
M  V30 5074 H 474.991 -1.37629 0.519303 0
M  V30 5075 H 476.949 -4.01615 -1.12966 0
M  V30 5076 H 475.579 -2.90777 -1.40173 0
M  V30 5077 H 474.631 -3.69962 0.885013 0
M  V30 5078 H 475.943 -4.89748 0.945971 0
M  V30 5079 H 475.097 -5.95529 -1.15888 0
M  V30 5080 H 473.836 -4.69875 -1.30647 0
M  V30 5081 H 472.841 -5.42707 0.880301 0
M  V30 5082 H 474.066 -6.71494 1.01352 0
M  V30 5083 H 472.012 -6.44662 -1.21439 0
M  V30 5084 H 471.929 -7.55917 0.111922 0
M  V30 5085 H 473.197 -7.72175 -1.06608 0
M  V30 5086 N 477.426 -0.562348 -1.47226 0
M  V30 5087 C 478.672 -0.0402761 -2.0276 0
M  V30 5088 C 479.005 1.30823 -1.43523 0
M  V30 5089 O 478.28 1.85249 -0.592705 0
M  V30 5090 C 478.563 0.047311 -3.60069 0
M  V30 5091 C 478.416 -1.32865 -4.29729 0
M  V30 5092 C 479.735 0.758182 -4.3352 0
M  V30 5093 H 476.854 -0.0161105 -0.736824 0
M  V30 5094 H 479.496 -0.725628 -1.75598 0
M  V30 5095 H 477.646 0.630986 -3.83342 0
M  V30 5096 H 479.318 -1.95593 -4.17781 0
M  V30 5097 H 477.561 -1.90195 -3.89882 0
M  V30 5098 H 478.232 -1.22004 -5.38349 0
M  V30 5099 H 480.708 0.262546 -4.15271 0
M  V30 5100 H 479.584 0.78844 -5.43208 0
M  V30 5101 H 479.845 1.81537 -4.03109 0
M  V30 5102 N 478.904 1.54736 -0.299062 0
M  V30 5103 C 479.834 2.26409 0.571085 0
M  V30 5104 C 480.815 1.2629 1.13951 0
M  V30 5105 O 482 1.55059 1.16921 0
M  V30 5106 C 479.13 3.00338 1.74396 0
M  V30 5107 C 478.084 4.07588 1.30599 0
M  V30 5108 C 477.41 4.69222 2.56387 0
M  V30 5109 C 478.71 5.20455 0.438645 0
M  V30 5110 H 480.404 2.99388 -0.0266991 0
M  V30 5111 H 477.95 1.43993 -0.0142812 0
M  V30 5112 H 479.903 3.49198 2.35878 0
M  V30 5113 H 478.627 2.24934 2.36796 0
M  V30 5114 H 477.286 3.59575 0.71424 0
M  V30 5115 H 476.934 3.9046 3.17097 0
M  V30 5116 H 476.634 5.41653 2.27784 0
M  V30 5117 H 478.158 5.20844 3.18675 0
M  V30 5118 H 479.572 5.65221 0.959085 0
M  V30 5119 H 477.969 5.99594 0.246466 0
M  V30 5120 H 479.039 4.8192 -0.536738 0
M  V30 5121 N 480.382 0.0267497 1.57577 0
M  V30 5122 C 481.63 -0.651116 1.91324 0
M  V30 5123 C 481.951 -1.72804 0.90353 0
M  V30 5124 O 481.221 -1.95822 -0.0552946 0
M  V30 5125 H 479.801 -0.243491 0.706202 0
M  V30 5126 H 482.463 0.0739935 1.94759 0
M  V30 5127 H 481.559 -1.10536 2.9187 0
M  V30 5128 N 481.861 -1.55662 -0.24637 0
M  V30 5129 C 483.11 -1.7672 -0.972254 0
M  V30 5130 C 483.423 -0.59078 -1.86465 0
M  V30 5131 O 484.629 -0.684391 -2.62732 0
M  V30 5132 C 483.085 -3.12869 -1.7788 0
M  V30 5133 C 482.693 -4.38161 -0.933768 0
M  V30 5134 C 484.437 -3.43265 -2.49738 0
M  V30 5135 C 482.344 -5.6534 -1.73623 0
M  V30 5136 H 481.274 -0.658795 -0.366749 0
M  V30 5137 H 483.925 -1.82092 -0.226902 0
M  V30 5138 H 482.307 -3.01606 -2.56612 0
M  V30 5139 H 483.481 -4.60413 -0.188736 0
M  V30 5140 H 481.796 -4.15102 -0.328488 0
M  V30 5141 H 484.393 -4.35501 -3.10231 0
M  V30 5142 H 484.736 -2.64614 -3.2138 0
M  V30 5143 H 485.269 -3.55746 -1.78016 0
M  V30 5144 H 482.008 -6.46814 -1.06354 0
M  V30 5145 H 481.528 -5.47188 -2.45653 0
M  V30 5146 H 483.207 -6.04616 -2.30323 0
M  V30 5147 N 483.339 0.512053 -1.4905 0
M  V30 5148 C 484.585 1.26874 -1.58212 0
M  V30 5149 C 484.918 1.9241 -0.263073 0
M  V30 5150 O 484.193 1.80181 0.732476 0
M  V30 5151 C 484.476 2.34428 -2.73341 0
M  V30 5152 C 484.329 1.73466 -4.15006 0
M  V30 5153 C 485.648 3.36073 -2.84154 0
M  V30 5154 H 482.767 0.459924 -0.575881 0
M  V30 5155 H 485.409 0.568587 -1.81293 0
M  V30 5156 H 483.559 2.94146 -2.53792 0
M  V30 5157 H 485.231 1.17661 -4.46042 0
M  V30 5158 H 483.474 1.03921 -4.21168 0
M  V30 5159 H 484.145 2.51426 -4.91415 0
M  V30 5160 H 486.621 2.86332 -3.01916 0
M  V30 5161 H 485.497 4.08703 -3.66406 0
M  V30 5162 H 485.758 3.97725 -1.93048 0
M  V30 5163 N 484.817 1.37938 0.762283 0
M  V30 5164 C 486.064 1.33668 1.52115 0
M  V30 5165 C 486.392 -0.0759538 1.94352 0
M  V30 5166 O 485.647 -1.05121 1.6507 0
M  V30 5167 C 485.946 2.23042 2.79261 0
M  V30 5168 C 485.612 3.71159 2.56031 0
M  V30 5169 C 484.274 4.11523 2.49404 0
M  V30 5170 C 486.626 4.64955 2.35513 0
M  V30 5171 C 483.954 5.43784 2.20263 0
M  V30 5172 C 486.306 5.97464 2.07894 0
M  V30 5173 C 484.97 6.36922 1.99718 0
M  V30 5174 H 484.24 0.489127 0.556629 0
M  V30 5175 H 486.887 1.70224 0.877262 0
M  V30 5176 H 485.192 1.79512 3.48256 0
M  V30 5177 H 486.889 2.17047 3.37182 0
M  V30 5178 H 483.479 3.39153 2.62056 0
M  V30 5179 H 487.663 4.34623 2.39617 0
M  V30 5180 H 482.919 5.73307 2.12435 0
M  V30 5181 H 487.093 6.6969 1.91019 0
M  V30 5182 H 484.72 7.39331 1.76902 0
M  V30 5183 N 486.295 -0.989507 1.22664 0
M  V30 5184 C 487.542 -1.72953 1.05325 0
M  V30 5185 C 487.87 -1.90104 -0.411168 0
M  V30 5186 O 487.125 -1.44386 -1.32103 0
M  V30 5187 C 487.424 -3.13649 1.71345 0
M  V30 5188 C 487.09 -3.16403 3.21248 0
M  V30 5189 C 485.752 -3.16862 3.62149 0
M  V30 5190 C 488.104 -3.12428 4.17179 0
M  V30 5191 C 485.432 -3.11051 4.97458 0
M  V30 5192 C 487.784 -3.08159 5.52468 0
M  V30 5193 C 486.448 -3.06935 5.92746 0
M  V30 5194 H 485.718 -0.632881 0.385412 0
M  V30 5195 H 488.365 -1.15863 1.52473 0
M  V30 5196 H 486.67 -3.74069 1.16532 0
M  V30 5197 H 488.367 -3.69658 1.55416 0
M  V30 5198 H 484.957 -3.16798 2.88682 0
M  V30 5199 H 489.141 -3.11221 3.86595 0
M  V30 5200 H 484.397 -3.0845 5.27891 0
M  V30 5201 H 488.571 -3.04039 6.26525 0
M  V30 5202 H 486.198 -3.02186 6.97558 0
M  V30 5203 N 487.773 -1.03688 -1.18687 0
M  V30 5204 C 488.703 -0.645407 -2.24403 0
M  V30 5205 C 489.684 0.349511 -1.66471 0
M  V30 5206 O 490.869 0.230453 -1.92828 0
M  V30 5207 C 487.999 -0.00365337 -3.473 0
M  V30 5208 C 486.953 -0.921705 -4.17958 0
M  V30 5209 C 486.279 -0.144629 -5.34504 0
M  V30 5210 C 487.579 -2.23909 -4.71871 0
M  V30 5211 H 489.273 -1.52917 -2.57404 0
M  V30 5212 H 486.819 -0.736711 -1.23728 0
M  V30 5213 H 488.772 0.281908 -4.20456 0
M  V30 5214 H 487.496 0.914963 -3.13522 0
M  V30 5215 H 486.155 -1.19159 -3.46694 0
M  V30 5216 H 485.803 0.776274 -4.96974 0
M  V30 5217 H 485.503 -0.756206 -5.82714 0
M  V30 5218 H 487.027 0.134004 -6.10453 0
M  V30 5219 H 488.441 -2.0145 -5.36741 0
M  V30 5220 H 486.838 -2.8033 -5.30599 0
M  V30 5221 H 487.908 -2.88822 -3.895 0
M  V30 5222 N 489.251 1.34841 -0.815825 0
M  V30 5223 C 490.498 1.98499 -0.400535 0
M  V30 5224 C 490.826 1.64699 1.03463 0
M  V30 5225 O 490.081 0.907006 1.73412 0
M  V30 5226 C 490.38 3.53273 -0.541541 0
M  V30 5227 C 490.046 4.06966 -1.94138 0
M  V30 5228 C 488.708 4.21341 -2.32433 0
M  V30 5229 C 491.06 4.35933 -2.85677 0
M  V30 5230 C 488.388 4.62007 -3.61617 0
M  V30 5231 C 490.74 4.78042 -4.14317 0
M  V30 5232 C 489.404 4.90622 -4.52599 0
M  V30 5233 H 488.674 0.72636 -0.146566 0
M  V30 5234 H 491.321 1.60902 -1.0384 0
M  V30 5235 H 489.626 3.91387 0.179741 0
M  V30 5236 H 491.323 4.00497 -0.20085 0
M  V30 5237 H 487.913 3.96235 -1.63388 0
M  V30 5238 H 492.097 4.24372 -2.57337 0
M  V30 5239 H 487.353 4.69937 -3.91113 0
M  V30 5240 H 491.527 4.99415 -4.85342 0
M  V30 5241 H 489.154 5.2189 -5.52752 0
M  V30 5242 N 490.729 0.570148 1.46925 0
M  V30 5243 C 491.975 0.0510284 2.02736 0
M  V30 5244 C 492.308 -1.3006 1.44215 0
M  V30 5245 O 491.583 -1.84932 0.602521 0
M  V30 5246 C 491.866 -0.028215 3.60089 0
M  V30 5247 C 491.719 1.35142 4.29018 0
M  V30 5248 C 493.038 -0.735181 4.33916 0
M  V30 5249 H 490.157 0.0200178 0.736728 0
M  V30 5250 H 492.799 0.73493 1.75211 0
M  V30 5251 H 490.949 -0.610648 3.83671 0
M  V30 5252 H 492.621 1.97806 4.16738 0
M  V30 5253 H 490.864 1.9226 3.88868 0
M  V30 5254 H 491.535 1.24857 5.37694 0
M  V30 5255 H 494.011 -0.240519 4.15404 0
M  V30 5256 H 492.887 -0.759622 5.43618 0
M  V30 5257 H 493.148 -1.79397 4.04066 0
M  V30 5258 N 492.207 -1.54576 0.307264 0
M  V30 5259 C 493.453 -2.0056 -0.300612 0
M  V30 5260 C 493.786 -1.1953 -1.53057 0
M  V30 5261 O 493.061 -0.27337 -1.92569 0
M  V30 5262 C 493.344 -3.54167 -0.650987 0
M  V30 5263 C 493.197 -4.45933 0.588539 0
M  V30 5264 C 494.516 -4.14645 -1.47506 0
M  V30 5265 H 491.635 -0.729075 -0.107788 0
M  V30 5266 H 494.277 -1.85286 0.420606 0
M  V30 5267 H 492.427 -3.67313 -1.26544 0
M  V30 5268 H 494.099 -4.44683 1.22697 0
M  V30 5269 H 492.342 -4.16274 1.22058 0
M  V30 5270 H 493.013 -5.51189 0.299153 0
M  V30 5271 H 495.489 -4.04973 -0.955821 0
M  V30 5272 H 494.365 -5.22269 -1.68899 0
M  V30 5273 H 494.626 -3.66921 -2.4662 0
M  V30 5274 N 493.685 -0.035106 -1.57561 0
M  V30 5275 C 494.618 0.979673 -2.06101 0
M  V30 5276 C 495.596 1.31378 -0.958046 0
M  V30 5277 O 496.78 1.42942 -1.22881 0
M  V30 5278 C 493.907 2.29809 -2.48808 0
M  V30 5279 C 492.953 2.11817 -3.70184 0
M  V30 5280 S 493.786 1.41143 -5.16565 0
M  V30 5281 C 494.942 2.74341 -5.62572 0
M  V30 5282 H 495.175 0.566506 -2.91853 0
M  V30 5283 H 492.708 0.176744 -1.53385 0
M  V30 5284 H 494.666 3.056 -2.74078 0
M  V30 5285 H 493.327 2.68257 -1.63392 0
M  V30 5286 H 492.52 3.09299 -3.97933 0
M  V30 5287 H 492.122 1.44168 -3.45097 0
M  V30 5288 H 494.414 3.70562 -5.67177 0
M  V30 5289 H 495.357 2.51249 -6.62027 0
M  V30 5290 H 495.765 2.79863 -4.90242 0
M  V30 5291 N 495.163 1.55791 0.238111 0
M  V30 5292 C 496.409 1.79211 0.962035 0
M  V30 5293 C 496.764 0.605463 1.82625 0
M  V30 5294 O 496.057 -0.40104 1.87356 0
M  V30 5295 C 496.251 3.05869 1.84875 0
M  V30 5296 C 496.08 4.36739 1.07186 0
M  V30 5297 C 494.85 4.99346 0.773424 0
M  V30 5298 C 497.048 5.1237 0.445168 0
M  V30 5299 N 495.03 6.13894 -0.0266037 0
M  V30 5300 C 496.401 6.19613 -0.219023 0
M  V30 5301 C 498.456 4.96622 0.356522 0
M  V30 5302 C 497.159 7.1282 -0.963358 0
M  V30 5303 C 499.185 5.90214 -0.374304 0
M  V30 5304 C 498.547 6.96872 -1.0271 0
M  V30 5305 H 494.646 0.707627 0.332849 0
M  V30 5306 H 497.23 1.93284 0.234368 0
M  V30 5307 H 495.401 2.93108 2.54837 0
M  V30 5308 H 497.133 3.17547 2.5089 0
M  V30 5309 H 493.888 4.60948 1.08738 0
M  V30 5310 H 494.312 6.75727 -0.414968 0
M  V30 5311 H 498.954 4.14232 0.846878 0
M  V30 5312 H 496.672 7.94704 -1.46529 0
M  V30 5313 H 500.258 5.80106 -0.443678 0
M  V30 5314 H 499.138 7.68045 -1.58358 0
M  V30 5315 N 496.642 -0.504142 1.49319 0
M  V30 5316 C 497.882 -1.26867 1.60263 0
M  V30 5317 C 498.246 -1.89924 0.281578 0
M  V30 5318 O 499.447 -2.67479 0.266176 0
M  V30 5319 C 497.718 -2.30956 2.72753 0
M  V30 5320 S 499.277 -3.1679 3.03628 0
M  V30 5321 H 496.095 -0.431198 0.565322 0
M  V30 5322 H 498.697 -0.571407 1.86963 0
M  V30 5323 H 497.401 -1.83156 3.67263 0
M  V30 5324 H 496.932 -3.05356 2.48035 0
M  V30 5325 H 498.947 -4.31549 2.44908 0
M  V30 5326 N 498.12 -1.38341 -0.754957 0
M  V30 5327 C 499.531 -1.30803 -1.3322 0
M  V30 5328 C 499.882 0.0368 -1.96165 0
M  V30 5329 O 499.007 0.938844 -1.94974 0
M  V30 5330 C 499.602 -2.3688 -2.42225 0
M  V30 5331 C 498.161 -2.32925 -2.95674 0
M  V30 5332 C 497.308 -2.19819 -1.69042 0
M  V30 5333 H 500.259 -1.48719 -0.553937 0
M  V30 5334 H 500.28 -2.02517 -3.22129 0
M  V30 5335 H 499.792 -3.34747 -1.96383 0
M  V30 5336 H 497.893 -1.38635 -3.45848 0
M  V30 5337 H 498.006 -3.27008 -3.50146 0
M  V30 5338 H 496.37 -1.66648 -1.92615 0
M  V30 5339 H 497.153 -3.19625 -1.25279 0
M  V30 5340 N 499.598 0.982988 -1.23187 0
M  V30 5341 C 500.845 1.72392 -1.06241 0
M  V30 5342 C 501.173 1.9032 0.40108 0
M  V30 5343 O 500.428 1.45084 1.31336 0
M  V30 5344 C 500.727 3.12736 -1.73006 0
M  V30 5345 C 500.393 3.14695 -3.22921 0
M  V30 5346 C 499.055 3.14937 -3.63824 0
M  V30 5347 C 501.407 3.10211 -4.1883 0
M  V30 5348 C 498.735 3.08408 -4.99101 0
M  V30 5349 C 501.087 3.05224 -5.54095 0
M  V30 5350 C 499.751 3.03787 -5.94365 0
M  V30 5351 H 499.021 0.630829 -0.388762 0
M  V30 5352 H 501.668 1.15053 -1.53085 0
M  V30 5353 H 499.973 3.73446 -1.18514 0
M  V30 5354 H 501.67 3.68828 -1.57374 0
M  V30 5355 H 498.26 3.15262 -2.90358 0
M  V30 5356 H 502.444 3.09166 -3.8824 0
M  V30 5357 H 497.7 3.05646 -5.29519 0
M  V30 5358 H 501.874 3.00712 -6.28128 0
M  V30 5359 H 499.501 2.98483 -6.99151 0
M  V30 5360 N 501.076 1.04316 1.18135 0
M  V30 5361 C 502.323 0.74802 1.88178 0
M  V30 5362 C 502.651 -0.72441 1.80506 0
M  V30 5363 O 501.906 -1.54463 1.20165 0
M  V30 5364 C 502.205 1.16271 3.37958 0
M  V30 5365 C 501.871 2.63585 3.65833 0
M  V30 5366 C 500.533 3.03829 3.73151 0
M  V30 5367 C 502.885 3.58822 3.78016 0
M  V30 5368 C 500.213 4.38194 3.90132 0
M  V30 5369 C 502.565 4.92909 3.96514 0
M  V30 5370 C 501.229 5.3282 4.02068 0
M  V30 5371 H 500.499 0.27372 0.688592 0
M  V30 5372 H 503.146 1.30863 1.39811 0
M  V30 5373 H 501.451 0.520938 3.88321 0
M  V30 5374 H 503.148 0.911672 3.90499 0
M  V30 5375 H 499.738 2.31414 3.60757 0
M  V30 5376 H 503.922 3.28875 3.71692 0
M  V30 5377 H 499.178 4.68631 3.92677 0
M  V30 5378 H 503.352 5.66606 4.04883 0
M  V30 5379 H 500.979 6.36943 4.14979 0
M  V30 5380 N 502.554 -1.34406 0.822964 0
M  V30 5381 C 503.803 -1.97542 0.407458 0
M  V30 5382 C 504.116 -1.65973 -1.035 0
M  V30 5383 O 505.322 -2.22598 -1.55442 0
M  V30 5384 C 503.778 -3.53463 0.677623 0
M  V30 5385 C 503.386 -3.93925 2.1337 0
M  V30 5386 C 505.13 -4.23229 0.328284 0
M  V30 5387 C 503.037 -5.42759 2.34876 0
M  V30 5388 H 501.967 -0.739207 0.148623 0
M  V30 5389 H 504.618 -1.53248 1.00932 0
M  V30 5390 H 503 -3.96 0.00558965 0
M  V30 5391 H 504.174 -3.62494 2.8449 0
M  V30 5392 H 502.489 -3.37097 2.44448 0
M  V30 5393 H 505.086 -5.32659 0.466794 0
M  V30 5394 H 505.429 -4.09899 -0.727224 0
M  V30 5395 H 505.962 -3.86169 0.954896 0
M  V30 5396 H 502.701 -5.61075 3.38932 0
M  V30 5397 H 502.221 -5.75704 1.68299 0
M  V30 5398 H 503.9 -6.0944 2.17236 0
M  V30 5399 N 504.032 -0.577932 -1.46621 0
M  V30 5400 C 505.26 -0.0671642 -2.06791 0
M  V30 5401 C 505.675 1.23571 -1.42743 0
M  V30 5402 O 505.032 1.74602 -0.531062 0
M  V30 5403 C 505.083 0.110357 -3.61332 0
M  V30 5404 O 504.804 -1.14095 -4.22982 0
M  V30 5405 C 506.305 0.656025 -4.38419 0
M  V30 5406 H 503.525 -0.0552732 -0.66872 0
M  V30 5407 H 506.069 -0.797242 -1.8832 0
M  V30 5408 H 504.224 0.790637 -3.79246 0
M  V30 5409 H 504.638 -0.951742 -5.15793 0
M  V30 5410 H 506.112 0.729438 -5.47159 0
M  V30 5411 H 506.589 1.67195 -4.06131 0
M  V30 5412 H 507.195 0.0107692 -4.25299 0
M  V30 5413 N 505.51 1.54411 -0.315457 0
M  V30 5414 C 506.458 2.25514 0.569771 0
M  V30 5415 C 507.452 1.2663 1.12522 0
M  V30 5416 O 508.658 1.44434 1.07419 0
M  V30 5417 H 505.033 0.724257 0.202376 0
M  V30 5418 H 507.004 2.98354 -0.0522895 0
M  V30 5419 C 505.753 3.02004 1.72305 0
M  V30 5420 H 505.076 3.77906 1.30488 0
M  V30 5421 H 506.516 3.55014 2.31821 0
M  V30 5422 C 504.975 2.09822 2.63583 0
M  V30 5423 O 505.505 1.67574 3.65078 0
M  V30 5424 N 503.711 1.75478 2.31637 0
M  V30 5425 H 503.258 2.10032 1.49145 0
M  V30 5426 H 503.216 1.14079 2.92973 0
M  V30 5427 N 506.988 0.0434614 1.5754 0
M  V30 5428 C 508.237 -0.631454 1.91561 0
M  V30 5429 C 508.55 -1.72457 0.92292 0
M  V30 5430 O 509.756 -2.45712 1.15489 0
M  V30 5431 C 508.212 -1.17447 3.40197 0
M  V30 5432 C 507.82 -0.113867 4.47855 0
M  V30 5433 C 509.564 -1.82507 3.83264 0
M  V30 5434 C 507.471 -0.669326 5.876 0
M  V30 5435 H 506.401 -0.239629 0.714908 0
M  V30 5436 H 509.052 0.111097 1.83163 0
M  V30 5437 H 507.434 -1.96909 3.43574 0
M  V30 5438 H 508.608 0.659348 4.56058 0
M  V30 5439 H 506.923 0.438821 4.14081 0
M  V30 5440 H 509.52 -2.25047 4.85034 0
M  V30 5441 H 509.863 -2.67365 3.19095 0
M  V30 5442 H 510.396 -1.09712 3.82372 0
M  V30 5443 H 507.135 0.141449 6.55347 0
M  V30 5444 H 506.655 -1.4107 5.82974 0
M  V30 5445 H 508.334 -1.15463 6.36614 0
M  V30 5446 N 508.466 -1.55915 -0.229846 0
M  V30 5447 C 509.399 -1.86734 -1.3117 0
M  V30 5448 C 510.377 -0.723947 -1.45595 0
M  V30 5449 O 511.561 -0.971462 -1.61539 0
M  V30 5450 C 508.688 -2.06707 -2.68309 0
M  V30 5451 C 507.734 -3.2938 -2.70944 0
M  V30 5452 S 508.567 -4.85547 -2.25842 0
M  V30 5453 C 509.723 -5.08546 -3.64873 0
M  V30 5454 H 509.956 -2.78204 -1.04832 0
M  V30 5455 H 507.489 -1.48243 -0.431681 0
M  V30 5456 H 509.447 -2.18898 -3.47267 0
M  V30 5457 H 508.108 -1.16049 -2.91876 0
M  V30 5458 H 507.301 -3.40374 -3.71701 0
M  V30 5459 H 506.903 -3.16004 -2.00044 0
M  V30 5460 H 509.195 -4.96935 -4.60502 0
M  V30 5461 H 510.138 -6.10465 -3.58801 0
M  V30 5462 H 510.546 -4.36314 -3.58176 0
M  V30 5463 N 509.944 0.496216 -1.49584 0
M  V30 5464 C 510.907 1.57952 -1.66084 0
M  V30 5465 C 511.907 1.51729 -0.53244 0
M  V30 5466 O 513.097 1.54796 -0.79899 0
M  V30 5467 C 510.229 2.97604 -1.66268 0
M  V30 5468 H 511.422 1.44649 -2.6271 0
M  V30 5469 H 508.975 0.7208 -1.38687 0
M  V30 5470 H 509.71 3.16378 -0.712432 0
M  V30 5471 H 509.495 3.03528 -2.4822 0
M  V30 5472 H 510.985 3.76301 -1.81073 0
M  V30 5473 N 511.423 1.38739 0.74761 0
M  V30 5474 C 512.669 1.35475 1.50912 0
M  V30 5475 C 513.002 -0.0533093 1.94127 0
M  V30 5476 O 512.277 -1.01572 1.65871 0
M  V30 5477 C 512.56 2.31582 2.75757 0
M  V30 5478 C 512.413 3.81274 2.38642 0
M  V30 5479 C 513.732 2.25722 3.77806 0
M  V30 5480 H 510.851 0.493427 0.547447 0
M  V30 5481 H 513.493 1.69634 0.855823 0
M  V30 5482 H 511.643 2.02582 3.31501 0
M  V30 5483 H 513.315 4.20972 1.88626 0
M  V30 5484 H 511.558 3.98664 1.71025 0
M  V30 5485 H 512.229 4.4399 3.27989 0
M  V30 5486 H 514.705 2.51336 3.31616 0
M  V30 5487 H 513.581 2.95069 4.62845 0
M  V30 5488 H 513.842 1.25803 4.23823 0
M  V30 5489 N 512.901 -0.976442 1.23707 0
M  V30 5490 C 514.15 -1.71254 1.06559 0
M  V30 5491 C 514.463 -1.91528 -0.397024 0
M  V30 5492 O 515.669 -2.62625 -0.688518 0
M  V30 5493 C 514.125 -3.08207 1.8584 0
M  V30 5494 C 513.733 -2.95806 3.36456 0
M  V30 5495 C 515.477 -3.85749 1.77194 0
M  V30 5496 C 513.384 -4.28015 4.08114 0
M  V30 5497 H 512.314 -0.642171 0.395136 0
M  V30 5498 H 514.965 -1.08877 1.4771 0
M  V30 5499 H 513.347 -3.71363 1.37498 0
M  V30 5500 H 514.521 -2.41716 3.92314 0
M  V30 5501 H 512.836 -2.31736 3.45959 0
M  V30 5502 H 515.433 -4.83633 2.28041 0
M  V30 5503 H 515.776 -4.09752 0.735477 0
M  V30 5504 H 516.309 -3.29303 2.23169 0
M  V30 5505 H 513.048 -4.09208 5.12083 0
M  V30 5506 H 512.568 -4.81955 3.57043 0
M  V30 5507 H 514.247 -4.96681 4.14629 0
M  V30 5508 N 514.379 -1.04941 -1.1758 0
M  V30 5509 C 515.619 -0.766996 -1.89464 0
M  V30 5510 C 515.983 0.693123 -1.79053 0
M  V30 5511 O 517.184 1.08953 -2.45729 0
M  V30 5512 C 515.455 -1.23108 -3.35528 0
M  V30 5513 S 517.014 -1.07565 -4.25412 0
M  V30 5514 H 513.832 -0.278616 -0.654136 0
M  V30 5515 H 516.434 -1.34352 -1.4202 0
M  V30 5516 H 515.138 -2.28896 -3.40639 0
M  V30 5517 H 514.669 -0.648724 -3.88014 0
M  V30 5518 H 516.684 0.00169467 -4.962 0
M  V30 5519 N 515.857 1.33968 -0.830081 0
M  V30 5520 C 516.804 2.29387 -0.255008 0
M  V30 5521 C 517.774 1.53923 0.624243 0
M  V30 5522 O 518.959 1.82262 0.564372 0
M  V30 5523 C 516.099 3.4034 0.571209 0
M  V30 5524 C 515.212 4.30729 -0.331083 0
M  V30 5525 C 514.347 5.2879 0.505389 0
M  V30 5526 C 513.386 6.10819 -0.395843 0
M  V30 5527 N 512.523 7.00948 0.401979 0
M  V30 5528 H 517.363 2.77972 -1.07404 0
M  V30 5529 H 514.9 1.36785 -0.541133 0
M  V30 5530 H 516.858 4.03361 1.06562 0
M  V30 5531 H 515.488 2.9297 1.35529 0
M  V30 5532 H 514.54 3.68507 -0.943759 0
M  V30 5533 H 515.852 4.88181 -1.02377 0
M  V30 5534 H 515.006 5.97297 1.06399 0
M  V30 5535 H 513.745 4.71894 1.23155 0
M  V30 5536 H 512.75 5.41238 -0.966529 0
M  V30 5537 H 513.975 6.69797 -1.12023 0
M  V30 5538 H 511.921 6.46512 1.11168 0
M  V30 5539 H 511.838 7.55643 -0.232167 0
M  V30 5540 H 513.106 7.73774 0.943102 0
M  V30 5541 N 517.335 0.585699 1.46312 0
M  V30 5542 C 518.245 -0.148236 2.34131 0
M  V30 5543 C 519.261 -0.882972 1.49932 0
M  V30 5544 O 520.437 -0.845484 1.82794 0
M  V30 5545 C 517.502 -1.14714 3.27172 0
M  V30 5546 C 516.563 -0.416746 4.27272 0
M  V30 5547 C 515.796 -1.36806 5.15868 0
M  V30 5548 O 516.019 -2.60475 5.07454 0
M  V30 5549 O 514.953 -0.877018 5.95476 0
M  V30 5550 H 518.779 0.572882 2.98248 0
M  V30 5551 H 516.364 0.346082 1.45336 0
M  V30 5552 H 518.246 -1.72303 3.84564 0
M  V30 5553 H 516.921 -1.84967 2.65648 0
M  V30 5554 H 515.828 0.201061 3.73559 0
M  V30 5555 H 517.161 0.244872 4.9159 0
M  V30 5556 N 518.813 -1.54241 0.323641 0
M  V30 5557 C 520.038 -2.05452 -0.283605 0
M  V30 5558 C 520.463 -1.19823 -1.44997 0
M  V30 5559 O 519.821 -0.207358 -1.8011 0
M  V30 5560 C 519.869 -3.53823 -0.695795 0
M  V30 5561 O 518.973 -3.71134 -1.79815 0
M  V30 5562 H 518.314 -0.662024 -0.0511917 0
M  V30 5563 H 520.844 -1.99079 0.472073 0
M  V30 5564 H 520.854 -3.96094 -0.978434 0
M  V30 5565 H 519.529 -4.15602 0.157287 0
M  V30 5566 H 518.106 -3.40768 -1.51431 0
M  V30 5567 N 520.291 -0.0518155 -1.57515 0
M  V30 5568 C 521.531 0.625712 -1.94587 0
M  V30 5569 C 521.895 1.6797 -0.930053 0
M  V30 5570 O 523.096 2.41135 -1.18774 0
M  V30 5571 C 521.367 1.20574 -3.36447 0
M  V30 5572 S 522.926 1.90118 -3.95475 0
M  V30 5573 H 519.744 0.205434 -0.680675 0
M  V30 5574 H 522.346 -0.120906 -1.95126 0
M  V30 5575 H 521.05 0.426521 -4.08178 0
M  V30 5576 H 520.581 1.98916 -3.39405 0
M  V30 5577 H 522.596 3.18184 -3.80753 0
M  V30 5578 N 521.769 1.56035 0.221574 0
M  V30 5579 C 522.717 1.93269 1.29421 0
M  V30 5580 C 523.711 0.814727 1.48521 0
M  V30 5581 O 524.917 0.999559 1.49696 0
M  V30 5582 H 521.292 0.614188 0.43391 0
M  V30 5583 H 523.263 2.82773 0.952987 0
M  V30 5584 C 522.012 2.26573 2.63742 0
M  V30 5585 H 521.335 3.12112 2.49853 0
M  V30 5586 H 522.775 2.5651 3.37607 0
M  V30 5587 C 521.234 1.09086 3.1875 0
M  V30 5588 O 521.764 0.351985 4.00155 0
M  V30 5589 N 519.97 0.874693 2.77124 0
M  V30 5590 H 519.517 1.47726 2.11033 0
M  V30 5591 H 519.475 0.0903349 3.1427 0
M  V30 5592 N 523.247 -0.488276 1.49845 0
M  V30 5593 C 524.157 -1.61451 1.70207 0
M  V30 5594 C 525.173 -1.63877 0.584846 0
M  V30 5595 O 526.349 -1.82063 0.861107 0
M  V30 5596 C 523.414 -2.9776 1.77594 0
M  V30 5597 C 522.475 -3.05861 3.01243 0
M  V30 5598 C 521.708 -4.35668 3.08268 0
M  V30 5599 O 521.931 -5.25197 2.22541 0
M  V30 5600 O 520.865 -4.49005 4.00847 0
M  V30 5601 H 524.691 -1.47199 2.65643 0
M  V30 5602 H 522.276 -0.665939 1.33737 0
M  V30 5603 H 524.158 -3.7875 1.84732 0
M  V30 5604 H 522.833 -3.12248 0.8534 0
M  V30 5605 H 521.74 -2.24012 2.99616 0
M  V30 5606 H 523.073 -2.96304 3.9302 0
M  V30 5607 N 524.725 -1.39134 -0.740242 0
M  V30 5608 C 526.002 -1.26584 -1.49117 0
M  V30 5609 C 526.382 0.126902 -2.10718 0
M  V30 5610 O 525.73 1.13765 -1.98166 0
M  V30 5611 C 525.94 -2.38619 -2.54681 0
M  V30 5612 C 527.288 -2.77685 -3.21211 0
M  V30 5613 O 528.312 -2.38029 -2.64991 0
M  V30 5614 O 527.171 -3.46115 -4.22926 0
M  V30 5615 H 524.265 -0.495769 -0.661923 0
M  V30 5616 H 526.811 -1.50995 -0.774514 0
M  V30 5617 H 525.583 -3.3175 -2.07504 0
M  V30 5618 H 525.206 -2.15845 -3.33911 0
M  V30 5619 N 526.204 0.969867 -1.24223 0
M  V30 5620 C 527.45 1.7151 -1.08223 0
M  V30 5621 C 527.783 1.90478 0.37838 0
M  V30 5622 O 527.058 1.4647 1.27971 0
M  V30 5623 C 527.341 3.10714 -1.82013 0
M  V30 5624 C 527.194 2.9925 -3.35811 0
M  V30 5625 C 528.513 4.10332 -1.59108 0
M  V30 5626 H 525.632 0.622499 -0.394543 0
M  V30 5627 H 528.274 1.1284 -1.52863 0
M  V30 5628 H 526.424 3.608 -1.44068 0
M  V30 5629 H 528.096 2.56608 -3.83341 0
M  V30 5630 H 526.339 2.35512 -3.64303 0
M  V30 5631 H 527.01 3.97857 -3.82641 0
M  V30 5632 H 529.486 3.69097 -1.92111 0
M  V30 5633 H 528.362 5.05804 -2.13198 0
M  V30 5634 H 528.623 4.38926 -0.528832 0
M  V30 5635 N 527.682 1.05563 1.17022 0
M  V30 5636 C 528.931 0.763036 1.8671 0
M  V30 5637 C 529.244 -0.712857 1.82147 0
M  V30 5638 O 530.45 -1.11955 2.47343 0
M  V30 5639 C 528.906 1.31474 3.35026 0
M  V30 5640 C 528.514 2.82034 3.48081 0
M  V30 5641 C 530.258 1.09935 4.10018 0
M  V30 5642 C 528.165 3.30486 4.90442 0
M  V30 5643 H 527.095 0.281747 0.699382 0
M  V30 5644 H 529.746 1.2734 1.32124 0
M  V30 5645 H 528.128 0.732171 3.89173 0
M  V30 5646 H 529.302 3.46178 3.04133 0
M  V30 5647 H 527.617 3.02156 2.86515 0
M  V30 5648 H 530.214 1.43632 5.15048 0
M  V30 5649 H 530.557 0.0373072 4.16283 0
M  V30 5650 H 531.09 1.64732 3.62089 0
M  V30 5651 H 527.829 4.36137 4.89352 0
M  V30 5652 H 527.349 2.71086 5.35044 0
M  V30 5653 H 529.028 3.25382 5.59227 0
M  V30 5654 N 529.16 -1.33526 0.837174 0
M  V30 5655 C 530.408 -1.97446 0.431211 0
M  V30 5656 C 530.729 -1.6665 -1.01255 0
M  V30 5657 O 529.999 -0.964559 -1.70508 0
M  V30 5658 H 528.579 -0.73043 0.156463 0
M  V30 5659 H 531.241 -1.62918 1.06976 0
M  V30 5660 H 530.337 -3.07001 0.561877 0
M  V30 5661 N 530.638 -0.59345 -1.46 0
M  V30 5662 C 531.601 0.123538 -2.28867 0
M  V30 5663 C 532.601 0.808628 -1.38989 0
M  V30 5664 O 533.791 0.658945 -1.61256 0
M  V30 5665 C 530.923 1.1847 -3.19653 0
M  V30 5666 H 532.116 -0.604843 -2.93737 0
M  V30 5667 H 529.669 -0.351875 -1.52288 0
M  V30 5668 H 530.404 1.94431 -2.59552 0
M  V30 5669 H 530.189 0.69783 -3.8584 0
M  V30 5670 H 531.679 1.68726 -3.81997 0
M  V30 5671 N 532.116 1.54067 -0.331816 0
M  V30 5672 C 533.046 2.27569 0.522932 0
M  V30 5673 C 534.027 1.28679 1.11247 0
M  V30 5674 O 535.212 1.57504 1.13605 0
M  V30 5675 C 532.342 3.0397 1.67987 0
M  V30 5676 C 531.296 4.10267 1.21924 0
M  V30 5677 C 530.622 4.74555 2.46377 0
M  V30 5678 C 531.922 5.21268 0.32815 0
M  V30 5679 H 533.616 2.99264 -0.0901977 0
M  V30 5680 H 531.162 1.4393 -0.044821 0
M  V30 5681 H 533.115 3.54123 2.28418 0
M  V30 5682 H 531.839 2.29906 2.31971 0
M  V30 5683 H 530.498 3.61009 0.637809 0
M  V30 5684 H 530.146 3.97098 3.08743 0
M  V30 5685 H 529.846 5.46363 2.16243 0
M  V30 5686 H 531.37 5.27487 3.07555 0
M  V30 5687 H 532.784 5.67128 0.838978 0
M  V30 5688 H 531.181 5.99982 0.119228 0
M  V30 5689 H 532.251 4.80673 -0.638839 0
M  V30 5690 N 533.594 0.0601682 1.57485 0
M  V30 5691 C 534.524 -0.90889 2.15085 0
M  V30 5692 C 535.505 -1.31838 1.07484 0
M  V30 5693 O 536.69 -1.3915 1.35466 0
M  V30 5694 C 533.82 -2.18059 2.7031 0
M  V30 5695 C 532.774 -1.91088 3.82974 0
M  V30 5696 C 532.1 -3.24789 4.24754 0
M  V30 5697 C 533.4 -1.22535 5.07723 0
M  V30 5698 H 535.094 -0.429093 2.96309 0
M  V30 5699 H 532.64 -0.204952 1.42534 0
M  V30 5700 H 534.593 -2.86258 3.09248 0
M  V30 5701 H 533.317 -2.6826 1.8629 0
M  V30 5702 H 531.976 -1.25297 3.44523 0
M  V30 5703 H 531.624 -3.72809 3.37672 0
M  V30 5704 H 531.324 -3.07538 5.00694 0
M  V30 5705 H 532.848 -3.94205 4.66299 0
M  V30 5706 H 534.262 -1.80783 5.4405 0
M  V30 5707 H 532.659 -1.1558 5.88864 0
M  V30 5708 H 533.729 -0.202692 4.84476 0
M  V30 5709 N 535.072 -1.5615 -0.213296 0
M  V30 5710 C 536.02 -1.93953 -1.28394 0
M  V30 5711 C 537.014 -0.822592 -1.48087 0
M  V30 5712 O 538.22 -1.00748 -1.49164 0
M  V30 5713 H 534.595 -0.61648 -0.430646 0
M  V30 5714 H 536.566 -2.83275 -0.937977 0
M  V30 5715 C 535.315 -2.27969 -2.62537 0
M  V30 5716 H 534.638 -3.13432 -2.48194 0
M  V30 5717 H 536.078 -2.58297 -3.36242 0
M  V30 5718 C 534.537 -1.10775 -3.18167 0
M  V30 5719 O 535.067 -0.373201 -3.99963 0
M  V30 5720 N 533.273 -0.889377 -2.76656 0
M  V30 5721 H 532.82 -1.48843 -2.10246 0
M  V30 5722 H 532.778 -0.107 -3.14218 0
M  V30 5723 N 536.55 0.480323 -1.50102 0
M  V30 5724 C 537.796 1.23489 -1.60867 0
M  V30 5725 C 538.129 1.91809 -0.303827 0
M  V30 5726 O 537.404 1.81694 0.694092 0
M  V30 5727 C 537.687 2.28578 -2.78252 0
M  V30 5728 C 537.54 1.64624 -4.18592 0
M  V30 5729 C 538.859 3.2997 -2.91218 0
M  V30 5730 H 535.978 0.447605 -0.585507 0
M  V30 5731 H 538.62 0.530005 -1.82458 0
M  V30 5732 H 536.77 2.88697 -2.59974 0
M  V30 5733 H 538.442 1.08173 -4.48438 0
M  V30 5734 H 536.685 0.949645 -4.23278 0
M  V30 5735 H 537.356 2.40946 -4.96638 0
M  V30 5736 H 539.832 2.79864 -3.07921 0
M  V30 5737 H 538.708 4.00839 -3.74993 0
M  V30 5738 H 538.969 3.93541 -2.0144 0
M  V30 5739 N 538.028 1.39524 0.732853 0
M  V30 5740 C 539.275 1.36865 1.49246 0
M  V30 5741 C 539.603 -0.0347118 1.94469 0
M  V30 5742 O 538.858 -1.01596 1.67262 0
M  V30 5743 C 539.157 2.28916 2.74468 0
M  V30 5744 C 538.823 3.76506 2.481 0
M  V30 5745 C 537.485 4.16721 2.40619 0
M  V30 5746 C 539.837 4.69846 2.25598 0
M  V30 5747 C 537.165 5.48334 2.08679 0
M  V30 5748 C 539.517 6.01739 1.95174 0
M  V30 5749 C 538.181 6.41015 1.86163 0
M  V30 5750 H 537.451 0.500824 0.546129 0
M  V30 5751 H 540.098 1.72047 0.840958 0
M  V30 5752 H 538.403 1.86859 3.4437 0
M  V30 5753 H 540.1 2.2415 3.32502 0
M  V30 5754 H 536.69 3.44635 2.54803 0
M  V30 5755 H 540.874 4.39608 2.30344 0
M  V30 5756 H 536.13 5.77685 2.00226 0
M  V30 5757 H 540.304 6.73591 1.76771 0
M  V30 5758 H 537.931 7.42917 1.61179 0
M  V30 5759 N 539.506 -0.963266 1.24736 0
M  V30 5760 C 540.752 -1.70933 1.09131 0
M  V30 5761 C 541.085 -1.90676 -0.368273 0
M  V30 5762 O 540.36 -1.47147 -1.27193 0
M  V30 5763 C 540.643 -3.09744 1.83658 0
M  V30 5764 C 540.496 -2.97465 3.37394 0
M  V30 5765 C 541.815 -4.09483 1.61282 0
M  V30 5766 H 538.934 -0.620398 0.397838 0
M  V30 5767 H 541.576 -1.12028 1.53459 0
M  V30 5768 H 539.726 -3.60031 1.4598 0
M  V30 5769 H 541.398 -2.54571 3.84696 0
M  V30 5770 H 539.641 -2.33576 3.65547 0
M  V30 5771 H 540.312 -3.95822 3.84745 0
M  V30 5772 H 542.788 -3.68073 1.94066 0
M  V30 5773 H 541.664 -5.04666 2.15878 0
M  V30 5774 H 541.925 -4.38639 0.552102 0
M  V30 5775 N 540.985 -1.06182 -1.16461 0
M  V30 5776 C 542.231 -0.788825 -1.87481 0
M  V30 5777 C 542.586 0.677298 -1.80085 0
M  V30 5778 O 541.879 1.48976 -1.20486 0
M  V30 5779 C 542.073 -1.21633 -3.36066 0
M  V30 5780 C 541.902 -2.72247 -3.57927 0
M  V30 5781 C 540.672 -3.39696 -3.74079 0
M  V30 5782 C 542.87 -3.70461 -3.56739 0
M  V30 5783 N 540.852 -4.79072 -3.83879 0
M  V30 5784 C 542.223 -4.95616 -3.72511 0
M  V30 5785 C 544.278 -3.63788 -3.39945 0
M  V30 5786 C 542.981 -6.14895 -3.73225 0
M  V30 5787 C 545.007 -4.82517 -3.41953 0
M  V30 5788 C 544.369 -6.065 -3.58242 0
M  V30 5789 H 540.468 -0.341034 -0.703719 0
M  V30 5790 H 543.052 -1.35575 -1.39741 0
M  V30 5791 H 541.223 -0.67725 -3.8245 0
M  V30 5792 H 542.955 -0.892119 -3.94745 0
M  V30 5793 H 539.71 -2.90097 -3.74354 0
M  V30 5794 H 540.134 -5.51573 -3.92551 0
M  V30 5795 H 544.776 -2.68888 -3.26281 0
M  V30 5796 H 542.494 -7.10129 -3.85672 0
M  V30 5797 H 546.08 -4.79017 -3.30203 0
M  V30 5798 H 544.96 -6.96833 -3.59712 0
M  V30 5799 N 542.463 1.3308 -0.844243 0
M  V30 5800 C 543.712 1.96868 -0.438833 0
M  V30 5801 C 544.025 1.67599 1.00846 0
M  V30 5802 O 545.231 2.25043 1.51881 0
M  V30 5803 C 543.687 3.5234 -0.73377 0
M  V30 5804 C 543.295 3.90481 -2.1961 0
M  V30 5805 C 545.039 4.22653 -0.395574 0
M  V30 5806 C 542.946 5.38954 -2.43481 0
M  V30 5807 H 541.876 0.736749 -0.160364 0
M  V30 5808 H 544.527 1.51623 -1.03358 0
M  V30 5809 H 542.909 3.95941 -0.068589 0
M  V30 5810 H 544.083 3.57922 -2.90221 0
M  V30 5811 H 542.398 3.33165 -2.4978 0
M  V30 5812 H 544.995 5.31848 -0.551477 0
M  V30 5813 H 545.338 4.11004 0.661921 0
M  V30 5814 H 545.871 3.84601 -1.01621 0
M  V30 5815 H 542.61 5.55612 -3.47816 0
M  V30 5816 H 542.13 5.72954 -1.77437 0
M  V30 5817 H 543.809 6.05907 -2.26905 0
M  V30 5818 N 543.941 0.601185 1.45683 0
M  V30 5819 C 545.189 0.0936957 2.01883 0
M  V30 5820 C 545.51 -1.2779 1.47291 0
M  V30 5821 O 544.78 -1.84279 0.664691 0
M  V30 5822 H 543.36 0.0316466 0.746329 0
M  V30 5823 H 546.022 0.781137 1.78562 0
M  V30 5824 H 545.118 0.0386297 3.12076 0
M  V30 5825 N 545.419 -1.53889 0.339982 0
M  V30 5826 C 546.649 -2.04973 -0.258738 0
M  V30 5827 C 547.057 -1.21485 -1.45045 0
M  V30 5828 O 546.4 -0.2422 -1.82096 0
M  V30 5829 C 546.462 -3.51783 -0.740853 0
M  V30 5830 C 546.126 -4.55802 0.330734 0
M  V30 5831 C 547.123 -5.06512 1.17226 0
M  V30 5832 C 544.808 -4.99966 0.483637 0
M  V30 5833 C 546.802 -5.99963 2.15227 0
M  V30 5834 C 544.489 -5.93229 1.46704 0
M  V30 5835 C 545.487 -6.43115 2.29981 0
M  V30 5836 O 545.175 -7.34545 3.26649 0
M  V30 5837 H 544.907 -0.673807 -0.0544037 0
M  V30 5838 H 547.461 -1.99492 0.489107 0
M  V30 5839 H 545.691 -3.54717 -1.53988 0
M  V30 5840 H 547.38 -3.85857 -1.25973 0
M  V30 5841 H 548.146 -4.73158 1.0652 0
M  V30 5842 H 544.025 -4.6074 -0.15471 0
M  V30 5843 H 547.569 -6.38825 2.80265 0
M  V30 5844 H 543.466 -6.25998 1.57468 0
M  V30 5845 H 544.234 -7.52468 3.22078 0
M  V30 5846 N 546.897 -0.0685191 -1.57451 0
M  V30 5847 C 547.827 0.89747 -2.15564 0
M  V30 5848 C 548.808 1.31266 -1.08181 0
M  V30 5849 O 549.993 1.38429 -1.36202 0
M  V30 5850 C 547.123 2.16623 -2.71463 0
M  V30 5851 C 546.077 1.89054 -3.83982 0
M  V30 5852 C 545.403 3.22532 -4.26471 0
M  V30 5853 C 546.703 1.1984 -5.08366 0
M  V30 5854 H 548.397 0.413373 -2.96533 0
M  V30 5855 H 545.943 0.197391 -1.42641 0
M  V30 5856 H 547.896 2.84614 -3.10761 0
M  V30 5857 H 546.62 2.67269 -1.8771 0
M  V30 5858 H 545.279 1.23469 -3.45183 0
M  V30 5859 H 544.927 3.71013 -3.39644 0
M  V30 5860 H 544.627 3.04879 -5.02317 0
M  V30 5861 H 546.151 3.91727 -4.68383 0
M  V30 5862 H 547.565 1.77896 -5.45001 0
M  V30 5863 H 545.962 1.12456 -5.89469 0
M  V30 5864 H 547.032 0.176996 -4.84577 0
M  V30 5865 N 548.375 1.56261 0.205012 0
M  V30 5866 C 549.6 1.84491 0.947512 0
M  V30 5867 C 550.025 0.650894 1.76479 0
M  V30 5868 O 549.383 -0.40035 1.76824 0
M  V30 5869 C 549.431 3.10863 1.82747 0
M  V30 5870 O 548.535 2.90719 2.925 0
M  V30 5871 H 547.876 0.607783 0.267386 0
M  V30 5872 H 550.406 2.03485 0.213323 0
M  V30 5873 H 550.416 3.41399 2.23407 0
M  V30 5874 H 549.091 3.97392 1.2269 0
M  V30 5875 H 547.668 2.71457 2.55667 0
M  V30 5876 N 549.853 -0.472356 1.50355 0
M  V30 5877 C 551.078 -1.25251 1.65309 0
M  V30 5878 C 551.503 -1.85081 0.335643 0
M  V30 5879 O 550.861 -1.67227 -0.700335 0
M  V30 5880 C 550.909 -2.3379 2.74544 0
M  V30 5881 O 550.013 -3.38401 2.35709 0
M  V30 5882 H 549.354 -0.368539 0.552336 0
M  V30 5883 H 551.884 -0.562271 1.96722 0
M  V30 5884 H 551.894 -2.79121 2.97583 0
M  V30 5885 H 550.569 -1.89614 3.70161 0
M  V30 5886 H 549.146 -2.9879 2.23112 0
M  V30 5887 N 551.331 -1.39911 -0.725443 0
M  V30 5888 C 552.294 -1.39156 -1.82121 0
M  V30 5889 C 553.294 -0.287018 -1.58218 0
M  V30 5890 O 554.484 -0.545421 -1.65441 0
M  V30 5891 C 551.616 -1.1736 -3.20062 0
M  V30 5892 H 552.809 -2.36672 -1.84191 0
M  V30 5893 H 550.362 -1.25615 -0.930079 0
M  V30 5894 H 551.097 -0.205648 -3.23647 0
M  V30 5895 H 550.882 -1.97358 -3.3881 0
M  V30 5896 H 552.372 -1.19596 -4.00108 0
M  V30 5897 N 552.809 0.956637 -1.25245 0
M  V30 5898 C 554.055 1.70352 -1.10036 0
M  V30 5899 C 554.388 1.90869 0.358156 0
M  V30 5900 O 553.663 1.47819 1.26411 0
M  V30 5901 C 553.946 3.08766 -1.85298 0
M  V30 5902 C 553.799 2.95672 -3.38966 0
M  V30 5903 C 555.118 4.08622 -1.63451 0
M  V30 5904 H 552.237 0.618279 -0.401123 0
M  V30 5905 H 554.879 1.11212 -1.54051 0
M  V30 5906 H 553.029 3.59252 -1.47887 0
M  V30 5907 H 554.701 2.52527 -3.86041 0
M  V30 5908 H 552.944 2.31634 -3.6678 0
M  V30 5909 H 553.615 3.93776 -3.86839 0
M  V30 5910 H 556.091 3.67038 -1.96015 0
M  V30 5911 H 554.967 5.03514 -2.18551 0
M  V30 5912 H 555.228 4.3834 -0.575357 0
M  V30 5913 N 554.287 1.06798 1.15896 0
M  V30 5914 C 555.235 0.677525 2.22514 0
M  V30 5915 C 556.229 -0.308994 1.66558 0
M  V30 5916 O 557.435 -0.173308 1.79164 0
M  V30 5917 H 553.81 0.200994 0.724642 0
M  V30 5918 H 555.781 1.5865 2.52731 0
M  V30 5919 C 554.53 0.0854153 3.47595 0
M  V30 5920 H 553.853 0.835645 3.90969 0
M  V30 5921 H 555.293 -0.150199 4.23734 0
M  V30 5922 C 553.752 -1.1724 3.15843 0
M  V30 5923 O 554.282 -2.25965 3.32119 0
M  V30 5924 N 552.488 -1.07636 2.69931 0
M  V30 5925 H 552.035 -0.191559 2.56887 0
M  V30 5926 H 551.993 -1.91876 2.4906 0
M  V30 5927 N 555.766 -1.3263 0.851289 0
M  V30 5928 C 557.177 -1.79653 0.5081 0
M  V30 5929 C 557.528 -1.70327 -0.973815 0
M  V30 5930 O 556.653 -1.25986 -1.75944 0
M  V30 5931 C 557.248 -3.26196 0.915515 0
M  V30 5932 C 555.807 -3.71187 0.624277 0
M  V30 5933 C 554.954 -2.53804 1.11709 0
M  V30 5934 H 557.905 -1.19976 1.03882 0
M  V30 5935 H 557.926 -3.79801 0.230535 0
M  V30 5936 H 557.438 -3.32952 1.99411 0
M  V30 5937 H 555.539 -3.69948 -0.443737 0
M  V30 5938 H 555.652 -4.64132 1.18821 0
M  V30 5939 H 554.016 -2.48964 0.537484 0
M  V30 5940 H 554.799 -2.63315 2.20272 0
M  V30 5941 N 557.244 -0.608902 -1.45362 0
M  V30 5942 C 558.174 0.0964526 -2.33301 0
M  V30 5943 C 559.155 0.857444 -1.46908 0
M  V30 5944 O 560.34 0.827735 -1.75676 0
M  V30 5945 C 557.47 1.09354 -3.29635 0
M  V30 5946 C 556.424 0.445676 -4.25673 0
M  V30 5947 C 555.75 1.5511 -5.11708 0
M  V30 5948 C 557.05 -0.633972 -5.18438 0
M  V30 5949 H 558.744 -0.637829 -2.92527 0
M  V30 5950 H 556.29 -0.308178 -1.40664 0
M  V30 5951 H 558.243 1.59556 -3.90025 0
M  V30 5952 H 556.967 1.85843 -2.6857 0
M  V30 5953 H 555.626 -0.0354897 -3.66583 0
M  V30 5954 H 555.274 2.30631 -4.4701 0
M  V30 5955 H 554.974 1.12311 -5.76767 0
M  V30 5956 H 556.498 2.05537 -5.74967 0
M  V30 5957 H 557.912 -0.215974 -5.72893 0
M  V30 5958 H 556.309 -0.983789 -5.91981 0
M  V30 5959 H 557.379 -1.51005 -4.60788 0
M  V30 5960 N 558.722 1.53707 -0.348139 0
M  V30 5961 C 559.968 2.01286 0.247332 0
M  V30 5962 C 560.301 1.23546 1.49834 0
M  V30 5963 O 559.576 0.324331 1.91777 0
M  V30 5964 C 559.859 3.55768 0.556858 0
M  V30 5965 C 559.712 4.44216 -0.706564 0
M  V30 5966 C 561.031 4.1841 1.3646 0
M  V30 5967 H 558.15 0.731677 0.0884201 0
M  V30 5968 H 560.792 1.84106 -0.469584 0
M  V30 5969 H 558.942 3.70539 1.16761 0
M  V30 5970 H 560.614 4.41274 -1.34444 0
M  V30 5971 H 558.857 4.12892 -1.33052 0
M  V30 5972 H 559.528 5.50202 -0.445186 0
M  V30 5973 H 562.004 4.07365 0.848113 0
M  V30 5974 H 560.88 5.26563 1.54992 0
M  V30 5975 H 561.141 3.7333 2.36805 0
M  V30 5976 N 560.2 0.0768682 1.57412 0
M  V30 5977 C 561.43 -0.5991 1.97723 0
M  V30 5978 C 561.838 -1.63378 0.954166 0
M  V30 5979 O 561.181 -1.83578 -0.0668706 0
M  V30 5980 C 561.243 -1.32078 3.34358 0
M  V30 5981 C 560.907 -0.438985 4.54887 0
M  V30 5982 C 561.904 0.305492 5.19002 0
M  V30 5983 C 559.589 -0.362378 5.00991 0
M  V30 5984 C 561.583 1.11475 6.27576 0
M  V30 5985 C 559.27 0.450543 6.09437 0
M  V30 5986 C 560.268 1.18777 6.72593 0
M  V30 5987 O 559.956 1.98727 7.7895 0
M  V30 5988 H 559.688 -0.166725 0.655117 0
M  V30 5989 H 562.242 0.147337 2.04871 0
M  V30 5990 H 560.472 -2.1134 3.2384 0
M  V30 5991 H 562.161 -1.88949 3.5924 0
M  V30 5992 H 562.927 0.25593 4.84324 0
M  V30 5993 H 558.806 -0.925832 4.51608 0
M  V30 5994 H 562.35 1.69068 6.76803 0
M  V30 5995 H 558.247 0.501651 6.43548 0
M  V30 5996 H 559.015 1.91214 7.95851 0
M  V30 5997 N 561.678 -1.56367 -0.196722 0
M  V30 5998 C 562.906 -1.84639 -0.933608 0
M  V30 5999 C 563.321 -0.659164 -1.76919 0
M  V30 6000 O 562.678 0.372142 -1.78665 0
M  V30 6001 C 562.729 -3.11694 -1.83109 0
M  V30 6002 O 562.45 -4.25838 -1.02924 0
M  V30 6003 C 563.951 -3.53132 -2.67979 0
M  V30 6004 H 561.171 -0.613188 -0.272473 0
M  V30 6005 H 563.715 -2.03475 -0.204465 0
M  V30 6006 H 561.87 -2.94759 -2.51387 0
M  V30 6007 H 562.284 -4.98178 -1.64069 0
M  V30 6008 H 563.758 -4.45005 -3.26611 0
M  V30 6009 H 564.235 -2.76045 -3.41608 0
M  V30 6010 H 564.841 -3.72592 -2.05074 0
M  V30 6011 N 563.156 0.464375 -1.50603 0
M  V30 6012 C 564.086 1.56944 -1.72889 0
M  V30 6013 C 565.067 1.59979 -0.577997 0
M  V30 6014 O 566.252 1.76138 -0.817855 0
M  V30 6015 C 563.382 2.95225 -1.8292 0
M  V30 6016 C 562.336 3.07056 -2.98162 0
M  V30 6017 C 561.662 4.47051 -2.93343 0
M  V30 6018 C 562.962 2.83648 -4.38567 0
M  V30 6019 H 564.656 1.38547 -2.65415 0
M  V30 6020 H 562.202 0.665082 -1.27721 0
M  V30 6021 H 564.155 3.72467 -1.97095 0
M  V30 6022 H 562.879 3.14793 -0.870209 0
M  V30 6023 H 561.538 2.32248 -2.83648 0
M  V30 6024 H 561.186 4.63547 -1.95276 0
M  V30 6025 H 560.886 4.55902 -3.70712 0
M  V30 6026 H 562.41 5.26304 -3.09575 0
M  V30 6027 H 563.824 3.50636 -4.53572 0
M  V30 6028 H 562.221 3.03937 -5.17438 0
M  V30 6029 H 563.291 1.79451 -4.50472 0
M  V30 6030 N 564.634 1.40294 0.718013 0
M  V30 6031 C 565.881 1.3844 1.47786 0
M  V30 6032 C 566.209 -0.0140838 1.94495 0
M  V30 6033 O 565.464 -0.998165 1.68331 0
M  V30 6034 C 565.763 2.31814 2.72024 0
M  V30 6035 C 565.429 3.79117 2.44093 0
M  V30 6036 C 564.091 4.19249 2.36185 0
M  V30 6037 C 566.443 4.72212 2.20602 0
M  V30 6038 C 563.771 5.50516 2.02851 0
M  V30 6039 C 566.123 6.03775 1.88781 0
M  V30 6040 C 564.787 6.42953 1.79354 0
M  V30 6041 H 564.057 0.506588 0.540786 0
M  V30 6042 H 566.704 1.72929 0.822663 0
M  V30 6043 H 565.009 1.90501 3.42369 0
M  V30 6044 H 566.706 2.27664 3.30106 0
M  V30 6045 H 563.296 3.47318 2.51133 0
M  V30 6046 H 567.48 4.42026 2.25669 0
M  V30 6047 H 562.736 5.79776 1.94088 0
M  V30 6048 H 566.91 6.75428 1.69617 0
M  V30 6049 H 564.537 7.44584 1.53291 0
M  V30 6050 N 566.112 -0.949982 1.2575 0
M  V30 6051 C 567.06 -2.06869 1.06339 0
M  V30 6052 C 568.054 -1.69399 -0.00708901 0
M  V30 6053 O 569.26 -1.79383 0.148897 0
M  V30 6054 H 565.635 -0.677197 0.326969 0
M  V30 6055 H 567.606 -2.20396 2.01167 0
M  V30 6056 C 566.355 -3.40503 0.703769 0
M  V30 6057 H 565.678 -3.69807 1.51931 0
M  V30 6058 H 567.118 -4.19623 0.607677 0
M  V30 6059 C 565.577 -3.31685 -0.5905 0
M  V30 6060 O 566.107 -3.67085 -1.63131 0
M  V30 6061 N 564.313 -2.84797 -0.577859 0
M  V30 6062 H 563.86 -2.56186 0.26951 0
M  V30 6063 H 563.818 -2.79279 -1.44398 0
M  V30 6064 N 567.59 -1.07411 -1.15328 0
M  V30 6065 C 568.537 -0.694995 -2.20087 0
M  V30 6066 C 569.507 0.313904 -1.63107 0
M  V30 6067 O 570.692 0.200216 -1.89747 0
M  V30 6068 C 567.832 -0.0996218 -3.44956 0
M  V30 6069 C 566.945 -1.16007 -4.16133 0
M  V30 6070 C 566.08 -0.529636 -5.28553 0
M  V30 6071 C 565.119 -1.57283 -5.91548 0
M  V30 6072 N 564.256 -0.964932 -6.95438 0
M  V30 6073 H 569.096 -1.5927 -2.51867 0
M  V30 6074 H 566.633 -0.796115 -1.23695 0
M  V30 6075 H 568.591 0.263197 -4.16369 0
M  V30 6076 H 567.221 0.761435 -3.13691 0
M  V30 6077 H 566.273 -1.64045 -3.4321 0
M  V30 6078 H 567.585 -1.95101 -4.59061 0
M  V30 6079 H 566.739 -0.114487 -6.06592 0
M  V30 6080 H 565.478 0.29307 -4.86819 0
M  V30 6081 H 564.483 -1.99775 -5.12221 0
M  V30 6082 H 565.708 -2.39783 -6.35359 0
M  V30 6083 H 563.654 -0.16314 -6.55797 0
M  V30 6084 H 563.571 -1.69311 -7.36797 0
M  V30 6085 H 564.839 -0.575305 -7.77374 0
M  V30 6086 N 569.068 1.32177 -0.85831 0
M  V30 6087 C 570.296 2.01313 -0.477582 0
M  V30 6088 C 570.711 1.6449 0.926736 0
M  V30 6089 O 570.068 0.868096 1.60531 0
M  V30 6090 C 570.119 3.56293 -0.611337 0
M  V30 6091 O 569.84 3.91794 -1.96034 0
M  V30 6092 C 571.341 4.42702 -0.230093 0
M  V30 6093 H 568.561 0.644323 -0.187322 0
M  V30 6094 H 571.105 1.68674 -1.15626 0
M  V30 6095 H 569.26 3.87395 0.0196494 0
M  V30 6096 H 569.674 4.86513 -1.95973 0
M  V30 6097 H 571.148 5.50727 -0.374674 0
M  V30 6098 H 571.625 4.3129 0.829779 0
M  V30 6099 H 572.231 4.16997 -0.836302 0
M  V30 6100 N 570.547 0.616602 1.45037 0
M  V30 6101 C 571.777 0.121791 2.06241 0
M  V30 6102 C 572.185 -1.20289 1.46038 0
M  V30 6103 O 571.528 -1.7456 0.572242 0
M  V30 6104 C 571.59 -0.0827345 3.59405 0
M  V30 6105 C 571.254 1.16153 4.41993 0
M  V30 6106 C 572.251 2.08183 4.76399 0
M  V30 6107 C 569.936 1.39288 4.82601 0
M  V30 6108 C 571.93 3.21668 5.5028 0
M  V30 6109 C 569.617 2.53073 5.56235 0
M  V30 6110 C 570.615 3.44091 5.89992 0
M  V30 6111 O 570.303 4.55894 6.6213 0
M  V30 6112 H 570.035 0.0701667 0.672349 0
M  V30 6113 H 572.589 0.846877 1.87129 0
M  V30 6114 H 570.819 -0.862812 3.76952 0
M  V30 6115 H 572.508 -0.530273 4.02421 0
M  V30 6116 H 573.274 1.91538 4.45576 0
M  V30 6117 H 569.153 0.693396 4.55755 0
M  V30 6118 H 572.697 3.92733 5.76547 0
M  V30 6119 H 568.594 2.69667 5.86472 0
M  V30 6120 H 569.362 4.5469 6.80587 0
M  V30 6121 N 572.025 -1.5352 0.356285 0
M  V30 6122 C 573.441 -1.59599 0.00485267 0
M  V30 6123 C 573.641 -1.37179 -1.47595 0
M  V30 6124 O 572.697 -1.17234 -2.23635 0
M  V30 6125 C 574.01 -2.97277 0.452454 0
M  V30 6126 C 575.558 -3.10357 0.405881 0
M  V30 6127 C 576.033 -4.50432 0.829148 0
M  V30 6128 N 577.524 -4.5652 0.783838 0
M  V30 6129 C 578.259 -5.63077 1.08315 0
M  V30 6130 N 577.755 -6.77429 1.45126 0
M  V30 6131 N 579.548 -5.53014 1.00655 0
M  V30 6132 H 571.699 -1.66346 1.32071 0
M  V30 6133 H 573.962 -0.77971 0.539218 0
M  V30 6134 H 573.668 -3.18792 1.48542 0
M  V30 6135 H 573.542 -3.76836 -0.165762 0
M  V30 6136 H 575.929 -2.88558 -0.617934 0
M  V30 6137 H 576.01 -2.32828 1.05947 0
M  V30 6138 H 575.654 -4.72968 1.85103 0
M  V30 6139 H 575.584 -5.26378 0.152906 0
M  V30 6140 H 578.075 -3.74408 0.512513 0
M  V30 6141 H 578.388 -7.54669 1.66415 0
M  V30 6142 H 576.733 -6.78844 1.48983 0
M  V30 6143 H 579.924 -4.62557 0.718215 0
M  V30 6144 H 580.097 -6.35964 1.24315 0
M  V30 6145 N 573.503 -0.0852151 -1.57369 0
M  V30 6146 C 574.728 0.592872 -1.98746 0
M  V30 6147 C 575.153 1.61538 -0.963689 0
M  V30 6148 O 574.511 1.81168 0.069071 0
M  V30 6149 C 574.559 1.22599 -3.39119 0
M  V30 6150 O 573.663 2.34185 -3.39457 0
M  V30 6151 H 573.004 0.151314 -0.646529 0
M  V30 6152 H 575.534 -0.163703 -2.03944 0
M  V30 6153 H 575.544 1.56965 -3.76598 0
M  V30 6154 H 574.219 0.476831 -4.13158 0
M  V30 6155 H 572.796 2.01512 -3.13763 0
M  V30 6156 N 574.981 1.5647 0.188427 0
M  V30 6157 C 575.944 1.9421 1.21718 0
M  V30 6158 C 576.944 0.823901 1.38089 0
M  V30 6159 O 578.134 1.09122 1.35787 0
M  V30 6160 C 575.266 2.22197 2.58537 0
M  V30 6161 H 576.459 2.86252 0.894418 0
M  V30 6162 H 574.012 1.50263 0.430211 0
M  V30 6163 H 574.747 1.32814 2.95856 0
M  V30 6164 H 574.532 3.03688 2.48025 0
M  V30 6165 H 576.022 2.52376 3.3271 0
M  V30 6166 N 576.459 -0.456382 1.50847 0
M  V30 6167 C 577.706 -1.20736 1.62571 0
M  V30 6168 C 578.034 -1.9163 0.332904 0
M  V30 6169 O 577.289 -1.8343 -0.682058 0
M  V30 6170 C 577.588 -2.26336 2.76599 0
M  V30 6171 C 577.254 -1.7259 4.16562 0
M  V30 6172 C 575.916 -1.57654 4.54641 0
M  V30 6173 C 578.268 -1.32877 5.03977 0
M  V30 6174 C 575.596 -1.0145 5.77862 0
M  V30 6175 C 577.948 -0.7811 6.27759 0
M  V30 6176 C 576.612 -0.618488 6.64628 0
M  V30 6177 H 575.882 -0.441803 0.594888 0
M  V30 6178 H 578.529 -0.501169 1.84826 0
M  V30 6179 H 576.834 -3.0292 2.48489 0
M  V30 6180 H 578.531 -2.84227 2.82871 0
M  V30 6181 H 575.121 -1.85187 3.86528 0
M  V30 6182 H 579.305 -1.43245 4.75179 0
M  V30 6183 H 574.561 -0.876109 6.0509 0
M  V30 6184 H 578.735 -0.464783 6.94847 0
M  V30 6185 H 576.362 -0.180838 7.59985 0
M  V30 6186 N 577.937 -1.40673 -0.710563 0
M  V30 6187 C 579.162 -1.42741 -1.50465 0
M  V30 6188 C 579.587 -0.0302116 -1.88076 0
M  V30 6189 O 578.945 0.962945 -1.53613 0
M  V30 6190 C 578.993 -2.32873 -2.75322 0
M  V30 6191 O 578.097 -1.77544 -3.72226 0
M  V30 6192 H 577.438 -0.485056 -0.45345 0
M  V30 6193 H 579.968 -1.84961 -0.874681 0
M  V30 6194 H 579.978 -2.48233 -3.23797 0
M  V30 6195 H 578.653 -3.34401 -2.47283 0
M  V30 6196 H 577.23 -1.71556 -3.31093 0
M  V30 6197 N 579.415 0.9433 -1.26252 0
M  V30 6198 C 580.831 1.21644 -1.03319 0
M  V30 6199 C 581.031 2.0003 0.242983 0
M  V30 6200 O 580.087 2.33838 0.952688 0
M  V30 6201 C 581.4 1.97978 -2.2633 0
M  V30 6202 C 582.948 2.10978 -2.31209 0
M  V30 6203 C 583.423 2.90713 -3.53907 0
M  V30 6204 N 584.914 2.98287 -3.54371 0
M  V30 6205 C 585.649 3.60406 -4.45976 0
M  V30 6206 N 585.145 4.24043 -5.47868 0
M  V30 6207 N 586.938 3.57658 -4.33633 0
M  V30 6208 H 579.089 0.419221 -2.08222 0
M  V30 6209 H 581.352 0.247995 -0.914988 0
M  V30 6210 H 581.058 1.47788 -3.19142 0
M  V30 6211 H 580.932 2.9865 -2.30408 0
M  V30 6212 H 583.319 2.6036 -1.38913 0
M  V30 6213 H 583.4 1.09575 -2.31143 0
M  V30 6214 H 583.044 2.42018 -4.46531 0
M  V30 6215 H 582.974 3.92367 -3.5122 0
M  V30 6216 H 585.465 2.53044 -2.80673 0
M  V30 6217 H 585.778 4.69334 -6.13959 0
M  V30 6218 H 584.123 4.22637 -5.51728 0
M  V30 6219 H 587.314 3.07134 -3.53251 0
M  V30 6220 H 587.487 4.05782 -5.05218 0
M  V30 6221 N 580.893 1.08022 1.14757 0
M  V30 6222 C 582.123 0.827646 1.89298 0
M  V30 6223 C 582.531 -0.623506 1.78631 0
M  V30 6224 O 581.874 -1.43991 1.14071 0
M  V30 6225 C 581.936 1.16553 3.40082 0
M  V30 6226 C 581.6 2.61866 3.74533 0
M  V30 6227 C 582.597 3.60116 3.74984 0
M  V30 6228 C 580.282 2.97619 4.04633 0
M  V30 6229 C 582.276 4.92151 4.05051 0
M  V30 6230 C 579.963 4.2985 4.34364 0
M  V30 6231 C 580.961 5.26926 4.34555 0
M  V30 6232 O 580.649 6.5678 4.63568 0
M  V30 6233 H 580.381 0.298396 0.606577 0
M  V30 6234 H 582.935 1.44187 1.46285 0
M  V30 6235 H 581.165 0.494296 3.83528 0
M  V30 6236 H 582.854 0.894407 3.95923 0
M  V30 6237 H 583.62 3.33837 3.51821 0
M  V30 6238 H 579.499 2.22702 4.03639 0
M  V30 6239 H 583.043 5.67915 4.05115 0
M  V30 6240 H 578.94 4.55879 4.56995 0
M  V30 6241 H 579.708 6.62035 4.81303 0
M  V30 6242 N 582.371 -1.3172 0.865308 0
M  V30 6243 C 583.62 -1.96145 0.470098 0
M  V30 6244 C 583.933 -1.69182 -0.981674 0
M  V30 6245 O 585.139 -2.27431 -1.48281 0
M  V30 6246 C 583.595 -3.51129 0.789732 0
M  V30 6247 C 583.203 -3.86938 2.25795 0
M  V30 6248 C 584.947 -4.2197 0.462765 0
M  V30 6249 C 582.854 -5.35012 2.52024 0
M  V30 6250 H 581.784 -0.734105 0.172065 0
M  V30 6251 H 584.435 -1.49959 1.05757 0
M  V30 6252 H 582.817 -3.95781 0.131571 0
M  V30 6253 H 583.991 -3.5326 2.95879 0
M  V30 6254 H 582.306 -3.29149 2.55049 0
M  V30 6255 H 584.903 -5.30904 0.636019 0
M  V30 6256 H 585.246 -4.12005 -0.59645 0
M  V30 6257 H 585.779 -3.82936 1.07727 0
M  V30 6258 H 582.518 -5.50008 3.56611 0
M  V30 6259 H 582.038 -5.70058 1.8653 0
M  V30 6260 H 583.717 -6.0222 2.36515 0
M  V30 6261 N 583.85 -0.624285 -1.44708 0
M  V30 6262 C 584.782 0.12305 -2.28869 0
M  V30 6263 C 585.795 0.81557 -1.40898 0
M  V30 6264 O 586.984 0.678162 -1.65116 0
M  V30 6265 C 584.084 1.19612 -3.1709 0
M  V30 6266 C 583.257 0.587452 -4.33437 0
M  V30 6267 C 582.316 1.55358 -5.02743 0
M  V30 6268 O 581.341 1.07338 -5.58988 0
M  V30 6269 N 582.543 2.88798 -5.03563 0
M  V30 6270 H 585.308 -0.599193 -2.93649 0
M  V30 6271 H 582.87 -0.464954 -1.5508 0
M  V30 6272 H 584.861 1.84261 -3.60319 0
M  V30 6273 H 583.432 1.82067 -2.54107 0
M  V30 6274 H 582.652 -0.237509 -3.93484 0
M  V30 6275 H 583.94 0.161326 -5.08544 0
M  V30 6276 H 583.338 3.30399 -4.59188 0
M  V30 6277 H 581.894 3.48826 -5.50603 0
M  V30 6278 N 585.328 1.53329 -0.364422 0
M  V30 6279 C 586.568 2.0315 0.22572 0
M  V30 6280 C 586.932 1.24589 1.46087 0
M  V30 6281 O 588.133 1.64411 2.12656 0
M  V30 6282 C 586.404 3.53718 0.511663 0
M  V30 6283 S 587.963 4.25412 1.07564 0
M  V30 6284 H 584.781 0.70795 0.0657843 0
M  V30 6285 H 587.383 1.88811 -0.507019 0
M  V30 6286 H 586.087 4.08497 -0.394784 0
M  V30 6287 H 585.618 3.72217 1.27351 0
M  V30 6288 H 587.633 4.36486 2.35997 0
M  V30 6289 N 586.806 0.0935595 1.57322 0
M  V30 6290 C 587.738 -0.895923 2.10964 0
M  V30 6291 C 588.751 -1.24705 1.04654 0
M  V30 6292 O 589.94 -1.20044 1.32105 0
M  V30 6293 C 587.04 -2.20546 2.57318 0
M  V30 6294 C 586.213 -2.0299 3.87445 0
M  V30 6295 C 585.272 -3.17443 4.19662 0
M  V30 6296 O 584.298 -2.91474 4.88909 0
M  V30 6297 N 585.5 -4.43168 3.74943 0
M  V30 6298 H 588.265 -0.437788 2.96485 0
M  V30 6299 H 585.826 -0.0915863 1.61641 0
M  V30 6300 H 587.818 -2.9606 2.75917 0
M  V30 6301 H 586.388 -2.57789 1.76816 0
M  V30 6302 H 585.608 -1.11815 3.78009 0
M  V30 6303 H 586.896 -1.88535 4.7258 0
M  V30 6304 H 586.294 -4.67149 3.19043 0
M  V30 6305 H 584.851 -5.15637 3.987 0
M  V30 6306 N 588.284 -1.56567 -0.180126 0
M  V30 6307 C 589.514 -1.85349 -0.912647 0
M  V30 6308 C 589.922 -0.675795 -1.76719 0
M  V30 6309 O 589.265 0.3645 -1.80047 0
M  V30 6310 C 589.327 -3.08431 -1.84691 0
M  V30 6311 C 588.991 -4.41694 -1.17284 0
M  V30 6312 C 589.988 -5.17062 -0.542532 0
M  V30 6313 C 587.673 -4.8843 -1.17223 0
M  V30 6314 C 589.667 -6.37351 0.0793953 0
M  V30 6315 C 587.354 -6.08652 -0.54647 0
M  V30 6316 C 588.352 -6.82955 0.0782458 0
M  V30 6317 O 588.04 -8.00897 0.694158 0
M  V30 6318 H 587.772 -0.619286 -0.271036 0
M  V30 6319 H 590.326 -2.0454 -0.187768 0
M  V30 6320 H 588.556 -2.85163 -2.61188 0
M  V30 6321 H 590.245 -3.23733 -2.44851 0
M  V30 6322 H 591.011 -4.8204 -0.535045 0
M  V30 6323 H 586.89 -4.30542 -1.64788 0
M  V30 6324 H 590.434 -6.95287 0.567612 0
M  V30 6325 H 586.331 -6.4314 -0.55151 0
M  V30 6326 H 587.099 -8.16352 0.592537 0
M  V30 6327 N 589.762 0.448376 -1.51087 0
M  V30 6328 C 590.709 1.54341 -1.71603 0
M  V30 6329 C 591.679 1.56463 -0.557536 0
M  V30 6330 O 592.864 1.73644 -0.79072 0
M  V30 6331 C 590.004 2.92148 -1.83695 0
M  V30 6332 C 589.117 2.99639 -3.11192 0
M  V30 6333 C 588.252 4.285 -3.13944 0
M  V30 6334 C 587.291 4.29819 -4.35801 0
M  V30 6335 N 586.428 5.50186 -4.36164 0
M  V30 6336 H 591.268 1.36151 -2.65079 0
M  V30 6337 H 588.805 0.661585 -1.31383 0
M  V30 6338 H 590.763 3.72093 -1.88687 0
M  V30 6339 H 589.393 3.0892 -0.936374 0
M  V30 6340 H 588.445 2.12425 -3.15562 0
M  V30 6341 H 589.757 2.96474 -4.01129 0
M  V30 6342 H 588.911 5.16811 -3.17791 0
M  V30 6343 H 587.65 4.34307 -2.21876 0
M  V30 6344 H 586.655 3.39902 -4.32142 0
M  V30 6345 H 587.88 4.25685 -5.29121 0
M  V30 6346 H 585.826 5.56735 -3.46961 0
M  V30 6347 H 585.743 5.48856 -5.19897 0
M  V30 6348 H 587.011 6.40559 -4.44189 0
M  V30 6349 N 591.24 1.41047 0.703093 0
M  V30 6350 C 592.15 1.44645 1.84703 0
M  V30 6351 C 593.166 0.337778 1.7069 0
M  V30 6352 O 594.342 0.584327 1.92737 0
M  V30 6353 C 591.407 1.31928 3.20618 0
M  V30 6354 C 590.468 2.53047 3.46794 0
M  V30 6355 C 589.701 2.40927 4.76224 0
M  V30 6356 O 589.924 1.42978 5.5219 0
M  V30 6357 O 588.858 3.30543 5.03016 0
M  V30 6358 H 592.684 2.41139 1.84624 0
M  V30 6359 H 590.269 1.22504 0.855167 0
M  V30 6360 H 592.151 1.27092 4.01778 0
M  V30 6361 H 590.826 0.385469 3.21397 0
M  V30 6362 H 589.733 2.6346 2.65593 0
M  V30 6363 H 591.066 3.45231 3.50822 0
M  V30 6364 N 592.718 -0.936591 1.26751 0
M  V30 6365 C 593.666 -2.0573 1.08527 0
M  V30 6366 C 594.66 -1.69397 0.0108784 0
M  V30 6367 O 595.866 -1.79215 0.167915 0
M  V30 6368 H 592.241 -0.673691 0.334133 0
M  V30 6369 H 594.212 -2.1825 2.03493 0
M  V30 6370 C 592.961 -3.39738 0.739845 0
M  V30 6371 H 592.284 -3.68174 1.55845 0
M  V30 6372 H 593.724 -4.18955 0.652149 0
M  V30 6373 C 592.183 -3.32292 -0.555288 0
M  V30 6374 O 592.713 -3.68794 -1.59229 0
M  V30 6375 N 590.919 -2.85394 -0.54762 0
M  V30 6376 H 590.466 -2.55886 0.296667 0
M  V30 6377 H 590.424 -2.80795 -1.41427 0
M  V30 6378 N 594.196 -1.08629 -1.14182 0
M  V30 6379 C 595.143 -0.718299 -2.19338 0
M  V30 6380 C 596.113 0.296587 -1.63431 0
M  V30 6381 O 597.298 0.180079 -1.89948 0
M  V30 6382 C 594.438 -0.136203 -3.44831 0
M  V30 6383 C 593.551 -1.20414 -4.14879 0
M  V30 6384 C 592.686 -0.585666 -5.27962 0
M  V30 6385 C 591.725 -1.63548 -5.89846 0
M  V30 6386 N 590.862 -1.03864 -6.94375 0
M  V30 6387 H 595.702 -1.61932 -2.50164 0
M  V30 6388 H 593.239 -0.80919 -1.22844 0
M  V30 6389 H 595.197 0.219021 -4.16625 0
M  V30 6390 H 593.827 0.728121 -3.14481 0
M  V30 6391 H 592.879 -1.67676 -3.41451 0
M  V30 6392 H 594.191 -1.99959 -4.56966 0
M  V30 6393 H 593.345 -0.178818 -6.06436 0
M  V30 6394 H 592.084 0.24142 -4.87102 0
M  V30 6395 H 591.089 -2.05197 -5.10073 0
M  V30 6396 H 592.314 -2.46509 -6.3278 0
M  V30 6397 H 590.26 -0.232687 -6.55587 0
M  V30 6398 H 590.177 -1.77116 -7.3496 0
M  V30 6399 H 591.445 -0.657724 -7.7672 0
M  V30 6400 N 595.674 1.31259 -0.872281 0
M  V30 6401 C 596.621 2.28459 -0.327857 0
M  V30 6402 C 597.591 1.55831 0.574957 0
M  V30 6403 O 598.776 1.83965 0.506101 0
M  V30 6404 C 595.916 3.41985 0.462644 0
M  V30 6405 C 595.029 4.29458 -0.467949 0
M  V30 6406 C 594.164 5.30131 0.336903 0
M  V30 6407 C 593.203 6.0925 -0.58997 0
M  V30 6408 N 592.34 7.01872 0.178775 0
M  V30 6409 H 597.18 2.74414 -1.16193 0
M  V30 6410 H 594.717 1.34994 -0.584376 0
M  V30 6411 H 596.675 4.06547 0.936759 0
M  V30 6412 H 595.305 2.97134 1.2614 0
M  V30 6413 H 594.357 3.65318 -1.06052 0
M  V30 6414 H 595.669 4.84677 -1.17856 0
M  V30 6415 H 594.823 6.0038 0.873427 0
M  V30 6416 H 593.562 4.75573 1.08079 0
M  V30 6417 H 592.567 5.37889 -1.13823 0
M  V30 6418 H 593.792 6.65894 -1.33275 0
M  V30 6419 H 591.738 6.49721 0.905435 0
M  V30 6420 H 591.655 7.54522 -0.472452 0
M  V30 6421 H 592.923 7.76382 0.696454 0
M  V30 6422 N 597.152 0.631951 1.44375 0
M  V30 6423 C 598.563 0.219036 1.85411 0
M  V30 6424 C 598.914 -1.22974 1.52879 0
M  V30 6425 O 598.039 -1.93579 0.967266 0
M  V30 6426 C 598.634 0.39075 3.36539 0
M  V30 6427 C 597.193 0.0323351 3.76386 0
M  V30 6428 C 596.34 0.703744 2.68221 0
M  V30 6429 H 599.291 0.837056 1.3483 0
M  V30 6430 H 599.312 -0.370056 3.78696 0
M  V30 6431 H 598.824 1.44527 3.60185 0
M  V30 6432 H 596.925 -1.02042 3.58355 0
M  V30 6433 H 597.038 0.442969 4.77048 0
M  V30 6434 H 595.402 0.138974 2.54321 0
M  V30 6435 H 596.185 1.76088 2.947 0
M  V30 6436 N 598.631 -1.53133 0.372548 0
M  V30 6437 C 599.561 -2.28876 -0.462412 0
M  V30 6438 C 600.542 -1.31583 -1.07796 0
M  V30 6439 O 601.727 -1.60461 -1.09389 0
M  V30 6440 C 598.857 -3.08317 -1.59868 0
M  V30 6441 C 597.811 -4.13355 -1.11003 0
M  V30 6442 C 597.137 -4.8092 -2.33708 0
M  V30 6443 C 598.437 -5.21955 -0.18983 0
M  V30 6444 H 600.131 -2.9892 0.169511 0
M  V30 6445 H 597.677 -1.43761 0.0829658 0
M  V30 6446 H 599.63 -3.60055 -2.18949 0
M  V30 6447 H 598.354 -2.35976 -2.25794 0
M  V30 6448 H 597.013 -3.62573 -0.541869 0
M  V30 6449 H 596.661 -4.05144 -2.98106 0
M  V30 6450 H 596.361 -5.51904 -2.01682 0
M  V30 6451 H 597.885 -5.35455 -2.93462 0
M  V30 6452 H 599.299 -5.69153 -0.688319 0
M  V30 6453 H 597.696 -6.00087 0.0398887 0
M  V30 6454 H 598.766 -4.78811 0.766057 0
M  V30 6455 N 600.109 -0.101901 -1.5727 0
M  V30 6456 C 601.041 0.884723 -2.11436 0
M  V30 6457 C 602.054 1.24149 -1.05314 0
M  V30 6458 O 603.243 1.19341 -1.3274 0
M  V30 6459 C 600.343 2.19179 -2.58484 0
M  V30 6460 C 599.516 2.00933 -3.88516 0
M  V30 6461 C 598.575 3.15213 -4.2134 0
M  V30 6462 O 597.601 2.88877 -4.90448 0
M  V30 6463 N 598.803 4.41174 -3.77288 0
M  V30 6464 H 601.568 0.422058 -2.96713 0
M  V30 6465 H 599.129 0.0830128 -1.61687 0
M  V30 6466 H 601.121 2.94593 -2.77484 0
M  V30 6467 H 599.691 2.56847 -1.7818 0
M  V30 6468 H 598.911 1.09809 -3.78597 0
M  V30 6469 H 600.199 1.86026 -4.73573 0
M  V30 6470 H 599.597 4.6545 -3.21516 0
M  V30 6471 H 598.154 5.13515 -4.01429 0
M  V30 6472 N 601.587 1.56661 0.17182 0
M  V30 6473 C 602.517 1.99401 1.21498 0
M  V30 6474 C 603.498 0.869516 1.46197 0
M  V30 6475 O 604.683 1.13556 1.57539 0
M  V30 6476 C 601.813 2.35346 2.55401 0
M  V30 6477 C 600.767 3.5075 2.45272 0
M  V30 6478 C 600.093 3.72437 3.8366 0
M  V30 6479 C 601.393 4.84216 1.95787 0
M  V30 6480 H 603.087 2.86792 0.859699 0
M  V30 6481 H 600.633 1.37977 0.412103 0
M  V30 6482 H 602.586 2.63843 3.2858 0
M  V30 6483 H 601.31 1.44864 2.92715 0
M  V30 6484 H 599.969 3.2238 1.74547 0
M  V30 6485 H 599.617 2.79246 4.18367 0
M  V30 6486 H 599.317 4.50087 3.77751 0
M  V30 6487 H 600.841 4.03334 4.58426 0
M  V30 6488 H 602.255 5.11592 2.5874 0
M  V30 6489 H 600.652 5.65498 2.00827 0
M  V30 6490 H 601.722 4.76243 0.912159 0
M  V30 6491 N 603.065 -0.440357 1.51323 0
M  V30 6492 C 604.314 -1.18697 1.63076 0
M  V30 6493 C 604.627 -1.92418 0.35136 0
M  V30 6494 O 605.833 -2.69258 0.348221 0
M  V30 6495 C 604.289 -2.15849 2.87988 0
M  V30 6496 C 603.897 -1.47789 4.22921 0
M  V30 6497 C 605.641 -2.90962 3.09098 0
M  V30 6498 C 603.548 -2.43407 5.38987 0
M  V30 6499 H 602.478 -0.44676 0.607389 0
M  V30 6500 H 605.129 -0.454313 1.77787 0
M  V30 6501 H 603.511 -2.92537 2.66905 0
M  V30 6502 H 604.685 -0.7668 4.54375 0
M  V30 6503 H 603 -0.848404 4.07665 0
M  V30 6504 H 605.597 -3.62584 3.92985 0
M  V30 6505 H 605.94 -3.52133 2.22053 0
M  V30 6506 H 606.473 -2.21381 3.30507 0
M  V30 6507 H 603.212 -1.86929 6.28282 0
M  V30 6508 H 602.732 -3.12579 5.11913 0
M  V30 6509 H 604.411 -3.046 5.70813 0
M  V30 6510 N 604.543 -1.41418 -0.695603 0
M  V30 6511 C 605.473 -1.46035 -1.82197 0
M  V30 6512 C 606.454 -0.319025 -1.67082 0
M  V30 6513 O 607.639 -0.530462 -1.86815 0
M  V30 6514 C 604.769 -1.34179 -3.20333 0
M  V30 6515 C 603.723 -2.46123 -3.50154 0
M  V30 6516 C 603.049 -2.19332 -4.87645 0
M  V30 6517 C 604.349 -3.88463 -3.49133 0
M  V30 6518 H 606.043 -2.40303 -1.78591 0
M  V30 6519 H 603.589 -1.15663 -0.857797 0
M  V30 6520 H 605.542 -1.36021 -3.98844 0
M  V30 6521 H 604.266 -0.363952 -3.24566 0
M  V30 6522 H 602.925 -2.43563 -2.73994 0
M  V30 6523 H 602.573 -1.19891 -4.88503 0
M  V30 6524 H 602.273 -2.94344 -5.08562 0
M  V30 6525 H 603.797 -2.22889 -5.68465 0
M  V30 6526 H 605.211 -3.92738 -4.17648 0
M  V30 6527 H 603.608 -4.63158 -3.81582 0
M  V30 6528 H 604.678 -4.16617 -2.48109 0
M  V30 6529 N 606.021 0.929856 -1.27246 0
M  V30 6530 C 607.267 1.6798 -1.13625 0
M  V30 6531 C 607.6 1.91586 0.317589 0
M  V30 6532 O 606.875 1.50467 1.23247 0
M  V30 6533 C 607.158 3.04766 -1.91806 0
M  V30 6534 C 607.011 2.88415 -3.45162 0
M  V30 6535 C 608.33 4.05063 -1.72082 0
M  V30 6536 H 605.449 0.609632 -0.414147 0
M  V30 6537 H 608.091 1.0792 -1.56376 0
M  V30 6538 H 606.241 3.56034 -1.55474 0
M  V30 6539 H 607.913 2.44282 -3.91311 0
M  V30 6540 H 606.156 2.23802 -3.71611 0
M  V30 6541 H 606.827 3.85482 -3.95105 0
M  V30 6542 H 609.303 3.62798 -2.03757 0
M  V30 6543 H 608.179 4.98765 -2.29182 0
M  V30 6544 H 608.44 4.37021 -0.668206 0
M  V30 6545 N 607.499 1.09233 1.13605 0
M  V30 6546 C 608.447 0.724572 2.21027 0
M  V30 6547 C 609.441 -0.273595 1.67176 0
M  V30 6548 O 610.647 -0.135266 1.79491 0
M  V30 6549 H 607.022 0.216319 0.720215 0
M  V30 6550 H 608.993 1.63975 2.49309 0
M  V30 6551 C 607.742 0.159126 3.47336 0
M  V30 6552 H 607.065 0.918387 3.89109 0
M  V30 6553 H 608.505 -0.0602851 4.23957 0
M  V30 6554 C 606.964 -1.10514 3.18258 0
M  V30 6555 O 607.494 -2.18869 3.36837 0
M  V30 6556 N 605.7 -1.01886 2.72154 0
M  V30 6557 H 605.247 -0.137027 2.57235 0
M  V30 6558 H 605.205 -1.8655 2.53074 0
M  V30 6559 N 608.977 -1.30795 0.87923 0
M  V30 6560 C 610.205 -2.00527 0.509548 0
M  V30 6561 C 610.62 -1.65944 -0.90045 0
M  V30 6562 O 609.977 -0.893525 -1.5913 0
M  V30 6563 C 610.028 -3.55276 0.667943 0
M  V30 6564 O 609.749 -3.88625 2.02242 0
M  V30 6565 C 611.25 -4.4228 0.300494 0
M  V30 6566 H 608.47 -0.641261 0.197549 0
M  V30 6567 H 611.014 -1.66813 1.18295 0
M  V30 6568 H 609.169 -3.87377 0.0419843 0
M  V30 6569 H 609.583 -4.83334 2.03688 0
M  V30 6570 H 611.057 -5.50061 0.462242 0
M  V30 6571 H 611.534 -4.32556 -0.76106 0
M  V30 6572 H 612.14 -4.15613 0.902536 0
M  V30 6573 N 610.455 -0.639598 -1.44038 0
M  V30 6574 C 611.704 -0.144885 -2.01179 0
M  V30 6575 C 612.017 1.24372 -1.50967 0
M  V30 6576 O 613.223 1.83291 -2.00292 0
M  V30 6577 C 611.679 -0.208244 -3.59297 0
M  V30 6578 C 611.287 -1.59869 -4.18504 0
M  V30 6579 C 613.031 0.229568 -4.23879 0
M  V30 6580 C 610.938 -1.61671 -5.68873 0
M  V30 6581 H 609.868 -0.0504005 -0.752314 0
M  V30 6582 H 612.519 -0.799639 -1.65161 0
M  V30 6583 H 610.901 0.513767 -3.92653 0
M  V30 6584 H 612.075 -2.34496 -3.96671 0
M  V30 6585 H 610.39 -1.98131 -3.66242 0
M  V30 6586 H 612.987 0.235758 -5.3418 0
M  V30 6587 H 613.33 1.25848 -3.96822 0
M  V30 6588 H 613.863 -0.440233 -3.95357 0
M  V30 6589 H 610.602 -2.62427 -6.00677 0
M  V30 6590 H 610.122 -0.913489 -5.92803 0
M  V30 6591 H 611.801 -1.35439 -6.32665 0
M  V30 6592 N 611.933 1.52934 -0.380664 0
M  V30 6593 C 613.344 1.86457 0.0952684 0
M  V30 6594 C 613.695 1.3007 1.46889 0
M  V30 6595 O 612.82 0.628636 2.07068 0
M  V30 6596 C 613.415 3.38323 0.179648 0
M  V30 6597 C 611.974 3.71589 0.599858 0
M  V30 6598 C 611.121 2.76228 -0.243572 0
M  V30 6599 H 614.072 1.46966 -0.59888 0
M  V30 6600 H 614.093 3.67113 1.00042 0
M  V30 6601 H 613.605 3.79333 -0.820228 0
M  V30 6602 H 611.706 3.36144 1.60742 0
M  V30 6603 H 611.819 4.77715 0.364003 0
M  V30 6604 H 610.183 2.53045 0.289855 0
M  V30 6605 H 610.966 3.20074 -1.24127 0
M  V30 6606 N 613.412 0.11024 1.57214 0
M  V30 6607 C 614.375 -0.828808 2.1369 0
M  V30 6608 C 615.375 -1.20059 1.06969 0
M  V30 6609 O 616.565 -1.12754 1.32786 0
M  V30 6610 C 613.697 -2.11959 2.66994 0
M  V30 6611 H 614.89 -0.338146 2.97988 0
M  V30 6612 H 612.443 -0.138913 1.55681 0
M  V30 6613 H 613.178 -2.65476 1.8626 0
M  V30 6614 H 612.963 -1.86258 3.45037 0
M  V30 6615 H 614.453 -2.79105 3.10629 0
M  V30 6616 N 614.89 -1.56749 -0.16351 0
M  V30 6617 C 615.82 -2.00042 -1.20438 0
M  V30 6618 C 616.801 -0.877256 -1.45733 0
M  V30 6619 O 617.986 -1.1439 -1.56935 0
M  V30 6620 C 615.116 -2.36697 -2.54149 0
M  V30 6621 C 614.07 -3.52046 -2.43408 0
M  V30 6622 C 613.396 -3.74466 -3.81679 0
M  V30 6623 C 614.696 -4.85247 -1.93216 0
M  V30 6624 H 616.39 -2.87244 -0.844477 0
M  V30 6625 H 613.936 -1.38194 -0.40478 0
M  V30 6626 H 615.889 -2.65582 -3.27176 0
M  V30 6627 H 614.613 -1.46414 -2.91943 0
M  V30 6628 H 613.272 -3.23301 -1.72834 0
M  V30 6629 H 612.92 -2.81461 -4.1688 0
M  V30 6630 H 612.62 -4.52084 -3.75359 0
M  V30 6631 H 614.144 -4.0576 -4.5628 0
M  V30 6632 H 615.558 -5.12957 -2.56023 0
M  V30 6633 H 613.955 -5.66556 -1.97825 0
M  V30 6634 H 615.025 -4.7672 -0.88689 0
M  V30 6635 N 616.368 0.432326 -1.51554 0
M  V30 6636 C 617.331 1.50765 -1.72634 0
M  V30 6637 C 618.331 1.49334 -0.596314 0
M  V30 6638 O 619.521 1.51268 -0.863925 0
M  V30 6639 C 616.653 2.90284 -1.7874 0
M  V30 6640 H 617.846 1.33377 -2.68609 0
M  V30 6641 H 615.399 0.661329 -1.4162 0
M  V30 6642 H 616.134 3.13071 -0.845977 0
M  V30 6643 H 615.919 2.92727 -2.6087 0
M  V30 6644 H 617.409 3.68282 -1.96871 0
M  V30 6645 N 617.846 1.41785 0.688094 0
M  V30 6646 C 619.076 1.44705 1.47459 0
M  V30 6647 C 619.484 0.052916 1.89126 0
M  V30 6648 O 618.827 -0.939781 1.57841 0
M  V30 6649 C 618.889 2.29935 2.76352 0
M  V30 6650 C 618.553 3.77996 2.56843 0
M  V30 6651 C 619.55 4.69976 2.22304 0
M  V30 6652 C 617.235 4.2212 2.7225 0
M  V30 6653 C 619.229 6.04068 2.03421 0
M  V30 6654 C 616.916 5.56275 2.52985 0
M  V30 6655 C 617.914 6.47065 2.18621 0
M  V30 6656 O 617.602 7.78744 1.9953 0
M  V30 6657 H 617.334 0.494703 0.460701 0
M  V30 6658 H 619.888 1.86802 0.854057 0
M  V30 6659 H 618.118 1.82664 3.40839 0
M  V30 6660 H 619.807 2.24467 3.38186 0
M  V30 6661 H 620.573 4.37175 2.10008 0
M  V30 6662 H 616.452 3.51752 2.97979 0
M  V30 6663 H 619.996 6.74897 1.76523 0
M  V30 6664 H 615.893 5.88653 2.64873 0
M  V30 6665 H 616.661 7.89966 2.14234 0
M  V30 6666 N 619.324 -0.923095 1.27737 0
M  V30 6667 C 620.271 -2.02432 1.1086 0
M  V30 6668 C 621.241 -1.66098 0.00835195 0
M  V30 6669 O 622.426 -1.90027 0.171542 0
M  V30 6670 C 619.566 -3.36476 0.766671 0
M  V30 6671 C 618.679 -3.85737 1.94501 0
M  V30 6672 C 617.814 -5.08249 1.54455 0
M  V30 6673 C 616.853 -5.49818 2.6901 0
M  V30 6674 N 615.99 -6.63524 2.29521 0
M  V30 6675 H 620.83 -2.16201 2.05089 0
M  V30 6676 H 618.367 -1.05909 1.02087 0
M  V30 6677 H 620.325 -4.13569 0.549223 0
M  V30 6678 H 618.955 -3.22502 -0.13867 0
M  V30 6679 H 618.007 -3.04883 2.27487 0
M  V30 6680 H 619.319 -4.12513 2.80419 0
M  V30 6681 H 618.473 -5.92857 1.28862 0
M  V30 6682 H 617.212 -4.83261 0.656534 0
M  V30 6683 H 616.217 -4.63757 2.95313 0
M  V30 6684 H 617.442 -5.76799 3.5844 0
M  V30 6685 H 615.388 -6.40185 1.43177 0
M  V30 6686 H 615.305 -6.89978 3.08977 0
M  V30 6687 H 616.573 -7.51461 2.07187 0
M  V30 6688 N 620.802 -1.09834 -1.13024 0
M  V30 6689 C 622.027 -0.85909 -1.88771 0
M  V30 6690 C 622.452 0.584402 -1.78791 0
M  V30 6691 O 621.81 1.41101 -1.13842 0
M  V30 6692 C 621.858 -1.30427 -3.36186 0
M  V30 6693 O 620.962 -0.465368 -4.09766 0
M  V30 6694 H 620.303 -0.310786 -0.586778 0
M  V30 6695 H 622.833 -1.46355 -1.42973 0
M  V30 6696 H 622.843 -1.2915 -3.8702 0
M  V30 6697 H 621.518 -2.3555 -3.42767 0
M  V30 6698 H 620.095 -0.542814 -3.68928 0
M  V30 6699 N 622.28 1.30327 -0.886154 0
M  V30 6700 C 623.505 2.0079 -0.519425 0
M  V30 6701 C 623.93 1.65979 0.885013 0
M  V30 6702 O 623.288 0.877043 1.58675 0
M  V30 6703 C 623.336 3.53686 -0.702758 0
M  V30 6704 O 622.44 4.11637 0.250828 0
M  V30 6705 H 621.781 0.63171 -0.204544 0
M  V30 6706 H 624.311 1.66145 -1.19402 0
M  V30 6707 H 624.321 4.03531 -0.602207 0
M  V30 6708 H 622.996 3.78361 -1.72673 0
M  V30 6709 H 621.573 3.72755 0.103873 0
M  V30 6710 N 623.758 0.647228 1.43697 0
M  V30 6711 C 624.69 -0.0866232 2.29036 0
M  V30 6712 C 625.703 -0.793051 1.42178 0
M  V30 6713 O 626.892 -0.651807 1.66174 0
M  V30 6714 C 623.992 -1.14552 3.18953 0
M  V30 6715 C 623.165 -0.518422 4.34317 0
M  V30 6716 C 622.224 -1.4734 5.05151 0
M  V30 6717 O 621.25 -0.984312 5.60625 0
M  V30 6718 N 622.452 -2.8075 5.08094 0
M  V30 6719 H 625.217 0.645834 2.92659 0
M  V30 6720 H 622.778 0.489567 1.54321 0
M  V30 6721 H 624.77 -1.78505 3.63205 0
M  V30 6722 H 623.34 -1.78001 2.56971 0
M  V30 6723 H 622.56 0.300079 3.93056 0
M  V30 6724 H 623.848 -0.080401 5.08736 0
M  V30 6725 H 623.246 -3.23052 4.64386 0
M  V30 6726 H 621.803 -3.40022 5.56083 0
M  V30 6727 N 625.236 -1.5273 0.388769 0
M  V30 6728 C 626.166 -2.29353 -0.438111 0
M  V30 6729 C 627.147 -1.32719 -1.06394 0
M  V30 6730 O 628.332 -1.61612 -1.07681 0
M  V30 6731 C 625.462 -3.09995 -1.56589 0
M  V30 6732 C 624.416 -4.14509 -1.06613 0
M  V30 6733 C 623.742 -4.83372 -2.28594 0
M  V30 6734 C 625.042 -5.22127 -0.134459 0
M  V30 6735 H 626.736 -2.98723 0.201206 0
M  V30 6736 H 624.282 -1.43665 0.0982089 0
M  V30 6737 H 626.235 -3.62357 -2.15118 0
M  V30 6738 H 624.959 -2.38357 -2.23279 0
M  V30 6739 H 623.618 -3.63128 -0.503383 0
M  V30 6740 H 623.266 -4.08283 -2.93792 0
M  V30 6741 H 622.966 -5.54012 -1.95817 0
M  V30 6742 H 624.49 -5.38538 -2.87766 0
M  V30 6743 H 625.904 -5.69851 -0.627914 0
M  V30 6744 H 624.301 -6.00011 0.103534 0
M  V30 6745 H 625.371 -4.77971 0.816798 0
M  V30 6746 N 626.714 -0.118576 -1.57153 0
M  V30 6747 C 627.646 0.862247 -2.12363 0
M  V30 6748 C 628.659 1.23025 -1.06625 0
M  V30 6749 O 629.848 1.17927 -1.33998 0
M  V30 6750 C 626.948 2.16425 -2.60794 0
M  V30 6751 C 626.121 1.96801 -3.90626 0
M  V30 6752 C 625.18 3.10726 -4.2466 0
M  V30 6753 O 624.206 2.83659 -4.93484 0
M  V30 6754 N 625.408 4.37147 -3.81946 0
M  V30 6755 H 628.173 0.390564 -2.97144 0
M  V30 6756 H 625.734 0.0658591 -1.61766 0
M  V30 6757 H 627.726 2.91633 -2.80593 0
M  V30 6758 H 626.296 2.54943 -1.80895 0
M  V30 6759 H 625.516 1.05787 -3.7974 0
M  V30 6760 H 626.804 1.80993 -4.7552 0
M  V30 6761 H 626.202 4.62014 -3.26435 0
M  V30 6762 H 624.759 5.09229 -4.06853 0
M  V30 6763 N 628.193 1.56834 0.155195 0
M  V30 6764 C 629.126 1.9278 1.22111 0
M  V30 6765 C 630.104 0.792588 1.41975 0
M  V30 6766 O 631.288 1.04743 1.5672 0
M  V30 6767 C 628.415 2.19273 2.58142 0
M  V30 6768 C 627.461 3.41932 2.54921 0
M  V30 6769 S 628.294 4.95769 2.02418 0
M  V30 6770 C 629.45 5.25375 3.40194 0
M  V30 6771 H 629.683 2.82889 0.914393 0
M  V30 6772 H 627.216 1.50133 0.360461 0
M  V30 6773 H 629.174 2.35217 3.36427 0
M  V30 6774 H 627.835 1.29843 2.86007 0
M  V30 6775 H 627.028 3.57721 3.55038 0
M  V30 6776 H 626.63 3.25188 1.8474 0
M  V30 6777 H 628.922 5.1834 4.36268 0
M  V30 6778 H 629.865 6.26889 3.29266 0
M  V30 6779 H 630.273 4.52906 3.36951 0
M  V30 6780 N 629.671 -0.424282 1.51781 0
M  V30 6781 C 630.919 -1.17028 1.64769 0
M  V30 6782 C 631.24 -1.91409 0.372523 0
M  V30 6783 O 630.51 -1.86091 -0.612108 0
M  V30 6784 H 629.09 -0.434992 0.607282 0
M  V30 6785 H 631.752 -0.485169 1.88765 0
M  V30 6786 H 630.848 -1.8927 2.4816 0
M  V30 6787 N 631.149 -1.42148 -0.680565 0
M  V30 6788 C 632.081 -1.41119 -1.80605 0
M  V30 6789 C 633.094 -0.311099 -1.598 0
M  V30 6790 O 634.283 -0.573813 -1.69026 0
M  V30 6791 C 631.383 -1.18204 -3.17618 0
M  V30 6792 C 630.556 -2.40537 -3.65322 0
M  V30 6793 C 629.615 -2.13254 -4.8105 0
M  V30 6794 O 628.641 -2.8641 -4.91892 0
M  V30 6795 N 629.843 -1.13208 -5.69354 0
M  V30 6796 H 632.608 -2.38128 -1.81975 0
M  V30 6797 H 630.169 -1.36953 -0.863446 0
M  V30 6798 H 632.161 -0.97878 -3.92686 0
M  V30 6799 H 630.731 -0.29738 -3.11182 0
M  V30 6800 H 629.951 -2.76468 -2.80996 0
M  V30 6801 H 631.239 -3.22012 -3.93936 0
M  V30 6802 H 630.637 -0.526893 -5.63241 0
M  V30 6803 H 629.194 -0.988699 -6.44258 0
M  V30 6804 N 632.627 0.916307 -1.28225 0
M  V30 6805 C 633.574 2.01841 -1.11932 0
M  V30 6806 C 634.544 1.66091 -0.0171604 0
M  V30 6807 O 635.729 1.89934 -0.181617 0
M  V30 6808 C 632.869 3.36065 -0.784504 0
M  V30 6809 C 631.982 3.847 -1.96544 0
M  V30 6810 C 631.117 5.07423 -1.57149 0
M  V30 6811 C 630.156 5.48384 -2.71922 0
M  V30 6812 N 629.293 6.62298 -2.33037 0
M  V30 6813 H 634.133 2.1511 -2.06232 0
M  V30 6814 H 631.67 1.05366 -1.02647 0
M  V30 6815 H 633.628 4.13272 -0.571148 0
M  V30 6816 H 632.258 3.22571 0.121565 0
M  V30 6817 H 631.31 3.03673 -2.291 0
M  V30 6818 H 632.622 4.1102 -2.82603 0
M  V30 6819 H 631.776 5.92165 -1.32004 0
M  V30 6820 H 630.515 4.82906 -0.682153 0
M  V30 6821 H 629.52 4.62184 -2.97768 0
M  V30 6822 H 630.745 5.7489 -3.61494 0
M  V30 6823 H 628.691 6.39416 -1.4657 0
M  V30 6824 H 628.608 6.8833 -3.12631 0
M  V30 6825 H 629.876 7.50352 -2.11169 0
M  V30 6826 N 634.105 1.10431 1.1244 0
M  V30 6827 C 635.052 0.753103 2.18167 0
M  V30 6828 C 636.022 -0.270549 1.63882 0
M  V30 6829 O 637.207 -0.149837 1.90211 0
M  V30 6830 C 634.347 0.191046 3.44571 0
M  V30 6831 C 633.46 1.26999 4.12911 0
M  V30 6832 C 632.595 0.669586 5.26963 0
M  V30 6833 C 631.634 1.72912 5.87169 0
M  V30 6834 N 630.771 1.14898 6.92635 0
M  V30 6835 H 635.611 1.65892 2.47556 0
M  V30 6836 H 633.148 0.828631 1.21541 0
M  V30 6837 H 635.106 -0.152712 4.1692 0
M  V30 6838 H 633.736 -0.677997 3.15599 0
M  V30 6839 H 632.788 1.73087 3.3874 0
M  V30 6840 H 634.1 2.07204 4.53727 0
M  V30 6841 H 633.254 0.275274 6.06075 0
M  V30 6842 H 631.993 -0.163895 4.87425 0
M  V30 6843 H 630.998 2.13286 5.06744 0
M  V30 6844 H 632.223 2.56544 6.28778 0
M  V30 6845 H 630.169 0.336956 6.55134 0
M  V30 6846 H 630.086 1.88786 7.32049 0
M  V30 6847 H 631.354 0.78121 7.75576 0
M  V30 6848 N 635.583 -1.29855 0.893053 0
M  V30 6849 C 636.531 -2.29867 0.355512 0
M  V30 6850 C 637.525 -1.60502 -0.541801 0
M  V30 6851 O 638.731 -1.74902 -0.425339 0
M  V30 6852 H 635.106 -0.745805 0.0963247 0
M  V30 6853 H 637.077 -2.72655 1.21252 0
M  V30 6854 C 635.826 -3.453 -0.407801 0
M  V30 6855 H 635.149 -3.98864 0.273426 0
M  V30 6856 H 636.589 -4.17334 -0.748887 0
M  V30 6857 C 635.048 -2.96051 -1.60795 0
M  V30 6858 O 635.578 -2.96763 -2.7073 0
M  V30 6859 N 633.784 -2.51963 -1.44786 0
M  V30 6860 H 633.331 -2.51583 -0.553498 0
M  V30 6861 H 633.289 -2.1937 -2.2522 0
M  V30 6862 N 637.061 -0.65484 -1.43351 0
M  V30 6863 C 638.286 -0.175046 -2.0666 0
M  V30 6864 C 638.711 1.15104 -1.4877 0
M  V30 6865 O 638.069 1.71144 -0.598279 0
M  V30 6866 C 638.117 -0.0991544 -3.60464 0
M  V30 6867 O 637.221 0.938169 -4.01587 0
M  V30 6868 H 636.562 -0.0956148 -0.65708 0
M  V30 6869 H 639.092 -0.898222 -1.83829 0
M  V30 6870 H 639.102 0.083632 -4.07914 0
M  V30 6871 H 637.777 -1.06719 -4.01975 0
M  V30 6872 H 636.354 0.72804 -3.65724 0
M  V30 6873 N 638.539 1.52521 -0.396863 0
M  V30 6874 C 639.486 2.26671 0.434624 0
M  V30 6875 C 640.456 1.28584 1.05144 0
M  V30 6876 O 641.641 1.57426 1.07804 0
M  V30 6877 C 638.781 3.08234 1.55196 0
M  V30 6878 C 637.894 4.21261 0.957262 0
M  V30 6879 C 637.029 4.90205 2.04627 0
M  V30 6880 C 636.068 5.95213 1.42787 0
M  V30 6881 N 635.205 6.57723 2.45651 0
M  V30 6882 H 640.045 2.973 -0.204139 0
M  V30 6883 H 637.582 1.46669 -0.112505 0
M  V30 6884 H 639.54 3.53819 2.2106 0
M  V30 6885 H 638.17 2.398 2.16092 0
M  V30 6886 H 637.222 3.79935 0.188005 0
M  V30 6887 H 638.534 4.96624 0.465416 0
M  V30 6888 H 637.688 5.39133 2.78246 0
M  V30 6889 H 636.427 4.14383 2.57174 0
M  V30 6890 H 635.432 5.45616 0.676968 0
M  V30 6891 H 636.657 6.72972 0.910255 0
M  V30 6892 H 634.603 5.84737 2.97353 0
M  V30 6893 H 634.52 7.28723 2.01243 0
M  V30 6894 H 635.788 7.11293 3.18876 0
M  V30 6895 N 640.017 0.126909 1.57088 0
M  V30 6896 C 640.949 -0.850973 2.12817 0
M  V30 6897 C 641.962 -1.22457 1.07276 0
M  V30 6898 O 643.151 -1.17215 1.34622 0
M  V30 6899 C 640.251 -2.15039 2.61938 0
M  V30 6900 C 639.424 -1.94726 3.91664 0
M  V30 6901 C 638.483 -3.0847 4.26301 0
M  V30 6902 O 637.509 -2.81038 4.94981 0
M  V30 6903 N 638.711 -4.35116 3.84259 0
M  V30 6904 H 641.476 -0.3748 2.97347 0
M  V30 6905 H 639.037 -0.0572793 1.61799 0
M  V30 6906 H 641.029 -2.90141 2.82135 0
M  V30 6907 H 639.599 -2.5398 1.82244 0
M  V30 6908 H 638.819 -1.03772 3.80296 0
M  V30 6909 H 640.107 -1.78469 4.76473 0
M  V30 6910 H 639.505 -4.60276 3.2888 0
M  V30 6911 H 638.062 -5.07064 4.09548 0
M  V30 6912 N 641.495 -1.56914 -0.146875 0
M  V30 6913 C 642.772 -1.74273 -0.888165 0
M  V30 6914 C 643.152 -0.69496 -1.99333 0
M  V30 6915 O 642.5 0.286093 -2.26702 0
M  V30 6916 C 642.71 -3.18336 -1.43051 0
M  V30 6917 C 644.058 -3.80024 -1.89387 0
M  V30 6918 O 645.082 -3.21765 -1.52792 0
M  V30 6919 O 643.941 -4.82367 -2.56874 0
M  V30 6920 H 641.035 -0.712565 -0.419738 0
M  V30 6921 H 643.581 -1.6918 -0.132791 0
M  V30 6922 H 642.353 -3.86092 -0.636274 0
M  V30 6923 H 641.976 -3.27854 -2.24938 0
M  V30 6924 N 642.974 0.416227 -1.52004 0
M  V30 6925 C 643.937 1.48926 -1.74223 0
M  V30 6926 C 644.937 1.48693 -0.612119 0
M  V30 6927 O 646.127 1.50343 -0.879921 0
M  V30 6928 C 643.259 2.88372 -1.81809 0
M  V30 6929 H 644.452 1.3052 -2.70008 0
M  V30 6930 H 642.005 0.646271 -1.42313 0
M  V30 6931 H 642.74 3.12157 -0.879135 0
M  V30 6932 H 642.525 2.89944 -2.6396 0
M  V30 6933 H 644.015 3.66173 -2.00766 0
M  V30 6934 N 644.452 1.42507 0.673017 0
M  V30 6935 C 645.399 1.46124 1.78651 0
M  V30 6936 C 646.369 0.313007 1.63124 0
M  V30 6937 O 647.554 0.517337 1.83653 0
M  V30 6938 C 644.694 1.3711 3.16694 0
M  V30 6939 C 643.807 2.61983 3.43495 0
M  V30 6940 C 642.942 2.45098 4.71275 0
M  V30 6941 C 641.981 3.65336 4.91117 0
M  V30 6942 N 641.118 3.47383 6.10139 0
M  V30 6943 H 645.958 2.4128 1.74895 0
M  V30 6944 H 643.495 1.19788 0.853766 0
M  V30 6945 H 645.453 1.29881 3.96468 0
M  V30 6946 H 644.083 0.45549 3.1957 0
M  V30 6947 H 643.135 2.79571 2.57961 0
M  V30 6948 H 644.447 3.51355 3.5405 0
M  V30 6949 H 643.601 2.35466 5.59143 0
M  V30 6950 H 642.34 1.53219 4.63007 0
M  V30 6951 H 641.345 3.754 4.0169 0
M  V30 6952 H 642.57 4.58199 5.01229 0
M  V30 6953 H 640.516 2.58222 6.0304 0
M  V30 6954 H 640.433 4.30344 6.21563 0
M  V30 6955 H 641.701 3.41565 7.00681 0
M  V30 6956 N 645.93 -0.909495 1.28709 0
M  V30 6957 C 647.158 -1.69272 1.18973 0
M  V30 6958 C 647.573 -1.87123 -0.251048 0
M  V30 6959 O 646.93 -1.40127 -1.16922 0
M  V30 6960 C 646.981 -3.08257 1.88839 0
M  V30 6961 O 646.702 -2.91228 3.27289 0
M  V30 6962 C 648.203 -4.02642 1.85457 0
M  V30 6963 H 645.423 -0.528999 0.412797 0
M  V30 6964 H 647.967 -1.13803 1.69909 0
M  V30 6965 H 646.122 -3.6053 1.41762 0
M  V30 6966 H 646.536 -3.79223 3.6234 0
M  V30 6967 H 648.01 -4.97613 2.38925 0
M  V30 6968 H 648.487 -4.31327 0.827893 0
M  V30 6969 H 649.093 -3.56298 2.32233 0
M  V30 6970 N 647.408 -1.11026 -1.11852 0
M  V30 6971 C 648.636 -0.878818 -1.87308 0
M  V30 6972 C 649.051 0.57111 -1.79955 0
M  V30 6973 O 648.408 1.39409 -1.17777 0
M  V30 6974 C 648.459 -1.3264 -3.36287 0
M  V30 6975 O 648.18 -2.71948 -3.43476 0
M  V30 6976 C 649.681 -1.12974 -4.28663 0
M  V30 6977 H 646.901 -0.315015 -0.592458 0
M  V30 6978 H 649.445 -1.47649 -1.41492 0
M  V30 6979 H 647.6 -0.772269 -3.79625 0
M  V30 6980 H 648.014 -2.91241 -4.3621 0
M  V30 6981 H 649.488 -1.49198 -5.31454 0
M  V30 6982 H 649.965 -0.0689127 -4.39146 0
M  V30 6983 H 650.571 -1.67064 -3.91113 0
M  V30 6984 N 648.886 1.2938 -0.899927 0
M  V30 6985 C 650.163 1.9046 -0.445443 0
M  V30 6986 C 650.543 1.81683 1.07492 0
M  V30 6987 O 649.891 1.24371 1.91688 0
M  V30 6988 C 650.101 3.35529 -0.960279 0
M  V30 6989 C 651.449 4.12556 -1.00412 0
M  V30 6990 O 652.473 3.44434 -0.907965 0
M  V30 6991 O 651.332 5.34294 -1.14857 0
M  V30 6992 H 648.426 0.815253 -0.138893 0
M  V30 6993 H 650.972 1.37844 -0.989808 0
M  V30 6994 H 649.744 3.36074 -2.00425 0
M  V30 6995 H 649.367 3.95624 -0.395939 0
M  V30 6996 N 650.364 0.662433 1.43002 0
M  V30 6997 C 651.312 -0.035345 2.32573 0
M  V30 6998 C 652.306 -0.803505 1.49131 0
M  V30 6999 O 653.512 -0.712865 1.65282 0
M  V30 7000 H 649.887 -0.0302194 0.751393 0
M  V30 7001 H 651.858 0.737686 2.89138 0
M  V30 7002 C 650.607 -0.981575 3.33557 0
M  V30 7003 H 649.93 -0.399914 3.97795 0
M  V30 7004 H 651.37 -1.43873 3.98844 0
M  V30 7005 C 649.829 -2.08204 2.64863 0
M  V30 7006 O 650.359 -3.16698 2.47113 0
M  V30 7007 N 648.565 -1.85022 2.24088 0
M  V30 7008 H 648.112 -0.967909 2.38724 0
M  V30 7009 H 648.07 -2.58845 1.78457 0
M  V30 7010 N 651.842 -1.52309 0.404946 0
M  V30 7011 C 653.119 -1.94237 -0.230544 0
M  V30 7012 C 653.499 -1.34154 -1.6299 0
M  V30 7013 O 652.847 -0.515713 -2.22604 0
M  V30 7014 C 653.057 -3.48166 -0.241106 0
M  V30 7015 C 654.405 -4.22074 -0.462488 0
M  V30 7016 O 655.429 -3.54754 -0.320644 0
M  V30 7017 O 654.288 -5.41443 -0.741708 0
M  V30 7018 H 651.382 -0.813766 -0.147358 0
M  V30 7019 H 653.928 -1.6333 0.460587 0
M  V30 7020 H 652.7 -3.84269 0.738467 0
M  V30 7021 H 652.323 -3.85422 -0.97651 0
M  V30 7022 N 653.32 -0.135238 -1.57019 0
M  V30 7023 C 654.56 0.521686 -1.9763 0
M  V30 7024 C 654.924 1.62804 -1.01778 0
M  V30 7025 O 656.125 2.345 -1.31389 0
M  V30 7026 C 654.396 1.0257 -3.42365 0
M  V30 7027 S 655.955 1.68888 -4.04997 0
M  V30 7028 H 652.773 0.169064 -0.690607 0
M  V30 7029 H 655.375 -0.224168 -1.94211 0
M  V30 7030 H 654.079 0.209556 -4.09865 0
M  V30 7031 H 653.61 1.80645 -3.49472 0
M  V30 7032 H 655.625 2.97554 -3.97084 0
M  V30 7033 N 654.798 1.5699 0.138552 0
M  V30 7034 C 656.023 1.88344 0.86841 0
M  V30 7035 C 656.448 0.725159 1.7356 0
M  V30 7036 O 655.806 -0.324992 1.78363 0
M  V30 7037 C 655.854 3.18334 1.69398 0
M  V30 7038 O 654.958 3.02863 2.79907 0
M  V30 7039 H 654.299 0.618577 0.241367 0
M  V30 7040 H 656.829 2.04207 0.126826 0
M  V30 7041 H 656.839 3.50567 2.08726 0
M  V30 7042 H 655.514 4.02238 1.05725 0
M  V30 7043 H 654.091 2.82056 2.43924 0
M  V30 7044 N 656.276 -0.40816 1.52223 0
M  V30 7045 C 657.209 -1.51834 1.70357 0
M  V30 7046 C 658.187 -1.52973 0.551171 0
M  V30 7047 O 659.371 -1.71667 0.778642 0
M  V30 7048 C 656.498 -2.90362 1.74378 0
M  V30 7049 C 655.544 -3.0713 2.95928 0
M  V30 7050 S 656.377 -2.80342 4.56255 0
M  V30 7051 C 657.533 -4.21098 4.63063 0
M  V30 7052 H 657.766 -1.36223 2.64255 0
M  V30 7053 H 655.299 -0.599798 1.42274 0
M  V30 7054 H 657.257 -3.70199 1.77379 0
M  V30 7055 H 655.918 -3.03314 0.816063 0
M  V30 7056 H 655.111 -4.08482 2.95226 0
M  V30 7057 H 654.713 -2.3516 2.90819 0
M  V30 7058 H 657.005 -5.14749 4.40499 0
M  V30 7059 H 657.948 -4.26823 5.65002 0
M  V30 7060 H 658.356 -4.06114 3.92086 0
M  V30 7061 N 657.755 -1.42862 -0.66545 0
M  V30 7062 C 659.001 -1.44043 -1.42757 0
M  V30 7063 C 659.334 -0.0599629 -1.94107 0
M  V30 7064 O 658.609 0.917286 -1.71511 0
M  V30 7065 C 658.892 -2.47266 -2.61786 0
M  V30 7066 C 658.745 -3.94539 -2.16007 0
M  V30 7067 C 660.064 -2.47365 -3.64003 0
M  V30 7068 H 657.183 -0.524506 -0.517748 0
M  V30 7069 H 659.825 -1.74335 -0.755466 0
M  V30 7070 H 657.975 -2.21565 -3.19126 0
M  V30 7071 H 659.647 -4.31254 -1.63762 0
M  V30 7072 H 657.89 -4.07957 -1.47491 0
M  V30 7073 H 658.561 -4.62357 -3.01546 0
M  V30 7074 H 661.037 -2.70243 -3.16399 0
M  V30 7075 H 659.913 -3.21552 -4.44854 0
M  V30 7076 H 660.174 -1.50299 -4.15767 0
M  V30 7077 N 659.233 0.902656 -1.29189 0
M  V30 7078 C 660.196 1.98797 -1.14071 0
M  V30 7079 C 661.196 1.60615 -0.0770549 0
M  V30 7080 O 662.386 1.71165 -0.323753 0
M  V30 7081 C 659.518 3.32688 -0.743739 0
M  V30 7082 H 660.711 2.13637 -2.10473 0
M  V30 7083 H 658.264 1.08678 -1.12334 0
M  V30 7084 H 658.999 3.23549 0.220554 0
M  V30 7085 H 658.784 3.61765 -1.51223 0
M  V30 7086 H 660.274 4.12337 -0.660935 0
M  V30 7087 N 660.711 1.11618 1.11262 0
M  V30 7088 C 661.641 0.79846 2.19424 0
M  V30 7089 C 662.622 -0.234003 1.68483 0
M  V30 7090 O 663.807 -0.0970704 1.93957 0
M  V30 7091 C 660.937 0.242892 3.4645 0
M  V30 7092 C 659.891 1.20744 4.10615 0
M  V30 7093 C 659.217 0.512494 5.32238 0
M  V30 7094 C 660.517 2.55884 4.55325 0
M  V30 7095 H 662.211 1.70286 2.46258 0
M  V30 7096 H 659.757 0.820195 1.18359 0
M  V30 7097 H 661.71 0.00840447 4.21399 0
M  V30 7098 H 660.434 -0.696811 3.1908 0
M  V30 7099 H 659.093 1.42759 3.37662 0
M  V30 7100 H 658.741 -0.432075 5.01141 0
M  V30 7101 H 658.441 1.15583 5.7612 0
M  V30 7102 H 659.965 0.286842 6.09926 0
M  V30 7103 H 661.379 2.37946 5.21588 0
M  V30 7104 H 659.776 3.16216 5.10027 0
M  V30 7105 H 660.846 3.14968 3.68678 0
M  V30 7106 N 662.189 -1.289 0.906776 0
M  V30 7107 C 663.437 -1.94883 0.535266 0
M  V30 7108 C 663.758 -1.71784 -0.922791 0
M  V30 7109 O 663.028 -1.05359 -1.65156 0
M  V30 7110 H 661.608 -0.721109 0.194962 0
M  V30 7111 H 664.27 -1.57018 1.15461 0
M  V30 7112 H 663.366 -3.03591 0.723821 0
M  V30 7113 N 663.667 -0.670007 -1.42649 0
M  V30 7114 C 664.614 0.0112928 -2.30797 0
M  V30 7115 C 665.584 0.797627 -1.45695 0
M  V30 7116 O 666.769 0.770845 -1.74535 0
M  V30 7117 C 663.909 0.95998 -3.31479 0
M  V30 7118 C 663.022 0.167975 -4.31673 0
M  V30 7119 C 662.157 1.11198 -5.19431 0
M  V30 7120 C 661.196 0.311381 -6.11307 0
M  V30 7121 N 660.333 1.20784 -6.91633 0
M  V30 7122 H 665.173 -0.746231 -2.88505 0
M  V30 7123 H 662.71 -0.379739 -1.42114 0
M  V30 7124 H 664.668 1.52379 -3.88377 0
M  V30 7125 H 663.298 1.68419 -2.75382 0
M  V30 7126 H 662.35 -0.512385 -3.76933 0
M  V30 7127 H 663.662 -0.453814 -4.96731 0
M  V30 7128 H 662.816 1.74587 -5.81037 0
M  V30 7129 H 661.555 1.76766 -4.54538 0
M  V30 7130 H 660.56 -0.335758 -5.48774 0
M  V30 7131 H 661.785 -0.340135 -6.78248 0
M  V30 7132 H 659.731 1.85001 -6.29373 0
M  V30 7133 H 659.648 0.64102 -7.53277 0
M  V30 7134 H 660.916 1.82936 -7.5773 0
M  V30 7135 N 665.145 1.52092 -0.413018 0
M  V30 7136 C 666.077 2.24819 0.445994 0
M  V30 7137 C 667.09 1.27925 1.00692 0
M  V30 7138 O 668.279 1.53845 0.905204 0
M  V30 7139 C 665.379 2.96951 1.6332 0
M  V30 7140 C 664.552 4.20746 1.19548 0
M  V30 7141 C 663.611 4.75668 2.25003 0
M  V30 7142 O 662.637 5.38148 1.85434 0
M  V30 7143 N 663.839 4.57579 3.57214 0
M  V30 7144 H 666.604 2.99176 -0.177209 0
M  V30 7145 H 664.165 1.60102 -0.240601 0
M  V30 7146 H 666.157 3.30586 2.33441 0
M  V30 7147 H 664.727 2.25756 2.16225 0
M  V30 7148 H 663.947 3.92881 0.32224 0
M  V30 7149 H 665.235 5.01132 0.880033 0
M  V30 7150 H 664.633 4.07758 3.92109 0
M  V30 7151 H 663.19 4.95642 4.23299 0
M  V30 7152 N 666.623 0.143563 1.56945 0
M  V30 7153 C 667.573 -0.809115 2.1316 0
M  V30 7154 C 668.557 -1.21176 1.05855 0
M  V30 7155 O 669.749 -1.17875 1.3204 0
M  V30 7156 C 666.878 -2.04957 2.75405 0
M  V30 7157 C 665.964 -1.67018 3.89828 0
M  V30 7158 N 666.355 -0.998822 4.9584 0
M  V30 7159 C 664.653 -1.96313 4.00471 0
M  V30 7160 C 665.354 -0.816217 5.75945 0
M  V30 7161 N 664.33 -1.349 5.26596 0
M  V30 7162 H 668.132 -0.286919 2.92496 0
M  V30 7163 H 665.646 -0.0580948 1.62296 0
M  V30 7164 H 667.643 -2.74201 3.14037 0
M  V30 7165 H 666.303 -2.57697 1.97541 0
M  V30 7166 H 667.314 -0.659975 5.13678 0
M  V30 7167 H 663.991 -2.50927 3.33679 0
M  V30 7168 H 665.381 -0.287353 6.71285 0
M  V30 7169 N 668.101 -1.57061 -0.130224 0
M  V30 7170 C 669.326 -1.88802 -0.858409 0
M  V30 7171 C 669.751 -0.734353 -1.73173 0
M  V30 7172 O 669.109 0.315529 -1.78533 0
M  V30 7173 C 669.157 -3.19228 -1.67708 0
M  V30 7174 O 668.261 -3.04343 -2.78297 0
M  V30 7175 H 667.602 -0.619849 -0.238083 0
M  V30 7176 H 670.132 -2.04271 -0.115995 0
M  V30 7177 H 670.142 -3.51669 -2.06864 0
M  V30 7178 H 668.817 -4.02793 -1.0359 0
M  V30 7179 H 667.394 -2.83346 -2.42425 0
M  V30 7180 N 669.579 0.400081 -1.52437 0
M  V30 7181 C 670.489 1.51253 -1.79331 0
M  V30 7182 C 671.505 1.60188 -0.679396 0
M  V30 7183 O 672.681 1.76733 -0.965791 0
M  V30 7184 C 669.746 2.869 -1.94652 0
M  V30 7185 C 668.807 2.87777 -3.18564 0
M  V30 7186 C 668.04 4.16954 -3.33145 0
M  V30 7187 O 668.263 5.11329 -2.52783 0
M  V30 7188 O 667.197 4.2487 -4.26343 0
M  V30 7189 H 671.023 1.31461 -2.73773 0
M  V30 7190 H 668.608 0.586834 -1.37392 0
M  V30 7191 H 670.49 3.67336 -2.065 0
M  V30 7192 H 669.165 3.06741 -1.034 0
M  V30 7193 H 668.072 2.06162 -3.12167 0
M  V30 7194 H 669.405 2.72886 -4.09627 0
M  V30 7195 N 671.057 1.43213 0.657864 0
M  V30 7196 C 671.967 1.50448 1.80007 0
M  V30 7197 C 672.983 0.39191 1.69529 0
M  V30 7198 O 674.159 0.645349 1.90781 0
M  V30 7199 C 671.224 1.42062 3.16258 0
M  V30 7200 C 670.285 2.63951 3.38568 0
M  V30 7201 C 669.518 2.55956 4.68318 0
M  V30 7202 O 669.741 1.60473 5.47361 0
M  V30 7203 O 668.675 3.46378 4.92245 0
M  V30 7204 H 672.501 2.4689 1.76858 0
M  V30 7205 H 670.086 1.25163 0.81576 0
M  V30 7206 H 671.968 1.3981 3.97531 0
M  V30 7207 H 670.643 0.487524 3.20008 0
M  V30 7208 H 669.55 2.71776 2.57077 0
M  V30 7209 H 670.883 3.56217 3.39662 0
M  V30 7210 N 672.536 -0.895792 1.29666 0
M  V30 7211 C 673.499 -1.98189 1.15124 0
M  V30 7212 C 674.499 -1.60572 0.0855717 0
M  V30 7213 O 675.689 -1.70991 0.332826 0
M  V30 7214 C 672.821 -3.32289 0.761372 0
M  V30 7215 H 674.014 -2.12518 2.11603 0
M  V30 7216 H 671.567 -1.0808 1.12908 0
M  V30 7217 H 672.302 -3.23662 -0.203393 0
M  V30 7218 H 672.087 -3.60958 1.53139 0
M  V30 7219 H 673.577 -4.1198 0.682792 0
M  V30 7220 N 674.014 -1.12206 -1.10668 0
M  V30 7221 C 675.239 -0.898938 -1.86906 0
M  V30 7222 C 675.664 0.546346 -1.79991 0
M  V30 7223 O 675.022 1.38655 -1.1681 0
M  V30 7224 C 675.07 -1.37529 -3.33344 0
M  V30 7225 O 674.174 -0.55218 -4.08687 0
M  V30 7226 H 673.515 -0.323163 -0.580053 0
M  V30 7227 H 676.045 -1.49355 -1.39837 0
M  V30 7228 H 676.055 -1.3733 -3.84193 0
M  V30 7229 H 674.73 -2.42767 -3.37693 0
M  V30 7230 H 673.307 -0.620947 -3.67694 0
M  V30 7231 N 675.492 1.28418 -0.913599 0
M  V30 7232 C 676.439 2.27301 -0.400373 0
M  V30 7233 C 677.409 1.57582 0.52509 0
M  V30 7234 O 678.594 1.85482 0.447318 0
M  V30 7235 C 675.734 3.43284 0.35361 0
M  V30 7236 C 674.847 4.27752 -0.604341 0
M  V30 7237 C 673.982 5.30934 0.168075 0
M  V30 7238 C 673.021 6.07065 -0.783499 0
M  V30 7239 N 672.158 7.02086 -0.0446112 0
M  V30 7240 H 676.998 2.70579 -1.24865 0
M  V30 7241 H 674.535 1.33067 -0.627028 0
M  V30 7242 H 676.493 4.09322 0.806945 0
M  V30 7243 H 675.123 3.00997 1.16623 0
M  V30 7244 H 674.175 3.61759 -1.17621 0
M  V30 7245 H 675.487 4.80682 -1.33216 0
M  V30 7246 H 674.641 6.02855 0.681979 0
M  V30 7247 H 673.38 4.78771 0.928947 0
M  V30 7248 H 672.385 5.33995 -1.30878 0
M  V30 7249 H 673.61 6.61317 -1.54392 0
M  V30 7250 H 671.556 6.52273 0.698272 0
M  V30 7251 H 671.473 7.52637 -0.712258 0
M  V30 7252 H 672.741 7.78205 0.449102 0
M  V30 7253 N 676.97 0.677563 1.42291 0
M  V30 7254 C 678.247 0.129803 1.95169 0
M  V30 7255 C 678.627 -1.35605 1.61786 0
M  V30 7256 O 677.975 -2.09361 0.915444 0
M  V30 7257 C 678.185 0.401889 3.46678 0
M  V30 7258 C 679.533 0.319889 4.23393 0
M  V30 7259 O 680.557 0.33579 3.54614 0
M  V30 7260 O 679.416 0.264459 5.4586 0
M  V30 7261 H 676.51 0.00447433 0.826988 0
M  V30 7262 H 679.056 0.752483 1.52105 0
M  V30 7263 H 677.828 1.43108 3.64192 0
M  V30 7264 H 677.451 -0.252662 3.96796 0
M  V30 7265 N 678.448 -1.51871 0.421078 0
M  V30 7266 C 679.396 -2.28903 -0.413066 0
M  V30 7267 C 680.39 -1.3408 -1.03532 0
M  V30 7268 O 681.596 -1.5149 -0.972146 0
M  V30 7269 H 677.971 -0.736478 -0.152003 0
M  V30 7270 H 679.942 -2.97285 0.257695 0
M  V30 7271 C 678.691 -3.13156 -1.51091 0
M  V30 7272 H 678.014 -3.85997 -1.04145 0
M  V30 7273 H 679.454 -3.7014 -2.06814 0
M  V30 7274 C 677.913 -2.27482 -2.48503 0
M  V30 7275 O 678.443 -1.92325 -3.52667 0
M  V30 7276 N 676.649 -1.91019 -2.18998 0
M  V30 7277 H 676.196 -2.19808 -1.34322 0
M  V30 7278 H 676.154 -1.3399 -2.84419 0
M  V30 7279 N 679.926 -0.151884 -1.56866 0
M  V30 7280 C 681.151 0.508044 -2.01081 0
M  V30 7281 C 681.576 1.57306 -1.03134 0
M  V30 7282 O 680.934 1.81298 -0.0078309 0
M  V30 7283 C 680.982 1.08106 -3.44014 0
M  V30 7284 O 680.086 2.19577 -3.49084 0
M  V30 7285 H 679.427 0.123757 -0.652365 0
M  V30 7286 H 681.957 -0.250055 -2.03066 0
M  V30 7287 H 681.967 1.40851 -3.82916 0
M  V30 7288 H 680.642 0.301168 -4.14808 0
M  V30 7289 H 679.219 1.88023 -3.22027 0
M  V30 7290 N 681.404 1.57128 0.121893 0
M  V30 7291 C 682.681 1.75664 0.860327 0
M  V30 7292 C 683.061 0.726585 1.98202 0
M  V30 7293 O 682.409 -0.24999 2.27128 0
M  V30 7294 C 682.619 3.20571 1.37968 0
M  V30 7295 C 683.967 3.82988 1.83317 0
M  V30 7296 O 684.991 3.24156 1.47654 0
M  V30 7297 O 683.85 4.86393 2.49168 0
M  V30 7298 H 680.944 0.719153 0.408348 0
M  V30 7299 H 683.49 1.6937 0.105859 0
M  V30 7300 H 682.262 3.87056 0.57477 0
M  V30 7301 H 681.885 3.31392 2.19694 0
M  V30 7302 N 682.882 -0.391992 1.52647 0
M  V30 7303 C 684.13 -1.13507 1.67214 0
M  V30 7304 C 684.451 -1.90575 0.41304 0
M  V30 7305 O 683.721 -1.87348 -0.572498 0
M  V30 7306 H 682.301 -0.422013 0.616372 0
M  V30 7307 H 684.963 -0.44502 1.89751 0
M  V30 7308 H 684.059 -1.83964 2.52118 0
M  V30 7309 N 684.36 -1.4356 -0.65026 0
M  V30 7310 C 685.606 -1.45549 -1.41221 0
M  V30 7311 C 685.939 -0.0805472 -1.94033 0
M  V30 7312 O 685.214 0.899043 -1.72475 0
M  V30 7313 C 685.497 -2.50028 -2.59148 0
M  V30 7314 C 685.35 -3.96808 -2.1181 0
M  V30 7315 C 686.669 -2.51212 -3.61359 0
M  V30 7316 H 683.788 -0.529967 -0.512156 0
M  V30 7317 H 686.43 -1.75127 -0.736933 0
M  V30 7318 H 684.58 -2.24937 -3.16758 0
M  V30 7319 H 686.252 -4.32966 -1.59178 0
M  V30 7320 H 684.495 -4.09498 -1.43156 0
M  V30 7321 H 685.166 -4.6553 -2.96625 0
M  V30 7322 H 687.642 -2.73583 -3.13515 0
M  V30 7323 H 686.518 -3.26252 -4.41419 0
M  V30 7324 H 686.779 -1.54701 -4.1415 0
M  V30 7325 N 685.838 0.888903 -1.30139 0
M  V30 7326 C 686.786 2.0156 -1.16088 0
M  V30 7327 C 687.78 1.69239 -0.0737413 0
M  V30 7328 O 688.986 1.78468 -0.234313 0
M  V30 7329 H 685.361 0.660825 -0.358907 0
M  V30 7330 H 687.332 2.10547 -2.11453 0
M  V30 7331 C 686.081 3.36758 -0.865426 0
M  V30 7332 H 685.404 3.62137 -1.69402 0
M  V30 7333 H 686.844 4.16246 -0.807192 0
M  V30 7334 C 685.303 3.34124 0.431577 0
M  V30 7335 O 685.833 3.7445 1.45431 0
M  V30 7336 N 684.039 2.87229 0.441321 0
M  V30 7337 H 683.586 2.54609 -0.391433 0
M  V30 7338 H 683.544 2.8585 1.30909 0
M  V30 7339 N 687.317 1.12792 1.10072 0
M  V30 7340 C 688.227 0.812369 2.20086 0
M  V30 7341 C 689.243 -0.200349 1.72843 0
M  V30 7342 O 690.419 -0.0330262 2.01373 0
M  V30 7343 C 687.484 0.275685 3.45602 0
M  V30 7344 C 686.545 1.34881 4.07561 0
M  V30 7345 C 685.778 0.837639 5.27086 0
M  V30 7346 O 686.001 -0.327224 5.69461 0
M  V30 7347 O 684.935 1.60894 5.79997 0
M  V30 7348 H 688.761 1.73133 2.49517 0
M  V30 7349 H 686.346 0.904863 1.18881 0
M  V30 7350 H 688.228 -0.0185375 4.21396 0
M  V30 7351 H 686.903 -0.615783 3.17789 0
M  V30 7352 H 685.81 1.69625 3.33434 0
M  V30 7353 H 687.143 2.21418 4.39585 0
M  V30 7354 N 688.795 -1.27931 0.920396 0
M  V30 7355 C 689.742 -2.27085 0.412422 0
M  V30 7356 C 690.712 -1.57858 -0.516725 0
M  V30 7357 O 691.897 -1.85717 -0.437475 0
M  V30 7358 C 689.037 -3.43466 -0.335399 0
M  V30 7359 C 688.15 -4.27425 0.627017 0
M  V30 7360 C 687.285 -5.31016 -0.139916 0
M  V30 7361 C 686.324 -6.06641 0.815683 0
M  V30 7362 N 685.461 -7.02052 0.0818439 0
M  V30 7363 H 690.301 -2.69913 1.26298 0
M  V30 7364 H 687.838 -1.32732 0.634076 0
M  V30 7365 H 689.796 -4.09744 -0.785226 0
M  V30 7366 H 688.426 -3.01611 -1.15025 0
M  V30 7367 H 687.478 -3.6113 1.19537 0
M  V30 7368 H 688.79 -4.79969 1.35763 0
M  V30 7369 H 687.944 -6.03208 -0.649998 0
M  V30 7370 H 686.683 -4.79257 -0.903543 0
M  V30 7371 H 685.688 -5.33294 1.33708 0
M  V30 7372 H 686.913 -6.60489 1.57897 0
M  V30 7373 H 684.859 -6.52634 -0.663671 0
M  V30 7374 H 684.776 -7.52249 0.752163 0
M  V30 7375 H 686.044 -7.78432 -0.407825 0
M  V30 7376 N 690.273 -0.685099 -1.4193 0
M  V30 7377 C 691.519 -0.211971 -2.01689 0
M  V30 7378 C 691.852 1.18189 -1.54094 0
M  V30 7379 O 691.127 1.79559 -0.747572 0
M  V30 7380 C 691.41 -0.258019 -3.59174 0
M  V30 7381 C 691.263 -1.68807 -4.16922 0
M  V30 7382 C 692.582 0.388044 -4.38386 0
M  V30 7383 H 689.701 -0.0784987 -0.732808 0
M  V30 7384 H 692.343 -0.871837 -1.68816 0
M  V30 7385 H 690.493 0.303832 -3.8731 0
M  V30 7386 H 692.165 -2.30296 -3.99702 0
M  V30 7387 H 690.408 -2.22553 -3.72361 0
M  V30 7388 H 691.079 -1.6719 -5.26072 0
M  V30 7389 H 693.555 -0.0903432 -4.16002 0
M  V30 7390 H 692.431 0.325232 -5.47936 0
M  V30 7391 H 692.692 1.4672 -4.17044 0
M  V30 7392 N 691.751 1.51645 -0.429126 0
M  V30 7393 C 692.976 2.06917 0.141399 0
M  V30 7394 C 693.401 1.29527 1.36398 0
M  V30 7395 O 692.759 0.33094 1.78254 0
M  V30 7396 C 692.807 3.57776 0.4504 0
M  V30 7397 O 691.911 3.82639 1.53821 0
M  V30 7398 H 691.252 0.663978 0.0054647 0
M  V30 7399 H 693.782 1.95355 -0.608093 0
M  V30 7400 H 693.792 4.01894 0.703249 0
M  V30 7401 H 692.467 4.13532 -0.443213 0
M  V30 7402 H 691.044 3.5039 1.27597 0
M  V30 7403 N 693.229 0.160201 1.56784 0
M  V30 7404 C 694.469 -0.490179 1.98435 0
M  V30 7405 C 694.833 -1.61164 1.04355 0
M  V30 7406 O 696.034 -2.3238 1.35103 0
M  V30 7407 C 694.305 -0.971106 3.43954 0
M  V30 7408 S 695.864 -1.62423 4.07632 0
M  V30 7409 H 692.682 -0.158056 0.693209 0
M  V30 7410 H 695.284 0.255036 1.93829 0
M  V30 7411 H 693.988 -0.144323 4.10146 0
M  V30 7412 H 693.519 -1.75063 3.52302 0
M  V30 7413 H 695.534 -2.91199 4.01768 0
M  V30 7414 N 694.707 -1.5719 -0.113559 0
M  V30 7415 C 695.953 -1.85412 -0.821597 0
M  V30 7416 C 696.286 -0.746722 -1.7927 0
M  V30 7417 O 695.561 0.246971 -1.92926 0
M  V30 7418 C 695.844 -3.24233 -1.56669 0
M  V30 7419 C 695.697 -4.45578 -0.614823 0
M  V30 7420 C 697.016 -3.60697 -2.52161 0
M  V30 7421 H 694.135 -0.674406 -0.29723 0
M  V30 7422 H 696.777 -1.89807 -0.085694 0
M  V30 7423 H 694.927 -3.20617 -2.19401 0
M  V30 7424 H 696.599 -4.613 0.00407137 0
M  V30 7425 H 694.842 -4.33738 0.0732332 0
M  V30 7426 H 695.513 -5.39395 -1.17292 0
M  V30 7427 H 697.989 -3.65139 -1.99532 0
M  V30 7428 H 696.865 -4.58798 -3.01323 0
M  V30 7429 H 697.126 -2.88403 -3.35076 0
M  V30 7430 O 696.224 0.257811 -1.59429 0
M  V30 7431 H 696.915 0.901882 -1.71423 0
M  V30 END ATOM
M  V30 BEGIN BOND
M  V30 END BOND
M  V30 END CTAB
M  END
$$$$
