drugbank_target|P0A7J6 50S ribosomal protein L10 (DB00778; DB01211; DB01369; DB01627)
 OpenBabel12092119393D

  0  0  0     0  0            999 V3000
M  V30 BEGIN CTAB
M  V30 COUNTS 2533 2547 0 0 0
M  V30 BEGIN ATOM
M  V30 1 H -0.908 1.98254 -0.117106 0
M  V30 2 N 0 1.576 0 0
M  V30 3 C 0.933 2.03868 1.02534 0
M  V30 4 C 1.911 0.928543 1.3348 0
M  V30 5 O 3.095 1.19667 1.45644 0
M  V30 6 C 0.222 2.43627 2.35294 0
M  V30 7 C -0.732 3.65373 2.2001 0
M  V30 8 S 0.101 5.13292 1.52614 0
M  V30 9 C 1.257 5.56322 2.86805 0
M  V30 10 H 1.49 2.90518 0.631377 0
M  V30 11 H -0.977 1.52953 0.210867 0
M  V30 12 H 0.981 2.67203 3.11629 0
M  V30 13 H -0.358 1.57376 2.7183 0
M  V30 14 H -1.165 3.90944 3.18086 0
M  V30 15 H -1.563 3.418 1.51819 0
M  V30 16 H 0.729 5.58782 3.83104 0
M  V30 17 H 1.672 6.56266 2.65933 0
M  V30 18 H 2.08 4.83886 2.90714 0
M  V30 19 N 1.4781 -0.272755 1.55222 0
M  V30 20 C 2.4411 -1.32041 1.87344 0
M  V30 21 C 3.4411 -1.42342 0.74803 0
M  V30 22 O 4.6311 -1.41488 1.0162 0
M  V30 23 C 1.7631 -2.70173 2.07893 0
M  V30 24 H 2.9561 -1.04789 2.80997 0
M  V30 25 H 0.5091 -0.51083 1.47717 0
M  V30 26 H 1.2441 -3.02605 1.16622 0
M  V30 27 H 1.0291 -2.64082 2.89833 0
M  V30 28 H 2.5191 -3.45869 2.34017 0
M  V30 29 N 2.9562 -1.48159 -0.537278 0
M  V30 30 C 3.8862 -1.65029 -1.6519 0
M  V30 31 C 4.8672 -0.499281 -1.62607 0
M  V30 32 O 6.0522 -0.730972 -1.79918 0
M  V30 33 C 3.1822 -1.68303 -3.03795 0
M  V30 34 C 2.1362 -2.8283 -3.21234 0
M  V30 35 C 1.4622 -2.71189 -4.60826 0
M  V30 36 C 2.7622 -4.24211 -3.04701 0
M  V30 37 H 4.4562 -2.58341 -1.51328 0
M  V30 38 H 2.0022 -1.24325 -0.726585 0
M  V30 39 H 3.9552 -1.78693 -3.81637 0
M  V30 40 H 2.6792 -0.715635 -3.18663 0
M  V30 41 H 1.3382 -2.71983 -2.45807 0
M  V30 42 H 0.9862 -1.72435 -4.7252 0
M  V30 43 H 0.6862 -3.48035 -4.7344 0
M  V30 44 H 2.2102 -2.83537 -5.40777 0
M  V30 45 H 3.6242 -4.3593 -3.72341 0
M  V30 46 H 2.0212 -5.01998 -3.28813 0
M  V30 47 H 3.0912 -4.41184 -2.01209 0
M  V30 48 N 4.4343 0.785586 -1.36625 0
M  V30 49 C 5.3823 1.91978 -1.31329 0
M  V30 50 C 6.3763 1.68162 -0.204416 0
M  V30 51 O 7.5823 1.76122 -0.371645 0
M  V30 52 H 3.9573 0.631087 -0.408942 0
M  V30 53 H 5.9283 1.93562 -2.27104 0
M  V30 54 C 4.6773 3.29055 -1.12329 0
M  V30 55 H 4.0003 3.4795 -1.96903 0
M  V30 56 H 5.4403 4.08756 -1.12671 0
M  V30 57 C 3.8993 3.36461 0.171861 0
M  V30 58 O 4.4293 3.84576 1.16035 0
M  V30 59 N 2.6353 2.89782 0.217846 0
M  V30 60 H 2.1823 2.50819 -0.587183 0
M  V30 61 H 2.1403 2.95119 1.08408 0
M  V30 62 N 5.9124 1.20967 1.01018 0
M  V30 63 C 6.8424 0.988272 2.11555 0
M  V30 64 C 7.8234 -0.0849778 1.69888 0
M  V30 65 O 9.0084 0.0738202 1.9406 0
M  V30 66 C 6.1384 0.546528 3.42973 0
M  V30 67 C 5.0924 1.56375 3.9841 0
M  V30 68 C 4.4184 0.97842 5.25672 0
M  V30 69 C 5.7184 2.94922 4.31066 0
M  V30 70 H 7.4124 1.91276 2.30334 0
M  V30 71 H 4.9584 0.921073 1.1069 0
M  V30 72 H 6.9114 0.378839 4.19694 0
M  V30 73 H 5.6354 -0.413598 3.23971 0
M  V30 74 H 4.2944 1.71891 3.23804 0
M  V30 75 H 3.9424 0.0101688 5.02999 0
M  V30 76 H 3.6424 1.65784 5.63728 0
M  V30 77 H 5.1664 0.821939 6.05043 0
M  V30 78 H 6.5804 2.8288 4.9865 0
M  V30 79 H 4.9774 3.5983 4.80253 0
M  V30 80 H 6.0474 3.4616 3.39561 0
M  V30 81 N 7.3905 -1.2043 1.01659 0
M  V30 82 C 8.3225 -2.22626 0.544988 0
M  V30 83 C 9.3355 -1.58479 -0.372609 0
M  V30 84 O 10.5245 -1.77679 -0.170958 0
M  V30 85 C 7.6245 -3.38141 -0.22663 0
M  V30 86 C 6.7975 -4.31877 0.692876 0
M  V30 87 C 5.8565 -5.26191 -0.0311616 0
M  V30 88 O 4.8825 -5.6612 0.591343 0
M  V30 89 N 6.0845 -5.65618 -1.30601 0
M  V30 90 H 8.8495 -2.63716 1.42388 0
M  V30 91 H 6.4105 -1.34971 0.894116 0
M  V30 92 H 8.4025 -3.98239 -0.72024 0
M  V30 93 H 6.9725 -2.95943 -1.00681 0
M  V30 94 H 6.1925 -3.69746 1.36679 0
M  V30 95 H 7.4805 -4.91426 1.31824 0
M  V30 96 H 6.8785 -5.3519 -1.83269 0
M  V30 97 H 5.4355 -6.28025 -1.74435 0
M  V30 98 N 8.8686 -0.792821 -1.36206 0
M  V30 99 C 10.1456 -0.290627 -1.93429 0
M  V30 100 C 10.5256 1.21773 -1.72437 0
M  V30 101 O 9.8736 2.0108 -1.08531 0
M  V30 102 C 10.0836 -0.686973 -3.42172 0
M  V30 103 C 11.4316 -0.668643 -4.19302 0
M  V30 104 O 12.4556 -0.627658 -3.50626 0
M  V30 105 O 11.3146 -0.714597 -5.41808 0
M  V30 106 H 8.4086 -0.0727927 -0.82379 0
M  V30 107 H 10.9546 -0.875593 -1.45367 0
M  V30 108 H 9.7266 -1.72711 -3.51122 0
M  V30 109 H 9.3496 -0.0760733 -3.97527 0
M  V30 110 N 10.3467 1.47872 -0.545128 0
M  V30 111 C 11.2937 2.29849 0.2093 0
M  V30 112 C 12.2637 1.38313 0.919707 0
M  V30 113 O 13.4487 1.67277 0.917772 0
M  V30 114 C 10.5887 3.22019 1.24088 0
M  V30 115 C 9.7017 4.2864 0.537778 0
M  V30 116 C 8.8367 5.07973 1.5536 0
M  V30 117 C 7.8757 6.06381 0.8348 0
M  V30 118 N 7.0127 6.78717 1.79688 0
M  V30 119 H 11.8527 2.93845 -0.49591 0
M  V30 120 H 9.3897 1.44848 -0.256389 0
M  V30 121 H 11.3477 3.73868 1.85144 0
M  V30 122 H 9.9777 2.59914 1.91428 0
M  V30 123 H 9.0297 3.7994 -0.187046 0
M  V30 124 H 10.3417 4.98793 -0.0258907 0
M  V30 125 H 9.4957 5.63912 2.23803 0
M  V30 126 H 8.2347 4.37693 2.15118 0
M  V30 127 H 7.2397 5.49631 0.136388 0
M  V30 128 H 8.4647 6.78665 0.24313 0
M  V30 129 H 6.4107 6.11177 2.38326 0
M  V30 130 H 6.3277 7.44998 1.28505 0
M  V30 131 H 7.5957 7.39237 2.47282 0
M  V30 132 N 11.8248 0.280983 1.55075 0
M  V30 133 C 12.7568 -0.637268 2.20163 0
M  V30 134 C 13.7698 -1.11298 1.18813 0
M  V30 135 O 14.9588 -1.03388 1.4551 0
M  V30 136 C 12.0588 -1.88199 2.81841 0
M  V30 137 C 11.2318 -1.55211 4.08936 0
M  V30 138 C 10.2908 -2.64991 4.54606 0
M  V30 139 O 9.3168 -2.30929 5.2025 0
M  V30 140 N 10.5188 -3.95161 4.25238 0
M  V30 141 H 13.2838 -0.0801694 2.99593 0
M  V30 142 H 10.8448 0.102329 1.61576 0
M  V30 143 H 12.8368 -2.60948 3.09335 0
M  V30 144 H 11.4068 -2.34799 2.06369 0
M  V30 145 H 10.6268 -0.658185 3.88666 0
M  V30 146 H 11.9148 -1.30681 4.91732 0
M  V30 147 H 11.3128 -4.25653 3.72607 0
M  V30 148 H 9.8698 -4.6427 4.5749 0
M  V30 149 N 13.3029 -1.57598 0.00835791 0
M  V30 150 C 14.2659 -2.07884 -0.965242 0
M  V30 151 C 15.2659 -0.989825 -1.26725 0
M  V30 152 O 16.4559 -1.25218 -1.21104 0
M  V30 153 C 13.5879 -2.52731 -2.28779 0
M  V30 154 H 14.7809 -2.95178 -0.530112 0
M  V30 155 H 12.3339 -1.54458 -0.239283 0
M  V30 156 H 13.0689 -1.68705 -2.76964 0
M  V30 157 H 12.8539 -3.32272 -2.08177 0
M  V30 158 H 14.3439 -2.91933 -2.98605 0
M  V30 159 N 14.781 0.264519 -1.55364 0
M  V30 160 C 16.03 0.992812 -1.75574 0
M  V30 161 C 16.343 1.87142 -0.568979 0
M  V30 162 O 17.549 2.63513 -0.653682 0
M  V30 163 C 16.005 1.81519 -3.10771 0
M  V30 164 C 15.613 0.984839 -4.37041 0
M  V30 165 C 17.357 2.53727 -3.40327 0
M  V30 166 C 15.264 1.80209 -5.63275 0
M  V30 167 H 14.194 0.374412 -0.65447 0
M  V30 168 H 16.845 0.248138 -1.81815 0
M  V30 169 H 15.227 2.60115 -2.98591 0
M  V30 170 H 16.401 0.242455 -4.60162 0
M  V30 171 H 14.716 0.37691 -4.14691 0
M  V30 172 H 17.313 3.15292 -4.3185 0
M  V30 173 H 17.656 3.24447 -2.60845 0
M  V30 174 H 18.189 1.82156 -3.53644 0
M  V30 175 H 14.928 1.13896 -6.45529 0
M  V30 176 H 14.448 2.52022 -5.44284 0
M  V30 177 H 16.127 2.37364 -6.01887 0
M  V30 178 N 16.2591 1.48442 0.529413 0
M  V30 179 C 17.5051 1.5672 1.28711 0
M  V30 180 C 17.8381 0.2406 1.92704 0
M  V30 181 O 17.1131 -0.753454 1.79313 0
M  V30 182 C 17.3961 2.70587 2.37603 0
M  V30 183 C 17.2491 4.12953 1.78297 0
M  V30 184 C 18.5681 2.80212 3.39366 0
M  V30 185 H 15.6871 0.570474 0.466613 0
M  V30 186 H 18.3291 1.80617 0.589706 0
M  V30 187 H 16.4791 2.50342 2.97088 0
M  V30 188 H 18.1511 4.44639 1.22858 0
M  V30 189 H 16.3941 4.19927 1.0883 0
M  V30 190 H 17.0651 4.88448 2.57144 0
M  V30 191 H 19.5411 2.98553 2.89836 0
M  V30 192 H 18.4171 3.61611 4.12951 0
M  V30 193 H 18.6781 1.88393 3.99951 0
M  V30 194 N 17.7372 -0.778329 1.37039 0
M  V30 195 C 18.7002 -1.87301 1.32102 0
M  V30 196 C 19.7002 -1.59198 0.226405 0
M  V30 197 O 20.8902 -1.67403 0.481861 0
M  V30 198 C 18.0222 -3.24309 1.05055 0
M  V30 199 H 19.2152 -1.93093 2.29467 0
M  V30 200 H 16.7682 -0.977358 1.21973 0
M  V30 201 H 17.5032 -3.24196 0.0819373 0
M  V30 202 H 17.2882 -3.46098 1.84279 0
M  V30 203 H 18.7782 -4.04382 1.04234 0
M  V30 204 N 19.2153 -1.21501 -1.00376 0
M  V30 205 C 20.1253 -0.991447 -2.12621 0
M  V30 206 C 21.1413 0.0568446 -1.73907 0
M  V30 207 O 22.3173 -0.13348 -2.00957 0
M  V30 208 C 19.3823 -0.560312 -3.42142 0
M  V30 209 C 18.4433 -1.68096 -3.95022 0
M  V30 210 C 17.6763 -1.2703 -5.18362 0
M  V30 211 O 17.8993 -0.144438 -5.70217 0
M  V30 212 O 16.8333 -2.08269 -5.64719 0
M  V30 213 H 20.6593 -1.93158 -2.34358 0
M  V30 214 H 18.2443 -0.999999 -1.10997 0
M  V30 215 H 20.1263 -0.329724 -4.20108 0
M  V30 216 H 18.8013 0.351089 -3.2179 0
M  V30 217 H 17.7083 -1.96597 -3.18278 0
M  V30 218 H 19.0413 -2.56983 -4.19786 0
M  V30 219 N 20.6934 1.19889 -1.02296 0
M  V30 220 C 21.9394 1.89701 -0.717033 0
M  V30 221 C 22.2724 1.7905 0.751989 0
M  V30 222 O 21.5474 1.17891 1.547 0
M  V30 223 C 21.8304 3.40858 -1.16136 0
M  V30 224 C 21.6834 3.60411 -2.69117 0
M  V30 225 C 23.0024 4.33876 -0.737549 0
M  V30 226 H 20.1214 0.688874 -0.261957 0
M  V30 227 H 22.7634 1.41154 -1.27183 0
M  V30 228 H 20.9134 3.82335 -0.689342 0
M  V30 229 H 22.5854 3.28145 -3.2422 0
M  V30 230 H 20.8284 3.03665 -3.0979 0
M  V30 231 H 21.4994 4.66396 -2.95261 0
M  V30 232 H 23.9754 4.00081 -1.14344 0
M  V30 233 H 22.8514 5.38242 -1.0764 0
M  V30 234 H 23.1124 4.40628 0.360436 0
M  V30 235 N 22.1715 0.800033 1.35784 0
M  V30 236 C 23.3965 0.388511 2.03729 0
M  V30 237 C 23.8215 -0.990481 1.5991 0
M  V30 238 O 23.1795 -1.64013 0.772612 0
M  V30 239 C 23.2275 0.4726 3.5749 0
M  V30 240 O 22.3315 -0.51646 4.09153 0
M  V30 241 H 21.6725 0.163271 0.643614 0
M  V30 242 H 24.2025 1.0841 1.73518 0
M  V30 243 H 24.2125 0.34003 4.06581 0
M  V30 244 H 22.8875 1.47848 3.88734 0
M  V30 245 H 21.4645 -0.344673 3.71304 0
M  V30 246 N 23.6496 -1.47581 0.552962 0
M  V30 247 C 24.5596 -2.33743 -0.200353 0
M  V30 248 C 25.5756 -1.47928 -0.916151 0
M  V30 249 O 26.7516 -1.80865 -0.885993 0
M  V30 250 C 23.8166 -3.24536 -1.21973 0
M  V30 251 C 22.8776 -4.26238 -0.511819 0
M  V30 252 C 22.1106 -5.12693 -1.48263 0
M  V30 253 O 22.3336 -5.01525 -2.71714 0
M  V30 254 O 21.2676 -5.93375 -1.00945 0
M  V30 255 H 25.0936 -2.9945 0.506304 0
M  V30 256 H 22.6786 -1.46071 0.313622 0
M  V30 257 H 24.5606 -3.80631 -1.80827 0
M  V30 258 H 23.2356 -2.61462 -1.90839 0
M  V30 259 H 22.1426 -3.73914 0.117799 0
M  V30 260 H 23.4756 -4.92014 0.135308 0
M  V30 261 N 25.1277 -0.289203 -1.54924 0
M  V30 262 C 26.3737 0.323998 -2.00195 0
M  V30 263 C 26.7067 1.54441 -1.17735 0
M  V30 264 O 25.9817 1.92875 -0.250878 0
M  V30 265 C 26.2647 0.692276 -3.53383 0
M  V30 266 C 26.1177 -0.536457 -4.46589 0
M  V30 267 C 27.4367 1.52335 -4.12895 0
M  V30 268 H 24.5557 0.116289 -0.727768 0
M  V30 269 H 27.1977 -0.398954 -1.85764 0
M  V30 270 H 25.3477 1.30822 -3.65811 0
M  V30 271 H 27.0197 -1.17499 -4.46085 0
M  V30 272 H 25.2627 -1.17192 -4.1767 0
M  V30 273 H 25.9337 -0.234806 -5.515 0
M  V30 274 H 28.4097 1.00302 -4.0383 0
M  V30 275 H 27.2857 1.74982 -5.20262 0
M  V30 276 H 27.5467 2.50886 -3.64018 0
M  V30 277 N 26.6058 1.57591 -0.0167156 0
M  V30 278 C 27.5688 2.08393 0.954204 0
M  V30 279 C 28.5688 0.996531 1.26198 0
M  V30 280 O 29.7588 1.25858 1.20438 0
M  V30 281 C 26.8908 2.5394 2.27436 0
M  V30 282 H 28.0838 2.95455 0.514451 0
M  V30 283 H 25.6368 1.54582 0.231089 0
M  V30 284 H 26.3718 1.70171 2.76066 0
M  V30 285 H 26.1568 3.33371 2.06412 0
M  V30 286 H 27.6468 2.93512 2.97053 0
M  V30 287 N 28.0839 -0.256276 1.55502 0
M  V30 288 C 29.0309 -1.31714 1.89526 0
M  V30 289 C 30.0009 -1.4828 0.748479 0
M  V30 290 O 31.1859 -1.62416 1.00128 0
M  V30 291 C 28.3259 -2.66933 2.18725 0
M  V30 292 C 27.4389 -2.58452 3.4616 0
M  V30 293 C 26.5739 -3.85961 3.64976 0
M  V30 294 C 25.6129 -3.72059 4.86044 0
M  V30 295 N 24.7499 -4.9144 5.01429 0
M  V30 296 H 29.5899 -1.01998 2.80001 0
M  V30 297 H 27.1269 -0.492413 1.38613 0
M  V30 298 H 29.0849 -3.4563 2.33657 0
M  V30 299 H 27.7149 -2.94816 1.31466 0
M  V30 300 H 26.7669 -1.71374 3.3961 0
M  V30 301 H 28.0789 -2.44085 4.34999 0
M  V30 302 H 27.2329 -4.73101 3.79816 0
M  V30 303 H 25.9719 -4.03215 2.74353 0
M  V30 304 H 24.9769 -2.83302 4.7119 0
M  V30 305 H 26.2019 -3.56309 5.78118 0
M  V30 306 H 24.1479 -5.09072 4.13741 0
M  V30 307 H 24.0649 -4.79668 5.84341 0
M  V30 308 H 25.3329 -5.80104 5.20672 0
M  V30 309 N 29.562 -1.4872 -0.521534 0
M  V30 310 C 30.81 -1.56857 -1.27437 0
M  V30 311 C 31.131 -0.247982 -1.93417 0
M  V30 312 O 30.401 0.731151 -1.81744 0
M  V30 313 H 28.981 -0.577885 -0.473347 0
M  V30 314 H 31.643 -1.85233 -0.606205 0
M  V30 315 H 30.739 -2.35402 -2.0492 0
M  V30 316 N 31.0401 0.771051 -1.3745 0
M  V30 317 C 32.0031 1.86598 -1.33093 0
M  V30 318 C 33.0031 1.59076 -0.234845 0
M  V30 319 O 34.1931 1.67145 -0.490732 0
M  V30 320 C 31.3251 3.23747 -1.06773 0
M  V30 321 H 32.5181 1.91873 -2.30488 0
M  V30 322 H 30.0711 0.970876 -1.2249 0
M  V30 323 H 30.8061 3.24148 -0.099129 0
M  V30 324 H 30.5911 3.45115 -1.86112 0
M  V30 325 H 32.0811 4.03824 -1.06377 0
M  V30 326 N 32.5182 1.22032 0.997298 0
M  V30 327 C 33.4482 1.01065 2.10495 0
M  V30 328 C 34.4292 -0.0669542 1.69968 0
M  V30 329 O 35.6142 0.0943987 1.9397 0
M  V30 330 C 32.7442 0.582874 3.42374 0
M  V30 331 C 31.6982 1.60592 3.96729 0
M  V30 332 C 31.0242 1.03412 5.24605 0
M  V30 333 C 32.3242 2.99478 4.27914 0
M  V30 334 H 34.0182 1.93708 2.28292 0
M  V30 335 H 31.5642 0.932761 1.09707 0
M  V30 336 H 33.5172 0.423332 4.19268 0
M  V30 337 H 32.2412 -0.379213 3.24391 0
M  V30 338 H 30.9002 1.75316 3.21963 0
M  V30 339 H 30.5482 0.063518 5.0296 0
M  V30 340 H 30.2482 1.71754 5.61938 0
M  V30 341 H 31.7722 0.886066 6.04137 0
M  V30 342 H 33.1862 2.88153 4.95622 0
M  V30 343 H 31.5832 3.64903 4.76409 0
M  V30 344 H 32.6532 3.49742 3.3587 0
M  V30 345 N 33.9963 -1.19345 1.0293 0
M  V30 346 C 35.2213 -1.93538 0.745511 0
M  V30 347 C 35.6463 -1.75007 -0.689511 0
M  V30 348 O 35.0043 -1.05265 -1.47611 0
M  V30 349 C 35.0523 -3.43336 1.10239 0
M  V30 350 O 34.1563 -4.11806 0.221289 0
M  V30 351 H 33.4973 -0.604193 0.275404 0
M  V30 352 H 36.0273 -1.5141 1.37609 0
M  V30 353 H 36.0373 -3.94004 1.05947 0
M  V30 354 H 34.7123 -3.56146 2.14786 0
M  V30 355 H 33.2893 -3.715 0.322842 0
M  V30 356 N 35.4744 -0.807222 -1.35358 0
M  V30 357 C 36.4374 -0.223665 -2.28106 0
M  V30 358 C 37.4374 0.589354 -1.4961 0
M  V30 359 O 38.6274 0.407745 -1.69361 0
M  V30 360 C 35.7594 0.688149 -3.33882 0
M  V30 361 H 36.9524 -1.04169 -2.81227 0
M  V30 362 H 34.5054 -0.577921 -1.45223 0
M  V30 363 H 35.2404 1.52984 -2.85948 0
M  V30 364 H 35.0254 0.10687 -3.91954 0
M  V30 365 H 36.5154 1.09075 -4.03104 0
M  V30 366 N 36.9525 1.47285 -0.560781 0
M  V30 367 C 38.1985 2.02764 -0.0381184 0
M  V30 368 C 38.5315 1.43384 1.30976 0
M  V30 369 O 37.8065 0.590733 1.85312 0
M  V30 370 C 38.0895 3.60064 0.0511427 0
M  V30 371 C 37.9425 4.2987 -1.32408 0
M  V30 372 C 39.2615 4.33439 0.762795 0
M  V30 373 H 36.3805 0.736841 -0.0153264 0
M  V30 374 H 39.0225 1.75675 -0.723759 0
M  V30 375 H 37.1725 3.83274 0.635065 0
M  V30 376 H 38.8445 4.17989 -1.95148 0
M  V30 377 H 37.0875 3.90085 -1.8978 0
M  V30 378 H 37.7585 5.38478 -1.21431 0
M  V30 379 H 40.2345 4.15243 0.266965 0
M  V30 380 H 39.1105 5.43124 0.794221 0
M  V30 381 H 39.3715 4.02915 1.81966 0
M  V30 382 N 38.4306 0.297415 1.54768 0
M  V30 383 C 39.6766 -0.313376 2.00364 0
M  V30 384 C 40.0096 -1.53815 1.18553 0
M  V30 385 O 39.2846 -1.92739 0.261103 0
M  V30 386 C 39.5676 -0.673525 3.53745 0
M  V30 387 C 39.4206 0.560133 4.46299 0
M  V30 388 C 40.7396 -1.50143 4.13697 0
M  V30 389 H 37.8586 -0.112428 0.728374 0
M  V30 390 H 40.5006 0.4088 1.8555 0
M  V30 391 H 38.6506 -1.28881 3.665 0
M  V30 392 H 40.3226 1.19863 4.45455 0
M  V30 393 H 38.5656 1.19405 4.17043 0
M  V30 394 H 39.2366 0.26405 5.51368 0
M  V30 395 H 41.7126 -0.981588 4.04356 0
M  V30 396 H 40.5886 -1.72221 5.21182 0
M  V30 397 H 40.8496 -2.48952 3.65343 0
M  V30 398 N 39.9087 -1.5758 0.0250728 0
M  V30 399 C 40.8717 -2.08896 -0.943139 0
M  V30 400 C 41.8717 -1.00321 -1.25668 0
M  V30 401 O 43.0617 -1.26495 -1.19769 0
M  V30 402 C 40.1937 -2.55143 -2.26086 0
M  V30 403 H 41.3867 -2.95723 -0.498775 0
M  V30 404 H 38.9397 -1.54703 -0.222888 0
M  V30 405 H 39.6747 -1.71633 -2.75159 0
M  V30 406 H 39.4597 -3.34461 -2.04641 0
M  V30 407 H 40.9497 -2.95083 -2.95492 0
M  V30 408 N 41.3868 0.248026 -1.55636 0
M  V30 409 C 42.6638 0.998988 -1.68165 0
M  V30 410 C 43.0438 2.03409 -0.564621 0
M  V30 411 O 42.3918 2.24378 0.432076 0
M  V30 412 C 42.6018 1.63334 -3.0842 0
M  V30 413 C 43.9498 2.13562 -3.66983 0
M  V30 414 O 44.9738 1.73277 -3.11213 0
M  V30 415 O 43.8328 2.87526 -4.64749 0
M  V30 416 H 40.9268 0.464933 -0.683935 0
M  V30 417 H 43.4728 0.241902 -1.67967 0
M  V30 418 H 42.2448 0.884583 -3.8117 0
M  V30 419 H 41.8678 2.45666 -3.12624 0
M  V30 420 N 42.8649 1.48995 0.513639 0
M  V30 421 C 44.0899 1.61792 1.29762 0
M  V30 422 C 44.5149 0.284475 1.85936 0
M  V30 423 O 43.8729 -0.746185 1.65232 0
M  V30 424 C 43.9209 2.67993 2.41272 0
M  V30 425 O 43.0249 2.26287 3.44772 0
M  V30 426 H 42.3659 0.541963 0.38363 0
M  V30 427 H 44.8959 1.95097 0.616307 0
M  V30 428 H 44.9059 2.89772 2.87221 0
M  V30 429 H 43.5809 3.64791 1.9975 0
M  V30 430 H 42.1579 2.14788 3.04829 0
M  V30 431 N 44.343 -0.763751 1.37857 0
M  V30 432 C 45.759 -1.06542 1.18832 0
M  V30 433 C 45.959 -2.01478 0.0299722 0
M  V30 434 O 45.015 -2.4458 -0.627447 0
M  V30 435 C 46.328 -1.65525 2.51042 0
M  V30 436 C 47.876 -1.77745 2.57635 0
M  V30 437 C 48.351 -2.4014 3.89996 0
M  V30 438 N 49.842 -2.47582 3.91481 0
M  V30 439 C 50.577 -2.96732 4.9065 0
M  V30 440 N 50.073 -3.45993 6.00217 0
M  V30 441 N 51.866 -2.95679 4.78048 0
M  V30 442 H 44.017 -0.133556 2.1198 0
M  V30 443 H 46.28 -0.121879 0.940133 0
M  V30 444 H 45.986 -1.03236 3.36207 0
M  V30 445 H 45.86 -2.64719 2.68707 0
M  V30 446 H 48.247 -2.39164 1.72872 0
M  V30 447 H 48.328 -0.772836 2.43846 0
M  V30 448 H 47.972 -1.79358 4.75177 0
M  V30 449 H 47.902 -3.41223 4.01092 0
M  V30 450 H 50.393 -2.1273 3.12337 0
M  V30 451 H 50.706 -3.81922 6.7183 0
M  V30 452 H 49.051 -3.44077 6.03851 0
M  V30 453 H 52.242 -2.56499 3.91568 0
M  V30 454 H 52.415 -3.33672 5.55488 0
M  V30 455 N 45.8211 -1.22559 -0.990812 0
M  V30 456 C 47.0691 -1.04933 -1.72724 0
M  V30 457 C 47.3901 0.416158 -1.90508 0
M  V30 458 O 46.6601 1.29918 -1.46622 0
M  V30 459 H 45.2401 -0.385296 -0.639965 0
M  V30 460 H 47.9021 -1.54105 -1.19322 0
M  V30 461 H 46.9981 -1.52886 -2.72089 0
M  V30 462 N 47.2992 1.18797 -1.03562 0
M  V30 463 C 48.5452 1.8893 -0.737113 0
M  V30 464 C 48.8782 1.79837 0.732956 0
M  V30 465 O 48.1532 1.19525 1.5344 0
M  V30 466 C 48.4362 3.39607 -1.19745 0
M  V30 467 C 48.2892 3.57537 -2.72924 0
M  V30 468 C 49.6082 4.33069 -0.783526 0
M  V30 469 H 46.7272 0.686057 -0.269249 0
M  V30 470 H 49.3692 1.39797 -1.28673 0
M  V30 471 H 47.5192 3.81583 -0.729855 0
M  V30 472 H 49.1912 3.24688 -3.27682 0
M  V30 473 H 47.4342 3.00363 -3.12993 0
M  V30 474 H 48.1052 4.63238 -3.00191 0
M  V30 475 H 50.5812 3.98846 -1.18581 0
M  V30 476 H 49.4572 5.3707 -1.13343 0
M  V30 477 H 49.7182 4.40986 0.313681 0
M  V30 478 N 48.7773 0.814389 1.34928 0
M  V30 479 C 50.0053 0.411136 2.02774 0
M  V30 480 C 50.4203 -0.980316 1.61354 0
M  V30 481 O 49.7773 -1.63299 0.814847 0
M  V30 482 C 49.8283 0.493865 3.58111 0
M  V30 483 O 49.5493 1.83047 3.98027 0
M  V30 484 C 51.0503 0.0844174 4.4322 0
M  V30 485 H 48.2703 0.166037 0.650133 0
M  V30 486 H 50.8143 1.10018 1.72384 0
M  V30 487 H 48.9693 -0.147006 3.87121 0
M  V30 488 H 49.3833 1.79872 4.92693 0
M  V30 489 H 50.8573 0.193404 5.51661 0
M  V30 490 H 51.3343 -0.97113 4.28329 0
M  V30 491 H 51.9403 0.69875 4.19521 0
M  V30 492 N 50.2554 -1.46986 0.568584 0
M  V30 493 C 51.5014 -2.02741 0.0488709 0
M  V30 494 C 51.8344 -1.44077 -1.30214 0
M  V30 495 O 51.1094 -0.600552 -1.84996 0
M  V30 496 C 51.3924 -3.60086 -0.032047 0
M  V30 497 C 51.2454 -4.29162 1.34686 0
M  V30 498 C 52.5644 -4.33838 -0.739798 0
M  V30 499 H 49.6834 -0.736749 0.0192338 0
M  V30 500 H 52.3254 -1.75289 0.733065 0
M  V30 501 H 50.4754 -3.83606 -0.61473 0
M  V30 502 H 52.1474 -4.16948 1.97362 0
M  V30 503 H 50.3904 -3.89073 1.91846 0
M  V30 504 H 51.0614 -5.37826 1.24285 0
M  V30 505 H 53.5374 -4.15378 -0.244939 0
M  V30 506 H 52.4134 -5.43537 -0.765406 0
M  V30 507 H 52.6744 -4.03875 -1.79827 0
M  V30 508 N 51.7335 -0.305618 -1.54608 0
M  V30 509 C 53.0105 0.355652 -1.92339 0
M  V30 510 C 53.3905 1.71324 -1.23335 0
M  V30 511 O 52.7385 2.25473 -0.370702 0
M  V30 512 C 52.9485 0.46572 -3.45879 0
M  V30 513 C 54.2965 0.734426 -4.182 0
M  V30 514 O 55.3205 0.54935 -3.51938 0
M  V30 515 O 54.1795 1.09024 -5.35515 0
M  V30 516 H 51.2735 0.199666 -0.802535 0
M  V30 517 H 53.8195 -0.354017 -1.65966 0
M  V30 518 H 52.5915 -0.488461 -3.88239 0
M  V30 519 H 52.2145 1.22367 -3.78301 0
M  V30 520 N 53.2116 1.57565 -0.0334293 0
M  V30 521 C 54.1586 2.10478 0.946981 0
M  V30 522 C 55.1286 1.00787 1.32027 0
M  V30 523 O 56.3136 1.28232 1.41284 0
M  V30 524 C 53.4536 2.63994 2.22263 0
M  V30 525 C 52.5666 3.87709 1.90541 0
M  V30 526 C 51.7016 4.29604 3.12433 0
M  V30 527 C 50.7406 5.46065 2.76549 0
M  V30 528 N 49.8776 5.83096 3.9108 0
M  V30 529 H 54.7176 2.93963 0.488846 0
M  V30 530 H 52.2546 1.45296 0.22969 0
M  V30 531 H 54.2126 2.93114 2.96884 0
M  V30 532 H 52.8426 1.83333 2.65685 0
M  V30 533 H 51.8946 3.65291 1.06144 0
M  V30 534 H 53.2066 4.72403 1.60116 0
M  V30 535 H 52.3606 4.60182 3.9537 0
M  V30 536 H 51.0996 3.43685 3.46023 0
M  V30 537 H 50.1046 5.15176 1.92026 0
M  V30 538 H 51.3296 6.33685 2.44171 0
M  V30 539 H 49.2756 5.00132 4.24504 0
M  V30 540 H 49.1926 6.6244 3.64293 0
M  V30 541 H 50.4606 6.18282 4.74708 0
M  V30 542 N 54.6897 -0.239769 1.55765 0
M  V30 543 C 55.6227 -1.32356 1.85895 0
M  V30 544 C 56.6007 -1.46053 0.714662 0
M  V30 545 O 57.7847 -1.62154 0.961157 0
M  V30 546 C 54.9117 -2.6962 2.04994 0
M  V30 547 C 53.9577 -2.73036 3.27648 0
M  V30 548 S 54.7907 -2.28929 4.84099 0
M  V30 549 C 55.9467 -3.68103 5.06212 0
M  V30 550 H 56.1797 -1.06601 2.77531 0
M  V30 551 H 53.7127 -0.441112 1.47965 0
M  V30 552 H 55.6707 -3.48653 2.16682 0
M  V30 553 H 54.3317 -2.92609 1.14188 0
M  V30 554 H 53.5247 -3.7386 3.38 0
M  V30 555 H 53.1267 -2.02052 3.14723 0
M  V30 556 H 55.4187 -4.63656 4.93993 0
M  V30 557 H 56.3617 -3.6268 6.08168 0
M  V30 558 H 56.7697 -3.60947 4.34025 0
M  V30 559 N 56.1678 -1.49265 -0.50573 0
M  V30 560 C 57.3958 -1.62215 -1.28429 0
M  V30 561 C 57.8108 -0.291697 -1.86533 0
M  V30 562 O 57.1678 0.722233 -1.67601 0
M  V30 563 C 57.2188 -2.68735 -2.41793 0
M  V30 564 O 56.9398 -3.96619 -1.86078 0
M  V30 565 C 58.4408 -2.92346 -3.3324 0
M  V30 566 H 55.6608 -0.546239 -0.389697 0
M  V30 567 H 58.2048 -1.95265 -0.607609 0
M  V30 568 H 56.3598 -2.38476 -3.053 0
M  V30 569 H 56.7738 -4.55256 -2.60465 0
M  V30 570 H 58.2478 -3.70623 -4.09075 0
M  V30 571 H 58.7248 -2.02081 -3.89948 0
M  V30 572 H 59.3308 -3.24003 -2.75503 0
M  V30 573 N 57.6459 0.756429 -1.3826 0
M  V30 574 C 58.5559 1.9009 -1.37488 0
M  V30 575 C 59.5719 1.71855 -0.272366 0
M  V30 576 O 60.7479 1.94827 -0.510318 0
M  V30 577 C 57.8129 3.25421 -1.19592 0
M  V30 578 C 56.8739 3.56202 -2.39622 0
M  V30 579 C 56.1069 4.85075 -2.2257 0
M  V30 580 O 56.3299 5.57246 -1.21793 0
M  V30 581 O 55.2639 5.15269 -3.11098 0
M  V30 582 H 59.0899 1.93695 -2.33914 0
M  V30 583 H 56.6749 0.901313 -1.1915 0
M  V30 584 H 58.5569 4.06337 -1.11661 0
M  V30 585 H 57.2319 3.22634 -0.262486 0
M  V30 586 H 56.1389 2.75458 -2.53128 0
M  V30 587 H 57.4719 3.63747 -3.31586 0
M  V30 588 N 59.124 1.23083 0.984299 0
M  V30 589 C 60.054 1.03292 2.09411 0
M  V30 590 C 61.035 -0.048923 1.7003 0
M  V30 591 O 62.22 0.114967 1.93859 0
M  V30 592 C 59.35 0.619155 3.41736 0
M  V30 593 C 58.304 1.64791 3.95004 0
M  V30 594 C 57.63 1.0897 5.23478 0
M  V30 595 C 58.93 3.03999 4.24714 0
M  V30 596 H 60.624 1.96119 2.26225 0
M  V30 597 H 58.17 0.944344 1.08711 0
M  V30 598 H 60.123 0.467777 4.18796 0
M  V30 599 H 58.847 -0.344786 3.24775 0
M  V30 600 H 57.506 1.78721 3.20085 0
M  V30 601 H 57.154 0.11686 5.02864 0
M  V30 602 H 56.854 1.77704 5.60085 0
M  V30 603 H 58.378 0.950093 6.03163 0
M  V30 604 H 59.792 2.93393 4.92538 0
M  V30 605 H 58.189 3.69936 4.72512 0
M  V30 606 H 59.259 3.53285 3.32142 0
M  V30 607 N 60.6021 -1.18246 1.0419 0
M  V30 608 C 62.0181 -1.40269 0.761366 0
M  V30 609 C 62.2181 -1.90777 -0.648578 0
M  V30 610 O 61.2741 -2.0929 -1.41258 0
M  V30 611 C 62.5871 -2.40237 1.8085 0
M  V30 612 C 64.1351 -2.53961 1.82955 0
M  V30 613 C 64.6101 -3.57194 2.86664 0
M  V30 614 N 66.1011 -3.64702 2.85563 0
M  V30 615 C 66.8361 -4.44309 3.6246 0
M  V30 616 N 66.3321 -5.27514 4.49111 0
M  V30 617 N 68.1251 -4.39084 3.50944 0
M  V30 618 H 60.2761 -0.837882 1.95175 0
M  V30 619 H 62.5391 -0.430608 0.84456 0
M  V30 620 H 62.2451 -2.10176 2.81991 0
M  V30 621 H 62.1191 -3.39601 1.64168 0
M  V30 622 H 64.5061 -2.83338 0.824855 0
M  V30 623 H 64.5871 -1.54706 2.03715 0
M  V30 624 H 64.2311 -3.28558 3.87314 0
M  V30 625 H 64.1611 -4.5613 2.6316 0
M  V30 626 H 66.6521 -3.05289 2.22727 0
M  V30 627 H 66.9651 -5.85411 5.04493 0
M  V30 628 H 65.3101 -5.2693 4.53178 0
M  V30 629 H 68.5011 -3.7313 2.82651 0
M  V30 630 H 68.6741 -5.00883 4.11121 0
M  V30 631 N 62.0802 -0.821533 -1.34494 0
M  V30 632 C 63.0272 -0.240397 -2.29545 0
M  V30 633 C 63.9972 0.634031 -1.53523 0
M  V30 634 O 65.1822 0.575966 -1.81899 0
M  V30 635 C 62.3222 0.592869 -3.39969 0
M  V30 636 C 61.4352 -0.30365 -4.30932 0
M  V30 637 C 60.5702 0.539049 -5.28458 0
M  V30 638 C 59.6092 -0.356942 -6.11058 0
M  V30 639 N 58.7462 0.446603 -7.00678 0
M  V30 640 H 63.5862 -1.05632 -2.7865 0
M  V30 641 H 61.1232 -0.532413 -1.37127 0
M  V30 642 H 63.0812 1.09129 -4.02675 0
M  V30 643 H 61.7112 1.37392 -2.92102 0
M  V30 644 H 60.7632 -0.920276 -3.691 0
M  V30 645 H 62.0752 -0.992661 -4.88823 0
M  V30 646 H 61.2292 1.102 -5.96608 0
M  V30 647 H 59.9682 1.26157 -4.71101 0
M  V30 648 H 58.9732 -0.932047 -5.41842 0
M  V30 649 H 60.1982 -1.07755 -6.70497 0
M  V30 650 H 58.1442 1.15282 -6.45791 0
M  V30 651 H 58.0612 -0.184048 -7.55776 0
M  V30 652 H 59.3292 0.992352 -7.73158 0
M  V30 653 N 63.5583 1.46682 -0.576371 0
M  V30 654 C 64.5213 2.28707 0.150239 0
M  V30 655 C 65.5213 1.38035 0.824794 0
M  V30 656 O 66.7113 1.60476 0.677719 0
M  V30 657 C 63.8433 3.18248 1.22192 0
M  V30 658 H 65.0363 2.94423 -0.570521 0
M  V30 659 H 62.5893 1.52688 -0.334078 0
M  V30 660 H 63.3243 2.57265 1.97447 0
M  V30 661 H 63.1093 3.85 0.742812 0
M  V30 662 H 64.5993 3.80001 1.73172 0
M  V30 663 N 65.0364 0.313813 1.54444 0
M  V30 664 C 66.2844 -0.291099 1.99993 0
M  V30 665 C 66.6054 -1.53418 1.20366 0
M  V30 666 O 65.8754 -1.93544 0.302927 0
M  V30 667 H 64.4554 -0.110552 0.738774 0
M  V30 668 H 67.1174 0.428106 1.9014 0
M  V30 669 H 66.2134 -0.554268 3.07139 0
M  V30 670 N 66.5145 -1.57545 0.0417849 0
M  V30 671 C 67.9305 -1.56467 -0.314704 0
M  V30 672 C 68.1305 -1.04859 -1.72066 0
M  V30 673 O 67.1865 -0.700983 -2.42575 0
M  V30 674 C 68.4995 -3.00317 -0.15174 0
M  V30 675 C 70.0475 -3.12201 -0.223553 0
M  V30 676 C 70.5225 -4.57913 -0.0892295 0
M  V30 677 N 72.0135 -4.6297 -0.145808 0
M  V30 678 C 72.7485 -5.73362 -0.0658459 0
M  V30 679 N 72.2445 -6.92769 0.0659282 0
M  V30 680 N 74.0375 -5.6197 -0.12075 0
M  V30 681 H 66.1885 -1.89416 0.961014 0
M  V30 682 H 68.4515 -0.871862 0.372237 0
M  V30 683 H 68.1575 -3.42073 0.817254 0
M  V30 684 H 68.0315 -3.65892 -0.916692 0
M  V30 685 H 70.4185 -2.70349 -1.18301 0
M  V30 686 H 70.4995 -2.49323 0.571994 0
M  V30 687 H 70.1435 -5.00448 0.866867 0
M  V30 688 H 70.0735 -5.18786 -0.903802 0
M  V30 689 H 72.5645 -3.7709 -0.247286 0
M  V30 690 H 72.8775 -7.72707 0.119905 0
M  V30 691 H 71.2225 -6.94927 0.100885 0
M  V30 692 H 74.4135 -4.67572 -0.222187 0
M  V30 693 H 74.5865 -6.47977 -0.0549735 0
M  V30 694 N 67.9926 0.231505 -1.5589 0
M  V30 695 C 68.9026 1.308 -1.94752 0
M  V30 696 C 69.9186 1.51826 -0.849989 0
M  V30 697 O 71.0946 1.6515 -1.15271 0
M  V30 698 C 68.1596 2.63968 -2.24771 0
M  V30 699 C 67.2206 2.51331 -3.48039 0
M  V30 700 C 66.4536 3.78148 -3.76616 0
M  V30 701 O 66.6766 4.80722 -3.07022 0
M  V30 702 O 65.6106 3.75857 -4.70123 0
M  V30 703 H 69.4366 1.0083 -2.86474 0
M  V30 704 H 67.0216 0.433547 -1.42971 0
M  V30 705 H 68.9036 3.42633 -2.45318 0
M  V30 706 H 67.5786 2.9364 -1.36225 0
M  V30 707 H 66.4856 1.709 -3.32782 0
M  V30 708 H 67.8186 2.26601 -4.36936 0
M  V30 709 N 69.4707 1.49531 0.497807 0
M  V30 710 C 70.4337 1.65916 1.58128 0
M  V30 711 C 71.4337 0.530825 1.51786 0
M  V30 712 O 72.6237 0.797342 1.54881 0
M  V30 713 C 69.7557 1.65951 2.9778 0
M  V30 714 H 70.9487 2.62556 1.44929 0
M  V30 715 H 68.5017 1.38611 0.722275 0
M  V30 716 H 69.2367 0.709065 3.16453 0
M  V30 717 H 69.0217 2.47897 3.03792 0
M  V30 718 H 70.5117 1.80673 3.76493 0
M  V30 719 N 70.9488 -0.749086 1.3866 0
M  V30 720 C 72.1968 -1.50535 1.34847 0
M  V30 721 C 72.5178 -1.94909 -0.0595016 0
M  V30 722 O 71.7878 -1.67973 -1.00806 0
M  V30 723 H 70.3678 -0.558395 0.49619 0
M  V30 724 H 73.0298 -0.890165 1.73384 0
M  V30 725 H 72.1258 -2.39413 2.00219 0
M  V30 726 N 72.4269 -1.23603 -0.977757 0
M  V30 727 C 73.6729 -1.07129 -1.72195 0
M  V30 728 C 74.0059 0.390501 -1.90233 0
M  V30 729 O 73.2809 1.28902 -1.45653 0
M  V30 730 C 73.5639 -1.80031 -3.11867 0
M  V30 731 C 73.4169 -3.33899 -3.01383 0
M  V30 732 C 74.7359 -1.56492 -4.11337 0
M  V30 733 H 71.8549 -0.390571 -0.624999 0
M  V30 734 H 74.4969 -1.52142 -1.13811 0
M  V30 735 H 72.6469 -1.41768 -3.6171 0
M  V30 736 H 74.3189 -3.81699 -2.59043 0
M  V30 737 H 72.5619 -3.62796 -2.37827 0
M  V30 738 H 73.2329 -3.801 -4.00285 0
M  V30 739 H 75.7089 -1.89757 -3.70313 0
M  V30 740 H 74.5849 -2.09973 -5.07151 0
M  V30 741 H 74.8459 -0.500874 -4.39254 0
M  V30 742 N 73.905 1.17692 -1.04816 0
M  V30 743 C 75.135 1.91508 -0.775128 0
M  V30 744 C 75.543 1.76844 0.67253 0
M  V30 745 O 74.886 1.10057 1.47082 0
M  V30 746 C 74.948 3.43167 -1.0713 0
M  V30 747 C 74.612 3.81612 -2.51438 0
M  V30 748 C 75.609 3.84772 -3.49638 0
M  V30 749 C 73.294 4.12687 -2.86348 0
M  V30 750 C 75.288 4.18469 -4.80794 0
M  V30 751 C 72.975 4.46053 -4.17708 0
M  V30 752 C 73.973 4.48921 -5.14741 0
M  V30 753 O 73.661 4.81504 -6.43746 0
M  V30 754 H 73.393 0.614575 -0.281555 0
M  V30 755 H 75.947 1.50206 -1.40098 0
M  V30 756 H 74.177 3.84745 -0.388342 0
M  V30 757 H 75.866 3.98239 -0.784883 0
M  V30 758 H 76.632 3.60893 -3.24008 0
M  V30 759 H 72.511 4.09627 -2.11486 0
M  V30 760 H 76.055 4.20623 -5.56527 0
M  V30 761 H 71.952 4.69393 -4.43103 0
M  V30 762 H 72.72 4.99377 -6.4851 0
M  V30 763 N 75.3831 0.828654 1.34056 0
M  V30 764 C 76.3161 0.199763 2.27324 0
M  V30 765 C 77.2941 -0.647168 1.49166 0
M  V30 766 O 78.4781 -0.609661 1.78369 0
M  V30 767 C 75.6051 -0.720455 3.30949 0
M  V30 768 C 74.6511 0.0496888 4.26471 0
M  V30 769 S 75.4841 1.40072 5.16856 0
M  V30 770 C 76.6401 0.485527 6.24014 0
M  V30 771 H 76.8731 0.990478 2.80316 0
M  V30 772 H 74.4061 0.624857 1.41191 0
M  V30 773 H 76.3641 -1.24581 3.91139 0
M  V30 774 H 75.0251 -1.48474 2.76793 0
M  V30 775 H 74.2181 -0.650104 4.9979 0
M  V30 776 H 73.8201 0.505779 3.70564 0
M  V30 777 H 76.1121 -0.320672 6.76741 0
M  V30 778 H 77.0551 1.18856 6.98054 0
M  V30 779 H 77.4631 0.0714109 5.64455 0
M  V30 780 N 76.8612 -1.46375 0.584142 0
M  V30 781 C 78.2772 -1.57694 0.245929 0
M  V30 782 C 78.4772 -1.57903 -1.25175 0
M  V30 783 O 77.5332 -1.49676 -2.03355 0
M  V30 784 C 78.8462 -2.87028 0.896402 0
M  V30 785 C 80.3942 -3.00662 0.870127 0
M  V30 786 C 80.8692 -4.32734 1.50017 0
M  V30 787 N 82.3602 -4.39436 1.46458 0
M  V30 788 C 83.0952 -5.40248 1.92144 0
M  V30 789 N 82.5912 -6.47726 2.4581 0
M  V30 790 N 84.3842 -5.31459 1.83052 0
M  V30 791 H 76.5352 -1.44483 1.55687 0
M  V30 792 H 78.7982 -0.689291 0.650831 0
M  V30 793 H 78.5042 -2.9269 1.95002 0
M  V30 794 H 78.3782 -3.75014 0.405486 0
M  V30 795 H 80.7652 -2.94581 -0.174871 0
M  V30 796 H 80.8462 -2.14148 1.39908 0
M  V30 797 H 80.4902 -4.39573 2.54437 0
M  V30 798 H 80.4202 -5.18025 0.946432 0
M  V30 799 H 82.9112 -3.62367 1.07231 0
M  V30 800 H 83.2242 -7.20863 2.78525 0
M  V30 801 H 81.5692 -6.48542 2.49836 0
M  V30 802 H 84.7602 -4.46396 1.40883 0
M  V30 803 H 84.9332 -6.09881 2.18973 0
M  V30 804 N 78.3393 -0.321999 -1.54275 0
M  V30 805 C 79.5853 0.281461 -2.00837 0
M  V30 806 C 79.9183 1.51909 -1.20985 0
M  V30 807 O 79.1933 1.923 -0.291733 0
M  V30 808 C 79.4763 0.617162 -3.54772 0
M  V30 809 C 79.3293 -0.631064 -4.45351 0
M  V30 810 C 80.6483 1.43542 -4.16033 0
M  V30 811 H 77.7673 0.100826 -0.730071 0
M  V30 812 H 80.4093 -0.438268 -1.84876 0
M  V30 813 H 78.5593 1.23034 -3.68504 0
M  V30 814 H 80.2313 -1.26934 -4.43492 0
M  V30 815 H 78.4743 -1.26025 -4.15091 0
M  V30 816 H 79.1453 -0.351735 -5.50878 0
M  V30 817 H 81.6213 0.917134 -4.05867 0
M  V30 818 H 80.4973 1.63907 -5.23856 0
M  V30 819 H 80.7583 2.43108 -3.69257 0
M  V30 820 N 79.8174 1.5752 -0.0501392 0
M  V30 821 C 81.0634 1.92936 0.624798 0
M  V30 822 C 81.3964 0.928685 1.70555 0
M  V30 823 O 80.6714 -0.0454779 1.94447 0
M  V30 824 C 80.9544 3.38737 1.22185 0
M  V30 825 C 80.8074 4.49552 0.149218 0
M  V30 826 C 82.1264 3.84913 2.13378 0
M  V30 827 H 79.2454 0.701604 0.225657 0
M  V30 828 H 81.8874 1.89671 -0.111693 0
M  V30 829 H 80.0374 3.4165 1.84953 0
M  V30 830 H 81.7094 4.58768 -0.482648 0
M  V30 831 H 79.9524 4.30638 -0.522841 0
M  V30 832 H 80.6234 5.48653 0.606966 0
M  V30 833 H 83.0994 3.8387 1.60572 0
M  V30 834 H 81.9754 4.87584 2.52097 0
M  V30 835 H 82.2364 3.21611 3.03346 0
M  V30 836 N 81.2955 -0.223234 1.56011 0
M  V30 837 C 82.7115 -0.572856 1.48965 0
M  V30 838 C 82.9115 -1.87225 0.74492 0
M  V30 839 O 81.9675 -2.50899 0.283896 0
M  V30 840 C 83.2805 -0.653646 2.9351 0
M  V30 841 C 84.8285 -0.744386 3.0402 0
M  V30 842 C 85.3035 -0.856535 4.49919 0
M  V30 843 N 86.7945 -0.9208 4.53955 0
M  V30 844 C 87.5295 -1.02726 5.64123 0
M  V30 845 N 87.0255 -1.09777 6.84047 0
M  V30 846 N 88.8185 -1.06226 5.51971 0
M  V30 847 H 80.9695 0.629462 2.02858 0
M  V30 848 H 83.2325 0.220621 0.921971 0
M  V30 849 H 82.9385 0.231518 3.50937 0
M  V30 850 H 82.8125 -1.51781 3.45315 0
M  V30 851 H 85.1995 -1.61999 2.46658 0
M  V30 852 H 85.2805 0.14541 2.55386 0
M  V30 853 H 84.9245 0.0146069 5.07898 0
M  V30 854 H 84.8545 -1.76172 4.96257 0
M  V30 855 H 87.3455 -0.876694 3.6759 0
M  V30 856 H 87.6585 -1.17872 7.63758 0
M  V30 857 H 86.0035 -1.06693 6.86762 0
M  V30 858 H 89.1945 -1.00382 4.5721 0
M  V30 859 H 89.3675 -1.14177 6.37862 0
M  V30 860 N 82.7736 -1.49793 -0.48987 0
M  V30 861 C 83.7216 -1.67783 -1.61095 0
M  V30 862 C 84.7156 -0.543683 -1.60438 0
M  V30 863 O 85.9216 -0.723647 -1.64813 0
M  V30 864 H 82.2966 -0.529255 -0.534222 0
M  V30 865 H 84.2676 -2.61861 -1.43078 0
M  V30 866 C 83.0166 -1.77191 -2.99164 0
M  V30 867 H 82.3396 -2.63841 -3.0038 0
M  V30 868 H 83.7796 -1.93809 -3.77113 0
M  V30 869 C 82.2386 -0.519203 -3.32875 0
M  V30 870 O 82.7686 0.350124 -4.00171 0
M  V30 871 N 80.9746 -0.378816 -2.8812 0
M  V30 872 H 80.5216 -1.08725 -2.33531 0
M  V30 873 H 80.4796 0.458239 -3.11043 0
M  V30 874 N 84.2517 0.741722 -1.39055 0
M  V30 875 C 85.4797 1.53098 -1.39171 0
M  V30 876 C 85.8947 1.88794 0.0155099 0
M  V30 877 O 85.2517 1.53626 0.985159 0
M  V30 878 C 85.3027 2.82274 -2.2584 0
M  V30 879 O 85.0237 2.48097 -3.61081 0
M  V30 880 C 86.5247 3.76343 -2.34266 0
M  V30 881 H 83.7447 0.473335 -0.4756 0
M  V30 882 H 86.2887 0.917045 -1.82785 0
M  V30 883 H 84.4437 3.40015 -1.85656 0
M  V30 884 H 84.8577 3.31029 -4.06842 0
M  V30 885 H 86.3317 4.63898 -2.9917 0
M  V30 886 H 86.8087 4.17619 -1.35982 0
M  V30 887 H 87.4147 3.24523 -2.74891 0
M  V30 888 N 85.7298 1.2412 0.971189 0
M  V30 889 C 86.6598 1.05508 2.08304 0
M  V30 890 C 87.6408 -0.0308864 1.70072 0
M  V30 891 O 88.8258 0.135521 1.93727 0
M  V30 892 C 85.9558 0.655365 3.4106 0
M  V30 893 C 84.9098 1.68971 3.93234 0
M  V30 894 C 84.2358 1.14516 5.22293 0
M  V30 895 C 85.5358 3.08487 4.21465 0
M  V30 896 H 87.2298 1.98507 2.24132 0
M  V30 897 H 84.7758 0.955821 1.07704 0
M  V30 898 H 86.7288 0.51217 4.18276 0
M  V30 899 H 85.4528 -0.31032 3.25122 0
M  V30 900 H 84.1118 1.82106 3.18171 0
M  V30 901 H 83.7598 0.170189 5.02712 0
M  V30 902 H 83.4598 1.83635 5.58168 0
M  V30 903 H 84.9838 1.01401 6.02121 0
M  V30 904 H 86.3978 2.98601 4.89398 0
M  V30 905 H 84.7948 3.74926 4.68562 0
M  V30 906 H 85.8648 3.56787 3.28376 0
M  V30 907 N 87.2079 -1.17134 1.05439 0
M  V30 908 C 88.1379 -2.2342 0.678649 0
M  V30 909 C 89.1189 -1.66971 -0.32476 0
M  V30 910 O 90.3039 -1.93149 -0.201802 0
M  V30 911 C 87.4339 -3.47256 0.0552099 0
M  V30 912 C 86.3879 -4.16543 0.98365 0
M  V30 913 C 85.7139 -5.34231 0.223961 0
M  V30 914 C 87.0139 -4.68495 2.3089 0
M  V30 915 H 88.7079 -2.55105 1.56722 0
M  V30 916 H 86.2539 -1.2262 0.754998 0
M  V30 917 H 88.2069 -4.20828 -0.21946 0
M  V30 918 H 86.9309 -3.14846 -0.868319 0
M  V30 919 H 85.5899 -3.44887 1.24293 0
M  V30 920 H 85.2379 -4.98071 -0.702412 0
M  V30 921 H 84.9379 -5.81527 0.842627 0
M  V30 922 H 86.4619 -6.10585 -0.0433671 0
M  V30 923 H 87.8759 -5.33691 2.09396 0
M  V30 924 H 86.2729 -5.26379 2.88176 0
M  V30 925 H 87.3429 -3.85169 2.94572 0
M  V30 926 N 88.686 -0.835752 -1.33615 0
M  V30 927 C 90.102 -0.523139 -1.50783 0
M  V30 928 C 90.302 0.950171 -1.77691 0
M  V30 929 O 89.358 1.73411 -1.83534 0
M  V30 930 C 90.671 -1.39378 -2.66448 0
M  V30 931 C 92.219 -1.39223 -2.80332 0
M  V30 932 C 92.694 -2.24765 -3.99055 0
M  V30 933 N 94.185 -2.22458 -4.06284 0
M  V30 934 C 94.92 -2.85386 -4.97336 0
M  V30 935 N 94.416 -3.57354 -5.93523 0
M  V30 936 N 96.209 -2.74872 -4.90308 0
M  V30 937 H 88.36 -1.78952 -1.14411 0
M  V30 938 H 90.623 -0.763297 -0.562212 0
M  V30 939 H 90.329 -2.44061 -2.53234 0
M  V30 940 H 90.203 -1.0676 -3.61776 0
M  V30 941 H 92.59 -0.353136 -2.92979 0
M  V30 942 H 92.671 -1.75846 -1.85773 0
M  V30 943 H 92.315 -3.28732 -3.87167 0
M  V30 944 H 92.245 -1.85485 -4.92852 0
M  V30 945 H 94.736 -1.70119 -3.37443 0
M  V30 946 H 95.049 -4.02584 -6.59656 0
M  V30 947 H 93.394 -3.61461 -5.93608 0
M  V30 948 H 96.585 -2.18213 -4.14126 0
M  V30 949 H 96.758 -3.24199 -5.61069 0
M  V30 950 N 90.1641 1.46063 -0.591896 0
M  V30 951 C 91.5801 1.57561 -0.254288 0
M  V30 952 C 91.7801 1.58565 1.24336 0
M  V30 953 O 90.8361 1.50753 2.02558 0
M  V30 954 C 92.1491 2.86549 -0.911611 0
M  V30 955 C 93.6971 3.00197 -0.886059 0
M  V30 956 C 94.1721 4.31933 -1.5231 0
M  V30 957 N 95.6631 4.38654 -1.48786 0
M  V30 958 C 96.3981 5.39222 -1.95006 0
M  V30 959 N 95.8941 6.46414 -2.49241 0
M  V30 960 N 97.6871 5.3048 -1.85868 0
M  V30 961 H 89.8381 1.43655 -1.56451 0
M  V30 962 H 92.1011 0.68583 -0.654478 0
M  V30 963 H 91.8071 2.91651 -1.96551 0
M  V30 964 H 91.6811 3.74794 -0.425368 0
M  V30 965 H 94.0681 2.9467 0.159246 0
M  V30 966 H 94.1491 2.13403 -1.41041 0
M  V30 967 H 93.7931 4.38217 -2.56765 0
M  V30 968 H 93.7231 5.17516 -0.973891 0
M  V30 969 H 96.2141 3.61793 -1.09151 0
M  V30 970 H 96.5271 7.19376 -2.82344 0
M  V30 971 H 94.8721 6.47208 -2.53272 0
M  V30 972 H 98.0631 4.45643 -1.43248 0
M  V30 973 H 98.2361 6.08711 -2.22204 0
M  V30 974 N 91.6422 0.330177 1.54103 0
M  V30 975 C 92.6052 -0.520144 2.2322 0
M  V30 976 C 93.6052 -1.03828 1.22786 0
M  V30 977 O 94.7952 -0.929652 1.4732 0
M  V30 978 C 91.9272 -1.72317 2.94142 0
M  V30 979 H 93.1202 0.0841605 2.99782 0
M  V30 980 H 90.6732 0.0813433 1.56088 0
M  V30 981 H 91.4082 -2.36653 2.21734 0
M  V30 982 H 91.1932 -1.35898 3.67796 0
M  V30 983 H 92.6832 -2.3266 3.46784 0
M  V30 984 N 93.1203 -1.57491 0.0584922 0
M  V30 985 C 94.3663 -1.93264 -0.614558 0
M  V30 986 C 94.6993 -0.937717 -1.7006 0
M  V30 987 O 93.9743 0.0351652 -1.94468 0
M  V30 988 C 94.2573 -3.3938 -1.20386 0
M  V30 989 C 94.1103 -4.49625 -0.125375 0
M  V30 990 C 95.4293 -3.86039 -2.11334 0
M  V30 991 H 92.5483 -0.702791 -0.221933 0
M  V30 992 H 95.1903 -1.8961 0.12175 0
M  V30 993 H 93.3403 -3.42626 -1.83139 0
M  V30 994 H 95.0123 -4.58506 0.506971 0
M  V30 995 H 93.2553 -4.30354 0.545672 0
M  V30 996 H 93.9263 -5.48967 -0.577861 0
M  V30 997 H 96.4023 -3.84716 -1.58534 0
M  V30 998 H 95.2783 -4.88914 -2.49507 0
M  V30 999 H 95.5393 -3.23215 -3.01636 0
M  V30 1000 N 94.5984 0.214957 -1.56127 0
M  V30 1001 C 95.5084 1.28727 -1.96129 0
M  V30 1002 C 96.5244 1.50916 -0.866044 0
M  V30 1003 O 97.7004 1.63918 -1.17016 0
M  V30 1004 C 94.7654 2.61569 -2.27558 0
M  V30 1005 C 93.8264 2.47625 -3.50685 0
M  V30 1006 C 93.0594 3.74132 -3.80606 0
M  V30 1007 O 93.2824 4.77438 -3.12104 0
M  V30 1008 O 92.2164 3.70849 -4.74083 0
M  V30 1009 H 96.0424 0.977855 -2.87527 0
M  V30 1010 H 93.6274 0.418358 -1.43423 0
M  V30 1011 H 95.5094 3.40012 -2.48938 0
M  V30 1012 H 94.1844 2.92178 -1.39332 0
M  V30 1013 H 93.0914 1.67361 -3.34576 0
M  V30 1014 H 94.4244 2.21954 -4.39315 0
M  V30 1015 N 96.0765 1.50051 0.48192 0
M  V30 1016 C 97.3245 1.60181 1.23234 0
M  V30 1017 C 97.6455 0.299176 1.92691 0
M  V30 1018 O 96.9155 -0.682708 1.83619 0
M  V30 1019 H 95.4955 0.590232 0.457859 0
M  V30 1020 H 98.1575 1.86775 0.556881 0
M  V30 1021 H 97.2535 2.40753 1.98607 0
M  V30 1022 N 97.5546 -0.734337 1.39446 0
M  V30 1023 C 98.7826 -1.52358 1.39981 0
M  V30 1024 C 99.1976 -1.88799 -0.0054975 0
M  V30 1025 O 98.5546 -1.54146 -0.976998 0
M  V30 1026 C 98.6056 -2.81072 2.27333 0
M  V30 1027 O 98.3266 -2.46178 3.62392 0
M  V30 1028 C 99.8276 -3.75096 2.36259 0
M  V30 1029 H 97.0476 -0.470806 0.478103 0
M  V30 1030 H 99.5916 -0.907339 1.83269 0
M  V30 1031 H 97.7466 -3.39026 1.87457 0
M  V30 1032 H 98.1606 -3.28866 4.08592 0
M  V30 1033 H 99.6346 -4.62305 3.01626 0
M  V30 1034 H 100.112 -4.16892 1.38194 0
M  V30 1035 H 100.718 -3.23061 2.76608 0
M  V30 1036 N 99.0327 -1.24633 -0.964593 0
M  V30 1037 C 100.444 -1.08045 -1.5226 0
M  V30 1038 C 100.795 0.347116 -1.93105 0
M  V30 1039 O 99.9197 1.23588 -1.77637 0
M  V30 1040 C 100.515 -1.95514 -2.76695 0
M  V30 1041 C 99.0737 -1.8314 -3.28841 0
M  V30 1042 C 98.2207 -1.90262 -2.01732 0
M  V30 1043 H 101.172 -1.38064 -0.782553 0
M  V30 1044 H 101.193 -1.48925 -3.50145 0
M  V30 1045 H 100.705 -2.99407 -2.46936 0
M  V30 1046 H 98.8057 -0.82092 -3.63444 0
M  V30 1047 H 98.9187 -2.67406 -3.97531 0
M  V30 1048 H 97.2827 -1.34027 -2.16584 0
M  V30 1049 H 98.0657 -2.9574 -1.74334 0
M  V30 1050 N 100.511 1.16574 -1.06058 0
M  V30 1051 C 101.758 1.87047 -0.775873 0
M  V30 1052 C 102.086 1.81562 0.697534 0
M  V30 1053 O 101.341 1.22445 1.52662 0
M  V30 1054 C 101.64 3.36195 -1.21275 0
M  V30 1055 C 101.306 3.6188 -2.68986 0
M  V30 1056 C 99.9678 3.68599 -3.09335 0
M  V30 1057 C 102.32 3.72648 -3.64394 0
M  V30 1058 C 99.6478 3.83584 -4.43937 0
M  V30 1059 C 102 3.89154 -4.98741 0
M  V30 1060 C 100.664 3.94114 -5.3873 0
M  V30 1061 H 99.9338 0.684452 -0.283912 0
M  V30 1062 H 102.581 1.37853 -1.32925 0
M  V30 1063 H 100.886 3.87505 -0.578528 0
M  V30 1064 H 102.583 3.89103 -0.969542 0
M  V30 1065 H 99.1728 3.57281 -2.36744 0
M  V30 1066 H 103.357 3.66769 -3.34356 0
M  V30 1067 H 98.6128 3.85677 -4.74409 0
M  V30 1068 H 102.787 3.96427 -5.72554 0
M  V30 1069 H 100.414 4.05478 -6.43033 0
M  V30 1070 N 101.989 0.842826 1.3317 0
M  V30 1071 C 102.899 0.281444 2.32906 0
M  V30 1072 C 103.915 -0.594587 1.63526 0
M  V30 1073 O 105.091 -0.49777 1.95152 0
M  V30 1074 C 102.156 -0.530929 3.42611 0
M  V30 1075 C 101.217 0.369843 4.27704 0
M  V30 1076 C 100.45 -0.403853 5.3217 0
M  V30 1077 O 100.673 -1.63513 5.46461 0
M  V30 1078 O 99.6069 0.224199 6.01482 0
M  V30 1079 H 103.433 1.10744 2.82789 0
M  V30 1080 H 101.018 0.60545 1.36582 0
M  V30 1081 H 102.9 -0.992437 4.09547 0
M  V30 1082 H 101.575 -1.33392 2.94938 0
M  V30 1083 H 100.482 0.879275 3.6362 0
M  V30 1084 H 101.815 1.13771 4.78871 0
M  V30 1085 N 103.467 -1.45747 0.599634 0
M  V30 1086 C 104.707 -2.04181 0.0946309 0
M  V30 1087 C 105.071 -1.45895 -1.24815 0
M  V30 1088 O 106.272 -1.95633 -1.8434 0
M  V30 1089 C 104.543 -3.57368 0.047581 0
M  V30 1090 S 106.102 -4.36997 -0.397387 0
M  V30 1091 H 102.92 -0.70953 0.0456954 0
M  V30 1092 H 105.522 -1.78564 0.795946 0
M  V30 1093 H 104.226 -3.97303 1.02852 0
M  V30 1094 H 103.757 -3.87549 -0.675977 0
M  V30 1095 H 105.772 -4.68012 -1.64862 0
M  V30 1096 N 104.945 -0.338344 -1.53925 0
M  V30 1097 C 105.875 0.51328 -2.27789 0
M  V30 1098 C 106.856 1.107 -1.29149 0
M  V30 1099 O 108.041 1.12937 -1.57984 0
M  V30 1100 C 105.171 1.66697 -3.04679 0
M  V30 1101 C 104.125 1.20183 -4.1078 0
M  V30 1102 C 103.451 2.44363 -4.75595 0
M  V30 1103 C 104.751 0.30605 -5.21403 0
M  V30 1104 H 106.445 -0.102883 -2.99223 0
M  V30 1105 H 103.991 -0.0509219 -1.4391 0
M  V30 1106 H 105.944 2.26915 -3.55088 0
M  V30 1107 H 104.668 2.30995 -2.30887 0
M  V30 1108 H 103.327 0.622499 -3.61276 0
M  V30 1109 H 102.975 3.07057 -3.98403 0
M  V30 1110 H 102.675 2.13925 -5.47275 0
M  V30 1111 H 104.199 3.05317 -5.28786 0
M  V30 1112 H 105.613 0.814929 -5.67478 0
M  V30 1113 H 104.01 0.0937929 -6.00027 0
M  V30 1114 H 105.08 -0.65921 -4.80398 0
M  V30 1115 N 106.423 1.57458 -0.0668435 0
M  V30 1116 C 107.37 2.12439 0.902122 0
M  V30 1117 C 108.34 1.03565 1.2986 0
M  V30 1118 O 109.525 1.312 1.38532 0
M  V30 1119 C 106.665 2.6865 2.16614 0
M  V30 1120 C 105.778 3.91663 1.82274 0
M  V30 1121 C 104.913 4.36134 3.0325 0
M  V30 1122 C 103.952 5.51808 2.64904 0
M  V30 1123 N 103.089 5.9126 3.78624 0
M  V30 1124 H 107.929 2.94934 0.426382 0
M  V30 1125 H 105.466 1.4575 0.198819 0
M  V30 1126 H 107.424 2.99346 2.90599 0
M  V30 1127 H 106.054 1.88928 2.61737 0
M  V30 1128 H 105.106 3.6746 0.983719 0
M  V30 1129 H 106.418 4.75693 1.50059 0
M  V30 1130 H 105.572 4.68465 3.85519 0
M  V30 1131 H 104.311 3.50948 3.38655 0
M  V30 1132 H 103.316 5.19133 1.81055 0
M  V30 1133 H 104.541 6.38722 2.30675 0
M  V30 1134 H 102.487 5.09024 4.138 0
M  V30 1135 H 102.404 6.70018 3.5016 0
M  V30 1136 H 103.672 6.28212 4.61486 0
M  V30 1137 N 107.901 -0.206675 1.56239 0
M  V30 1138 C 109.178 -0.954051 1.70755 0
M  V30 1139 C 109.558 -2.01841 0.618353 0
M  V30 1140 O 108.906 -2.25444 -0.372434 0
M  V30 1141 C 109.116 -1.551 3.12642 0
M  V30 1142 C 110.464 -2.03757 3.72516 0
M  V30 1143 O 111.488 -1.64965 3.15698 0
M  V30 1144 O 110.347 -2.75103 4.72208 0
M  V30 1145 H 107.441 -0.446636 0.696021 0
M  V30 1146 H 109.987 -0.197283 1.68549 0
M  V30 1147 H 108.759 -0.783212 3.83382 0
M  V30 1148 H 108.382 -2.37291 3.19028 0
M  V30 1149 N 109.379 -1.50304 -0.473955 0
M  V30 1150 C 110.342 -1.6841 -1.55469 0
M  V30 1151 C 111.342 -0.554905 -1.50922 0
M  V30 1152 O 112.532 -0.821882 -1.53593 0
M  V30 1153 C 109.664 -1.70667 -2.95102 0
M  V30 1154 H 110.857 -2.64828 -1.40733 0
M  V30 1155 H 108.41 -1.39742 -0.700132 0
M  V30 1156 H 109.145 -0.75932 -3.15285 0
M  V30 1157 H 108.93 -2.52698 -2.9981 0
M  V30 1158 H 110.42 -1.8664 -3.73571 0
M  V30 1159 N 110.857 0.726932 -1.39834 0
M  V30 1160 C 112.104 1.48664 -1.37496 0
M  V30 1161 C 112.432 1.94482 0.0264678 0
M  V30 1162 O 111.687 1.67692 1.00886 0
M  V30 1163 C 111.986 2.73495 -2.30077 0
M  V30 1164 C 111.652 2.46502 -3.77555 0
M  V30 1165 C 110.314 2.3885 -4.17737 0
M  V30 1166 C 112.666 2.23604 -4.70798 0
M  V30 1167 C 109.994 2.06352 -5.49214 0
M  V30 1168 C 112.346 1.92622 -6.02561 0
M  V30 1169 C 111.01 1.83444 -6.41798 0
M  V30 1170 H 110.28 0.544001 -0.503135 0
M  V30 1171 H 112.927 0.833657 -1.72402 0
M  V30 1172 H 111.232 3.43575 -1.88317 0
M  V30 1173 H 112.929 3.31549 -2.25558 0
M  V30 1174 H 109.519 2.5334 -3.45712 0
M  V30 1175 H 113.703 2.28479 -4.40581 0
M  V30 1176 H 108.959 1.97776 -5.78528 0
M  V30 1177 H 113.133 1.73914 -6.74334 0
M  V30 1178 H 110.76 1.58029 -7.43593 0
M  V30 1179 N 112.336 1.25143 0.95797 0
M  V30 1180 C 113.582 1.09855 1.70469 0
M  V30 1181 C 113.915 -0.360187 1.90831 0
M  V30 1182 O 113.19 -1.26568 1.47685 0
M  V30 1183 C 113.473 1.8497 3.08963 0
M  V30 1184 C 113.326 3.38652 2.96032 0
M  V30 1185 C 114.645 1.63016 4.08795 0
M  V30 1186 H 111.764 0.400465 0.618706 0
M  V30 1187 H 114.406 1.53933 1.11376 0
M  V30 1188 H 112.556 1.47505 3.59409 0
M  V30 1189 H 114.228 3.85772 2.52938 0
M  V30 1190 H 112.471 3.66534 2.32025 0
M  V30 1191 H 113.142 3.8642 3.94187 0
M  V30 1192 H 115.618 1.95625 3.67247 0
M  V30 1193 H 114.494 2.18015 5.03747 0
M  V30 1194 H 114.755 0.570692 4.38401 0
M  V30 1195 N 113.814 -1.1601 1.06675 0
M  V30 1196 C 115.062 -1.86264 0.784229 0
M  V30 1197 C 115.383 -1.82328 -0.691488 0
M  V30 1198 O 114.653 -1.25947 -1.50047 0
M  V30 1199 H 113.233 -0.689621 0.28711 0
M  V30 1200 H 115.895 -1.40664 1.34906 0
M  V30 1201 H 114.991 -2.91595 1.11259 0
M  V30 1202 N 115.292 -0.849877 -1.32721 0
M  V30 1203 C 116.703 -0.506188 -1.79707 0
M  V30 1204 C 117.054 0.975627 -1.70223 0
M  V30 1205 O 116.179 1.76078 -1.25799 0
M  V30 1206 C 116.774 -0.912044 -3.26293 0
M  V30 1207 C 115.333 -0.620326 -3.71253 0
M  V30 1208 C 114.48 -1.11439 -2.53922 0
M  V30 1209 H 117.431 -1.03754 -1.20087 0
M  V30 1210 H 117.452 -0.226493 -3.79825 0
M  V30 1211 H 116.964 -1.99057 -3.33164 0
M  V30 1212 H 115.065 0.447674 -3.69901 0
M  V30 1213 H 115.178 -1.18327 -4.64258 0
M  V30 1214 H 113.542 -0.534834 -2.49021 0
M  V30 1215 H 114.325 -2.19992 -2.6355 0
M  V30 1216 N 116.77 1.45427 -0.607355 0
M  V30 1217 C 117.998 2.06614 -0.108814 0
M  V30 1218 C 118.413 1.45204 1.2067 0
M  V30 1219 O 117.77 0.566132 1.73497 0
M  V30 1220 C 117.821 3.61481 0.0375347 0
M  V30 1221 O 117.542 4.20598 -1.22593 0
M  V30 1222 C 119.043 4.39652 0.567561 0
M  V30 1223 H 116.263 0.66747 -0.0687351 0
M  V30 1224 H 118.807 1.86675 -0.835022 0
M  V30 1225 H 116.962 3.80762 0.714068 0
M  V30 1226 H 117.376 5.1377 -1.05547 0
M  V30 1227 H 118.85 5.48518 0.61905 0
M  V30 1228 H 119.327 4.09417 1.58978 0
M  V30 1229 H 119.933 4.25234 -0.0749202 0
M  V30 1230 N 118.248 0.346503 1.53744 0
M  V30 1231 C 119.178 -0.501193 2.28058 0
M  V30 1232 C 120.159 -1.10014 1.29734 0
M  V30 1233 O 121.344 -1.12097 1.58581 0
M  V30 1234 C 118.474 -1.65078 3.05559 0
M  V30 1235 C 117.428 -1.18003 4.11411 0
M  V30 1236 C 116.754 -2.41837 4.76884 0
M  V30 1237 C 118.054 -0.278394 5.21558 0
M  V30 1238 H 119.748 0.11875 2.99164 0
M  V30 1239 H 117.294 0.0585531 1.43881 0
M  V30 1240 H 119.247 -2.25028 3.56287 0
M  V30 1241 H 117.971 -2.29767 2.32109 0
M  V30 1242 H 116.63 -0.603331 3.61601 0
M  V30 1243 H 116.278 -3.0494 4.00026 0
M  V30 1244 H 115.978 -2.1102 5.48402 0
M  V30 1245 H 117.502 -3.02508 5.30397 0
M  V30 1246 H 118.916 -0.784823 5.67903 0
M  V30 1247 H 117.313 -0.0619707 6.00068 0
M  V30 1248 H 118.383 0.684677 4.80042 0
M  V30 1249 N 119.726 -1.57421 0.075193 0
M  V30 1250 C 120.975 -1.92794 -0.592731 0
M  V30 1251 C 121.288 -0.957478 -1.70563 0
M  V30 1252 O 122.494 -1.20417 -2.43335 0
M  V30 1253 C 120.95 -3.42495 -1.10569 0
M  V30 1254 C 120.558 -4.47994 -0.0236121 0
M  V30 1255 C 122.302 -3.86864 -1.74748 0
M  V30 1256 C 120.209 -5.88829 -0.550803 0
M  V30 1257 H 119.139 -0.719591 -0.225177 0
M  V30 1258 H 121.79 -1.82902 0.147978 0
M  V30 1259 H 120.172 -3.47471 -1.89947 0
M  V30 1260 H 121.346 -4.54637 0.751099 0
M  V30 1261 H 119.661 -4.13113 0.522159 0
M  V30 1262 H 122.258 -4.8947 -2.15229 0
M  V30 1263 H 122.601 -3.24417 -2.60882 0
M  V30 1264 H 123.134 -3.84504 -1.01986 0
M  V30 1265 H 119.873 -6.54929 0.273457 0
M  V30 1266 H 119.393 -5.85698 -1.29296 0
M  V30 1267 H 121.072 -6.38811 -1.02613 0
M  V30 1268 N 121.204 0.198386 -1.56346 0
M  V30 1269 C 122.167 1.22952 -1.93431 0
M  V30 1270 C 123.167 1.38611 -0.815092 0
M  V30 1271 O 124.357 1.36479 -1.08255 0
M  V30 1272 C 121.489 2.59946 -2.20546 0
M  V30 1273 H 122.682 0.912626 -2.85677 0
M  V30 1274 H 120.235 0.43977 -1.49986 0
M  V30 1275 H 120.97 2.96696 -1.30927 0
M  V30 1276 H 120.755 2.49953 -3.02102 0
M  V30 1277 H 122.245 3.3431 -2.50253 0
M  V30 1278 N 122.682 1.50554 0.465978 0
M  V30 1279 C 123.912 1.65323 1.23903 0
M  V30 1280 C 124.32 0.338051 1.86155 0
M  V30 1281 O 123.663 -0.690518 1.70228 0
M  V30 1282 C 123.725 2.69048 2.3844 0
M  V30 1283 C 123.389 4.12462 1.96784 0
M  V30 1284 C 124.386 4.98168 1.48745 0
M  V30 1285 C 122.071 4.58407 2.05349 0
M  V30 1286 C 124.065 6.27868 1.0982 0
M  V30 1287 C 121.752 5.88112 1.66035 0
M  V30 1288 C 122.75 6.72668 1.18349 0
M  V30 1289 O 122.438 7.99951 0.795825 0
M  V30 1290 H 122.17 0.558629 0.38067 0
M  V30 1291 H 124.724 1.97561 0.562022 0
M  V30 1292 H 122.954 2.32062 3.09328 0
M  V30 1293 H 124.643 2.72985 3.0039 0
M  V30 1294 H 125.409 4.63885 1.41546 0
M  V30 1295 H 121.288 3.92735 2.41414 0
M  V30 1296 H 124.832 6.93819 0.725293 0
M  V30 1297 H 120.729 6.21914 1.72895 0
M  V30 1298 H 121.497 8.13265 0.924222 0
M  V30 1299 N 124.16 -0.719506 1.40217 0
M  V30 1300 C 125.385 -1.51371 1.4178 0
M  V30 1301 C 125.81 -1.88091 0.0182355 0
M  V30 1302 O 125.168 -1.52997 -0.972707 0
M  V30 1303 C 125.216 -2.768 2.31115 0
M  V30 1304 O 124.32 -3.73349 1.7517 0
M  V30 1305 H 123.661 -0.456529 0.482159 0
M  V30 1306 H 126.191 -0.88644 1.844 0
M  V30 1307 H 126.201 -3.25371 2.46167 0
M  V30 1308 H 124.876 -2.49407 3.3282 0
M  V30 1309 H 123.453 -3.32179 1.69444 0
M  V30 1310 N 125.638 -1.25649 -0.95132 0
M  V30 1311 C 126.571 -1.00644 -2.04807 0
M  V30 1312 C 127.549 0.0654271 -1.62468 0
M  V30 1313 O 128.733 -0.074911 -1.88351 0
M  V30 1314 C 125.86 -0.522052 -3.34653 0
M  V30 1315 C 124.906 -1.58495 -3.95957 0
M  V30 1316 S 125.739 -3.17108 -4.31512 0
M  V30 1317 C 126.895 -2.70412 -5.64471 0
M  V30 1318 H 127.128 -1.93508 -2.25703 0
M  V30 1319 H 124.661 -1.09216 -1.09139 0
M  V30 1320 H 126.619 -0.24923 -4.09743 0
M  V30 1321 H 125.28 0.386146 -3.11717 0
M  V30 1322 H 124.473 -1.1968 -4.89584 0
M  V30 1323 H 124.075 -1.80862 -3.2736 0
M  V30 1324 H 126.367 -2.14245 -6.42733 0
M  V30 1325 H 127.31 -3.62693 -6.08161 0
M  V30 1326 H 127.718 -2.10302 -5.23864 0
M  V30 1327 N 127.117 1.15442 -1.07289 0
M  V30 1328 C 128.027 2.23786 -0.704057 0
M  V30 1329 C 129.043 1.7166 0.284413 0
M  V30 1330 O 130.219 2.00972 0.131205 0
M  V30 1331 C 127.284 3.46535 -0.106792 0
M  V30 1332 C 126.345 4.13654 -1.14842 0
M  V30 1333 C 125.578 5.30544 -0.57956 0
M  V30 1334 O 125.801 5.67187 0.604585 0
M  V30 1335 O 124.735 5.87154 -1.32414 0
M  V30 1336 H 128.561 2.57664 -1.60757 0
M  V30 1337 H 126.146 1.23152 -0.845803 0
M  V30 1338 H 128.028 4.20804 0.224048 0
M  V30 1339 H 126.703 3.14407 0.770049 0
M  V30 1340 H 125.61 3.4131 -1.5316 0
M  V30 1341 H 126.943 4.49861 -1.99714 0
M  V30 1342 N 128.595 0.856903 1.32268 0
M  V30 1343 C 129.545 0.274899 2.26337 0
M  V30 1344 C 130.529 -0.580543 1.50062 0
M  V30 1345 O 131.721 -0.429559 1.71708 0
M  V30 1346 C 128.85 -0.533841 3.39124 0
M  V30 1347 C 127.936 0.334114 4.22782 0
M  V30 1348 N 128.327 1.42143 4.85416 0
M  V30 1349 C 126.625 0.124256 4.45827 0
M  V30 1350 C 127.326 1.95559 5.47843 0
M  V30 1351 N 126.302 1.25444 5.28928 0
M  V30 1352 H 130.104 1.10612 2.72291 0
M  V30 1353 H 127.618 0.703258 1.46383 0
M  V30 1354 H 129.615 -0.96722 4.05525 0
M  V30 1355 H 128.275 -1.36283 2.94715 0
M  V30 1356 H 129.286 1.80436 4.85451 0
M  V30 1357 H 125.963 -0.669837 4.12092 0
M  V30 1358 H 127.353 2.86714 6.07655 0
M  V30 1359 N 130.073 -1.45103 0.615059 0
M  V30 1360 C 131.484 -1.85654 0.197383 0
M  V30 1361 C 131.835 -1.51433 -1.24749 0
M  V30 1362 O 130.96 -0.944608 -1.94695 0
M  V30 1363 C 131.555 -3.36972 0.351448 0
M  V30 1364 C 130.114 -3.76398 -0.011593 0
M  V30 1365 C 129.261 -2.69024 0.672394 0
M  V30 1366 H 132.212 -1.35797 0.821263 0
M  V30 1367 H 132.233 -3.78239 -0.414227 0
M  V30 1368 H 131.745 -3.61847 1.40314 0
M  V30 1369 H 129.846 -3.5714 -1.06217 0
M  V30 1370 H 129.959 -4.77532 0.387265 0
M  V30 1371 H 128.323 -2.54465 0.109284 0
M  V30 1372 H 129.106 -2.96735 1.72636 0
M  V30 1373 N 131.551 -0.354651 -1.53558 0
M  V30 1374 C 132.799 0.237972 -2.00694 0
M  V30 1375 C 133.12 1.50173 -1.24391 0
M  V30 1376 O 132.39 1.92673 -0.354135 0
M  V30 1377 H 130.97 0.0909256 -0.741446 0
M  V30 1378 H 133.632 -0.478368 -1.88938 0
M  V30 1379 H 132.728 0.47264 -3.085 0
M  V30 1380 N 133.029 1.57378 -0.0835403 0
M  V30 1381 C 133.992 2.12252 0.864959 0
M  V30 1382 C 134.992 1.04916 1.21858 0
M  V30 1383 O 136.182 1.30853 1.14991 0
M  V30 1384 C 133.314 2.63358 2.16461 0
M  V30 1385 H 134.507 2.97371 0.388676 0
M  V30 1386 H 132.06 1.55423 0.165317 0
M  V30 1387 H 132.795 1.81727 2.686 0
M  V30 1388 H 132.58 3.41826 1.92087 0
M  V30 1389 H 134.07 3.05847 2.84337 0
M  V30 1390 N 134.507 -0.190092 1.56449 0
M  V30 1391 C 135.47 -1.21925 1.9408 0
M  V30 1392 C 136.47 -1.38176 0.822431 0
M  V30 1393 O 137.66 -1.35903 1.08977 0
M  V30 1394 C 134.792 -2.58773 2.21922 0
M  V30 1395 H 135.985 -0.897464 2.86157 0
M  V30 1396 H 133.538 -0.43181 1.50217 0
M  V30 1397 H 134.273 -2.95998 1.32499 0
M  V30 1398 H 134.058 -2.48348 3.03424 0
M  V30 1399 H 135.548 -3.32978 2.52022 0
M  V30 1400 N 135.985 -1.50799 -0.457987 0
M  V30 1401 C 136.948 -1.7005 -1.53674 0
M  V30 1402 C 137.948 -0.570881 -1.50325 0
M  V30 1403 O 139.138 -0.838126 -1.52712 0
M  V30 1404 C 136.27 -1.73788 -2.93276 0
M  V30 1405 H 137.463 -2.66306 -1.37917 0
M  V30 1406 H 135.016 -1.40477 -0.685271 0
M  V30 1407 H 135.751 -0.792717 -3.14462 0
M  V30 1408 H 135.536 -2.55864 -2.97113 0
M  V30 1409 H 137.026 -1.90591 -3.71571 0
M  V30 1410 N 137.463 0.71206 -1.40597 0
M  V30 1411 C 138.879 1.02058 -1.22704 0
M  V30 1412 C 139.079 2.01228 -0.104729 0
M  V30 1413 O 138.135 2.4674 0.53624 0
M  V30 1414 C 139.448 1.56094 -2.57012 0
M  V30 1415 C 140.996 1.6806 -2.64054 0
M  V30 1416 C 141.471 2.25501 -3.9864 0
M  V30 1417 N 142.962 2.32882 -4.004 0
M  V30 1418 C 143.697 2.78317 -5.01325 0
M  V30 1419 N 143.193 3.23478 -6.12645 0
M  V30 1420 N 144.986 2.77733 -4.88693 0
M  V30 1421 H 137.137 0.0547896 -2.12329 0
M  V30 1422 H 139.4 0.0869027 -0.944008 0
M  V30 1423 H 139.106 0.906865 -3.39807 0
M  V30 1424 H 138.98 2.54564 -2.78347 0
M  V30 1425 H 141.367 2.32583 -1.81629 0
M  V30 1426 H 141.448 0.681802 -2.46546 0
M  V30 1427 H 141.092 1.61598 -4.81506 0
M  V30 1428 H 141.022 3.26102 -4.13479 0
M  V30 1429 H 143.513 2.00991 -3.20017 0
M  V30 1430 H 143.826 3.56725 -6.85542 0
M  V30 1431 H 142.171 3.21429 -6.16205 0
M  V30 1432 H 145.362 2.4179 -4.00818 0
M  V30 1433 H 145.535 3.12826 -5.67489 0
M  V30 1434 N 138.941 1.26152 0.944643 0
M  V30 1435 C 139.871 1.09902 2.06019 0
M  V30 1436 C 140.852 0.00519538 1.70099 0
M  V30 1437 O 142.037 0.176583 1.93396 0
M  V30 1438 C 139.167 0.727562 3.39594 0
M  V30 1439 C 138.121 1.77274 3.89561 0
M  V30 1440 C 137.447 1.25569 5.19747 0
M  V30 1441 C 138.747 3.17357 4.14827 0
M  V30 1442 H 140.441 2.03217 2.19871 0
M  V30 1443 H 137.987 0.978452 1.05652 0
M  V30 1444 H 139.94 0.600777 4.17095 0
M  V30 1445 H 138.664 -0.241287 3.25707 0
M  V30 1446 H 137.323 1.88814 3.14237 0
M  V30 1447 H 136.971 0.276783 5.02238 0
M  V30 1448 H 136.671 1.95433 5.54148 0
M  V30 1449 H 138.195 1.1415 5.99835 0
M  V30 1450 H 139.609 3.08914 4.82954 0
M  V30 1451 H 138.006 3.84781 4.60504 0
M  V30 1452 H 139.076 3.63673 3.20734 0
M  V30 1453 N 140.419 -1.14872 1.07899 0
M  V30 1454 C 141.666 -1.85789 0.805532 0
M  V30 1455 C 141.994 -1.82649 -0.668561 0
M  V30 1456 O 141.249 -1.24858 -1.50695 0
M  V30 1457 C 141.548 -3.34223 1.26609 0
M  V30 1458 C 141.214 -3.57555 2.74709 0
M  V30 1459 C 139.876 -3.63631 3.1516 0
M  V30 1460 C 142.228 -3.66803 3.70277 0
M  V30 1461 C 139.556 -3.76473 4.49983 0
M  V30 1462 C 141.908 -3.8117 5.04869 0
M  V30 1463 C 140.572 -3.85494 5.44932 0
M  V30 1464 H 139.842 -0.679849 0.294765 0
M  V30 1465 H 142.489 -1.3572 1.35101 0
M  V30 1466 H 140.794 -3.86536 0.640103 0
M  V30 1467 H 142.491 -3.87511 1.03132 0
M  V30 1468 H 139.081 -3.5347 2.42398 0
M  V30 1469 H 143.265 -3.61404 3.40149 0
M  V30 1470 H 138.521 -3.7808 4.80484 0
M  V30 1471 H 142.695 -3.87268 5.78789 0
M  V30 1472 H 140.322 -3.95197 6.49403 0
M  V30 1473 N 141.898 -0.863906 -1.31812 0
M  V30 1474 C 142.845 -0.313303 -2.28664 0
M  V30 1475 C 143.815 0.584868 -1.55462 0
M  V30 1476 O 145 0.517805 -1.83639 0
M  V30 1477 C 142.14 0.48441 -3.41683 0
M  V30 1478 C 141.253 -0.440594 -4.29747 0
M  V30 1479 C 140.388 0.370652 -5.29905 0
M  V30 1480 C 139.427 -0.551164 -6.09613 0
M  V30 1481 N 138.564 0.223462 -7.01744 0
M  V30 1482 H 143.404 -1.14444 -2.75148 0
M  V30 1483 H 140.941 -0.575769 -1.35364 0
M  V30 1484 H 142.899 0.962627 -4.05943 0
M  V30 1485 H 141.529 1.28029 -2.96325 0
M  V30 1486 H 140.581 -1.03724 -3.65986 0
M  V30 1487 H 141.893 -1.14767 -4.85417 0
M  V30 1488 H 141.047 0.911638 -5.99812 0
M  V30 1489 H 139.786 1.11105 -4.74876 0
M  V30 1490 H 138.791 -1.10396 -5.38603 0
M  V30 1491 H 140.016 -1.29032 -6.66729 0
M  V30 1492 H 137.962 0.946787 -6.49132 0
M  V30 1493 H 137.879 -0.424399 -7.54808 0
M  V30 1494 H 139.147 0.745876 -7.75923 0
M  V30 1495 N 143.376 1.44774 -0.622745 0
M  V30 1496 C 144.286 2.34433 0.0886031 0
M  V30 1497 C 145.302 1.52131 0.844529 0
M  V30 1498 O 146.478 1.84886 0.798691 0
M  V30 1499 C 143.543 3.29986 1.0635 0
M  V30 1500 C 142.604 4.28195 0.307873 0
M  V30 1501 C 141.837 5.19183 1.23633 0
M  V30 1502 O 142.06 5.13918 2.47476 0
M  V30 1503 O 140.994 5.97515 0.725189 0
M  V30 1504 H 144.82 2.96693 -0.648599 0
M  V30 1505 H 142.405 1.44408 -0.382957 0
M  V30 1506 H 144.287 3.88825 1.6246 0
M  V30 1507 H 142.962 2.70269 1.78146 0
M  V30 1508 H 141.869 3.72927 -0.296064 0
M  V30 1509 H 143.202 4.90808 -0.3699 0
M  V30 1510 N 144.854 0.36279 1.53368 0
M  V30 1511 C 146.101 -0.227776 2.01215 0
M  V30 1512 C 146.429 -1.49003 1.25014 0
M  V30 1513 O 145.684 -1.92876 0.331236 0
M  V30 1514 C 145.983 -0.568417 3.52851 0
M  V30 1515 C 145.649 0.59918 4.46901 0
M  V30 1516 C 144.311 0.919559 4.72332 0
M  V30 1517 C 146.663 1.38156 5.02556 0
M  V30 1518 C 143.991 2.02434 5.5067 0
M  V30 1519 C 146.343 2.47674 5.821 0
M  V30 1520 C 145.007 2.8025 6.05819 0
M  V30 1521 H 144.277 -0.083349 0.736297 0
M  V30 1522 H 146.924 0.494677 1.85001 0
M  V30 1523 H 145.229 -1.37185 3.66998 0
M  V30 1524 H 146.926 -1.03756 3.87344 0
M  V30 1525 H 143.516 0.339437 4.27254 0
M  V30 1526 H 147.7 1.14729 4.82857 0
M  V30 1527 H 142.956 2.28075 5.67267 0
M  V30 1528 H 147.13 3.08716 6.24234 0
M  V30 1529 H 144.757 3.65979 6.66306 0
M  V30 1530 N 146.332 -1.57332 0.0918853 0
M  V30 1531 C 147.295 -2.12708 -0.85369 0
M  V30 1532 C 148.295 -1.05561 -1.213 0
M  V30 1533 O 149.485 -1.31461 -1.14296 0
M  V30 1534 C 146.617 -2.64503 -2.15061 0
M  V30 1535 H 147.81 -2.97573 -0.3729 0
M  V30 1536 H 145.363 -1.55509 -0.157072 0
M  V30 1537 H 146.098 -1.83149 -2.67632 0
M  V30 1538 H 145.883 -3.4284 -1.90272 0
M  V30 1539 H 147.373 -3.07351 -2.82711 0
M  V30 1540 N 147.81 0.181792 -1.56548 0
M  V30 1541 C 148.757 1.22521 -1.95595 0
M  V30 1542 C 149.727 1.4454 -0.818373 0
M  V30 1543 O 150.912 1.57454 -1.07763 0
M  V30 1544 C 148.052 2.56193 -2.31212 0
M  V30 1545 C 147.165 2.41641 -3.58097 0
M  V30 1546 C 146.3 3.68108 -3.82975 0
M  V30 1547 C 145.339 3.48445 -5.03242 0
M  V30 1548 N 144.476 4.66956 -5.24306 0
M  V30 1549 H 149.316 0.885226 -2.84548 0
M  V30 1550 H 146.853 0.425718 -1.40805 0
M  V30 1551 H 148.811 3.34088 -2.49882 0
M  V30 1552 H 147.441 2.88208 -1.45382 0
M  V30 1553 H 146.493 1.54976 -3.474 0
M  V30 1554 H 147.805 2.23052 -4.46149 0
M  V30 1555 H 146.959 4.54441 -4.01956 0
M  V30 1556 H 145.698 3.89666 -2.93278 0
M  V30 1557 H 144.703 2.60499 -4.8417 0
M  V30 1558 H 145.928 3.2832 -5.9446 0
M  V30 1559 H 143.874 4.88752 -4.37559 0
M  V30 1560 H 143.791 4.51242 -6.06561 0
M  V30 1561 H 145.059 5.54602 -5.47756 0
M  V30 1562 N 149.288 1.51039 0.449983 0
M  V30 1563 C 150.251 1.70863 1.5277 0
M  V30 1564 C 151.251 0.578846 1.5002 0
M  V30 1565 O 152.441 0.846213 1.52266 0
M  V30 1566 C 149.573 1.75341 2.9235 0
M  V30 1567 H 150.766 2.67034 1.36502 0
M  V30 1568 H 148.319 1.40838 0.677812 0
M  V30 1569 H 149.054 0.809383 3.14037 0
M  V30 1570 H 148.839 2.57436 2.95752 0
M  V30 1571 H 150.329 1.92559 3.70555 0
M  V30 1572 N 150.766 -0.704594 1.40972 0
M  V30 1573 C 151.714 -1.83994 1.42299 0
M  V30 1574 C 152.708 -1.66684 0.302111 0
M  V30 1575 O 153.914 -1.73655 0.473697 0
M  V30 1576 H 150.289 -0.606171 0.44504 0
M  V30 1577 H 152.26 -1.79992 2.38003 0
M  V30 1578 C 151.009 -3.21946 1.31323 0
M  V30 1579 H 150.332 -3.35878 2.16855 0
M  V30 1580 H 151.772 -4.01491 1.36311 0
M  V30 1581 C 150.231 -3.36891 0.0245977 0
M  V30 1582 O 150.761 -3.90687 -0.934153 0
M  V30 1583 N 148.967 -2.90559 -0.0485243 0
M  V30 1584 H 148.514 -2.46968 0.732419 0
M  V30 1585 H 148.472 -3.00937 -0.910171 0
M  V30 1586 N 152.244 -1.26651 -0.937939 0
M  V30 1587 C 153.207 -1.08546 -2.01867 0
M  V30 1588 C 154.207 -0.0327327 -1.60767 0
M  V30 1589 O 155.397 -0.276427 -1.71993 0
M  V30 1590 C 152.529 -0.651711 -3.34613 0
M  V30 1591 H 153.722 -2.04502 -2.1936 0
M  V30 1592 H 151.275 -1.09294 -1.11734 0
M  V30 1593 H 152.01 0.309696 -3.22818 0
M  V30 1594 H 151.795 -1.41189 -3.65798 0
M  V30 1595 H 153.285 -0.546973 -4.14002 0
M  V30 1596 N 153.722 1.14298 -1.08507 0
M  V30 1597 C 154.669 2.19414 -0.715965 0
M  V30 1598 C 155.639 1.63399 0.298326 0
M  V30 1599 O 156.824 1.89929 0.182101 0
M  V30 1600 C 153.964 3.44845 -0.132534 0
M  V30 1601 C 153.077 4.15007 -1.19973 0
M  V30 1602 C 152.212 5.28024 -0.580048 0
M  V30 1603 C 151.251 5.9002 -1.62921 0
M  V30 1604 N 150.388 6.94485 -1.03125 0
M  V30 1605 H 155.228 2.50336 -1.61666 0
M  V30 1606 H 152.765 1.2293 -0.807882 0
M  V30 1607 H 154.723 4.16601 0.223454 0
M  V30 1608 H 153.353 3.14403 0.731467 0
M  V30 1609 H 152.405 3.41629 -1.67313 0
M  V30 1610 H 153.717 4.57178 -1.99473 0
M  V30 1611 H 152.871 6.06455 -0.172364 0
M  V30 1612 H 151.61 4.87076 0.246603 0
M  V30 1613 H 150.615 5.10291 -2.04654 0
M  V30 1614 H 151.84 6.33042 -2.45835 0
M  V30 1615 H 149.786 6.55612 -0.225711 0
M  V30 1616 H 149.703 7.35148 -1.76334 0
M  V30 1617 H 150.971 7.7679 -0.649458 0
M  V30 1618 N 155.201 0.870884 1.31352 0
M  V30 1619 C 156.448 0.482273 1.96673 0
M  V30 1620 C 156.776 -0.965638 1.68836 0
M  V30 1621 O 156.031 -1.69514 0.977937 0
M  V30 1622 C 156.33 0.687157 3.50732 0
M  V30 1623 C 155.996 2.108 3.9859 0
M  V30 1624 C 154.658 2.49656 4.1137 0
M  V30 1625 C 157.01 3.03459 4.23748 0
M  V30 1626 C 154.338 3.80412 4.46659 0
M  V30 1627 C 156.69 4.3373 4.60501 0
M  V30 1628 C 155.354 4.725 4.71487 0
M  V30 1629 H 154.624 0.176476 0.719679 0
M  V30 1630 H 157.271 1.10405 1.56471 0
M  V30 1631 H 155.576 -0.0177476 3.91796 0
M  V30 1632 H 157.273 0.366284 3.99324 0
M  V30 1633 H 153.863 1.79633 3.8914 0
M  V30 1634 H 158.047 2.74665 4.13368 0
M  V30 1635 H 153.303 4.1021 4.53362 0
M  V30 1636 H 157.477 5.05578 4.78919 0
M  V30 1637 H 155.104 5.73859 4.98588 0
M  V30 1638 N 156.679 -1.44442 0.630414 0
M  V30 1639 C 157.589 -2.34476 -0.0761693 0
M  V30 1640 C 158.605 -1.52576 -0.836449 0
M  V30 1641 O 159.781 -1.85307 -0.788874 0
M  V30 1642 C 156.846 -3.30545 -1.04599 0
M  V30 1643 C 155.907 -4.28352 -0.28516 0
M  V30 1644 C 155.14 -5.19831 -1.20878 0
M  V30 1645 O 155.363 -5.15223 -2.44747 0
M  V30 1646 O 154.297 -5.97892 -0.693491 0
M  V30 1647 H 158.123 -2.96345 0.664324 0
M  V30 1648 H 155.708 -1.44203 0.39061 0
M  V30 1649 H 157.59 -3.89681 -1.60396 0
M  V30 1650 H 156.265 -2.7121 -1.76711 0
M  V30 1651 H 155.172 -3.72764 0.315837 0
M  V30 1652 H 156.505 -4.90605 0.395924 0
M  V30 1653 N 158.157 -0.370918 -1.53173 0
M  V30 1654 C 159.403 0.217423 -2.01631 0
M  V30 1655 C 159.736 1.47983 -1.25756 0
M  V30 1656 O 159.011 1.91274 -0.352764 0
M  V30 1657 C 159.294 0.503982 -3.56556 0
M  V30 1658 C 159.147 -0.77243 -4.43118 0
M  V30 1659 C 160.466 1.30234 -4.20389 0
M  V30 1660 H 157.585 0.0775486 -0.732909 0
M  V30 1661 H 160.227 -0.496863 -1.83388 0
M  V30 1662 H 158.377 1.11248 -3.72231 0
M  V30 1663 H 160.049 -1.4098 -4.39229 0
M  V30 1664 H 158.292 -1.39167 -4.10871 0
M  V30 1665 H 158.963 -0.526815 -5.4948 0
M  V30 1666 H 161.439 0.787546 -4.08579 0
M  V30 1667 H 160.315 1.47158 -5.28806 0
M  V30 1668 H 160.576 2.31237 -3.76805 0
M  V30 1669 N 159.635 1.57281 -0.100228 0
M  V30 1670 C 160.582 2.14305 0.856858 0
M  V30 1671 C 161.552 1.06296 1.27634 0
M  V30 1672 O 162.737 1.34109 1.35718 0
M  V30 1673 C 159.877 2.73184 2.10866 0
M  V30 1674 C 158.99 3.95442 1.73925 0
M  V30 1675 C 158.125 4.42468 2.93931 0
M  V30 1676 C 157.164 5.57303 2.5314 0
M  V30 1677 N 156.301 5.99158 3.65997 0
M  V30 1678 H 161.141 2.95772 0.363726 0
M  V30 1679 H 158.678 1.46139 0.167858 0
M  V30 1680 H 160.636 3.05442 2.84185 0
M  V30 1681 H 159.266 1.94437 2.57671 0
M  V30 1682 H 158.318 3.69464 0.905554 0
M  V30 1683 H 159.63 4.78769 1.39935 0
M  V30 1684 H 158.784 4.76537 3.75496 0
M  V30 1685 H 157.523 3.58052 3.31134 0
M  V30 1686 H 156.528 5.22857 1.70003 0
M  V30 1687 H 157.753 6.43471 2.17075 0
M  V30 1688 H 155.699 5.17687 4.02909 0
M  V30 1689 H 155.616 6.77295 3.35869 0
M  V30 1690 H 156.884 6.3786 4.48057 0
M  V30 1691 N 161.113 -0.173488 1.56642 0
M  V30 1692 C 162.076 -1.19859 1.95362 0
M  V30 1693 C 163.076 -1.37296 0.83704 0
M  V30 1694 O 164.266 -1.34739 1.10413 0
M  V30 1695 C 161.398 -2.56405 2.24654 0
M  V30 1696 H 162.591 -0.867062 2.87092 0
M  V30 1697 H 160.144 -0.415853 1.50666 0
M  V30 1698 H 160.879 -2.94576 1.35631 0
M  V30 1699 H 160.664 -2.45115 3.06041 0
M  V30 1700 H 162.154 -3.30287 2.5554 0
M  V30 1701 N 162.591 -1.51276 -0.441967 0
M  V30 1702 C 163.554 -1.7167 -1.51862 0
M  V30 1703 C 164.554 -0.586793 -1.49711 0
M  V30 1704 O 165.744 -0.854276 -1.51815 0
M  V30 1705 C 162.876 -1.76889 -2.91416 0
M  V30 1706 H 164.069 -2.67754 -1.35084 0
M  V30 1707 H 161.622 -1.41196 -0.670333 0
M  V30 1708 H 162.357 -0.826026 -3.13604 0
M  V30 1709 H 162.142 -2.59001 -2.94382 0
M  V30 1710 H 163.632 -1.94522 -3.69528 0
M  V30 1711 N 164.069 0.697108 -1.41344 0
M  V30 1712 C 165.032 1.79281 -1.42797 0
M  V30 1713 C 166.032 1.57607 -0.318837 0
M  V30 1714 O 167.222 1.64309 -0.578642 0
M  V30 1715 C 164.354 3.17632 -1.23785 0
M  V30 1716 H 165.547 1.79385 -2.40335 0
M  V30 1717 H 163.1 0.904582 -1.27464 0
M  V30 1718 H 163.835 3.23167 -0.270814 0
M  V30 1719 H 163.62 3.34765 -2.04144 0
M  V30 1720 H 165.11 3.97617 -1.27633 0
M  V30 1721 N 165.547 1.27147 0.931209 0
M  V30 1722 C 166.794 1.13278 1.67852 0
M  V30 1723 C 167.122 -0.32204 1.91815 0
M  V30 1724 O 166.377 -1.25224 1.50391 0
M  V30 1725 C 166.676 1.8579 3.05314 0
M  V30 1726 C 166.342 3.35657 3.01073 0
M  V30 1727 C 165.004 3.76536 2.99623 0
M  V30 1728 C 167.356 4.31299 2.92627 0
M  V30 1729 C 164.684 5.11426 2.87506 0
M  V30 1730 C 167.036 5.66242 2.82051 0
M  V30 1731 C 165.7 6.06418 2.7895 0
M  V30 1732 H 164.97 0.414515 0.614214 0
M  V30 1733 H 167.617 1.57712 1.08624 0
M  V30 1734 H 165.922 1.33854 3.68226 0
M  V30 1735 H 167.619 1.72491 3.62005 0
M  V30 1736 H 164.209 3.03146 3.02986 0
M  V30 1737 H 168.393 4.00692 2.92848 0
M  V30 1738 H 163.649 5.41705 2.83489 0
M  V30 1739 H 167.823 6.40026 2.74481 0
M  V30 1740 H 165.45 7.10895 2.69318 0
M  V30 1741 N 167.025 -1.13721 1.09112 0
M  V30 1742 C 167.935 -2.22638 0.73957 0
M  V30 1743 C 168.951 -1.72091 -0.257068 0
M  V30 1744 O 170.127 -2.01155 -0.0992154 0
M  V30 1745 C 167.192 -3.46322 0.16191 0
M  V30 1746 C 166.253 -4.11775 1.21408 0
M  V30 1747 C 165.486 -5.29555 0.663891 0
M  V30 1748 O 165.709 -5.68077 -0.514274 0
M  V30 1749 O 164.643 -5.84973 1.41738 0
M  V30 1750 H 168.469 -2.55074 1.64836 0
M  V30 1751 H 166.054 -1.21791 0.865289 0
M  V30 1752 H 167.936 -4.21107 -0.157073 0
M  V30 1753 H 166.611 -3.15593 -0.719932 0
M  V30 1754 H 165.518 -3.3883 1.58571 0
M  V30 1755 H 166.851 -4.46627 2.06845 0
M  V30 1756 N 168.503 -0.877838 -1.30888 0
M  V30 1757 C 169.751 -0.491723 -1.96027 0
M  V30 1758 C 170.072 0.960827 -1.69685 0
M  V30 1759 O 169.342 1.67462 -1.01654 0
M  V30 1760 H 167.922 -0.17885 -0.725273 0
M  V30 1761 H 170.584 -1.11935 -1.59551 0
M  V30 1762 H 169.68 -0.656016 -3.05128 0
M  V30 1763 N 169.982 1.44106 -0.638065 0
M  V30 1764 C 170.892 2.34513 0.0637334 0
M  V30 1765 C 171.908 1.53018 0.828346 0
M  V30 1766 O 173.084 1.85723 0.779036 0
M  V30 1767 C 170.149 3.31095 1.02844 0
M  V30 1768 C 169.21 4.28497 0.26244 0
M  V30 1769 C 168.443 5.20465 1.1812 0
M  V30 1770 O 168.666 5.16514 2.42011 0
M  V30 1771 O 167.6 5.98251 0.661774 0
M  V30 1772 H 171.426 2.95989 -0.68003 0
M  V30 1773 H 169.011 1.43994 -0.398252 0
M  V30 1774 H 170.893 3.90526 1.58327 0
M  V30 1775 H 169.568 2.72144 1.7527 0
M  V30 1776 H 168.475 3.72592 -0.335602 0
M  V30 1777 H 169.808 4.90388 -0.421936 0
M  V30 1778 N 171.46 0.379036 1.52974 0
M  V30 1779 C 172.39 -0.452706 2.29069 0
M  V30 1780 C 173.371 -1.07237 1.32039 0
M  V30 1781 O 174.556 -1.08708 1.60923 0
M  V30 1782 C 171.686 -1.5856 3.08992 0
M  V30 1783 C 170.64 -1.0925 4.13822 0
M  V30 1784 C 169.966 -2.31668 4.81907 0
M  V30 1785 C 171.266 -0.167702 5.22031 0
M  V30 1786 H 172.96 0.182181 2.98845 0
M  V30 1787 H 170.506 0.0890592 1.43724 0
M  V30 1788 H 172.459 -2.1742 3.6098 0
M  V30 1789 H 171.183 -2.24792 2.36931 0
M  V30 1790 H 169.842 -0.526494 3.628 0
M  V30 1791 H 169.49 -2.96386 4.06404 0
M  V30 1792 H 169.19 -1.9934 5.52754 0
M  V30 1793 H 170.714 -2.91189 5.36695 0
M  V30 1794 H 172.128 -0.664186 5.6944 0
M  V30 1795 H 170.525 0.0653265 6.00064 0
M  V30 1796 H 171.595 0.786347 4.78482 0
M  V30 1797 N 172.938 -1.57226 0.108567 0
M  V30 1798 C 174.187 -1.94008 -0.551703 0
M  V30 1799 C 174.5 -0.993442 -1.68494 0
M  V30 1800 O 175.706 -1.25551 -2.40726 0
M  V30 1801 C 174.162 -3.44763 -1.03279 0
M  V30 1802 C 173.77 -4.47943 0.0714193 0
M  V30 1803 C 175.514 -3.90483 -1.66503 0
M  V30 1804 C 173.421 -5.89865 -0.425779 0
M  V30 1805 H 172.351 -0.724206 -0.209863 0
M  V30 1806 H 175.002 -1.82547 0.186741 0
M  V30 1807 H 173.384 -3.51422 -1.82533 0
M  V30 1808 H 174.558 -4.52942 0.847365 0
M  V30 1809 H 172.873 -4.11913 0.609669 0
M  V30 1810 H 175.47 -4.93925 -2.04798 0
M  V30 1811 H 175.813 -3.29877 -2.53942 0
M  V30 1812 H 176.346 -3.86581 -0.938074 0
M  V30 1813 H 173.085 -6.54202 0.412316 0
M  V30 1814 H 172.605 -5.88309 -1.16843 0
M  V30 1815 H 174.284 -6.40844 -0.890397 0
M  V30 1816 N 174.416 0.165178 -1.56732 0
M  V30 1817 C 175.827 0.727046 -1.71962 0
M  V30 1818 C 176.178 1.82508 -0.720078 0
M  V30 1819 O 175.303 2.16082 0.117242 0
M  V30 1820 C 175.898 1.32559 -3.11791 0
M  V30 1821 C 174.457 1.83422 -3.28684 0
M  V30 1822 C 173.604 0.715567 -2.67908 0
M  V30 1823 H 176.555 -0.0602896 -1.58585 0
M  V30 1824 H 176.576 2.19533 -3.10782 0
M  V30 1825 H 176.088 0.526195 -3.84516 0
M  V30 1826 H 174.189 2.65986 -2.60926 0
M  V30 1827 H 174.302 1.97543 -4.36478 0
M  V30 1828 H 172.666 1.13758 -2.27884 0
M  V30 1829 H 173.449 -0.0720836 -3.43224 0
M  V30 1830 N 175.894 1.51508 0.433938 0
M  V30 1831 C 176.857 1.72473 1.50949 0
M  V30 1832 C 177.857 0.594725 1.49398 0
M  V30 1833 O 179.047 0.862315 1.5136 0
M  V30 1834 C 176.179 1.78431 2.90474 0
M  V30 1835 H 177.372 2.68467 1.33662 0
M  V30 1836 H 174.925 1.41549 0.662836 0
M  V30 1837 H 175.66 0.842645 3.13161 0
M  V30 1838 H 175.445 2.60558 2.93005 0
M  V30 1839 H 176.935 1.96479 3.68491 0
M  V30 1840 N 177.372 -0.689602 1.41712 0
M  V30 1841 C 178.597 -1.48329 1.44959 0
M  V30 1842 C 179.022 -1.8801 0.0581283 0
M  V30 1843 O 178.38 -1.55026 -0.940035 0
M  V30 1844 C 178.428 -2.71835 2.36935 0
M  V30 1845 O 177.532 -3.69549 1.8305 0
M  V30 1846 H 176.873 -0.446199 0.491734 0
M  V30 1847 H 179.403 -0.847127 1.86239 0
M  V30 1848 H 179.413 -3.20076 2.53013 0
M  V30 1849 H 178.088 -2.42291 3.38035 0
M  V30 1850 H 176.665 -3.2851 1.76452 0
M  V30 1851 N 178.85 -1.27639 -0.924453 0
M  V30 1852 C 179.782 -1.06442 -2.02985 0
M  V30 1853 C 180.795 -0.0194771 -1.62788 0
M  V30 1854 O 181.984 -0.261388 -1.76576 0
M  V30 1855 C 179.084 -0.59327 -3.33667 0
M  V30 1856 C 178.257 -1.71123 -4.02537 0
M  V30 1857 C 177.316 -1.23527 -5.11495 0
M  V30 1858 O 176.342 -1.93553 -5.35281 0
M  V30 1859 N 177.544 -0.0926678 -5.80426 0
M  V30 1860 H 180.309 -2.01633 -2.2173 0
M  V30 1861 H 177.87 -1.19248 -1.09505 0
M  V30 1862 H 179.862 -0.258686 -4.03872 0
M  V30 1863 H 178.432 0.265502 -3.1147 0
M  V30 1864 H 177.652 -2.21593 -3.26022 0
M  V30 1865 H 178.94 -2.46145 -4.45298 0
M  V30 1866 H 178.338 0.491741 -5.63559 0
M  V30 1867 H 176.895 0.182714 -6.51544 0
M  V30 1868 N 180.328 1.1314 -1.09713 0
M  V30 1869 C 181.577 1.83838 -0.829851 0
M  V30 1870 C 181.89 1.84599 0.646728 0
M  V30 1871 O 183.096 2.51218 1.02965 0
M  V30 1872 C 181.552 3.30069 -1.43466 0
M  V30 1873 C 181.16 3.37688 -2.94399 0
M  V30 1874 C 182.904 4.05788 -1.24645 0
M  V30 1875 C 180.811 4.78209 -3.47952 0
M  V30 1876 H 179.741 0.68877 -0.306777 0
M  V30 1877 H 182.392 1.27448 -1.3202 0
M  V30 1878 H 180.774 3.8628 -0.871996 0
M  V30 1879 H 181.948 2.91456 -3.56918 0
M  V30 1880 H 180.263 2.75436 -3.12289 0
M  V30 1881 H 182.86 5.09535 -1.62107 0
M  V30 1882 H 183.203 4.15878 -0.187357 0
M  V30 1883 H 183.736 3.55915 -1.77678 0
M  V30 1884 H 180.475 4.73311 -4.53495 0
M  V30 1885 H 179.995 5.24924 -2.90198 0
M  V30 1886 H 181.674 5.47133 -3.45332 0
M  V30 1887 N 181.806 0.884767 1.30421 0
M  V30 1888 C 183.083 0.423185 1.90967 0
M  V30 1889 C 183.463 -1.09605 1.80416 0
M  V30 1890 O 182.811 -1.93126 1.22125 0
M  V30 1891 C 183.021 0.921056 3.36627 0
M  V30 1892 C 184.369 0.955903 4.137 0
M  V30 1893 O 185.393 0.867706 3.4547 0
M  V30 1894 O 184.252 1.08614 5.35598 0
M  V30 1895 H 181.346 0.129369 0.816819 0
M  V30 1896 H 183.892 0.973653 1.3899 0
M  V30 1897 H 182.664 1.96489 3.3839 0
M  V30 1898 H 182.287 0.349741 3.96059 0
M  V30 1899 N 183.284 -1.43765 0.645699 0
M  V30 1900 C 184.7 -1.56509 0.312591 0
M  V30 1901 C 184.9 -1.6307 -1.18365 0
M  V30 1902 O 183.956 -1.58167 -1.96824 0
M  V30 1903 C 185.269 -2.82968 1.01733 0
M  V30 1904 C 186.817 -2.96701 0.996865 0
M  V30 1905 C 187.292 -4.25982 1.68236 0
M  V30 1906 N 188.783 -4.32829 1.64964 0
M  V30 1907 C 189.518 -5.31613 2.14885 0
M  V30 1908 N 189.014 -6.36718 2.73061 0
M  V30 1909 N 190.807 -5.23217 2.05428 0
M  V30 1910 H 182.958 -1.3775 1.61675 0
M  V30 1911 H 185.221 -0.661067 0.679481 0
M  V30 1912 H 184.927 -2.84156 2.0724 0
M  V30 1913 H 184.801 -3.72957 0.564177 0
M  V30 1914 H 187.188 -2.95058 -0.0497719 0
M  V30 1915 H 187.269 -2.08022 1.48865 0
M  V30 1916 H 186.913 -4.28386 2.72852 0
M  V30 1917 H 186.843 -5.13545 1.16529 0
M  V30 1918 H 189.334 -3.57493 1.22503 0
M  V30 1919 H 189.647 -7.08401 3.08848 0
M  V30 1920 H 187.992 -6.37362 2.77118 0
M  V30 1921 H 191.183 -4.40019 1.59689 0
M  V30 1922 H 191.356 -6.00045 2.44643 0
M  V30 1923 N 184.763 -0.387143 -1.52771 0
M  V30 1924 C 185.693 0.440551 -2.29306 0
M  V30 1925 C 186.674 1.06535 -1.32606 0
M  V30 1926 O 187.859 1.07853 -1.61497 0
M  V30 1927 C 184.989 1.56919 -3.09829 0
M  V30 1928 C 183.943 1.07054 -4.14395 0
M  V30 1929 C 183.269 2.29109 -4.83129 0
M  V30 1930 C 184.569 0.140015 -5.22112 0
M  V30 1931 H 186.263 -0.198026 -2.98744 0
M  V30 1932 H 183.809 -0.09668 -1.43675 0
M  V30 1933 H 185.762 2.15503 -3.62128 0
M  V30 1934 H 184.486 2.23532 -2.3812 0
M  V30 1935 H 183.145 0.507247 -3.63074 0
M  V30 1936 H 182.793 2.94227 -4.0797 0
M  V30 1937 H 182.493 1.96406 -5.53804 0
M  V30 1938 H 184.017 2.88339 -5.38231 0
M  V30 1939 H 185.431 0.633978 -5.69784 0
M  V30 1940 H 183.828 -0.0971485 -6.00021 0
M  V30 1941 H 184.898 -0.811711 -4.78058 0
M  V30 1942 N 186.241 1.57166 -0.116904 0
M  V30 1943 C 187.204 2.14039 0.819742 0
M  V30 1944 C 188.204 1.07477 1.19605 0
M  V30 1945 O 189.394 1.33263 1.1219 0
M  V30 1946 C 186.526 2.67891 2.10826 0
M  V30 1947 H 187.719 2.98128 0.325511 0
M  V30 1948 H 185.272 1.55739 0.132312 0
M  V30 1949 H 186.007 1.87384 2.64685 0
M  V30 1950 H 185.792 3.45823 1.84793 0
M  V30 1951 H 187.282 3.11809 2.77785 0
M  V30 1952 N 187.719 -0.156864 1.56817 0
M  V30 1953 C 188.947 -0.886316 1.86955 0
M  V30 1954 C 189.362 -1.75185 0.703975 0
M  V30 1955 O 188.719 -1.79555 -0.326552 0
M  V30 1956 C 188.77 -1.75117 3.16253 0
M  V30 1957 O 188.491 -0.920537 4.2832 0
M  V30 1958 C 189.992 -2.58905 3.59837 0
M  V30 1959 H 187.212 -0.25678 0.619923 0
M  V30 1960 H 189.756 -0.152615 2.0393 0
M  V30 1961 H 187.911 -2.43805 3.01062 0
M  V30 1962 H 188.325 -1.51337 5.02192 0
M  V30 1963 H 189.799 -3.1518 4.53172 0
M  V30 1964 H 190.276 -3.34472 2.84649 0
M  V30 1965 H 190.882 -1.95526 3.7769 0
M  V30 1966 N 189.197 -1.51736 -0.425897 0
M  V30 1967 C 190.127 -1.76827 -1.52494 0
M  V30 1968 C 191.108 -0.618524 -1.58456 0
M  V30 1969 O 192.293 -0.862416 -1.74 0
M  V30 1970 C 189.423 -1.90374 -2.90474 0
M  V30 1971 C 188.377 -3.0588 -2.99369 0
M  V30 1972 C 187.703 -3.04625 -4.3944 0
M  V30 1973 C 189.003 -4.45644 -2.72394 0
M  V30 1974 H 190.697 -2.68855 -1.31748 0
M  V30 1975 H 188.243 -1.29372 -0.632362 0
M  V30 1976 H 190.196 -2.0651 -3.6733 0
M  V30 1977 H 188.92 -0.95004 -3.12477 0
M  V30 1978 H 187.579 -2.89467 -2.24954 0
M  V30 1979 H 187.227 -2.0701 -4.58428 0
M  V30 1980 H 186.927 -3.82195 -4.46319 0
M  V30 1981 H 188.451 -3.22869 -5.18255 0
M  V30 1982 H 189.865 -4.62348 -3.38979 0
M  V30 1983 H 188.262 -5.25006 -2.9067 0
M  V30 1984 H 189.332 -4.54893 -1.67929 0
M  V30 1985 N 190.675 0.682077 -1.42076 0
M  V30 1986 C 192.086 1.26246 -1.37546 0
M  V30 1987 C 192.437 1.96092 -0.0651481 0
M  V30 1988 O 191.562 1.99587 0.836297 0
M  V30 1989 C 192.157 2.29594 -2.49143 0
M  V30 1990 C 190.716 2.83175 -2.47969 0
M  V30 1991 C 189.863 1.57395 -2.28303 0
M  V30 1992 H 192.814 0.475937 -1.51395 0
M  V30 1993 H 192.835 3.11175 -2.18976 0
M  V30 1994 H 192.347 1.78729 -3.44496 0
M  V30 1995 H 190.448 3.3818 -1.56413 0
M  V30 1996 H 190.561 3.32687 -3.44755 0
M  V30 1997 H 188.925 1.83699 -1.76428 0
M  V30 1998 H 189.708 1.08507 -3.25701 0
M  V30 1999 N 192.153 1.28127 0.917671 0
M  V30 2000 C 193.381 1.17892 1.70026 0
M  V30 2001 C 193.796 -0.262958 1.8696 0
M  V30 2002 O 193.153 -1.17811 1.3938 0
M  V30 2003 C 193.204 1.86872 3.09453 0
M  V30 2004 O 192.925 3.25428 2.93306 0
M  V30 2005 C 194.426 1.8289 4.03815 0
M  V30 2006 H 191.646 0.40942 0.531617 0
M  V30 2007 H 194.19 1.69181 1.14883 0
M  V30 2008 H 192.345 1.39464 3.61426 0
M  V30 2009 H 192.759 3.59918 3.81523 0
M  V30 2010 H 194.233 2.35751 4.99125 0
M  V30 2011 H 194.71 0.800412 4.31845 0
M  V30 2012 H 195.316 2.29959 3.57769 0
M  V30 2013 N 193.631 -1.12557 1.10312 0
M  V30 2014 C 194.861 -1.87592 0.865617 0
M  V30 2015 C 195.269 -1.79851 -0.587389 0
M  V30 2016 O 194.612 -1.16949 -1.41664 0
M  V30 2017 C 194.674 -3.37665 1.23381 0
M  V30 2018 C 194.338 -3.69181 2.69359 0
M  V30 2019 C 195.335 -3.67652 3.67597 0
M  V30 2020 C 193.02 -3.98555 3.05711 0
M  V30 2021 C 195.014 -3.95053 5.00212 0
M  V30 2022 C 192.701 -4.25616 4.38514 0
M  V30 2023 C 193.699 -4.23851 5.35574 0
M  V30 2024 O 193.387 -4.50242 6.65986 0
M  V30 2025 H 193.119 -0.600442 0.310557 0
M  V30 2026 H 195.673 -1.4335 1.47105 0
M  V30 2027 H 193.903 -3.82454 0.571467 0
M  V30 2028 H 195.592 -3.94041 0.973994 0
M  V30 2029 H 196.358 -3.45024 3.40857 0
M  V30 2030 H 192.237 -3.99071 2.30789 0
M  V30 2031 H 195.781 -3.93591 5.75962 0
M  V30 2032 H 191.678 -4.47718 4.64994 0
M  V30 2033 H 192.446 -4.67867 6.71597 0
M  V30 2034 N 195.109 -0.891671 -1.2995 0
M  V30 2035 C 196.019 -0.367691 -2.31701 0
M  V30 2036 C 197.035 0.533486 -1.6562 0
M  V30 2037 O 198.211 0.424997 -1.96865 0
M  V30 2038 C 195.276 0.403406 -3.44345 0
M  V30 2039 C 194.337 -0.528328 -4.26037 0
M  V30 2040 C 193.57 0.206063 -5.33302 0
M  V30 2041 O 193.793 1.43119 -5.52153 0
M  V30 2042 O 192.727 -0.447281 -6.00236 0
M  V30 2043 H 196.553 -1.21163 -2.78484 0
M  V30 2044 H 194.138 -0.655725 -1.34241 0
M  V30 2045 H 196.02 0.839753 -4.12948 0
M  V30 2046 H 194.695 1.22354 -2.99685 0
M  V30 2047 H 193.602 -1.01362 -3.60106 0
M  V30 2048 H 194.935 -1.31465 -4.74318 0
M  V30 2049 N 196.587 1.43421 -0.653314 0
M  V30 2050 C 197.497 2.34568 0.0388565 0
M  V30 2051 C 198.513 1.53888 0.81207 0
M  V30 2052 O 199.689 1.86539 0.759294 0
M  V30 2053 C 196.754 3.32167 0.993269 0
M  V30 2054 C 195.815 4.28751 0.216977 0
M  V30 2055 C 195.048 5.21688 1.12593 0
M  V30 2056 O 195.271 5.19052 2.36519 0
M  V30 2057 O 194.205 5.98919 0.598284 0
M  V30 2058 H 198.031 2.95251 -0.711386 0
M  V30 2059 H 195.616 1.43564 -0.413502 0
M  V30 2060 H 197.498 3.92183 1.54176 0
M  V30 2061 H 196.173 2.73987 1.72374 0
M  V30 2062 H 195.08 3.72215 -0.375101 0
M  V30 2063 H 196.413 4.89913 -0.473924 0
M  V30 2064 N 198.065 0.39524 1.52563 0
M  V30 2065 C 199.028 -0.425001 2.25225 0
M  V30 2066 C 200.028 -0.985266 1.27079 0
M  V30 2067 O 201.218 -0.866332 1.5113 0
M  V30 2068 C 198.35 -1.59686 3.01186 0
M  V30 2069 H 199.543 0.211233 2.99155 0
M  V30 2070 H 197.096 0.147472 1.55603 0
M  V30 2071 H 197.831 -2.27035 2.31572 0
M  V30 2072 H 197.616 -1.20176 3.73229 0
M  V30 2073 H 199.106 -2.17743 3.5634 0
M  V30 2074 N 199.544 -1.57102 0.125237 0
M  V30 2075 C 200.793 -1.94582 -0.531095 0
M  V30 2076 C 201.106 -1.01126 -1.6743 0
M  V30 2077 O 202.312 -1.28097 -2.39381 0
M  V30 2078 C 200.768 -3.45839 -0.996164 0
M  V30 2079 C 200.376 -4.47842 0.118926 0
M  V30 2080 C 202.12 -3.92227 -1.62352 0
M  V30 2081 C 200.027 -5.90284 -0.363192 0
M  V30 2082 H 198.957 -0.726391 -0.20217 0
M  V30 2083 H 201.608 -1.82339 0.206092 0
M  V30 2084 H 199.99 -3.53338 -1.78796 0
M  V30 2085 H 201.164 -4.52018 0.895358 0
M  V30 2086 H 199.479 -4.11243 0.653324 0
M  V30 2087 H 202.076 -4.96069 -1.99548 0
M  V30 2088 H 202.419 -3.32552 -2.50429 0
M  V30 2089 H 202.952 -3.87554 -0.897019 0
M  V30 2090 H 199.691 -6.53728 0.481679 0
M  V30 2091 H 199.211 -5.89515 -1.10597 0
M  V30 2092 H 200.89 -6.41752 -0.822377 0
M  V30 2093 N 201.022 0.148545 -1.56898 0
M  V30 2094 C 201.985 1.16736 -1.97244 0
M  V30 2095 C 202.985 1.35947 -0.858777 0
M  V30 2096 O 204.175 1.32966 -1.12542 0
M  V30 2097 C 201.307 2.52798 -2.28705 0
M  V30 2098 H 202.5 0.821279 -2.88435 0
M  V30 2099 H 200.053 0.391831 -1.51309 0
M  V30 2100 H 200.788 2.92381 -1.403 0
M  V30 2101 H 200.573 2.40216 -3.09901 0
M  V30 2102 H 202.063 3.26179 -2.60762 0
M  V30 2103 N 202.5 1.5196 0.417844 0
M  V30 2104 C 203.916 1.40569 0.755816 0
M  V30 2105 C 204.116 0.503316 1.95113 0
M  V30 2106 O 203.172 -0.0341925 2.52477 0
M  V30 2107 C 204.485 2.82947 1.01791 0
M  V30 2108 C 206.033 2.92231 1.12116 0
M  V30 2109 C 206.508 4.35559 1.41608 0
M  V30 2110 N 207.999 4.38753 1.48491 0
M  V30 2111 C 208.734 5.46705 1.7292 0
M  V30 2112 N 208.23 6.64788 1.95011 0
M  V30 2113 N 210.023 5.34209 1.74863 0
M  V30 2114 H 202.174 2.09168 -0.369098 0
M  V30 2115 H 204.437 0.942409 -0.102809 0
M  V30 2116 H 204.143 3.5106 0.212081 0
M  V30 2117 H 204.017 3.23462 1.94042 0
M  V30 2118 H 206.404 2.24304 1.9176 0
M  V30 2119 H 206.485 2.55185 0.177225 0
M  V30 2120 H 206.129 5.04042 0.624848 0
M  V30 2121 H 206.059 4.70133 2.37239 0
M  V30 2122 H 208.55 3.5363 1.33244 0
M  V30 2123 H 208.863 7.42845 2.13076 0
M  V30 2124 H 207.208 6.67869 1.92293 0
M  V30 2125 H 210.399 4.40937 1.57137 0
M  V30 2126 H 210.572 6.18415 1.93563 0
M  V30 2127 N 203.978 -0.674533 1.42435 0
M  V30 2128 C 204.908 -1.80009 1.48724 0
M  V30 2129 C 205.889 -1.6659 0.343793 0
M  V30 2130 O 207.074 -1.86007 0.558137 0
M  V30 2131 C 204.204 -3.18306 1.38919 0
M  V30 2132 C 203.158 -3.46461 2.51294 0
M  V30 2133 C 202.484 -4.84335 2.26547 0
M  V30 2134 C 203.784 -3.43328 3.93603 0
M  V30 2135 H 205.478 -1.75004 2.42928 0
M  V30 2136 H 203.024 -0.840533 1.16923 0
M  V30 2137 H 204.977 -3.9678 1.41927 0
M  V30 2138 H 203.701 -3.2399 0.412094 0
M  V30 2139 H 202.36 -2.70348 2.47604 0
M  V30 2140 H 202.008 -4.86669 1.2713 0
M  V30 2141 H 201.708 -5.04136 3.01861 0
M  V30 2142 H 203.232 -5.65094 2.31304 0
M  V30 2143 H 204.646 -4.11772 3.98894 0
M  V30 2144 H 203.043 -3.74664 4.68771 0
M  V30 2145 H 204.113 -2.41897 4.20255 0
M  V30 2146 N 205.456 -1.28612 -0.910864 0
M  V30 2147 C 206.389 -1.07109 -2.01502 0
M  V30 2148 C 207.367 0.013706 -1.62594 0
M  V30 2149 O 208.551 -0.134796 -1.88017 0
M  V30 2150 C 205.678 -0.628255 -3.32822 0
M  V30 2151 C 204.724 -1.71012 -3.90714 0
M  V30 2152 S 205.557 -3.30676 -4.21205 0
M  V30 2153 C 206.713 -2.88234 -5.55583 0
M  V30 2154 H 206.946 -2.00591 -2.19432 0
M  V30 2155 H 204.479 -1.12633 -1.05609 0
M  V30 2156 H 206.437 -0.37946 -4.08742 0
M  V30 2157 H 205.098 0.28678 -3.12788 0
M  V30 2158 H 204.291 -1.35195 -4.85529 0
M  V30 2159 H 203.893 -1.91186 -3.21441 0
M  V30 2160 H 206.185 -2.34584 -6.35591 0
M  V30 2161 H 207.128 -3.81857 -5.96314 0
M  V30 2162 H 207.536 -2.26862 -5.16908 0
M  V30 2163 N 206.934 1.1197 -1.10907 0
M  V30 2164 C 207.897 2.16031 -0.765707 0
M  V30 2165 C 208.897 1.59393 0.212235 0
M  V30 2166 O 210.087 1.74196 -0.0115441 0
M  V30 2167 C 207.219 3.40632 -0.135053 0
M  V30 2168 H 208.412 2.47919 -1.68748 0
M  V30 2169 H 205.965 1.27061 -0.910226 0
M  V30 2170 H 206.7 3.14348 0.797218 0
M  V30 2171 H 206.485 3.8302 -0.838937 0
M  V30 2172 H 207.975 4.17505 0.0892469 0
M  V30 2173 N 208.412 0.89855 1.29475 0
M  V30 2174 C 209.64 0.539261 1.99749 0
M  V30 2175 C 210.055 -0.875716 1.67262 0
M  V30 2176 O 209.412 -1.57786 0.917049 0
M  V30 2177 C 209.463 0.72061 3.54245 0
M  V30 2178 O 209.184 2.07989 3.8558 0
M  V30 2179 C 210.685 0.366118 4.41786 0
M  V30 2180 H 207.905 0.207047 0.638258 0
M  V30 2181 H 210.449 1.20758 1.65039 0
M  V30 2182 H 208.604 0.0994862 3.87272 0
M  V30 2183 H 209.018 2.10841 4.80257 0
M  V30 2184 H 210.492 0.543848 5.49314 0
M  V30 2185 H 210.969 -0.696763 4.33638 0
M  V30 2186 H 211.575 0.964135 4.14228 0
M  V30 2187 N 209.89 -1.43072 0.660911 0
M  V30 2188 C 210.823 -2.28074 -0.0758862 0
M  V30 2189 C 211.801 -1.40271 -0.822362 0
M  V30 2190 O 212.985 -1.69713 -0.820352 0
M  V30 2191 C 210.112 -3.19843 -1.11437 0
M  V30 2192 C 209.158 -4.23957 -0.465069 0
M  V30 2193 S 209.991 -5.29978 0.767078 0
M  V30 2194 C 211.147 -6.25314 -0.270682 0
M  V30 2195 H 211.38 -2.90216 0.645139 0
M  V30 2196 H 208.913 -1.47697 0.449995 0
M  V30 2197 H 210.871 -3.73257 -1.70849 0
M  V30 2198 H 209.532 -2.56863 -1.80776 0
M  V30 2199 H 208.725 -4.88299 -1.24819 0
M  V30 2200 H 208.327 -3.73959 0.0551242 0
M  V30 2201 H 210.619 -6.67932 -1.13459 0
M  V30 2202 H 211.562 -7.07293 0.337916 0
M  V30 2203 H 211.97 -5.61195 -0.609937 0
M  V30 2204 N 211.368 -0.403325 -1.52352 0
M  V30 2205 C 212.315 0.425011 -2.26853 0
M  V30 2206 C 213.285 1.04598 -1.29029 0
M  V30 2207 O 214.47 1.07135 -1.57882 0
M  V30 2208 C 211.61 1.53888 -3.08889 0
M  V30 2209 C 210.723 0.939396 -4.21663 0
M  V30 2210 C 209.858 2.02547 -4.91068 0
M  V30 2211 C 208.897 1.40263 -5.95813 0
M  V30 2212 N 208.034 2.4286 -6.58759 0
M  V30 2213 H 212.874 -0.21674 -2.97211 0
M  V30 2214 H 210.411 -0.118722 -1.4662 0
M  V30 2215 H 212.369 2.19558 -3.54753 0
M  V30 2216 H 210.999 2.15074 -2.40714 0
M  V30 2217 H 210.051 0.171898 -3.80011 0
M  V30 2218 H 211.363 0.44436 -4.96817 0
M  V30 2219 H 210.517 2.75958 -5.40308 0
M  V30 2220 H 209.256 2.55415 -4.15469 0
M  V30 2221 H 208.261 0.653833 -5.45898 0
M  V30 2222 H 209.486 0.881719 -6.73352 0
M  V30 2223 H 207.432 2.94871 -5.85992 0
M  V30 2224 H 207.349 1.98152 -7.2957 0
M  V30 2225 H 208.617 3.15858 -7.12639 0
M  V30 2226 N 212.846 1.57033 -0.133567 0
M  V30 2227 C 213.756 2.19632 0.824564 0
M  V30 2228 C 214.772 1.17666 1.28182 0
M  V30 2229 O 215.948 1.50193 1.3418 0
M  V30 2230 C 213.013 2.79499 2.05137 0
M  V30 2231 C 212.074 3.96548 1.64464 0
M  V30 2232 C 211.307 4.5355 2.81297 0
M  V30 2233 O 211.53 4.09438 3.97136 0
M  V30 2234 O 210.464 5.44018 2.57542 0
M  V30 2235 H 214.29 3.01991 0.321766 0
M  V30 2236 H 211.875 1.49112 0.0927889 0
M  V30 2237 H 213.757 3.17602 2.7696 0
M  V30 2238 H 212.432 2.00162 2.54395 0
M  V30 2239 H 211.339 3.63186 0.897048 0
M  V30 2240 H 212.672 4.77364 1.19934 0
M  V30 2241 N 214.325 -0.140222 1.56975 0
M  V30 2242 C 215.288 -1.15689 1.97861 0
M  V30 2243 C 216.288 -1.3549 0.865974 0
M  V30 2244 O 217.478 -1.32367 1.13246 0
M  V30 2245 C 214.61 -2.51582 2.30042 0
M  V30 2246 H 215.803 -0.805971 2.88867 0
M  V30 2247 H 213.356 -0.383801 1.51515 0
M  V30 2248 H 214.091 -2.91632 1.41849 0
M  V30 2249 H 213.876 -2.38569 3.11171 0
M  V30 2250 H 215.366 -3.24792 2.62488 0
M  V30 2251 N 215.803 -1.52179 -0.40978 0
M  V30 2252 C 217.028 -1.70347 -1.18308 0
M  V30 2253 C 217.453 -0.411887 -1.83535 0
M  V30 2254 O 216.811 0.630587 -1.6998 0
M  V30 2255 C 216.859 -2.83977 -2.22238 0
M  V30 2256 O 215.963 -2.495 -3.28365 0
M  V30 2257 H 215.304 -0.567103 -0.345384 0
M  V30 2258 H 217.834 -1.98879 -0.480445 0
M  V30 2259 H 217.844 -3.0887 -2.66577 0
M  V30 2260 H 216.519 -3.77685 -1.74146 0
M  V30 2261 H 215.096 -2.35277 -2.89308 0
M  V30 2262 N 217.281 0.66697 -1.42791 0
M  V30 2263 C 218.244 1.76211 -1.46568 0
M  V30 2264 C 219.244 1.56896 -0.352196 0
M  V30 2265 O 220.434 1.63044 -0.613364 0
M  V30 2266 C 217.566 3.14935 -1.30494 0
M  V30 2267 H 218.759 1.74247 -2.44086 0
M  V30 2268 H 216.312 0.877342 -1.29354 0
M  V30 2269 H 217.047 3.2252 -0.339301 0
M  V30 2270 H 216.832 3.30359 -2.11199 0
M  V30 2271 H 218.322 3.94821 -1.36038 0
M  V30 2272 N 218.759 1.29093 0.90403 0
M  V30 2273 C 220.007 1.16583 1.65085 0
M  V30 2274 C 220.328 -0.283933 1.92922 0
M  V30 2275 O 219.598 -1.19509 1.55224 0
M  V30 2276 H 218.178 0.428467 0.611903 0
M  V30 2277 H 220.84 1.61959 1.08422 0
M  V30 2278 H 219.936 1.71266 2.6091 0
M  V30 2279 N 220.237 -1.11381 1.11499 0
M  V30 2280 C 221.184 -2.17439 0.773887 0
M  V30 2281 C 222.154 -1.64132 -0.254899 0
M  V30 2282 O 223.339 -1.90345 -0.13168 0
M  V30 2283 C 220.479 -3.44373 0.223917 0
M  V30 2284 C 219.592 -4.1168 1.30934 0
M  V30 2285 C 218.727 -5.263 0.71984 0
M  V30 2286 C 217.766 -5.85493 1.78507 0
M  V30 2287 N 216.903 -6.91507 1.21502 0
M  V30 2288 H 221.743 -2.45962 1.68246 0
M  V30 2289 H 219.28 -1.20744 0.840191 0
M  V30 2290 H 221.238 -4.17047 -0.112921 0
M  V30 2291 H 219.868 -3.16232 -0.647851 0
M  V30 2292 H 218.92 -3.37073 1.76312 0
M  V30 2293 H 220.232 -4.51729 2.11524 0
M  V30 2294 H 219.386 -6.05785 0.333094 0
M  V30 2295 H 218.125 -4.87559 -0.117377 0
M  V30 2296 H 217.13 -5.04686 2.18111 0
M  V30 2297 H 218.355 -6.26301 2.62533 0
M  V30 2298 H 216.301 -6.54783 0.399455 0
M  V30 2299 H 216.218 -7.30214 1.95763 0
M  V30 2300 H 217.486 -7.74795 0.855181 0
M  V30 2301 N 221.715 -0.905404 -1.28997 0
M  V30 2302 C 222.645 -0.404212 -2.29975 0
M  V30 2303 C 223.626 0.523784 -1.61835 0
M  V30 2304 O 224.811 0.433298 -1.89304 0
M  V30 2305 C 221.941 0.364042 -3.45387 0
M  V30 2306 C 220.895 -0.474048 -4.25367 0
M  V30 2307 C 220.221 0.422045 -5.33032 0
M  V30 2308 C 221.521 -1.72696 -4.92923 0
M  V30 2309 H 223.215 -1.24807 -2.72146 0
M  V30 2310 H 220.761 -0.601585 -1.30832 0
M  V30 2311 H 222.714 0.725447 -4.15109 0
M  V30 2312 H 221.438 1.24174 -3.02074 0
M  V30 2313 H 220.097 -0.81786 -3.57361 0
M  V30 2314 H 219.745 1.29804 -4.85963 0
M  V30 2315 H 219.445 -0.135057 -5.87445 0
M  V30 2316 H 220.969 0.779517 -6.05604 0
M  V30 2317 H 222.383 -1.43495 -5.55051 0
M  V30 2318 H 220.78 -2.22582 -5.57295 0
M  V30 2319 H 221.85 -2.45964 -4.17887 0
M  V30 2320 N 223.193 1.4272 -0.668489 0
M  V30 2321 C 224.439 2.01923 -0.188419 0
M  V30 2322 C 224.772 1.52704 1.19979 0
M  V30 2323 O 224.047 0.726566 1.8042 0
M  V30 2324 C 224.33 3.59451 -0.216085 0
M  V30 2325 C 224.183 4.18864 -1.6393 0
M  V30 2326 C 225.502 4.37903 0.439179 0
M  V30 2327 H 222.621 0.733674 -0.0699412 0
M  V30 2328 H 225.263 1.69822 -0.852076 0
M  V30 2329 H 223.413 3.86929 0.349012 0
M  V30 2330 H 225.085 4.02362 -2.25616 0
M  V30 2331 H 223.328 3.74933 -2.18193 0
M  V30 2332 H 223.999 5.27987 -1.61039 0
M  V30 2333 H 226.475 4.16079 -0.0417878 0
M  V30 2334 H 225.351 5.47519 0.389157 0
M  V30 2335 H 225.612 4.15303 1.51577 0
M  V30 2336 N 224.671 0.411399 1.52136 0
M  V30 2337 C 226.087 0.0623865 1.59478 0
M  V30 2338 C 226.287 -1.42554 1.4241 0
M  V30 2339 O 225.343 -2.19263 1.2522 0
M  V30 2340 C 226.656 0.559331 2.95452 0
M  V30 2341 C 228.204 0.517503 3.08692 0
M  V30 2342 C 228.679 0.990994 4.4715 0
M  V30 2343 N 230.17 0.947908 4.53397 0
M  V30 2344 C 230.905 1.28544 5.58806 0
M  V30 2345 N 230.401 1.69454 6.71757 0
M  V30 2346 N 232.194 1.20526 5.49026 0
M  V30 2347 H 224.345 1.37982 1.61477 0
M  V30 2348 H 226.608 0.566977 0.759764 0
M  V30 2349 H 226.314 1.59938 3.1323 0
M  V30 2350 H 226.188 -0.0298014 3.77188 0
M  V30 2351 H 228.575 -0.513505 2.90598 0
M  V30 2352 H 228.656 1.14272 2.28857 0
M  V30 2353 H 228.3 2.02034 4.65988 0
M  V30 2354 H 228.23 0.34257 5.25485 0
M  V30 2355 H 230.721 0.647157 3.72317 0
M  V30 2356 H 231.034 1.93513 7.48179 0
M  V30 2357 H 229.379 1.73359 6.73032 0
M  V30 2358 H 232.57 0.884505 4.59667 0
M  V30 2359 H 232.743 1.47161 6.31069 0
M  V30 2360 N 226.149 -1.5696 0.141893 0
M  V30 2361 C 227.377 -2.00322 -0.517579 0
M  V30 2362 C 227.792 -1.02193 -1.58752 0
M  V30 2363 O 227.149 -0.0181619 -1.82491 0
M  V30 2364 C 227.2 -3.43618 -1.12289 0
M  V30 2365 O 226.921 -4.37995 -0.0956929 0
M  V30 2366 C 228.422 -4.02231 -1.86347 0
M  V30 2367 H 225.642 -0.657243 -0.135177 0
M  V30 2368 H 228.186 -2.03146 0.234973 0
M  V30 2369 H 226.341 -3.41662 -1.82609 0
M  V30 2370 H 226.755 -5.21729 -0.538469 0
M  V30 2371 H 228.229 -5.04509 -2.23997 0
M  V30 2372 H 228.706 -3.42655 -2.74744 0
M  V30 2373 H 229.312 -4.07802 -1.20737 0
M  V30 2374 N 227.627 0.131896 -1.57047 0
M  V30 2375 C 228.557 1.16384 -2.02428 0
M  V30 2376 C 229.538 1.43936 -0.90644 0
M  V30 2377 O 230.723 1.54599 -1.17528 0
M  V30 2378 C 227.853 2.49328 -2.4177 0
M  V30 2379 C 226.807 2.36266 -3.56879 0
M  V30 2380 C 226.133 3.74057 -3.8208 0
M  V30 2381 C 227.433 1.834 -4.89042 0
M  V30 2382 H 229.127 0.786433 -2.88887 0
M  V30 2383 H 226.673 0.376855 -1.38981 0
M  V30 2384 H 228.626 3.21759 -2.7212 0
M  V30 2385 H 227.35 2.88934 -1.52266 0
M  V30 2386 H 226.009 1.66286 -3.26718 0
M  V30 2387 H 225.657 4.11125 -2.89803 0
M  V30 2388 H 225.357 3.66174 -4.59554 0
M  V30 2389 H 226.881 4.48012 -4.1487 0
M  V30 2390 H 228.295 2.45636 -5.18011 0
M  V30 2391 H 226.692 1.8637 -5.70426 0
M  V30 2392 H 227.762 0.790662 -4.7841 0
M  V30 2393 N 229.106 1.52395 0.401703 0
M  V30 2394 C 230.069 1.75636 1.47257 0
M  V30 2395 C 231.069 0.62628 1.48103 0
M  V30 2396 O 232.259 0.894227 1.49497 0
M  V30 2397 C 229.391 1.84553 2.86624 0
M  V30 2398 H 230.584 2.71241 1.27938 0
M  V30 2399 H 228.137 1.42923 0.632662 0
M  V30 2400 H 228.872 0.908882 3.11303 0
M  V30 2401 H 228.657 2.66715 2.87412 0
M  V30 2402 H 230.147 2.04251 3.64241 0
M  V30 2403 N 230.584 -0.659388 1.43143 0
M  V30 2404 C 231.547 -1.75432 1.47501 0
M  V30 2405 C 232.547 -1.56707 0.360512 0
M  V30 2406 O 233.737 -1.62717 0.622002 0
M  V30 2407 C 230.869 -3.14239 1.32162 0
M  V30 2408 H 232.062 -1.7295 2.45006 0
M  V30 2409 H 229.615 -0.870469 1.29817 0
M  V30 2410 H 230.35 -3.22336 0.356401 0
M  V30 2411 H 230.135 -3.29235 2.12948 0
M  V30 2412 H 231.625 -3.94094 1.3813 0
M  V30 2413 N 232.062 -1.29571 -0.897171 0
M  V30 2414 C 233.308 -1.17863 -1.65034 0
M  V30 2415 C 233.641 0.268729 -1.92332 0
M  V30 2416 O 232.916 1.19378 -1.53555 0
M  V30 2417 C 233.199 -1.995 -2.99786 0
M  V30 2418 C 233.052 -3.5239 -2.79538 0
M  V30 2419 C 234.371 -1.82335 -4.00552 0
M  V30 2420 H 231.49 -0.429528 -0.598895 0
M  V30 2421 H 234.132 -1.59072 -1.03905 0
M  V30 2422 H 232.282 -1.64485 -3.51962 0
M  V30 2423 H 233.954 -3.97401 -2.34244 0
M  V30 2424 H 232.197 -3.77187 -2.14273 0
M  V30 2425 H 232.868 -4.04787 -3.75302 0
M  V30 2426 H 235.344 -2.12924 -3.57495 0
M  V30 2427 H 234.22 -2.41801 -4.92771 0
M  V30 2428 H 234.481 -0.779209 -4.35179 0
M  V30 2429 N 233.54 1.10788 -1.12088 0
M  V30 2430 C 234.956 1.34691 -0.856186 0
M  V30 2431 C 235.156 1.94791 0.515615 0
M  V30 2432 O 234.212 2.18524 1.26505 0
M  V30 2433 C 235.525 2.27208 -1.9697 0
M  V30 2434 C 237.073 2.40755 -2.00016 0
M  V30 2435 C 237.548 3.36598 -3.1059 0
M  V30 2436 N 239.039 3.44164 -3.10008 0
M  V30 2437 C 239.774 4.18284 -3.92206 0
M  V30 2438 N 239.27 4.95322 -4.84384 0
M  V30 2439 N 241.063 4.13865 -3.80357 0
M  V30 2440 H 233.214 0.70144 -2.00483 0
M  V30 2441 H 235.477 0.371405 -0.872217 0
M  V30 2442 H 235.183 1.90251 -2.958 0
M  V30 2443 H 235.057 3.27485 -1.87172 0
M  V30 2444 H 237.444 2.76982 -1.01808 0
M  V30 2445 H 237.525 1.40305 -2.13888 0
M  V30 2446 H 237.169 3.01096 -4.09028 0
M  V30 2447 H 237.099 4.36918 -2.93956 0
M  V30 2448 H 239.59 2.8922 -2.43228 0
M  V30 2449 H 239.903 5.49267 -5.43623 0
M  V30 2450 H 238.248 4.94459 -4.884 0
M  V30 2451 H 241.439 3.52773 -3.07683 0
M  V30 2452 H 241.612 4.71372 -4.44649 0
M  V30 2453 N 235.018 0.912232 1.28515 0
M  V30 2454 C 236.295 0.463597 1.90027 0
M  V30 2455 C 236.675 -1.05753 1.82701 0
M  V30 2456 O 236.023 -1.90492 1.26194 0
M  V30 2457 C 236.233 0.992253 3.34597 0
M  V30 2458 C 237.581 1.04344 4.11579 0
M  V30 2459 O 238.605 0.94079 3.43551 0
M  V30 2460 O 237.464 1.1995 5.33174 0
M  V30 2461 H 234.558 0.146666 0.813891 0
M  V30 2462 H 237.104 1.00292 1.36893 0
M  V30 2463 H 235.876 2.03623 3.34146 0
M  V30 2464 H 235.499 0.433672 3.95228 0
M  V30 2465 N 236.496 -1.42363 0.676048 0
M  V30 2466 C 237.459 -2.29199 0.00766941 0
M  V30 2467 C 238.459 -1.43389 -0.727745 0
M  V30 2468 O 239.649 -1.64764 -0.56556 0
M  V30 2469 C 236.781 -3.2591 -0.999785 0
M  V30 2470 H 237.974 -2.89794 0.771988 0
M  V30 2471 H 235.527 -1.50024 0.438468 0
M  V30 2472 H 236.262 -2.70256 -1.79255 0
M  V30 2473 H 236.047 -3.89202 -0.475829 0
M  V30 2474 H 237.537 -3.91028 -1.46583 0
M  V30 2475 N 237.974 -0.419461 -1.51915 0
M  V30 2476 C 238.921 0.400927 -2.27291 0
M  V30 2477 C 239.891 1.03224 -1.30131 0
M  V30 2478 O 241.076 1.05455 -1.59009 0
M  V30 2479 C 238.216 1.50603 -3.10504 0
M  V30 2480 C 237.329 0.89462 -4.22635 0
M  V30 2481 C 236.464 1.97328 -4.93189 0
M  V30 2482 C 235.503 1.33935 -5.97267 0
M  V30 2483 N 234.64 2.3586 -6.61298 0
M  V30 2484 H 239.48 -0.248251 -2.96964 0
M  V30 2485 H 237.017 -0.134266 -1.46486 0
M  V30 2486 H 238.975 2.15783 -3.57062 0
M  V30 2487 H 237.605 2.12509 -2.42981 0
M  V30 2488 H 236.657 0.131583 -3.80172 0
M  V30 2489 H 237.969 0.391641 -4.9726 0
M  V30 2490 H 237.123 2.70211 -5.43204 0
M  V30 2491 H 235.862 2.50994 -4.18155 0
M  V30 2492 H 234.867 0.595896 -5.46561 0
M  V30 2493 H 236.092 0.810252 -6.74249 0
M  V30 2494 H 234.038 2.88639 -5.89087 0
M  V30 2495 H 233.955 1.90403 -7.3163 0
M  V30 2496 H 235.223 3.08282 -7.15949 0
M  V30 2497 N 239.452 1.56882 -0.150215 0
M  V30 2498 C 240.362 2.20494 0.801222 0
M  V30 2499 C 241.378 1.19019 1.26927 0
M  V30 2500 O 242.554 1.51607 1.32579 0
M  V30 2501 C 239.619 2.81659 2.02161 0
M  V30 2502 C 238.68 3.9827 1.60249 0
M  V30 2503 C 237.913 4.56508 2.7647 0
M  V30 2504 O 238.136 4.13627 3.92771 0
M  V30 2505 O 237.07 5.46719 2.51757 0
M  V30 2506 H 240.896 3.02315 0.289717 0
M  V30 2507 H 238.481 1.49202 0.0769684 0
M  V30 2508 H 240.363 3.20522 2.73576 0
M  V30 2509 H 239.038 2.02849 2.52258 0
M  V30 2510 H 237.945 3.64117 0.858477 0
M  V30 2511 H 239.278 4.78609 1.14864 0
M  V30 2512 N 240.93 -0.123565 1.57115 0
M  V30 2513 C 241.893 -1.13583 1.99076 0
M  V30 2514 C 242.893 -1.34564 0.880296 0
M  V30 2515 O 244.083 -1.31158 1.14644 0
M  V30 2516 C 241.215 -2.49128 2.32698 0
M  V30 2517 H 242.408 -0.775287 2.89706 0
M  V30 2518 H 239.961 -0.36771 1.51913 0
M  V30 2519 H 240.696 -2.90111 1.44934 0
M  V30 2520 H 240.481 -2.35255 3.13684 0
M  V30 2521 H 241.971 -3.2199 2.65918 0
M  V30 2522 N 242.408 -1.52605 -0.393616 0
M  V30 2523 C 243.371 -1.76415 -1.46323 0
M  V30 2524 C 244.371 -0.634126 -1.47768 0
M  V30 2525 O 245.561 -0.902142 -1.4902 0
M  V30 2526 C 242.693 -1.8607 -2.85641 0
M  V30 2527 H 243.886 -2.71916 -1.26498 0
M  V30 2528 H 241.439 -1.43257 -0.625073 0
M  V30 2529 H 242.174 -0.925378 -3.10817 0
M  V30 2530 H 241.959 -2.68235 -2.85993 0
M  V30 2531 H 243.449 -2.06179 -3.63153 0
M  V30 2532 O 243.925 0.539544 -1.52221 0
M  V30 2533 H 244.616 1.19468 -1.5247 0
M  V30 END ATOM
M  V30 BEGIN BOND
M  V30 END BOND
M  V30 END CTAB
M  END
$$$$
