drugbank_target|P02144 Myoglobin (DB01710; DB01826; DB02073; DB02379; DB02396; DB02528; DB02646; DB02671; DB03366; DB03385; DB03399; DB04050; DB04337; DB09112; DB11588)
 OpenBabel12092120533D

  0  0  0     0  0            999 V3000
M  V30 BEGIN CTAB
M  V30 COUNTS 2435 2461 0 0 0
M  V30 BEGIN ATOM
M  V30 1 H -0.908 1.98254 -0.117106 0
M  V30 2 N 0 1.576 0 0
M  V30 3 C 0.933 2.03868 1.02534 0
M  V30 4 C 1.911 0.928543 1.3348 0
M  V30 5 O 3.095 1.19667 1.45644 0
M  V30 6 C 0.222 2.43627 2.35294 0
M  V30 7 C -0.732 3.65373 2.2001 0
M  V30 8 S 0.101 5.13292 1.52614 0
M  V30 9 C 1.257 5.56322 2.86805 0
M  V30 10 H 1.49 2.90518 0.631377 0
M  V30 11 H -0.977 1.52953 0.210867 0
M  V30 12 H 0.981 2.67203 3.11629 0
M  V30 13 H -0.358 1.57376 2.7183 0
M  V30 14 H -1.165 3.90944 3.18086 0
M  V30 15 H -1.563 3.418 1.51819 0
M  V30 16 H 0.729 5.58782 3.83104 0
M  V30 17 H 1.672 6.56266 2.65933 0
M  V30 18 H 2.08 4.83886 2.90714 0
M  V30 19 N 1.4781 -0.272755 1.55222 0
M  V30 20 C 2.7261 -1.00234 1.75492 0
M  V30 21 C 3.0471 -1.8681 0.5592 0
M  V30 22 O 2.3171 -1.91215 -0.425882 0
M  V30 23 H 0.8971 -0.373076 0.647166 0
M  V30 24 H 3.5591 -0.296926 1.92625 0
M  V30 25 H 2.6551 -1.63913 2.65592 0
M  V30 26 N 2.9562 -1.48159 -0.537278 0
M  V30 27 C 3.8862 -1.65029 -1.6519 0
M  V30 28 C 4.8672 -0.499281 -1.62607 0
M  V30 29 O 6.0522 -0.730972 -1.79918 0
M  V30 30 C 3.1822 -1.68303 -3.03795 0
M  V30 31 C 2.1362 -2.8283 -3.21234 0
M  V30 32 C 1.4622 -2.71189 -4.60826 0
M  V30 33 C 2.7622 -4.24211 -3.04701 0
M  V30 34 H 4.4562 -2.58341 -1.51328 0
M  V30 35 H 2.0022 -1.24325 -0.726585 0
M  V30 36 H 3.9552 -1.78693 -3.81637 0
M  V30 37 H 2.6792 -0.715635 -3.18663 0
M  V30 38 H 1.3382 -2.71983 -2.45807 0
M  V30 39 H 0.9862 -1.72435 -4.7252 0
M  V30 40 H 0.6862 -3.48035 -4.7344 0
M  V30 41 H 2.2102 -2.83537 -5.40777 0
M  V30 42 H 3.6242 -4.3593 -3.72341 0
M  V30 43 H 2.0212 -5.01998 -3.28813 0
M  V30 44 H 3.0912 -4.41184 -2.01209 0
M  V30 45 N 4.4343 0.785586 -1.36625 0
M  V30 46 C 5.6593 1.57963 -1.34397 0
M  V30 47 C 6.0843 1.87964 0.071526 0
M  V30 48 O 5.4423 1.48182 1.0446 0
M  V30 49 C 5.4903 2.87511 -2.17646 0
M  V30 50 O 4.5943 3.81281 -1.57158 0
M  V30 51 H 3.9353 0.479014 -0.459828 0
M  V30 52 H 6.4653 0.973411 -1.79961 0
M  V30 53 H 6.4753 3.36745 -2.30362 0
M  V30 54 H 5.1503 2.65002 -3.20541 0
M  V30 55 H 3.7273 3.39885 -1.53403 0
M  V30 56 N 5.9124 1.20967 1.01018 0
M  V30 57 C 7.1894 0.93264 1.71934 0
M  V30 58 C 7.5694 -0.55692 2.03621 0
M  V30 59 O 6.9174 -1.52035 1.7058 0
M  V30 60 C 7.1274 1.81233 2.98254 0
M  V30 61 C 8.4754 2.05804 3.71389 0
M  V30 62 O 9.4994 1.78539 3.08225 0
M  V30 63 O 8.3584 2.51888 4.84989 0
M  V30 64 H 5.4524 0.349272 0.749625 0
M  V30 65 H 7.9984 1.31871 1.06808 0
M  V30 66 H 6.7704 2.82067 2.71208 0
M  V30 67 H 6.3934 1.42674 3.7112 0
M  V30 68 N 7.3905 -1.2043 1.01659 0
M  V30 69 C 8.6385 -1.89423 0.704522 0
M  V30 70 C 8.9595 -1.79231 -0.768197 0
M  V30 71 O 8.2295 -1.1947 -1.55254 0
M  V30 72 H 6.8095 -0.701178 0.257602 0
M  V30 73 H 9.4715 -1.4626 1.28818 0
M  V30 74 H 8.5675 -2.96052 0.987916 0
M  V30 75 N 8.8686 -0.792821 -1.36206 0
M  V30 76 C 9.7786 -0.194808 -2.3379 0
M  V30 77 C 10.7946 0.654869 -1.61206 0
M  V30 78 O 11.9706 0.569856 -1.9317 0
M  V30 79 C 9.0356 0.657721 -3.40404 0
M  V30 80 C 8.0966 -0.210849 -4.28782 0
M  V30 81 C 7.3296 0.601086 -5.30304 0
M  V30 82 O 7.5526 1.83682 -5.40016 0
M  V30 83 O 6.4866 -0.000808277 -6.019 0
M  V30 84 H 10.3126 -1.00172 -2.86704 0
M  V30 85 H 7.8976 -0.554341 -1.38735 0
M  V30 86 H 9.7796 1.14375 -4.05581 0
M  V30 87 H 8.4546 1.44247 -2.89784 0
M  V30 88 H 7.3616 -0.743714 -3.66633 0
M  V30 89 H 8.6946 -0.959195 -4.82763 0
M  V30 90 N 10.3467 1.47872 -0.545128 0
M  V30 91 C 11.5927 2.03385 -0.0247951 0
M  V30 92 C 11.9477 1.41325 1.30556 0
M  V30 93 O 11.2407 0.5552 1.8338 0
M  V30 94 C 11.4347 3.57131 0.13867 0
M  V30 95 C 11.2637 4.34097 -1.17429 0
M  V30 96 C 10.0337 4.74458 -1.73831 0
M  V30 97 C 12.2317 4.6998 -2.08861 0
M  V30 98 N 10.2137 5.3602 -2.99258 0
M  V30 99 C 11.5847 5.31719 -3.18866 0
M  V30 100 C 13.6397 4.5191 -2.09003 0
M  V30 101 C 12.3427 5.77295 -4.29096 0
M  V30 102 C 14.3687 4.98477 -3.18237 0
M  V30 103 C 13.7307 5.60253 -4.26961 0
M  V30 104 H 9.8297 0.780339 -0.050943 0
M  V30 105 H 12.4137 1.80507 -0.729753 0
M  V30 106 H 10.5847 3.79802 0.812733 0
M  V30 107 H 12.3167 3.99282 0.659976 0
M  V30 108 H 9.0717 4.56037 -1.2778 0
M  V30 109 H 9.4957 5.71355 -3.63157 0
M  V30 110 H 14.1377 4.03516 -1.26234 0
M  V30 111 H 11.8557 6.24687 -5.12633 0
M  V30 112 H 15.4417 4.86274 -3.1942 0
M  V30 113 H 14.3217 5.95631 -5.10091 0
M  V30 114 N 11.8248 0.280983 1.55075 0
M  V30 115 C 12.7568 -0.637268 2.20163 0
M  V30 116 C 13.7698 -1.11298 1.18813 0
M  V30 117 O 14.9588 -1.03388 1.4551 0
M  V30 118 C 12.0588 -1.88199 2.81841 0
M  V30 119 C 11.2318 -1.55211 4.08936 0
M  V30 120 C 10.2908 -2.64991 4.54606 0
M  V30 121 O 9.3168 -2.30929 5.2025 0
M  V30 122 N 10.5188 -3.95161 4.25238 0
M  V30 123 H 13.2838 -0.0801694 2.99593 0
M  V30 124 H 10.8448 0.102329 1.61576 0
M  V30 125 H 12.8368 -2.60948 3.09335 0
M  V30 126 H 11.4068 -2.34799 2.06369 0
M  V30 127 H 10.6268 -0.658185 3.88666 0
M  V30 128 H 11.9148 -1.30681 4.91732 0
M  V30 129 H 11.3128 -4.25653 3.72607 0
M  V30 130 H 9.8698 -4.6427 4.5749 0
M  V30 131 N 13.3029 -1.57598 0.00835791 0
M  V30 132 C 14.2329 -2.1198 -0.979113 0
M  V30 133 C 15.2139 -1.03091 -1.35301 0
M  V30 134 O 16.3989 -1.30818 -1.43528 0
M  V30 135 C 13.5289 -2.62995 -2.26828 0
M  V30 136 C 12.4829 -3.76485 -2.03576 0
M  V30 137 C 11.8089 -4.13846 -3.38579 0
M  V30 138 C 13.1089 -5.0342 -1.39161 0
M  V30 139 H 14.8029 -2.94738 -0.526281 0
M  V30 140 H 12.3489 -1.41783 -0.251704 0
M  V30 141 H 14.3019 -2.99669 -2.96271 0
M  V30 142 H 13.0259 -1.7737 -2.7424 0
M  V30 143 H 11.6849 -3.40217 -1.36557 0
M  V30 144 H 11.3329 -3.25232 -3.83709 0
M  V30 145 H 11.0329 -4.90312 -3.23834 0
M  V30 146 H 12.5569 -4.53086 -4.09323 0
M  V30 147 H 13.9709 -5.37812 -1.98573 0
M  V30 148 H 12.3679 -5.84746 -1.34878 0
M  V30 149 H 13.4379 -4.83548 -0.361868 0
M  V30 150 N 14.781 0.264519 -1.55364 0
M  V30 151 C 16.027 0.99646 -1.76631 0
M  V30 152 C 16.36 1.85632 -0.570478 0
M  V30 153 O 15.635 1.89647 0.43175 0
M  V30 154 C 15.918 1.87187 -3.07625 0
M  V30 155 C 15.771 1.04138 -4.37579 0
M  V30 156 C 17.09 2.85749 -3.34717 0
M  V30 157 H 14.209 0.360841 -0.642622 0
M  V30 158 H 16.851 0.268218 -1.88097 0
M  V30 159 H 15.001 2.49279 -2.9798 0
M  V30 160 H 16.673 0.440517 -4.59192 0
M  V30 161 H 14.916 0.345115 -4.32425 0
M  V30 162 H 15.587 1.68729 -5.2558 0
M  V30 163 H 18.063 2.33793 -3.4421 0
M  V30 164 H 16.939 3.44136 -4.27623 0
M  V30 165 H 17.2 3.61311 -2.54768 0
M  V30 166 N 16.2591 1.48442 0.529413 0
M  V30 167 C 17.1891 1.65902 1.64313 0
M  V30 168 C 18.1701 0.507897 1.6234 0
M  V30 169 O 19.3551 0.740503 1.79528 0
M  V30 170 C 16.4851 1.69911 3.02898 0
M  V30 171 C 15.4391 2.8453 3.19729 0
M  V30 172 C 14.7651 2.73629 4.59381 0
M  V30 173 C 16.0651 4.25821 3.02447 0
M  V30 174 H 17.7591 2.5914 1.49955 0
M  V30 175 H 15.3051 1.24709 0.719982 0
M  V30 176 H 17.2581 1.80715 3.80684 0
M  V30 177 H 15.9821 0.732524 3.18279 0
M  V30 178 H 14.6411 2.73283 2.44361 0
M  V30 179 H 14.2891 1.74938 4.71599 0
M  V30 180 H 13.9891 3.50541 4.71588 0
M  V30 181 H 15.5131 2.86401 5.39265 0
M  V30 182 H 16.9271 4.37898 3.70024 0
M  V30 183 H 15.3241 5.03735 3.26146 0
M  V30 184 H 16.3941 4.42244 1.98867 0
M  V30 185 N 17.7372 -0.778329 1.37039 0
M  V30 186 C 18.6852 -1.91278 1.32345 0
M  V30 187 C 19.6792 -1.68051 0.213331 0
M  V30 188 O 20.8852 -1.75922 0.38098 0
M  V30 189 H 17.2602 -0.628909 0.412283 0
M  V30 190 H 19.2312 -1.92355 2.28127 0
M  V30 191 C 17.9802 -3.28455 1.14073 0
M  V30 192 H 17.3032 -3.46901 1.98746 0
M  V30 193 H 18.7432 -4.08152 1.14837 0
M  V30 194 C 17.2022 -3.36548 -0.154015 0
M  V30 195 O 17.7322 -3.85186 -1.13993 0
M  V30 196 N 15.9382 -2.89894 -0.202475 0
M  V30 197 H 15.4852 -2.50504 0.600476 0
M  V30 198 H 15.4432 -2.9569 -1.06841 0
M  V30 199 N 19.2153 -1.21501 -1.00376 0
M  V30 200 C 20.4613 -1.03452 -1.74429 0
M  V30 201 C 20.7943 0.430764 -1.89362 0
M  V30 202 O 20.0693 1.31962 -1.42886 0
M  V30 203 C 20.3523 -1.73375 -3.15615 0
M  V30 204 C 20.2053 -3.27431 -3.08397 0
M  V30 205 C 21.5243 -1.47732 -4.14564 0
M  V30 206 H 18.6433 -0.377226 -0.633143 0
M  V30 207 H 21.2853 -1.49693 -1.17013 0
M  V30 208 H 19.4353 -1.34064 -3.64636 0
M  V30 209 H 21.1073 -3.76119 -2.67081 0
M  V30 210 H 19.3503 -3.5767 -2.45468 0
M  V30 211 H 20.0213 -3.71524 -4.08258 0
M  V30 212 H 22.4973 -1.8186 -3.74254 0
M  V30 213 H 21.3733 -1.99169 -5.11491 0
M  V30 214 H 21.6343 -0.407589 -4.40217 0
M  V30 215 N 20.6934 1.19889 -1.02296 0
M  V30 216 C 21.9394 1.89973 -0.726759 0
M  V30 217 C 22.2944 1.7776 0.73614 0
M  V30 218 O 21.5874 1.15523 1.52856 0
M  V30 219 C 21.7814 3.39883 -1.10518 0
M  V30 220 C 21.6104 3.66684 -2.60332 0
M  V30 221 C 20.3804 3.85045 -3.27213 0
M  V30 222 C 22.5784 3.68727 -3.58532 0
M  V30 223 N 20.5604 3.99422 -4.66192 0
M  V30 224 C 21.9314 3.88604 -4.83101 0
M  V30 225 C 23.9864 3.51722 -3.52414 0
M  V30 226 C 22.6894 3.9324 -6.02292 0
M  V30 227 C 24.7154 3.57632 -4.71013 0
M  V30 228 C 24.0774 3.77988 -5.94394 0
M  V30 229 H 20.1764 0.714551 -0.317712 0
M  V30 230 H 22.7604 1.44123 -1.30907 0
M  V30 231 H 20.9314 3.8447 -0.551142 0
M  V30 232 H 22.6634 3.97464 -0.761853 0
M  V30 233 H 19.4184 3.83689 -2.77632 0
M  V30 234 H 19.8424 4.10473 -5.38368 0
M  V30 235 H 24.4844 3.34945 -2.58015 0
M  V30 236 H 22.2024 4.08811 -6.97065 0
M  V30 237 H 25.7884 3.45773 -4.67902 0
M  V30 238 H 24.6684 3.82428 -6.8463 0
M  V30 239 N 22.1715 0.800033 1.35784 0
M  V30 240 C 23.4195 0.376597 1.9856 0
M  V30 241 C 23.7405 -1.05812 1.63795 0
M  V30 242 O 23.0105 -1.73103 0.917171 0
M  V30 243 H 21.5905 0.136261 0.734467 0
M  V30 244 H 24.2525 1.02442 1.65806 0
M  V30 245 H 23.3485 0.477002 3.08433 0
M  V30 246 N 23.6496 -1.47581 0.552962 0
M  V30 247 C 24.5966 -2.29957 -0.197108 0
M  V30 248 C 25.5666 -1.38799 -0.912359 0
M  V30 249 O 26.7516 -1.67761 -0.908888 0
M  V30 250 C 23.8916 -3.22672 -1.22379 0
M  V30 251 C 23.0046 -4.28919 -0.515038 0
M  V30 252 C 22.1396 -5.0879 -1.52664 0
M  V30 253 C 21.1786 -6.06815 -0.802631 0
M  V30 254 N 20.3156 -6.7966 -1.76086 0
M  V30 255 H 25.1556 -2.93578 0.511486 0
M  V30 256 H 22.6926 -1.4471 0.264067 0
M  V30 257 H 24.6506 -3.74845 -1.83159 0
M  V30 258 H 23.2806 -2.60925 -1.90047 0
M  V30 259 H 22.3326 -3.79835 0.207192 0
M  V30 260 H 23.6446 -4.98773 0.0523425 0
M  V30 261 H 22.7986 -5.65091 -2.20809 0
M  V30 262 H 21.5376 -4.38828 -2.12794 0
M  V30 263 H 20.5426 -5.49695 -0.107238 0
M  V30 264 H 21.7676 -6.78784 -0.207135 0
M  V30 265 H 19.7136 -6.12432 -2.35081 0
M  V30 266 H 19.6306 -7.45669 -1.24552 0
M  V30 267 H 20.8986 -7.40538 -2.43359 0
M  V30 268 N 25.1277 -0.289203 -1.54924 0
M  V30 269 C 26.3737 0.323998 -2.00195 0
M  V30 270 C 26.7067 1.54441 -1.17735 0
M  V30 271 O 25.9817 1.92875 -0.250878 0
M  V30 272 C 26.2647 0.692276 -3.53383 0
M  V30 273 C 26.1177 -0.536457 -4.46589 0
M  V30 274 C 27.4367 1.52335 -4.12895 0
M  V30 275 H 24.5557 0.116289 -0.727768 0
M  V30 276 H 27.1977 -0.398954 -1.85764 0
M  V30 277 H 25.3477 1.30822 -3.65811 0
M  V30 278 H 27.0197 -1.17499 -4.46085 0
M  V30 279 H 25.2627 -1.17192 -4.1767 0
M  V30 280 H 25.9337 -0.234806 -5.515 0
M  V30 281 H 28.4097 1.00302 -4.0383 0
M  V30 282 H 27.2857 1.74982 -5.20262 0
M  V30 283 H 27.5467 2.50886 -3.64018 0
M  V30 284 N 26.6058 1.57591 -0.0167156 0
M  V30 285 C 27.5158 2.1291 0.98521 0
M  V30 286 C 28.5318 1.07834 1.36557 0
M  V30 287 O 29.7078 1.39826 1.44951 0
M  V30 288 C 26.7728 2.63512 2.25305 0
M  V30 289 C 25.8338 3.83256 1.93426 0
M  V30 290 C 25.0668 4.31435 3.14165 0
M  V30 291 O 25.2898 3.78851 4.26413 0
M  V30 292 O 24.2238 5.23416 2.97186 0
M  V30 293 H 28.0498 2.98772 0.544888 0
M  V30 294 H 25.6348 1.48012 0.203141 0
M  V30 295 H 27.5168 2.96183 2.99756 0
M  V30 296 H 26.1918 1.8074 2.68542 0
M  V30 297 H 25.0988 3.55531 1.16398 0
M  V30 298 H 26.4318 4.67153 1.55013 0
M  V30 299 N 28.0839 -0.256276 1.55502 0
M  V30 300 C 29.0469 -1.30047 1.88734 0
M  V30 301 C 30.0469 -1.4154 0.763086 0
M  V30 302 O 31.2369 -1.40403 1.03115 0
M  V30 303 C 28.3689 -2.67953 2.10747 0
M  V30 304 H 29.5619 -1.01802 2.82093 0
M  V30 305 H 27.1149 -0.495134 1.4825 0
M  V30 306 H 27.8499 -3.01351 1.19825 0
M  V30 307 H 27.6349 -2.60993 2.92617 0
M  V30 308 H 29.1249 -3.43368 2.37673 0
M  V30 309 N 29.562 -1.4872 -0.521534 0
M  V30 310 C 30.839 -1.4766 -1.2828 0
M  V30 311 C 31.219 -0.19292 -2.10217 0
M  V30 312 O 30.567 0.825193 -2.13079 0
M  V30 313 C 30.777 -2.74358 -2.15705 0
M  V30 314 C 32.125 -3.23028 -2.75569 0
M  V30 315 O 33.149 -2.75333 -2.25987 0
M  V30 316 O 32.008 -4.0604 -3.65778 0
M  V30 317 H 29.102 -0.590085 -0.579421 0
M  V30 318 H 31.648 -1.60963 -0.537492 0
M  V30 319 H 30.42 -3.59292 -1.54999 0
M  V30 320 H 30.043 -2.63816 -2.97467 0
M  V30 321 N 31.0401 0.771051 -1.3745 0
M  V30 322 C 32.2891 1.52491 -1.3202 0
M  V30 323 C 32.6021 1.9538 0.0927347 0
M  V30 324 O 33.8081 2.70159 0.269503 0
M  V30 325 C 32.2641 2.75366 -2.31736 0
M  V30 326 C 31.8721 2.39573 -3.78562 0
M  V30 327 C 33.6161 3.53307 -2.35318 0
M  V30 328 C 31.5231 3.58954 -4.70007 0
M  V30 329 H 30.4531 0.572506 -0.490666 0
M  V30 330 H 33.1041 0.844474 -1.62914 0
M  V30 331 H 31.4861 3.45303 -1.93861 0
M  V30 332 H 32.6601 1.77415 -4.25277 0
M  V30 333 H 30.9751 1.74805 -3.77932 0
M  V30 334 H 33.5721 4.42039 -3.00842 0
M  V30 335 H 33.9151 3.93217 -1.36698 0
M  V30 336 H 34.4481 2.90367 -2.71904 0
M  V30 337 H 31.1871 3.24125 -5.69757 0
M  V30 338 H 30.7071 4.20214 -4.27996 0
M  V30 339 H 32.3861 4.25758 -4.87175 0
M  V30 340 N 32.5182 1.22032 0.997298 0
M  V30 341 C 33.9292 1.0397 1.55071 0
M  V30 342 C 34.2802 -0.398192 1.92117 0
M  V30 343 O 33.4052 -1.28254 1.74298 0
M  V30 344 C 34.0002 1.88109 2.81781 0
M  V30 345 C 32.5592 1.74357 3.33581 0
M  V30 346 C 31.7062 1.84846 2.06706 0
M  V30 347 H 34.6572 1.35941 0.818883 0
M  V30 348 H 34.6782 1.39589 3.53971 0
M  V30 349 H 34.1902 2.92754 2.54787 0
M  V30 350 H 32.2912 0.72427 3.65493 0
M  V30 351 H 32.4042 2.56772 4.04481 0
M  V30 352 H 30.7682 1.28238 2.20062 0
M  V30 353 H 31.5512 2.91014 1.82114 0
M  V30 354 N 33.9963 -1.19345 1.0293 0
M  V30 355 C 35.2443 -1.88665 0.724574 0
M  V30 356 C 35.5653 -1.80036 -0.749144 0
M  V30 357 O 34.8353 -1.2111 -1.53978 0
M  V30 358 H 33.4153 -0.698406 0.265025 0
M  V30 359 H 36.0773 -1.44885 1.30362 0
M  V30 360 H 35.1733 -2.94987 1.01926 0
M  V30 361 N 35.4744 -0.807222 -1.35358 0
M  V30 362 C 36.4244 -0.190706 -2.27201 0
M  V30 363 C 37.4084 0.635838 -1.47804 0
M  V30 364 O 38.6004 0.492991 -1.69996 0
M  V30 365 C 35.7294 0.659337 -3.36909 0
M  V30 366 C 34.8154 -0.176971 -4.23731 0
M  V30 367 N 35.2064 -1.24029 -4.90357 0
M  V30 368 C 33.5044 0.0412953 -4.45981 0
M  V30 369 C 34.2054 -1.75092 -5.54723 0
M  V30 370 N 33.1814 -1.05727 -5.33219 0
M  V30 371 H 36.9834 -1.0043 -2.76208 0
M  V30 372 H 34.4974 -0.648445 -1.48892 0
M  V30 373 H 36.4944 1.11706 -4.01656 0
M  V30 374 H 35.1544 1.47127 -2.89454 0
M  V30 375 H 36.1654 -1.62295 -4.91814 0
M  V30 376 H 32.8424 0.82232 -4.09322 0
M  V30 377 H 34.2324 -2.63963 -6.17878 0
M  V30 378 N 36.9525 1.47285 -0.560781 0
M  V30 379 C 38.2005 2.02064 -0.0379868 0
M  V30 380 C 38.5215 1.43711 1.31803 0
M  V30 381 O 37.7915 0.61362 1.86042 0
M  V30 382 H 36.3715 0.746918 -0.0110531 0
M  V30 383 H 39.0335 1.80648 -0.731598 0
M  V30 384 H 38.1295 3.12064 0.0474463 0
M  V30 385 N 38.4306 0.297415 1.54768 0
M  V30 386 C 39.3626 -0.613881 2.20826 0
M  V30 387 C 40.3756 -1.10032 1.19987 0
M  V30 388 O 41.5646 -1.01839 1.46598 0
M  V30 389 C 38.6646 -1.852 2.83821 0
M  V30 390 C 37.8376 -1.50865 4.10559 0
M  V30 391 C 36.8966 -2.60154 4.57391 0
M  V30 392 O 35.9226 -2.25398 5.2267 0
M  V30 393 N 37.1246 -3.90629 4.29406 0
M  V30 394 H 39.8896 -0.048389 2.99661 0
M  V30 395 H 37.4506 0.11946 1.61459 0
M  V30 396 H 39.4426 -2.57652 3.12086 0
M  V30 397 H 38.0126 -2.32597 2.08847 0
M  V30 398 H 37.2326 -0.616925 3.89343 0
M  V30 399 H 38.5206 -1.25458 4.9309 0
M  V30 400 H 37.9186 -4.21677 3.77101 0
M  V30 401 H 36.4756 -4.59391 4.62388 0
M  V30 402 N 39.9087 -1.5758 0.0250728 0
M  V30 403 C 40.8187 -2.1343 -0.973905 0
M  V30 404 C 41.8347 -1.08556 -1.35984 0
M  V30 405 O 43.0107 -1.40592 -1.44207 0
M  V30 406 C 40.0757 -2.64703 -2.23904 0
M  V30 407 C 39.1367 -3.84276 -1.91391 0
M  V30 408 C 38.3697 -4.33095 -3.11873 0
M  V30 409 O 38.5927 -3.81107 -4.24398 0
M  V30 410 O 37.5267 -5.24984 -2.94406 0
M  V30 411 H 41.3527 -2.99057 -0.529036 0
M  V30 412 H 38.9377 -1.48118 -0.195288 0
M  V30 413 H 40.8197 -2.97769 -2.98181 0
M  V30 414 H 39.4947 -1.82161 -2.6758 0
M  V30 415 H 38.4017 -3.56143 -1.14511 0
M  V30 416 H 39.7347 -4.67968 -1.52534 0
M  V30 417 N 41.3868 0.248026 -1.55636 0
M  V30 418 C 42.6328 0.97767 -1.77678 0
M  V30 419 C 42.9658 1.85016 -0.590135 0
M  V30 420 O 42.2408 1.90095 0.411611 0
M  V30 421 C 42.5238 1.83914 -3.09593 0
M  V30 422 C 42.3768 0.99491 -4.38659 0
M  V30 423 C 43.6958 2.82183 -3.37729 0
M  V30 424 H 40.8148 0.354005 -0.646413 0
M  V30 425 H 43.4568 0.248253 -1.88371 0
M  V30 426 H 41.6068 2.46104 -3.00608 0
M  V30 427 H 43.2788 0.391789 -4.59633 0
M  V30 428 H 41.5218 0.299231 -4.32767 0
M  V30 429 H 42.1928 1.63145 -5.2734 0
M  V30 430 H 44.6688 2.30129 -3.4667 0
M  V30 431 H 43.5448 3.39582 -4.31249 0
M  V30 432 H 43.8058 3.58588 -2.58586 0
M  V30 433 N 42.8649 1.48995 0.513639 0
M  V30 434 C 43.7949 1.67636 1.62544 0
M  V30 435 C 44.7759 0.525087 1.61793 0
M  V30 436 O 45.9609 0.759502 1.78732 0
M  V30 437 C 43.0909 1.73114 3.01079 0
M  V30 438 C 42.0449 2.87905 3.16693 0
M  V30 439 C 41.3709 2.78486 4.56453 0
M  V30 440 C 42.6709 4.29005 2.97913 0
M  V30 441 H 44.3649 2.60716 1.47198 0
M  V30 442 H 41.9109 1.25465 0.706714 0
M  V30 443 H 43.8639 1.84742 3.78746 0
M  V30 444 H 42.5879 0.766241 3.17484 0
M  V30 445 H 41.2469 2.75859 2.41448 0
M  V30 446 H 40.8949 1.7993 4.69717 0
M  V30 447 H 40.5949 3.55523 4.67843 0
M  V30 448 H 42.1189 2.92104 5.36197 0
M  V30 449 H 43.5329 4.41798 3.65359 0
M  V30 450 H 41.9299 5.07166 3.20785 0
M  V30 451 H 42.9999 4.44329 1.94165 0
M  V30 452 N 44.343 -0.763751 1.37857 0
M  V30 453 C 45.592 -1.51789 1.32827 0
M  V30 454 C 45.905 -1.95426 -0.0823719 0
M  V30 455 O 47.111 -2.70298 -0.255172 0
M  V30 456 C 45.567 -2.74133 2.33193 0
M  V30 457 C 45.175 -2.37562 3.79827 0
M  V30 458 C 46.919 -3.52054 2.37188 0
M  V30 459 C 44.826 -3.56456 4.71904 0
M  V30 460 H 43.756 -0.569896 0.493695 0
M  V30 461 H 46.407 -0.835822 1.63359 0
M  V30 462 H 44.789 -3.4427 1.9569 0
M  V30 463 H 45.963 -1.75157 4.26212 0
M  V30 464 H 44.278 -1.72798 3.78853 0
M  V30 465 H 46.875 -4.40437 3.03182 0
M  V30 466 H 47.218 -3.92486 1.38782 0
M  V30 467 H 47.751 -2.88921 2.7344 0
M  V30 468 H 44.49 -3.21099 5.71468 0
M  V30 469 H 44.01 -4.17938 4.30218 0
M  V30 470 H 45.689 -4.23168 4.89426 0
M  V30 471 N 45.8211 -1.22559 -0.990812 0
M  V30 472 C 47.2371 -0.985996 -1.255 0
M  V30 473 C 47.4371 0.319173 -1.98956 0
M  V30 474 O 46.4931 1.04127 -2.3003 0
M  V30 475 C 47.8061 -2.18607 -2.06474 0
M  V30 476 C 49.3541 -2.22985 -2.19651 0
M  V30 477 C 49.8291 -3.4255 -3.04012 0
M  V30 478 N 51.3201 -3.42725 -3.11599 0
M  V30 479 C 52.0551 -4.31892 -3.7717 0
M  V30 480 N 51.5511 -5.31279 -4.44651 0
M  V30 481 N 53.3441 -4.19662 -3.73952 0
M  V30 482 H 45.4951 -2.06469 -0.49841 0
M  V30 483 H 47.7581 -0.904853 -0.282747 0
M  V30 484 H 47.4641 -3.13267 -1.59865 0
M  V30 485 H 47.3381 -2.18838 -3.07229 0
M  V30 486 H 49.7251 -1.28871 -2.65474 0
M  V30 487 H 49.8061 -2.26791 -1.18319 0
M  V30 488 H 49.4501 -4.36965 -2.58889 0
M  V30 489 H 49.3801 -3.35984 -4.0549 0
M  V30 490 H 51.8711 -2.70807 -2.63575 0
M  V30 491 H 52.1841 -5.95593 -4.92431 0
M  V30 492 H 50.5291 -5.3519 -4.43392 0
M  V30 493 H 53.7201 -3.41268 -3.20396 0
M  V30 494 H 53.8931 -4.89358 -4.24774 0
M  V30 495 N 47.2992 1.18797 -1.03562 0
M  V30 496 C 48.2292 2.24472 -0.643019 0
M  V30 497 C 49.2102 1.66433 0.351283 0
M  V30 498 O 50.3952 1.92803 0.232505 0
M  V30 499 C 47.5252 3.473 4.24935e-05 0
M  V30 500 C 46.4792 4.18055 -0.917257 0
M  V30 501 C 45.8052 5.34519 -0.138941 0
M  V30 502 C 47.1052 4.72109 -2.23407 0
M  V30 503 H 48.7992 2.57566 -1.52643 0
M  V30 504 H 46.3452 1.23806 -0.735394 0
M  V30 505 H 48.2982 4.20426 0.286383 0
M  V30 506 H 47.0222 3.13424 0.918299 0
M  V30 507 H 45.6812 3.46821 -1.1879 0
M  V30 508 H 45.3292 4.96891 0.781562 0
M  V30 509 H 45.0292 5.82794 -0.750005 0
M  V30 510 H 46.5532 6.10438 0.1405 0
M  V30 511 H 47.9672 5.36955 -2.00879 0
M  V30 512 H 46.3642 5.30897 -2.79765 0
M  V30 513 H 47.4342 3.89807 -2.88407 0
M  V30 514 N 48.7773 0.814389 1.34928 0
M  V30 515 C 50.0243 0.398423 1.98542 0
M  V30 516 C 50.3523 -1.03638 1.64589 0
M  V30 517 O 49.6073 -1.73509 0.90516 0
M  V30 518 C 49.9063 0.537781 3.53331 0
M  V30 519 C 49.5723 1.93704 4.07172 0
M  V30 520 C 48.2343 2.31984 4.21589 0
M  V30 521 C 50.5863 2.85213 4.36237 0
M  V30 522 C 47.9143 3.61125 4.62391 0
M  V30 523 C 50.2663 4.13809 4.78482 0
M  V30 524 C 48.9303 4.52077 4.91104 0
M  V30 525 H 48.2003 0.145793 0.726516 0
M  V30 526 H 50.8473 1.03669 1.61012 0
M  V30 527 H 49.1523 -0.183906 3.91368 0
M  V30 528 H 50.8493 0.196588 4.00518 0
M  V30 529 H 47.4393 1.62966 3.96409 0
M  V30 530 H 51.6233 2.56885 4.24645 0
M  V30 531 H 46.8793 3.90612 4.70353 0
M  V30 532 H 51.0533 4.84811 4.99932 0
M  V30 533 H 48.6803 5.52196 5.22478 0
M  V30 534 N 50.2554 -1.46986 0.568584 0
M  V30 535 C 51.2024 -2.30153 -0.172707 0
M  V30 536 C 52.1724 -1.39759 -0.897586 0
M  V30 537 O 53.3574 -1.68716 -0.891044 0
M  V30 538 C 50.4974 -3.23952 -1.1895 0
M  V30 539 C 49.6104 -4.29441 -0.469517 0
M  V30 540 C 48.7454 -5.1038 -1.47259 0
M  V30 541 C 47.7844 -6.07632 -0.738225 0
M  V30 542 N 46.9214 -6.8149 -1.68868 0
M  V30 543 H 51.7614 -2.93019 0.542596 0
M  V30 544 H 49.2984 -1.44422 0.279401 0
M  V30 545 H 51.2564 -3.76767 -1.79173 0
M  V30 546 H 49.8864 -2.62926 -1.87269 0
M  V30 547 H 48.9384 -3.79594 0.247467 0
M  V30 548 H 50.2504 -4.98689 0.105241 0
M  V30 549 H 49.4044 -5.67402 -2.14803 0
M  V30 550 H 48.1434 -4.4106 -2.08128 0
M  V30 551 H 47.1484 -5.49778 -0.0489293 0
M  V30 552 H 48.3734 -6.78966 -0.135129 0
M  V30 553 H 46.3194 -6.14891 -2.28573 0
M  V30 554 H 46.2364 -7.46948 -1.16636 0
M  V30 555 H 47.5044 -7.43078 -2.3549 0
M  V30 556 N 51.7335 -0.305618 -1.54608 0
M  V30 557 C 52.9815 0.301701 -1.99835 0
M  V30 558 C 53.3025 1.54054 -1.19551 0
M  V30 559 O 52.5725 1.93702 -0.292658 0
M  V30 560 H 51.1525 0.114468 -0.738178 0
M  V30 561 H 53.8145 -0.418016 -1.90364 0
M  V30 562 H 52.9105 0.570548 -3.06841 0
M  V30 563 N 53.2116 1.57565 -0.0334293 0
M  V30 564 C 54.1616 2.06978 0.956237 0
M  V30 565 C 55.1456 0.971193 1.28283 0
M  V30 566 O 56.3376 1.23471 1.26822 0
M  V30 567 C 53.4666 2.60393 2.23719 0
M  V30 568 C 52.5526 3.7719 1.93877 0
M  V30 569 N 52.9436 4.87639 1.34321 0
M  V30 570 C 51.2416 3.85758 2.23845 0
M  V30 571 C 51.9426 5.68825 1.21709 0
M  V30 572 N 50.9186 5.1587 1.71404 0
M  V30 573 H 54.7206 2.89773 0.490815 0
M  V30 574 H 52.2346 1.61492 0.171478 0
M  V30 575 H 54.2316 2.94088 2.95496 0
M  V30 576 H 52.8916 1.79031 2.70884 0
M  V30 577 H 53.9026 5.07803 1.01767 0
M  V30 578 H 50.5796 3.1531 2.73653 0
M  V30 579 H 51.9696 6.67631 0.75621 0
M  V30 580 N 54.6897 -0.239769 1.55765 0
M  V30 581 C 56.1007 -0.808263 1.68297 0
M  V30 582 C 56.4517 -1.85736 0.632181 0
M  V30 583 O 55.5767 -2.15277 -0.220204 0
M  V30 584 C 56.1717 -1.47284 3.05111 0
M  V30 585 C 54.7307 -1.98895 3.19559 0
M  V30 586 C 53.8777 -0.842575 2.64189 0
M  V30 587 H 56.8287 -0.0154422 1.58692 0
M  V30 588 H 56.8497 -2.34111 2.99954 0
M  V30 589 H 56.3617 -0.709053 3.81568 0
M  V30 590 H 54.4627 -2.78132 2.47938 0
M  V30 591 H 54.5757 -2.18143 4.26556 0
M  V30 592 H 52.9397 -1.24501 2.22197 0
M  V30 593 H 53.7227 -0.0917552 3.43177 0
M  V30 594 N 56.1678 -1.49265 -0.50573 0
M  V30 595 C 57.0778 -1.68312 -1.63427 0
M  V30 596 C 58.0938 -0.565682 -1.64548 0
M  V30 597 O 59.2698 -0.839801 -1.83055 0
M  V30 598 C 56.3348 -1.74107 -2.99813 0
M  V30 599 C 55.3958 -2.97653 -3.09356 0
M  V30 600 C 54.6288 -3.03163 -4.39236 0
M  V30 601 O 54.8518 -2.16396 -5.27758 0
M  V30 602 O 53.7858 -3.9558 -4.53652 0
M  V30 603 H 57.6118 -2.63907 -1.50289 0
M  V30 604 H 55.1968 -1.32951 -0.681502 0
M  V30 605 H 57.0788 -1.803 -3.80881 0
M  V30 606 H 55.7538 -0.816901 -3.13223 0
M  V30 607 H 54.6608 -2.96981 -2.27493 0
M  V30 608 H 55.9938 -3.89535 -3.00871 0
M  V30 609 N 57.6459 0.756429 -1.3826 0
M  V30 610 C 58.8739 1.54565 -1.3754 0
M  V30 611 C 59.2889 1.88767 0.0355331 0
M  V30 612 O 58.6459 1.52572 1.0014 0
M  V30 613 C 58.6969 2.84654 -2.22833 0
M  V30 614 O 58.4179 2.51912 -3.5843 0
M  V30 615 C 59.9189 3.78807 -2.30261 0
M  V30 616 H 57.1389 0.478353 -0.470553 0
M  V30 617 H 59.6829 0.936381 -1.81803 0
M  V30 618 H 57.8379 3.41965 -1.8204 0
M  V30 619 H 58.2519 3.35325 -4.03308 0
M  V30 620 H 59.7259 4.67045 -2.94233 0
M  V30 621 H 60.2029 4.19038 -1.31545 0
M  V30 622 H 60.8089 3.2742 -2.71433 0
M  V30 623 N 59.124 1.23083 0.984299 0
M  V30 624 C 60.054 1.03292 2.09411 0
M  V30 625 C 61.035 -0.048923 1.7003 0
M  V30 626 O 62.22 0.114967 1.93859 0
M  V30 627 C 59.35 0.619155 3.41736 0
M  V30 628 C 58.304 1.64791 3.95004 0
M  V30 629 C 57.63 1.0897 5.23478 0
M  V30 630 C 58.93 3.03999 4.24714 0
M  V30 631 H 60.624 1.96119 2.26225 0
M  V30 632 H 58.17 0.944344 1.08711 0
M  V30 633 H 60.123 0.467777 4.18796 0
M  V30 634 H 58.847 -0.344786 3.24775 0
M  V30 635 H 57.506 1.78721 3.20085 0
M  V30 636 H 57.154 0.11686 5.02864 0
M  V30 637 H 56.854 1.77704 5.60085 0
M  V30 638 H 58.378 0.950093 6.03163 0
M  V30 639 H 59.792 2.93393 4.92538 0
M  V30 640 H 58.189 3.69936 4.72512 0
M  V30 641 H 59.259 3.53285 3.32142 0
M  V30 642 N 60.6021 -1.18246 1.0419 0
M  V30 643 C 61.5121 -2.25574 0.644476 0
M  V30 644 C 62.5281 -1.70845 -0.329826 0
M  V30 645 O 63.7041 -2.00554 -0.184443 0
M  V30 646 C 60.7691 -3.46697 0.014877 0
M  V30 647 C 59.8301 -4.16554 1.03834 0
M  V30 648 C 59.0631 -5.31894 0.438692 0
M  V30 649 O 59.2861 -5.65385 -0.754752 0
M  V30 650 O 58.2201 -5.90459 1.168 0
M  V30 651 H 62.0461 -2.61836 1.53869 0
M  V30 652 H 59.6311 -1.25352 0.812854 0
M  V30 653 H 61.5131 -4.20062 -0.335538 0
M  V30 654 H 60.1881 -3.12255 -0.853138 0
M  V30 655 H 59.0951 -3.45251 1.44057 0
M  V30 656 H 60.4281 -4.54998 1.87716 0
M  V30 657 N 62.0802 -0.821533 -1.34494 0
M  V30 658 C 63.0272 -0.240397 -2.29545 0
M  V30 659 C 63.9972 0.634031 -1.53523 0
M  V30 660 O 65.1822 0.575966 -1.81899 0
M  V30 661 C 62.3222 0.592869 -3.39969 0
M  V30 662 C 61.4352 -0.30365 -4.30932 0
M  V30 663 C 60.5702 0.539049 -5.28458 0
M  V30 664 C 59.6092 -0.356942 -6.11058 0
M  V30 665 N 58.7462 0.446603 -7.00678 0
M  V30 666 H 63.5862 -1.05632 -2.7865 0
M  V30 667 H 61.1232 -0.532413 -1.37127 0
M  V30 668 H 63.0812 1.09129 -4.02675 0
M  V30 669 H 61.7112 1.37392 -2.92102 0
M  V30 670 H 60.7632 -0.920276 -3.691 0
M  V30 671 H 62.0752 -0.992661 -4.88823 0
M  V30 672 H 61.2292 1.102 -5.96608 0
M  V30 673 H 59.9682 1.26157 -4.71101 0
M  V30 674 H 58.9732 -0.932047 -5.41842 0
M  V30 675 H 60.1982 -1.07755 -6.70497 0
M  V30 676 H 58.1442 1.15282 -6.45791 0
M  V30 677 H 58.0612 -0.184048 -7.55776 0
M  V30 678 H 59.3292 0.992352 -7.73158 0
M  V30 679 N 63.5583 1.46682 -0.576371 0
M  V30 680 C 64.8053 2.02412 -0.0595339 0
M  V30 681 C 65.1333 1.44859 1.29793 0
M  V30 682 O 64.3883 0.601099 1.8624 0
M  V30 683 C 64.6873 3.57345 0.062886 0
M  V30 684 C 64.3533 4.33908 -1.22616 0
M  V30 685 C 63.0153 4.54544 -1.57933 0
M  V30 686 C 65.3673 4.77919 -2.07948 0
M  V30 687 C 62.6953 5.16444 -2.78393 0
M  V30 688 C 65.0473 5.41149 -3.27629 0
M  V30 689 C 63.7113 5.60014 -3.63236 0
M  V30 690 H 62.9813 0.74068 -0.021785 0
M  V30 691 H 65.6283 1.76128 -0.751735 0
M  V30 692 H 63.9333 3.82729 0.838178 0
M  V30 693 H 65.6303 3.98136 0.478439 0
M  V30 694 H 62.2203 4.18138 -0.941202 0
M  V30 695 H 66.4043 4.61738 -1.81967 0
M  V30 696 H 61.6603 5.29242 -3.06126 0
M  V30 697 H 65.8343 5.74211 -3.94023 0
M  V30 698 H 63.4613 6.07748 -4.56669 0
M  V30 699 N 65.0364 0.313813 1.54444 0
M  V30 700 C 66.3134 -0.345447 1.92525 0
M  V30 701 C 66.6934 -1.70667 1.24242 0
M  V30 702 O 66.0414 -2.25273 0.382654 0
M  V30 703 C 66.2514 -0.44737 3.46121 0
M  V30 704 C 67.5994 -0.712238 4.18584 0
M  V30 705 O 68.6234 -0.530678 3.52225 0
M  V30 706 O 67.4824 -1.06183 5.36085 0
M  V30 707 H 64.5764 -0.195407 0.803583 0
M  V30 708 H 67.1224 0.362813 1.65776 0
M  V30 709 H 65.8944 0.509043 3.87975 0
M  V30 710 H 65.5174 -1.20359 3.78945 0
M  V30 711 N 66.5145 -1.57545 0.0417849 0
M  V30 712 C 67.4615 -2.10977 -0.935805 0
M  V30 713 C 68.4315 -1.01486 -1.31491 0
M  V30 714 O 69.6165 -1.2898 -1.40602 0
M  V30 715 C 66.7565 -2.65169 -2.2086 0
M  V30 716 C 65.8695 -3.88714 -1.88482 0
M  V30 717 C 65.0045 -4.31254 -3.1015 0
M  V30 718 C 64.0435 -5.47524 -2.7365 0
M  V30 719 N 63.1805 -5.85162 -3.87982 0
M  V30 720 H 68.0205 -2.94218 -0.473249 0
M  V30 721 H 65.5575 -1.45415 -0.221981 0
M  V30 722 H 67.5155 -2.94685 -2.95325 0
M  V30 723 H 66.1455 -1.8474 -2.64709 0
M  V30 724 H 65.1975 -3.65849 -1.04205 0
M  V30 725 H 66.5095 -4.73245 -1.57608 0
M  V30 726 H 65.6635 -4.62273 -3.92923 0
M  V30 727 H 64.4025 -3.45516 -3.44195 0
M  V30 728 H 63.4075 -5.16187 -1.89291 0
M  V30 729 H 64.6325 -6.34971 -2.40807 0
M  V30 730 H 62.5785 -5.02377 -4.21846 0
M  V30 731 H 62.4955 -6.64362 -3.60775 0
M  V30 732 H 63.7635 -6.20791 -4.71422 0
M  V30 733 N 67.9926 0.231505 -1.5589 0
M  V30 734 C 69.2396 0.957352 -1.78441 0
M  V30 735 C 69.5676 1.84726 -0.60882 0
M  V30 736 O 68.8226 1.91416 0.40725 0
M  V30 737 C 69.1216 1.83577 -3.0665 0
M  V30 738 C 68.7876 1.09993 -4.37278 0
M  V30 739 C 67.4496 0.896629 -4.72773 0
M  V30 740 C 69.8016 0.579558 -5.17968 0
M  V30 741 C 67.1296 0.160896 -5.86479 0
M  V30 742 C 69.4816 -0.142783 -6.32439 0
M  V30 743 C 68.1456 -0.357427 -6.66542 0
M  V30 744 H 67.4156 0.35032 -0.65296 0
M  V30 745 H 70.0626 0.226259 -1.90159 0
M  V30 746 H 68.3676 2.63441 -2.90011 0
M  V30 747 H 70.0646 2.39934 -3.21298 0
M  V30 748 H 66.6546 1.26835 -4.09403 0
M  V30 749 H 70.8386 0.724125 -4.90989 0
M  V30 750 H 66.0946 -0.0157293 -6.11398 0
M  V30 751 H 70.2686 -0.553559 -6.94196 0
M  V30 752 H 67.8956 -0.929466 -7.54497 0
M  V30 753 N 69.4707 1.49531 0.497807 0
M  V30 754 C 70.4177 1.66436 1.59899 0
M  V30 755 C 71.3877 0.505793 1.58212 0
M  V30 756 O 72.5727 0.733202 1.7615 0
M  V30 757 C 69.7127 1.7399 2.98029 0
M  V30 758 C 68.8257 3.01172 3.09708 0
M  V30 759 C 67.9607 2.99686 4.38591 0
M  V30 760 C 66.9997 4.21434 4.43914 0
M  V30 761 N 66.1367 4.1784 5.64229 0
M  V30 762 H 70.9767 2.60459 1.44793 0
M  V30 763 H 68.5137 1.29137 0.704423 0
M  V30 764 H 70.4717 1.76352 3.78095 0
M  V30 765 H 69.1017 0.834301 3.11832 0
M  V30 766 H 68.1537 3.08408 2.22685 0
M  V30 767 H 69.4657 3.91165 3.09502 0
M  V30 768 H 68.6197 3.00628 5.2698 0
M  V30 769 H 67.3587 2.07477 4.41367 0
M  V30 770 H 66.3637 4.20733 3.53926 0
M  V30 771 H 67.5887 5.14839 4.42851 0
M  V30 772 H 65.5347 3.28469 5.67841 0
M  V30 773 H 65.4517 5.01571 5.65652 0
M  V30 774 H 66.7197 4.22889 6.54817 0
M  V30 775 N 70.9488 -0.749086 1.3866 0
M  V30 776 C 71.8988 -1.85368 1.32751 0
M  V30 777 C 72.8828 -1.59511 0.210945 0
M  V30 778 O 74.0748 -1.71255 0.447299 0
M  V30 779 C 71.2038 -3.23131 1.15935 0
M  V30 780 C 70.2898 -3.54864 2.32233 0
M  V30 781 N 70.6808 -3.57625 3.57684 0
M  V30 782 C 68.9788 -3.85154 2.24883 0
M  V30 783 C 69.6798 -3.86753 4.34508 0
M  V30 784 N 68.6558 -4.03812 3.63918 0
M  V30 785 H 72.4578 -1.85787 2.27729 0
M  V30 786 H 69.9718 -0.946658 1.31955 0
M  V30 787 H 71.9688 -4.02185 1.09786 0
M  V30 788 H 70.6288 -3.23961 0.218947 0
M  V30 789 H 71.6398 -3.39276 3.91295 0
M  V30 790 H 68.3168 -3.93672 1.39027 0
M  V30 791 H 69.7068 -3.95474 5.43185 0
M  V30 792 N 72.4269 -1.23603 -0.977757 0
M  V30 793 C 73.3569 -1.04401 -2.0886 0
M  V30 794 C 74.3379 0.0399052 -1.70053 0
M  V30 795 O 75.5229 -0.125246 -1.93796 0
M  V30 796 C 72.6529 -0.637269 -3.41403 0
M  V30 797 C 71.6069 -1.66883 -3.94124 0
M  V30 798 C 70.9329 -1.11745 -5.22893 0
M  V30 799 C 72.2329 -3.06247 -4.23096 0
M  V30 800 H 73.9269 -1.97316 -2.25182 0
M  V30 801 H 71.4729 -0.950096 -1.08209 0
M  V30 802 H 73.4259 -0.48998 -4.18542 0
M  V30 803 H 72.1499 0.327557 -3.24953 0
M  V30 804 H 70.8089 -1.80416 -3.19133 0
M  V30 805 H 70.4569 -0.143527 -5.02795 0
M  V30 806 H 70.1569 -1.80672 -5.59134 0
M  V30 807 H 71.6809 -0.982067 -6.02651 0
M  V30 808 H 73.0949 -2.96001 -4.90975 0
M  V30 809 H 71.4919 -3.72436 -4.70544 0
M  V30 810 H 72.5619 -3.55041 -3.30263 0
M  V30 811 N 73.905 1.17692 -1.04816 0
M  V30 812 C 74.852 2.21581 -0.645797 0
M  V30 813 C 75.822 1.62367 0.350159 0
M  V30 814 O 77.007 1.89254 0.242433 0
M  V30 815 C 74.147 3.45092 -0.0227568 0
M  V30 816 C 73.26 4.18613 -1.06709 0
M  V30 817 C 72.395 5.29602 -0.411767 0
M  V30 818 C 71.434 5.94904 -1.44067 0
M  V30 819 N 70.571 6.97414 -0.809781 0
M  V30 820 H 75.411 2.55353 -1.5362 0
M  V30 821 H 72.948 1.25438 -0.768364 0
M  V30 822 H 74.906 4.15679 0.35588 0
M  V30 823 H 73.536 3.11917 0.831122 0
M  V30 824 H 72.588 3.46779 -1.5636 0
M  V30 825 H 73.9 4.63293 -1.84827 0
M  V30 826 H 73.054 6.06696 0.0206623 0
M  V30 827 H 71.793 4.86045 0.401438 0
M  V30 828 H 70.798 5.16544 -1.88316 0
M  V30 829 H 72.023 6.40542 -2.25571 0
M  V30 830 H 69.969 6.55998 -0.0170186 0
M  V30 831 H 69.886 7.40386 -1.52856 0
M  V30 832 H 71.154 7.78463 -0.401999 0
M  V30 833 N 75.3831 0.828654 1.34056 0
M  V30 834 C 76.6081 0.431637 2.02859 0
M  V30 835 C 77.0331 -0.956339 1.61975 0
M  V30 836 O 76.3911 -1.62338 0.807228 0
M  V30 837 C 76.4391 0.548323 3.56407 0
M  V30 838 O 75.5431 -0.429556 4.10157 0
M  V30 839 H 74.8841 0.176886 0.640006 0
M  V30 840 H 77.4141 1.12066 1.71179 0
M  V30 841 H 77.4241 0.426196 4.05768 0
M  V30 842 H 76.0991 1.5606 3.8551 0
M  V30 843 H 74.6761 -0.265836 3.71951 0
M  V30 844 N 76.8612 -1.46375 0.584142 0
M  V30 845 C 77.7712 -2.34115 -0.150728 0
M  V30 846 C 78.7872 -1.49838 -0.884567 0
M  V30 847 O 79.9632 -1.82704 -0.847429 0
M  V30 848 C 77.0282 -3.2705 -1.15062 0
M  V30 849 C 76.0892 -4.27228 -0.421293 0
M  V30 850 C 75.3222 -5.15722 -1.37355 0
M  V30 851 O 75.5452 -5.07176 -2.61014 0
M  V30 852 O 74.4792 -5.95383 -0.883355 0
M  V30 853 H 78.3052 -2.98309 0.569708 0
M  V30 854 H 75.8902 -1.45373 0.344535 0
M  V30 855 H 77.7722 -3.84381 -1.72712 0
M  V30 856 H 76.4472 -2.65451 -1.8525 0
M  V30 857 H 75.3542 -3.7358 0.197085 0
M  V30 858 H 76.6872 -4.91616 0.239641 0
M  V30 859 N 78.3393 -0.321999 -1.54275 0
M  V30 860 C 79.6163 0.335232 -1.92706 0
M  V30 861 C 79.9963 1.70006 -1.25145 0
M  V30 862 O 79.3443 2.25067 -0.394596 0
M  V30 863 C 79.5543 0.429008 -3.46353 0
M  V30 864 C 80.9023 0.690029 -4.18956 0
M  V30 865 O 81.9263 0.511992 -3.52501 0
M  V30 866 O 80.7853 1.03338 -5.36641 0
M  V30 867 H 77.8793 0.191143 -0.804608 0
M  V30 868 H 80.4253 -0.3716 -1.65581 0
M  V30 869 H 79.1973 -0.529611 -3.87699 0
M  V30 870 H 78.8203 1.18348 -3.79578 0
M  V30 871 N 79.8174 1.5752 -0.0501392 0
M  V30 872 C 80.7274 2.14952 0.939827 0
M  V30 873 C 81.7434 1.10706 1.34239 0
M  V30 874 O 82.9194 1.42869 1.41952 0
M  V30 875 C 79.9844 2.68232 2.19665 0
M  V30 876 C 79.0454 3.87272 1.85253 0
M  V30 877 C 78.2784 4.38002 3.04943 0
M  V30 878 O 78.5014 3.87811 4.18281 0
M  V30 879 O 77.4354 5.29602 2.86017 0
M  V30 880 H 81.2614 2.9986 0.481392 0
M  V30 881 H 78.8464 1.4841 0.171699 0
M  V30 882 H 80.7284 3.02475 2.93406 0
M  V30 883 H 79.4034 1.86395 2.64648 0
M  V30 884 H 78.3104 3.5792 1.0883 0
M  V30 885 H 79.6434 4.70336 1.4507 0
M  V30 886 N 81.2955 -0.223234 1.56011 0
M  V30 887 C 82.2285 -1.30377 1.87289 0
M  V30 888 C 83.2065 -1.45286 0.730112 0
M  V30 889 O 84.3905 -1.61126 0.978302 0
M  V30 890 C 81.5175 -2.67431 2.07843 0
M  V30 891 C 80.5635 -2.69546 3.30526 0
M  V30 892 S 81.3965 -2.23781 4.865 0
M  V30 893 C 82.5525 -3.62714 5.10088 0
M  V30 894 H 82.7855 -1.03652 2.78646 0
M  V30 895 H 80.3185 -0.425393 1.48424 0
M  V30 896 H 82.2765 -3.46336 2.20368 0
M  V30 897 H 80.9375 -2.91381 1.17285 0
M  V30 898 H 80.1305 -3.70255 3.41947 0
M  V30 899 H 79.7325 -1.98703 3.16849 0
M  V30 900 H 82.0245 -4.58391 4.98883 0
M  V30 901 H 82.9675 -3.5621 6.11981 0
M  V30 902 H 83.3755 -3.56323 4.37829 0
M  V30 903 N 82.7736 -1.49793 -0.48987 0
M  V30 904 C 83.7206 -1.67281 -1.59014 0
M  V30 905 C 84.6906 -0.514177 -1.57941 0
M  V30 906 O 85.8756 -0.742533 -1.75759 0
M  V30 907 C 83.0156 -1.75569 -2.97102 0
M  V30 908 C 82.1286 -3.0281 -3.08107 0
M  V30 909 C 81.2636 -3.02008 -4.36995 0
M  V30 910 C 80.3026 -4.23782 -4.41673 0
M  V30 911 N 79.4396 -4.20826 -5.62005 0
M  V30 912 H 84.2796 -2.61224 -1.43409 0
M  V30 913 H 81.8166 -1.29508 -0.697565 0
M  V30 914 H 83.7746 -1.78354 -3.77155 0
M  V30 915 H 82.4046 -0.850827 -3.11385 0
M  V30 916 H 81.4566 -3.09584 -2.21047 0
M  V30 917 H 82.7686 -3.92801 -3.07423 0
M  V30 918 H 81.9226 -3.03418 -5.25378 0
M  V30 919 H 80.6616 -2.09815 -4.4026 0
M  V30 920 H 79.6666 -4.22604 -3.5169 0
M  V30 921 H 80.8916 -5.17181 -4.40115 0
M  V30 922 H 78.8376 -3.31476 -5.66091 0
M  V30 923 H 78.7546 -5.04564 -5.62984 0
M  V30 924 H 80.0226 -4.26355 -6.52565 0
M  V30 925 N 84.2517 0.741722 -1.39055 0
M  V30 926 C 85.2147 1.83733 -1.37021 0
M  V30 927 C 86.2147 1.58542 -0.268534 0
M  V30 928 O 87.4047 1.66067 -0.526076 0
M  V30 929 C 84.5367 3.2141 -1.13617 0
M  V30 930 H 85.7297 1.86941 -2.34506 0
M  V30 931 H 83.2827 0.944676 -1.24521 0
M  V30 932 H 84.0177 3.23865 -0.167863 0
M  V30 933 H 83.8027 3.4109 -1.93391 0
M  V30 934 H 85.2927 4.01477 -1.14918 0
M  V30 935 N 85.7298 1.2412 0.971189 0
M  V30 936 C 86.9548 1.10667 1.75407 0
M  V30 937 C 87.3798 -0.337048 1.85056 0
M  V30 938 O 86.7378 -1.24396 1.31892 0
M  V30 939 C 86.7858 1.74726 3.15441 0
M  V30 940 O 85.8898 1.01566 3.99697 0
M  V30 941 H 85.2308 0.387341 0.539317 0
M  V30 942 H 87.7608 1.64358 1.2185 0
M  V30 943 H 87.7708 1.80341 3.6598 0
M  V30 944 H 86.4458 2.79773 3.07734 0
M  V30 945 H 85.0228 1.03713 3.58187 0
M  V30 946 N 87.2079 -1.17134 1.05439 0
M  V30 947 C 88.1179 -2.24878 0.668365 0
M  V30 948 C 89.1339 -1.71186 -0.311687 0
M  V30 949 O 90.3099 -2.00738 -0.163161 0
M  V30 950 C 87.3749 -3.46662 0.051648 0
M  V30 951 C 86.4359 -4.15429 1.08246 0
M  V30 952 C 85.6689 -5.31399 0.495082 0
M  V30 953 O 85.8919 -5.66153 -0.694743 0
M  V30 954 O 84.8259 -5.89187 1.23056 0
M  V30 955 H 88.6519 -2.60189 1.56637 0
M  V30 956 H 86.2369 -1.24482 0.826104 0
M  V30 957 H 88.1189 -4.20394 -0.290966 0
M  V30 958 H 86.7939 -3.13142 -0.819971 0
M  V30 959 H 85.7009 -3.43704 1.47711 0
M  V30 960 H 87.0339 -4.52982 1.92532 0
M  V30 961 N 88.686 -0.835752 -1.33615 0
M  V30 962 C 89.963 -0.352017 -1.92406 0
M  V30 963 C 90.343 1.16225 -1.76224 0
M  V30 964 O 89.691 1.97526 -1.14873 0
M  V30 965 C 89.901 -0.795485 -3.39813 0
M  V30 966 C 91.249 -0.801703 -4.16963 0
M  V30 967 O 92.273 -0.738889 -3.48452 0
M  V30 968 O 91.132 -0.886607 -5.3926 0
M  V30 969 H 88.226 -0.0989641 -0.821057 0
M  V30 970 H 90.772 -0.921397 -1.42507 0
M  V30 971 H 89.544 -1.83795 -3.45449 0
M  V30 972 H 89.167 -0.202505 -3.97084 0
M  V30 973 N 90.1641 1.46063 -0.591896 0
M  V30 974 C 91.0941 2.33172 0.123673 0
M  V30 975 C 92.0751 1.45897 0.87453 0
M  V30 976 O 93.2601 1.74698 0.848181 0
M  V30 977 C 90.3901 3.28336 1.13194 0
M  V30 978 C 89.3441 4.25124 0.495324 0
M  V30 979 C 88.6701 5.09863 1.61071 0
M  V30 980 C 89.9701 5.19143 -0.573425 0
M  V30 981 H 91.6641 2.93252 -0.603646 0
M  V30 982 H 89.2101 1.41014 -0.291741 0
M  V30 983 H 91.1631 3.88137 1.64097 0
M  V30 984 H 89.8871 2.66383 1.88965 0
M  V30 985 H 88.5461 3.66599 0.00729452 0
M  V30 986 H 88.1941 4.44288 2.35832 0
M  V30 987 H 87.8941 5.75417 1.19035 0
M  V30 988 H 89.4181 5.72529 2.12233 0
M  V30 989 H 90.8321 5.73106 -0.1491 0
M  V30 990 H 89.2291 5.93089 -0.914636 0
M  V30 991 H 90.2991 4.62519 -1.45617 0
M  V30 992 N 91.6422 0.330177 1.54103 0
M  V30 993 C 92.5892 -0.532762 2.24567 0
M  V30 994 C 93.5592 -1.10635 1.23892 0
M  V30 995 O 94.7442 -1.14546 1.5259 0
M  V30 996 C 91.8842 -1.6845 3.01195 0
M  V30 997 C 90.9972 -1.13951 4.167 0
M  V30 998 C 90.1322 -2.25746 4.80845 0
M  V30 999 C 89.1712 -1.6853 5.88442 0
M  V30 1000 N 88.3082 -2.74014 6.46421 0
M  V30 1001 H 93.1482 0.0746905 2.97906 0
M  V30 1002 H 90.6852 0.048632 1.4702 0
M  V30 1003 H 92.6432 -2.36234 3.43874 0
M  V30 1004 H 91.2732 -2.26314 2.30178 0
M  V30 1005 H 90.3252 -0.35301 3.78758 0
M  V30 1006 H 91.6372 -0.680892 4.94131 0
M  V30 1007 H 90.7912 -3.01422 5.26526 0
M  V30 1008 H 89.5302 -2.74947 4.0281 0
M  V30 1009 H 88.5352 -0.913543 5.42157 0
M  V30 1010 H 89.7602 -1.20198 6.68378 0
M  V30 1011 H 87.7062 -3.22494 5.71256 0
M  V30 1012 H 87.6232 -2.32735 7.19285 0
M  V30 1013 H 88.8912 -3.49499 6.96757 0
M  V30 1014 N 93.1203 -1.57491 0.0584922 0
M  V30 1015 C 94.0673 -2.11958 -0.913376 0
M  V30 1016 C 95.0373 -1.02875 -1.30407 0
M  V30 1017 O 96.2223 -1.30464 -1.39226 0
M  V30 1018 C 93.3623 -2.67497 -2.18035 0
M  V30 1019 C 92.4753 -3.90691 -1.84349 0
M  V30 1020 C 91.6103 -4.3452 -3.05559 0
M  V30 1021 C 90.6493 -5.50395 -2.67827 0
M  V30 1022 N 89.7863 -5.89244 -3.81754 0
M  V30 1023 H 94.6263 -2.94704 -0.442017 0
M  V30 1024 H 92.1633 -1.45643 -0.206545 0
M  V30 1025 H 94.1213 -2.978 -2.92183 0
M  V30 1026 H 92.7513 -1.87537 -2.62735 0
M  V30 1027 H 91.8033 -3.66934 -1.00319 0
M  V30 1028 H 93.1153 -4.7489 -1.5258 0
M  V30 1029 H 92.2693 -4.66414 -3.87998 0
M  V30 1030 H 91.0083 -3.49147 -3.40511 0
M  V30 1031 H 90.0133 -5.18165 -1.83806 0
M  V30 1032 H 91.2383 -6.3749 -2.34059 0
M  V30 1033 H 89.1843 -5.06823 -4.16493 0
M  V30 1034 H 89.1013 -6.68151 -3.53708 0
M  V30 1035 H 90.3693 -6.25756 -4.64811 0
M  V30 1036 N 94.5984 0.214957 -1.56127 0
M  V30 1037 C 95.5484 1.27006 -1.8935 0
M  V30 1038 C 96.5324 1.41969 -0.757202 0
M  V30 1039 O 97.7244 1.44673 -1.01973 0
M  V30 1040 C 94.8534 2.61911 -2.2194 0
M  V30 1041 C 93.9394 2.50822 -3.41978 0
M  V30 1042 N 94.3304 2.09391 -4.60423 0
M  V30 1043 C 92.6284 2.81765 -3.45723 0
M  V30 1044 C 93.3294 2.09712 -5.42582 0
M  V30 1045 N 92.3054 2.50454 -4.82466 0
M  V30 1046 H 96.1074 0.940734 -2.78437 0
M  V30 1047 H 93.6214 0.423492 -1.56781 0
M  V30 1048 H 95.6184 3.38096 -2.43919 0
M  V30 1049 H 94.2784 2.95684 -1.34169 0
M  V30 1050 H 95.2894 1.80416 -4.85459 0
M  V30 1051 H 91.9664 3.19865 -2.68314 0
M  V30 1052 H 93.3564 1.79748 -6.4741 0
M  V30 1053 N 96.0765 1.50051 0.48192 0
M  V30 1054 C 97.3245 1.60181 1.23234 0
M  V30 1055 C 97.6455 0.299176 1.92691 0
M  V30 1056 O 96.9155 -0.682708 1.83619 0
M  V30 1057 H 95.4955 0.590232 0.457859 0
M  V30 1058 H 98.1575 1.86775 0.556881 0
M  V30 1059 H 97.2535 2.40753 1.98607 0
M  V30 1060 N 97.5546 -0.734337 1.39446 0
M  V30 1061 C 98.5176 -1.83004 1.37994 0
M  V30 1062 C 99.5176 -1.58397 0.276938 0
M  V30 1063 O 100.708 -1.65785 0.534875 0
M  V30 1064 C 97.8396 -3.20802 1.1532 0
M  V30 1065 H 99.0326 -1.85694 2.35494 0
M  V30 1066 H 96.5856 -0.938059 1.25021 0
M  V30 1067 H 97.3206 -3.23772 0.185036 0
M  V30 1068 H 97.1056 -3.4006 1.95197 0
M  V30 1069 H 98.5956 -4.00862 1.17046 0
M  V30 1070 N 99.0327 -1.24633 -0.964593 0
M  V30 1071 C 100.261 -1.11501 -1.74285 0
M  V30 1072 C 100.676 0.332165 -1.85855 0
M  V30 1073 O 100.033 1.22903 -1.34911 0
M  V30 1074 C 100.084 -1.75258 -3.16175 0
M  V30 1075 O 99.8047 -3.14318 -3.05182 0
M  V30 1076 C 101.306 -1.67776 -4.10324 0
M  V30 1077 H 98.5257 -0.389407 -0.546446 0
M  V30 1078 H 101.07 -1.64801 -1.21083 0
M  V30 1079 H 99.2247 -1.25954 -3.66353 0
M  V30 1080 H 99.6387 -3.4551 -3.94618 0
M  V30 1081 H 101.113 -2.17064 -5.0753 0
M  V30 1082 H 101.59 -0.639584 -4.34518 0
M  V30 1083 H 102.196 -2.16522 -3.66058 0
M  V30 1084 N 100.511 1.16574 -1.06058 0
M  V30 1085 C 101.757 1.87324 -0.777022 0
M  V30 1086 C 102.09 1.81351 0.694645 0
M  V30 1087 O 101.365 1.22753 1.50871 0
M  V30 1088 C 101.648 3.36991 -1.26922 0
M  V30 1089 C 101.501 3.51667 -2.80447 0
M  V30 1090 C 102.82 4.3131 -0.87521 0
M  V30 1091 H 99.9388 0.680191 -0.28374 0
M  V30 1092 H 102.581 1.37036 -1.3161 0
M  V30 1093 H 100.731 3.79949 -0.81063 0
M  V30 1094 H 102.403 3.17664 -3.34495 0
M  V30 1095 H 100.646 2.93656 -3.19294 0
M  V30 1096 H 101.317 4.56766 -3.0995 0
M  V30 1097 H 103.793 3.9624 -1.27014 0
M  V30 1098 H 102.669 5.34545 -1.2471 0
M  V30 1099 H 102.93 4.41552 0.220071 0
M  V30 1100 N 101.989 0.842826 1.3317 0
M  V30 1101 C 102.919 0.294028 2.31641 0
M  V30 1102 C 103.9 -0.600401 1.59151 0
M  V30 1103 O 105.085 -0.523124 1.87022 0
M  V30 1104 C 102.215 -0.528416 3.43257 0
M  V30 1105 C 101.169 0.27056 4.27144 0
M  V30 1106 C 100.495 -0.675881 5.30411 0
M  V30 1107 C 101.795 1.48981 5.00602 0
M  V30 1108 H 103.489 1.11681 2.77791 0
M  V30 1109 H 101.035 0.538478 1.33553 0
M  V30 1110 H 102.988 -0.922674 4.11175 0
M  V30 1111 H 101.712 -1.38445 2.95805 0
M  V30 1112 H 100.371 0.646427 3.60856 0
M  V30 1113 H 100.019 -1.52842 4.79216 0
M  V30 1114 H 99.7189 -0.145374 5.8742 0
M  V30 1115 H 101.243 -1.06757 6.01195 0
M  V30 1116 H 102.657 1.16849 5.61266 0
M  V30 1117 H 101.054 1.95739 5.6728 0
M  V30 1118 H 102.124 2.25746 4.29147 0
M  V30 1119 N 103.467 -1.45747 0.599634 0
M  V30 1120 C 104.695 -2.06668 0.0978551 0
M  V30 1121 C 105.11 -1.44562 -1.21439 0
M  V30 1122 O 104.467 -0.556923 -1.73795 0
M  V30 1123 C 104.518 -3.61456 -0.0567044 0
M  V30 1124 O 104.239 -4.21242 1.20361 0
M  V30 1125 C 105.74 -4.39345 -0.590869 0
M  V30 1126 H 102.96 -0.667825 0.0651943 0
M  V30 1127 H 105.504 -1.87115 0.82511 0
M  V30 1128 H 103.659 -3.80378 -0.734251 0
M  V30 1129 H 104.073 -5.14323 1.02821 0
M  V30 1130 H 105.547 -5.48182 -0.648131 0
M  V30 1131 H 106.024 -4.08568 -1.61147 0
M  V30 1132 H 106.63 -4.25268 0.0523679 0
M  V30 1133 N 104.945 -0.338344 -1.53925 0
M  V30 1134 C 105.908 0.508299 -2.23493 0
M  V30 1135 C 106.908 1.03175 -1.23335 0
M  V30 1136 O 108.098 0.921826 -1.47811 0
M  V30 1137 C 105.23 1.70754 -2.95052 0
M  V30 1138 H 106.423 -0.100058 -2.99733 0
M  V30 1139 H 103.976 -0.0896198 -1.56043 0
M  V30 1140 H 104.711 2.35474 -2.22986 0
M  V30 1141 H 104.496 1.33946 -3.68512 0
M  V30 1142 H 105.986 2.30818 -3.48013 0
M  V30 1143 N 106.423 1.57458 -0.0668435 0
M  V30 1144 C 107.353 2.15468 0.899764 0
M  V30 1145 C 108.334 1.08042 1.31381 0
M  V30 1146 O 109.519 1.36054 1.38574 0
M  V30 1147 C 106.649 2.71232 2.16911 0
M  V30 1148 C 105.603 3.83781 1.89463 0
M  V30 1149 C 104.929 4.26127 3.22986 0
M  V30 1150 C 106.229 5.08238 1.20381 0
M  V30 1151 H 107.923 2.96488 0.416529 0
M  V30 1152 H 105.469 1.4262 0.198908 0
M  V30 1153 H 107.422 3.10458 2.84945 0
M  V30 1154 H 106.146 1.87426 2.67468 0
M  V30 1155 H 104.805 3.45051 1.23836 0
M  V30 1156 H 104.453 3.39249 3.71374 0
M  V30 1157 H 104.153 5.01993 3.05413 0
M  V30 1158 H 105.677 4.67966 3.92225 0
M  V30 1159 H 107.091 5.44811 1.78475 0
M  V30 1160 H 105.488 5.89349 1.13083 0
M  V30 1161 H 106.558 4.84558 0.182153 0
M  V30 1162 N 107.901 -0.206675 1.56239 0
M  V30 1163 C 109.149 -0.927007 1.79586 0
M  V30 1164 C 109.47 -1.8427 0.637929 0
M  V30 1165 O 108.74 -1.92849 -0.344398 0
M  V30 1166 H 107.32 -0.345292 0.662407 0
M  V30 1167 H 109.982 -0.21496 1.93711 0
M  V30 1168 H 109.078 -1.52501 2.72305 0
M  V30 1169 N 109.379 -1.50304 -0.473955 0
M  V30 1170 C 110.627 -1.60832 -1.22382 0
M  V30 1171 C 110.948 -0.30939 -1.9253 0
M  V30 1172 O 110.218 0.67296 -1.83978 0
M  V30 1173 H 108.798 -0.592652 -0.454723 0
M  V30 1174 H 111.46 -1.87068 -0.546968 0
M  V30 1175 H 110.556 -2.41803 -1.97327 0
M  V30 1176 N 110.857 0.726932 -1.39834 0
M  V30 1177 C 112.106 1.48214 -1.36805 0
M  V30 1178 C 112.419 1.95576 0.0305291 0
M  V30 1179 O 113.625 2.7088 0.183417 0
M  V30 1180 C 112.081 2.67854 -2.40379 0
M  V30 1181 C 111.689 2.27408 -3.85992 0
M  V30 1182 C 113.433 3.45641 -2.46439 0
M  V30 1183 C 111.34 3.43819 -4.81189 0
M  V30 1184 H 110.27 0.556606 -0.508631 0
M  V30 1185 H 112.921 0.792216 -1.65518 0
M  V30 1186 H 111.303 3.3896 -2.04749 0
M  V30 1187 H 112.477 1.63795 -4.30706 0
M  V30 1188 H 110.792 1.62692 -3.83302 0
M  V30 1189 H 113.389 4.32244 -3.14753 0
M  V30 1190 H 113.732 3.88669 -1.49139 0
M  V30 1191 H 114.265 2.8157 -2.81004 0
M  V30 1192 H 111.004 3.05834 -5.79781 0
M  V30 1193 H 110.524 4.06385 -4.41148 0
M  V30 1194 H 112.203 4.10043 -5.00474 0
M  V30 1195 N 112.336 1.25143 0.95797 0
M  V30 1196 C 113.266 1.07711 2.07173 0
M  V30 1197 C 114.247 -0.0128462 1.70095 0
M  V30 1198 O 115.432 0.156061 1.93572 0
M  V30 1199 C 112.562 0.691503 3.40346 0
M  V30 1200 C 111.516 1.73132 3.9142 0
M  V30 1201 C 110.842 1.20049 5.21049 0
M  V30 1202 C 112.142 3.1294 4.1817 0
M  V30 1203 H 113.836 2.00873 2.22014 0
M  V30 1204 H 111.382 0.967191 1.06684 0
M  V30 1205 H 113.335 0.556505 4.17709 0
M  V30 1206 H 112.059 -0.275819 3.25433 0
M  V30 1207 H 110.718 1.8547 3.16222 0
M  V30 1208 H 110.366 0.223499 5.02503 0
M  V30 1209 H 110.066 1.89545 5.56189 0
M  V30 1210 H 111.59 1.07782 6.01012 0
M  V30 1211 H 113.004 3.03775 4.86203 0
M  V30 1212 H 111.401 3.79875 4.64559 0
M  V30 1213 H 112.471 3.6025 3.24573 0
M  V30 1214 N 113.814 -1.1601 1.06675 0
M  V30 1215 C 114.761 -2.20525 0.680967 0
M  V30 1216 C 115.731 -1.62904 -0.324283 0
M  V30 1217 O 116.916 -1.89615 -0.212294 0
M  V30 1218 C 114.056 -3.45013 0.0776551 0
M  V30 1219 C 113.169 -4.16863 1.13355 0
M  V30 1220 C 112.304 -5.2888 0.49597 0
M  V30 1221 C 111.343 -5.92537 1.53513 0
M  V30 1222 N 110.48 -6.96038 0.920631 0
M  V30 1223 H 115.32 -2.52876 1.57663 0
M  V30 1224 H 112.857 -1.24199 0.788223 0
M  V30 1225 H 114.815 -4.16193 -0.289704 0
M  V30 1226 H 113.445 -3.132 -0.781393 0
M  V30 1227 H 112.497 -3.44248 1.61857 0
M  V30 1228 H 113.809 -4.60294 1.92174 0
M  V30 1229 H 112.963 -6.06653 0.0758604 0
M  V30 1230 H 111.702 -4.86622 -0.324062 0
M  V30 1231 H 110.707 -5.13482 1.9651 0
M  V30 1232 H 111.932 -6.36873 2.35733 0
M  V30 1233 H 109.878 -6.55888 0.12138 0
M  V30 1234 H 109.795 -7.3786 1.64616 0
M  V30 1235 H 111.063 -7.77725 0.525795 0
M  V30 1236 N 115.292 -0.849877 -1.32721 0
M  V30 1237 C 116.239 -0.289033 -2.28983 0
M  V30 1238 C 117.209 0.601324 -1.54833 0
M  V30 1239 O 118.394 0.537253 -1.8308 0
M  V30 1240 C 115.534 0.520623 -3.4115 0
M  V30 1241 C 114.647 -0.394989 -4.3019 0
M  V30 1242 C 113.782 0.426834 -5.29482 0
M  V30 1243 C 112.821 -0.486476 -6.10164 0
M  V30 1244 N 111.958 0.297879 -7.01468 0
M  V30 1245 H 116.798 -1.11519 -2.76347 0
M  V30 1246 H 114.335 -0.56138 -1.35967 0
M  V30 1247 H 116.293 1.00563 -4.04899 0
M  V30 1248 H 114.923 1.31165 -2.9495 0
M  V30 1249 H 113.975 -0.99836 -3.67065 0
M  V30 1250 H 115.287 -1.09612 -4.86607 0
M  V30 1251 H 114.441 0.975205 -5.98811 0
M  V30 1252 H 113.18 1.16136 -4.73671 0
M  V30 1253 H 112.185 -1.04677 -5.39743 0
M  V30 1254 H 113.41 -1.21953 -6.6806 0
M  V30 1255 H 111.356 1.01558 -6.48091 0
M  V30 1256 H 111.273 -0.344318 -7.55216 0
M  V30 1257 H 112.541 0.828131 -7.75089 0
M  V30 1258 N 116.77 1.45427 -0.607355 0
M  V30 1259 C 117.717 2.3053 0.111625 0
M  V30 1260 C 118.687 1.4209 0.860216 0
M  V30 1261 O 119.872 1.71019 0.845998 0
M  V30 1262 C 117.012 3.26992 1.10319 0
M  V30 1263 C 116.125 4.30535 0.355493 0
M  V30 1264 C 115.26 5.14105 1.33676 0
M  V30 1265 C 114.299 6.09376 0.576862 0
M  V30 1266 N 113.436 6.85727 1.5074 0
M  V30 1267 H 118.276 2.91477 -0.620093 0
M  V30 1268 H 115.813 1.43631 -0.317594 0
M  V30 1269 H 117.771 3.81385 1.6912 0
M  V30 1270 H 116.401 2.67799 1.80232 0
M  V30 1271 H 115.453 3.78805 -0.348023 0
M  V30 1272 H 116.765 4.98235 -0.237423 0
M  V30 1273 H 115.919 5.72897 1.99684 0
M  V30 1274 H 114.658 4.46423 1.9636 0
M  V30 1275 H 113.663 5.49715 -0.0968519 0
M  V30 1276 H 114.888 6.79085 -0.0449341 0
M  V30 1277 H 112.834 6.20735 2.12189 0
M  V30 1278 H 112.751 7.49778 0.967913 0
M  V30 1279 H 114.019 7.4906 2.15706 0
M  V30 1280 N 118.248 0.346503 1.53744 0
M  V30 1281 C 119.496 -0.248612 2.00565 0
M  V30 1282 C 119.817 -1.5083 1.23593 0
M  V30 1283 O 119.087 -1.92858 0.343912 0
M  V30 1284 H 117.667 -0.0948564 0.740953 0
M  V30 1285 H 120.329 0.468341 1.89189 0
M  V30 1286 H 119.425 -0.488994 3.08245 0
M  V30 1287 N 119.726 -1.57421 0.075193 0
M  V30 1288 C 120.676 -2.09441 -0.901025 0
M  V30 1289 C 121.66 -1.00486 -1.25663 0
M  V30 1290 O 122.852 -1.2679 -1.23504 0
M  V30 1291 C 119.981 -2.66233 -2.16737 0
M  V30 1292 C 119.067 -3.82198 -1.83808 0
M  V30 1293 N 119.458 -4.91028 -1.21345 0
M  V30 1294 C 117.756 -3.91558 -2.13538 0
M  V30 1295 C 118.457 -5.71852 -1.06585 0
M  V30 1296 N 117.433 -5.20233 -1.57667 0
M  V30 1297 H 121.235 -2.90972 -0.413815 0
M  V30 1298 H 118.749 -1.6189 -0.128601 0
M  V30 1299 H 120.746 -3.01819 -2.87595 0
M  V30 1300 H 119.406 -1.8615 -2.66042 0
M  V30 1301 H 120.417 -5.10323 -0.88268 0
M  V30 1302 H 117.094 -3.22454 -2.65197 0
M  V30 1303 H 118.484 -6.69401 -0.578933 0
M  V30 1304 N 121.204 0.198386 -1.56346 0
M  V30 1305 C 122.154 1.2499 -1.90687 0
M  V30 1306 C 123.138 1.41158 -0.772217 0
M  V30 1307 O 124.33 1.43584 -1.03502 0
M  V30 1308 C 121.459 2.59542 -2.24706 0
M  V30 1309 C 120.545 2.47181 -3.44619 0
M  V30 1310 N 120.936 2.04495 -4.62618 0
M  V30 1311 C 119.234 2.78082 -3.48692 0
M  V30 1312 C 119.935 2.03945 -5.44776 0
M  V30 1313 N 118.911 2.45323 -4.85095 0
M  V30 1314 H 122.713 0.911149 -2.7942 0
M  V30 1315 H 120.227 0.40684 -1.57221 0
M  V30 1316 H 122.224 3.3549 -2.47491 0
M  V30 1317 H 120.884 2.94244 -1.37298 0
M  V30 1318 H 121.895 1.75256 -4.87345 0
M  V30 1319 H 118.572 3.17002 -2.71691 0
M  V30 1320 H 119.962 1.72872 -6.4928 0
M  V30 1321 N 122.682 1.50554 0.465978 0
M  V30 1322 C 123.592 1.72585 1.58907 0
M  V30 1323 C 124.608 0.60911 1.6299 0
M  V30 1324 O 125.784 0.88804 1.80765 0
M  V30 1325 C 122.849 1.81995 2.95091 0
M  V30 1326 C 121.91 3.05751 3.01355 0
M  V30 1327 C 121.143 3.14702 4.31043 0
M  V30 1328 O 121.366 2.30313 5.21835 0
M  V30 1329 O 120.3 4.07468 4.43005 0
M  V30 1330 H 124.126 2.67799 1.43239 0
M  V30 1331 H 121.711 1.34711 0.646013 0
M  V30 1332 H 123.593 1.90335 3.75966 0
M  V30 1333 H 122.268 0.899659 3.10947 0
M  V30 1334 H 121.175 3.02908 2.19539 0
M  V30 1335 H 122.508 3.97375 2.90437 0
M  V30 1336 N 124.16 -0.719506 1.40217 0
M  V30 1337 C 125.123 -1.8153 1.39927 0
M  V30 1338 C 126.123 -1.58095 0.293723 0
M  V30 1339 O 127.313 -1.65209 0.552429 0
M  V30 1340 C 124.445 -3.19561 1.18716 0
M  V30 1341 H 125.638 -1.83186 2.37451 0
M  V30 1342 H 123.191 -0.924746 1.26008 0
M  V30 1343 H 123.926 -3.23557 0.219366 0
M  V30 1344 H 123.711 -3.3797 1.98793 0
M  V30 1345 H 125.201 -3.99598 1.21291 0
M  V30 1346 N 125.638 -1.25649 -0.95132 0
M  V30 1347 C 126.548 -1.08073 -2.08224 0
M  V30 1348 C 127.564 -0.0169666 -1.73992 0
M  V30 1349 O 128.74 -0.218593 -2.0021 0
M  V30 1350 C 125.805 -0.704922 -3.39458 0
M  V30 1351 C 124.866 -1.84699 -3.87537 0
M  V30 1352 C 124.099 -1.48902 -5.12508 0
M  V30 1353 O 124.322 -0.386156 -5.69091 0
M  V30 1354 O 123.256 -2.32033 -5.55378 0
M  V30 1355 H 127.082 -2.02924 -2.25954 0
M  V30 1356 H 124.667 -1.04618 -1.06656 0
M  V30 1357 H 126.549 -0.507609 -4.18332 0
M  V30 1358 H 125.224 0.214291 -3.2299 0
M  V30 1359 H 124.131 -2.09919 -3.09653 0
M  V30 1360 H 125.464 -2.74557 -4.08509 0
M  V30 1361 N 127.117 1.15442 -1.07289 0
M  V30 1362 C 128.366 1.85557 -0.790669 0
M  V30 1363 C 128.679 1.83186 0.685739 0
M  V30 1364 O 129.885 2.48977 1.0827 0
M  V30 1365 C 128.341 3.33038 -1.36433 0
M  V30 1366 C 127.949 3.43856 -2.8717 0
M  V30 1367 C 129.693 4.0834 -1.1601 0
M  V30 1368 C 127.6 4.85482 -3.3773 0
M  V30 1369 H 126.53 0.695122 -0.292098 0
M  V30 1370 H 129.181 1.30219 -1.29287 0
M  V30 1371 H 127.563 3.88043 -0.789864 0
M  V30 1372 H 128.737 2.98961 -3.50655 0
M  V30 1373 H 127.052 2.81998 -3.06376 0
M  V30 1374 H 129.649 5.12859 -1.51262 0
M  V30 1375 H 129.992 4.16182 -0.0991007 0
M  V30 1376 H 130.525 3.59603 -1.70089 0
M  V30 1377 H 127.264 4.82823 -4.43353 0
M  V30 1378 H 126.784 5.30961 -2.78999 0
M  V30 1379 H 128.463 5.54335 -3.33648 0
M  V30 1380 N 128.595 0.856903 1.32268 0
M  V30 1381 C 129.542 0.301172 2.28827 0
M  V30 1382 C 130.512 -0.593104 1.5515 0
M  V30 1383 O 131.697 -0.527537 1.83362 0
M  V30 1384 C 128.837 -0.502523 3.41422 0
M  V30 1385 C 127.95 0.417797 4.29975 0
M  V30 1386 C 127.085 -0.398749 5.29701 0
M  V30 1387 C 126.124 0.518827 6.09897 0
M  V30 1388 N 125.261 -0.260674 7.01616 0
M  V30 1389 H 130.101 1.12983 2.75751 0
M  V30 1390 H 127.638 0.568582 1.35667 0
M  V30 1391 H 129.596 -0.984141 4.05426 0
M  V30 1392 H 128.226 -1.29599 2.95642 0
M  V30 1393 H 127.278 1.01781 3.66531 0
M  V30 1394 H 128.59 1.12191 4.86019 0
M  V30 1395 H 127.744 -0.943435 5.9932 0
M  V30 1396 H 126.483 -1.13622 4.7428 0
M  V30 1397 H 125.488 1.07538 5.39181 0
M  V30 1398 H 126.713 1.25495 6.67404 0
M  V30 1399 H 124.659 -0.981198 6.4862 0
M  V30 1400 H 124.576 0.384364 7.55022 0
M  V30 1401 H 125.844 -0.787014 7.75517 0
M  V30 1402 N 130.073 -1.45103 0.615059 0
M  V30 1403 C 131.484 -1.85654 0.197383 0
M  V30 1404 C 131.835 -1.51433 -1.24749 0
M  V30 1405 O 130.96 -0.944608 -1.94695 0
M  V30 1406 C 131.555 -3.36972 0.351448 0
M  V30 1407 C 130.114 -3.76398 -0.011593 0
M  V30 1408 C 129.261 -2.69024 0.672394 0
M  V30 1409 H 132.212 -1.35797 0.821263 0
M  V30 1410 H 132.233 -3.78239 -0.414227 0
M  V30 1411 H 131.745 -3.61847 1.40314 0
M  V30 1412 H 129.846 -3.5714 -1.06217 0
M  V30 1413 H 129.959 -4.77532 0.387265 0
M  V30 1414 H 128.323 -2.54465 0.109284 0
M  V30 1415 H 129.106 -2.96735 1.72636 0
M  V30 1416 N 131.551 -0.354651 -1.53558 0
M  V30 1417 C 132.481 0.489091 -2.2832 0
M  V30 1418 C 133.462 1.09324 -1.30316 0
M  V30 1419 O 134.647 1.11255 -1.59173 0
M  V30 1420 C 131.777 1.63456 -3.0643 0
M  V30 1421 C 130.731 1.1582 -4.12031 0
M  V30 1422 C 130.057 2.39305 -4.7816 0
M  V30 1423 C 131.357 0.250731 -5.21698 0
M  V30 1424 H 133.051 -0.134614 -2.99097 0
M  V30 1425 H 130.597 -0.0661826 -1.43848 0
M  V30 1426 H 132.55 2.23136 -3.57475 0
M  V30 1427 H 131.274 2.28533 -2.33325 0
M  V30 1428 H 129.933 0.584146 -3.61916 0
M  V30 1429 H 129.581 3.02814 -4.01637 0
M  V30 1430 H 129.281 2.08109 -5.49513 0
M  V30 1431 H 130.805 2.99691 -5.31994 0
M  V30 1432 H 132.219 0.754695 -5.68311 0
M  V30 1433 H 130.616 0.0301468 -6.00092 0
M  V30 1434 H 131.686 -0.710125 -4.79672 0
M  V30 1435 N 133.029 1.57378 -0.0835403 0
M  V30 1436 C 133.992 2.12252 0.864959 0
M  V30 1437 C 134.992 1.04916 1.21858 0
M  V30 1438 O 136.182 1.30853 1.14991 0
M  V30 1439 C 133.314 2.63358 2.16461 0
M  V30 1440 H 134.507 2.97371 0.388676 0
M  V30 1441 H 132.06 1.55423 0.165317 0
M  V30 1442 H 132.795 1.81727 2.686 0
M  V30 1443 H 132.58 3.41826 1.92087 0
M  V30 1444 H 134.07 3.05847 2.84337 0
M  V30 1445 N 134.507 -0.190092 1.56449 0
M  V30 1446 C 135.439 -1.25973 1.91477 0
M  V30 1447 C 136.452 -1.41452 0.805931 0
M  V30 1448 O 137.641 -1.41789 1.08435 0
M  V30 1449 C 134.741 -2.63117 2.13594 0
M  V30 1450 C 133.914 -2.69182 3.4476 0
M  V30 1451 C 132.973 -3.87557 3.5593 0
M  V30 1452 O 131.999 -3.74427 4.28711 0
M  V30 1453 N 133.201 -5.03224 2.89388 0
M  V30 1454 H 135.966 -0.962394 2.83828 0
M  V30 1455 H 133.527 -0.379981 1.57378 0
M  V30 1456 H 135.519 -3.40742 2.1835 0
M  V30 1457 H 134.089 -2.85319 1.27719 0
M  V30 1458 H 133.309 -1.77793 3.51828 0
M  V30 1459 H 134.597 -2.70229 4.31107 0
M  V30 1460 H 133.995 -5.16791 2.30094 0
M  V30 1461 H 132.552 -5.78778 2.99764 0
M  V30 1462 N 135.985 -1.50799 -0.457987 0
M  V30 1463 C 137.21 -1.66496 -1.23668 0
M  V30 1464 C 137.635 -0.353288 -1.84752 0
M  V30 1465 O 136.993 0.684346 -1.67888 0
M  V30 1466 C 137.041 -2.76763 -2.3116 0
M  V30 1467 O 136.145 -2.38928 -3.36136 0
M  V30 1468 H 135.486 -0.555828 -0.363252 0
M  V30 1469 H 138.016 -1.9725 -0.543474 0
M  V30 1470 H 138.026 -3.00232 -2.76269 0
M  V30 1471 H 136.701 -3.71954 -1.86073 0
M  V30 1472 H 135.278 -2.25953 -2.96647 0
M  V30 1473 N 137.463 0.71206 -1.40597 0
M  V30 1474 C 138.413 1.81783 -1.37619 0
M  V30 1475 C 139.397 1.58896 -0.253162 0
M  V30 1476 O 140.589 1.70009 -0.492547 0
M  V30 1477 C 137.718 3.19944 -1.24462 0
M  V30 1478 C 136.804 3.48582 -2.4156 0
M  V30 1479 N 137.195 3.48016 -3.67041 0
M  V30 1480 C 135.493 3.79056 -2.35016 0
M  V30 1481 C 136.194 3.75096 -4.44609 0
M  V30 1482 N 135.17 3.94022 -3.74497 0
M  V30 1483 H 138.972 1.79683 -2.32575 0
M  V30 1484 H 136.486 0.91134 -1.34419 0
M  V30 1485 H 138.483 3.99133 -1.20411 0
M  V30 1486 H 137.143 3.23267 -0.304762 0
M  V30 1487 H 138.154 3.28782 -4.00153 0
M  V30 1488 H 134.831 3.89848 -1.49415 0
M  V30 1489 H 136.221 3.80934 -5.53479 0
M  V30 1490 N 138.941 1.26152 0.944643 0
M  V30 1491 C 139.904 1.07474 2.0244 0
M  V30 1492 C 140.904 0.0242064 1.60782 0
M  V30 1493 O 142.094 0.267302 1.72137 0
M  V30 1494 C 139.226 0.633956 3.34953 0
M  V30 1495 H 140.419 2.03336 2.20442 0
M  V30 1496 H 137.972 1.087 1.12312 0
M  V30 1497 H 138.707 -0.326811 3.22649 0
M  V30 1498 H 138.492 1.39247 3.66542 0
M  V30 1499 H 139.982 0.52501 4.14287 0
M  V30 1500 N 140.419 -1.14872 1.07899 0
M  V30 1501 C 141.647 -1.89661 0.82683 0
M  V30 1502 C 142.062 -1.78312 -0.620519 0
M  V30 1503 O 141.419 -1.13888 -1.42604 0
M  V30 1504 C 141.47 -3.39817 1.23316 0
M  V30 1505 O 141.191 -3.50845 2.62372 0
M  V30 1506 C 142.692 -4.31615 1.0111 0
M  V30 1507 H 139.912 -0.60092 0.298557 0
M  V30 1508 H 142.456 -1.4551 1.43691 0
M  V30 1509 H 140.611 -3.8161 0.667286 0
M  V30 1510 H 141.025 -4.44076 2.79101 0
M  V30 1511 H 142.499 -5.35367 1.34486 0
M  V30 1512 H 142.976 -4.39169 -0.0522168 0
M  V30 1513 H 143.582 -3.95572 1.56215 0
M  V30 1514 N 141.898 -0.863906 -1.31812 0
M  V30 1515 C 142.845 -0.313303 -2.28664 0
M  V30 1516 C 143.815 0.584868 -1.55462 0
M  V30 1517 O 145 0.517805 -1.83639 0
M  V30 1518 C 142.14 0.48441 -3.41683 0
M  V30 1519 C 141.253 -0.440594 -4.29747 0
M  V30 1520 C 140.388 0.370652 -5.29905 0
M  V30 1521 C 139.427 -0.551164 -6.09613 0
M  V30 1522 N 138.564 0.223462 -7.01744 0
M  V30 1523 H 143.404 -1.14444 -2.75148 0
M  V30 1524 H 140.941 -0.575769 -1.35364 0
M  V30 1525 H 142.899 0.962627 -4.05943 0
M  V30 1526 H 141.529 1.28029 -2.96325 0
M  V30 1527 H 140.581 -1.03724 -3.65986 0
M  V30 1528 H 141.893 -1.14767 -4.85417 0
M  V30 1529 H 141.047 0.911638 -5.99812 0
M  V30 1530 H 139.786 1.11105 -4.74876 0
M  V30 1531 H 138.791 -1.10396 -5.38603 0
M  V30 1532 H 140.016 -1.29032 -6.66729 0
M  V30 1533 H 137.962 0.946787 -6.49132 0
M  V30 1534 H 137.879 -0.424399 -7.54808 0
M  V30 1535 H 139.147 0.745876 -7.75923 0
M  V30 1536 N 143.376 1.44774 -0.622745 0
M  V30 1537 C 144.326 2.2774 0.108889 0
M  V30 1538 C 145.31 1.38189 0.824175 0
M  V30 1539 O 146.502 1.62063 0.711664 0
M  V30 1540 C 143.631 3.25353 1.09546 0
M  V30 1541 C 142.717 4.22392 0.380232 0
M  V30 1542 N 143.108 5.02388 -0.586535 0
M  V30 1543 C 141.406 4.41588 0.625792 0
M  V30 1544 C 142.107 5.72894 -1.00834 0
M  V30 1545 N 141.083 5.42479 -0.348878 0
M  V30 1546 H 144.885 2.86993 -0.63341 0
M  V30 1547 H 142.399 1.5611 -0.447589 0
M  V30 1548 H 144.396 3.83538 1.63414 0
M  V30 1549 H 143.056 2.6766 1.83815 0
M  V30 1550 H 144.067 5.0885 -0.963975 0
M  V30 1551 H 140.744 3.95003 1.352 0
M  V30 1552 H 142.134 6.47158 -1.80656 0
M  V30 1553 N 144.854 0.36279 1.53368 0
M  V30 1554 C 145.801 -0.485008 2.25646 0
M  V30 1555 C 146.771 -1.07982 1.2621 0
M  V30 1556 O 147.956 -1.11284 1.54986 0
M  V30 1557 C 145.096 -1.62023 3.04701 0
M  V30 1558 C 144.209 -1.05086 4.19024 0
M  V30 1559 C 143.344 -2.15496 4.85525 0
M  V30 1560 C 142.383 -1.5601 5.91884 0
M  V30 1561 N 141.52 -2.60241 6.52088 0
M  V30 1562 H 146.36 0.137864 2.97681 0
M  V30 1563 H 143.897 0.0798061 1.46883 0
M  V30 1564 H 145.855 -2.28887 3.48807 0
M  V30 1565 H 144.485 -2.2138 2.34927 0
M  V30 1566 H 143.537 -0.27259 3.79422 0
M  V30 1567 H 144.849 -0.575926 4.95464 0
M  V30 1568 H 144.003 -2.90186 5.32801 0
M  V30 1569 H 142.742 -2.66341 4.08551 0
M  V30 1570 H 141.747 -0.798338 5.43973 0
M  V30 1571 H 142.972 -1.05994 6.70777 0
M  V30 1572 H 140.918 -3.10304 5.77968 0
M  V30 1573 H 140.835 -2.17426 7.24059 0
M  V30 1574 H 142.103 -3.34641 7.04014 0
M  V30 1575 N 146.332 -1.57332 0.0918853 0
M  V30 1576 C 147.581 -1.93412 -0.572249 0
M  V30 1577 C 147.894 -0.975515 -1.69538 0
M  V30 1578 O 149.1 -1.22991 -2.42045 0
M  V30 1579 C 147.556 -3.43648 -1.0693 0
M  V30 1580 C 147.164 -4.47994 0.0239049 0
M  V30 1581 C 148.908 -3.88695 -1.70635 0
M  V30 1582 C 146.815 -5.89381 -0.488319 0
M  V30 1583 H 145.745 -0.721939 -0.217532 0
M  V30 1584 H 148.396 -1.82735 0.167369 0
M  V30 1585 H 146.778 -3.49466 -1.8625 0
M  V30 1586 H 147.952 -4.53815 0.799277 0
M  V30 1587 H 146.267 -4.12536 0.565946 0
M  V30 1588 H 148.864 -4.91725 -2.10025 0
M  V30 1589 H 149.207 -3.27166 -2.57426 0
M  V30 1590 H 149.74 -3.85564 -0.979023 0
M  V30 1591 H 146.479 -6.54602 0.342906 0
M  V30 1592 H 145.999 -5.87037 -1.23077 0
M  V30 1593 H 147.678 -6.39863 -0.958317 0
M  V30 1594 N 147.81 0.181792 -1.56548 0
M  V30 1595 C 149.221 0.745244 -1.71181 0
M  V30 1596 C 149.572 1.83262 -0.70068 0
M  V30 1597 O 148.697 2.15946 0.140154 0
M  V30 1598 C 149.292 1.35859 -3.10367 0
M  V30 1599 C 147.851 1.86898 -3.2672 0
M  V30 1600 C 146.998 0.743942 -2.67134 0
M  V30 1601 H 149.949 -0.0434661 -1.5864 0
M  V30 1602 H 149.97 2.22817 -3.08436 0
M  V30 1603 H 149.482 0.566948 -3.83937 0
M  V30 1604 H 147.583 2.68738 -2.5809 0
M  V30 1605 H 147.696 2.02162 -4.34359 0
M  V30 1606 H 146.06 1.16169 -2.26665 0
M  V30 1607 H 146.843 -0.035676 -3.43281 0
M  V30 1608 N 149.288 1.51039 0.449983 0
M  V30 1609 C 150.534 1.63322 1.20223 0
M  V30 1610 C 150.867 0.34241 1.91158 0
M  V30 1611 O 150.142 -0.657344 1.83055 0
M  V30 1612 C 150.425 2.82801 2.22925 0
M  V30 1613 C 150.278 4.21823 1.56157 0
M  V30 1614 C 151.597 2.97807 3.24035 0
M  V30 1615 H 148.716 0.594407 0.435718 0
M  V30 1616 H 151.358 1.83489 0.493136 0
M  V30 1617 H 149.508 2.65738 2.834 0
M  V30 1618 H 151.18 4.50526 0.991162 0
M  V30 1619 H 149.423 4.25105 0.864172 0
M  V30 1620 H 150.094 5.01391 2.30891 0
M  V30 1621 H 152.57 3.13497 2.73603 0
M  V30 1622 H 151.446 3.82992 3.93202 0
M  V30 1623 H 151.707 2.09328 3.89402 0
M  V30 1624 N 150.766 -0.704594 1.40972 0
M  V30 1625 C 151.713 -1.81862 1.42109 0
M  V30 1626 C 152.683 -1.63781 0.276593 0
M  V30 1627 O 153.868 -1.84759 0.4763 0
M  V30 1628 C 151.008 -3.19669 1.30022 0
M  V30 1629 C 150.121 -3.49246 2.54267 0
M  V30 1630 C 149.256 -4.76618 2.3454 0
M  V30 1631 C 148.295 -4.99133 3.54306 0
M  V30 1632 N 147.432 -6.17726 3.33706 0
M  V30 1633 H 152.272 -1.80226 2.37324 0
M  V30 1634 H 149.809 -0.880238 1.17857 0
M  V30 1635 H 151.767 -3.99263 1.21018 0
M  V30 1636 H 150.397 -3.20506 0.384192 0
M  V30 1637 H 149.449 -2.64125 2.73756 0
M  V30 1638 H 150.761 -3.61788 3.43381 0
M  V30 1639 H 149.915 -5.64249 2.22952 0
M  V30 1640 H 148.654 -4.66305 1.42867 0
M  V30 1641 H 147.659 -4.09953 3.66359 0
M  V30 1642 H 148.884 -5.11311 4.4692 0
M  V30 1643 H 146.83 -6.08642 2.44725 0
M  V30 1644 H 146.747 -6.30995 4.16391 0
M  V30 1645 H 148.015 -7.08115 3.25873 0
M  V30 1646 N 152.244 -1.26651 -0.937939 0
M  V30 1647 C 153.474 -1.15006 -1.71631 0
M  V30 1648 C 153.882 0.297026 -1.86854 0
M  V30 1649 O 153.225 1.21493 -1.37786 0
M  V30 1650 C 153.287 -1.74984 -3.14039 0
M  V30 1651 C 152.951 -3.24103 -3.2219 0
M  V30 1652 C 153.948 -4.20877 -3.05219 0
M  V30 1653 C 151.633 -3.64625 -3.45476 0
M  V30 1654 C 153.627 -5.56151 -3.11408 0
M  V30 1655 C 151.314 -5.00032 -3.513 0
M  V30 1656 C 152.312 -5.95604 -3.34282 0
M  V30 1657 O 152 -7.28545 -3.3982 0
M  V30 1658 H 151.732 -0.401183 -0.544085 0
M  V30 1659 H 154.286 -1.67832 -1.18413 0
M  V30 1660 H 152.516 -1.16624 -3.68695 0
M  V30 1661 H 154.205 -1.58199 -3.73802 0
M  V30 1662 H 154.971 -3.90908 -2.87081 0
M  V30 1663 H 150.85 -2.90718 -3.57777 0
M  V30 1664 H 154.394 -6.30727 -2.98043 0
M  V30 1665 H 150.291 -5.29659 -3.68959 0
M  V30 1666 H 151.059 -7.3686 -3.56343 0
M  V30 1667 N 153.722 1.14298 -1.08507 0
M  V30 1668 C 154.652 2.21542 -0.737646 0
M  V30 1669 C 155.633 1.67773 0.280377 0
M  V30 1670 O 156.818 1.93616 0.150521 0
M  V30 1671 C 153.948 3.46988 -0.147259 0
M  V30 1672 C 152.902 4.13789 -1.09374 0
M  V30 1673 C 152.228 5.33449 -0.365524 0
M  V30 1674 C 153.528 4.62208 -2.4323 0
M  V30 1675 H 155.222 2.5086 -1.6343 0
M  V30 1676 H 152.768 1.20576 -0.787243 0
M  V30 1677 H 154.721 4.21262 0.107808 0
M  V30 1678 H 153.445 3.17037 0.784538 0
M  V30 1679 H 152.104 3.4147 -1.33393 0
M  V30 1680 H 151.752 4.99759 0.57011 0
M  V30 1681 H 151.452 5.79088 -0.996512 0
M  V30 1682 H 152.976 6.10485 -0.118534 0
M  V30 1683 H 154.39 5.27952 -2.23472 0
M  V30 1684 H 152.787 5.18553 -3.02031 0
M  V30 1685 H 153.857 3.77224 -3.04681 0
M  V30 1686 N 155.201 0.870884 1.31352 0
M  V30 1687 C 156.111 0.330783 2.32256 0
M  V30 1688 C 157.127 -0.559767 1.6475 0
M  V30 1689 O 158.303 -0.456263 1.96164 0
M  V30 1690 C 155.368 -0.458137 3.4366 0
M  V30 1691 C 154.429 0.460482 4.26823 0
M  V30 1692 C 153.662 -0.290881 5.32907 0
M  V30 1693 O 153.885 -1.51885 5.49806 0
M  V30 1694 O 152.819 0.351732 6.00871 0
M  V30 1695 H 156.645 1.16718 2.80376 0
M  V30 1696 H 154.23 0.634285 1.35267 0
M  V30 1697 H 156.112 -0.905343 4.1156 0
M  V30 1698 H 154.787 -1.27106 2.97701 0
M  V30 1699 H 153.694 0.956207 3.61673 0
M  V30 1700 H 155.027 1.23903 4.7635 0
M  V30 1701 N 156.679 -1.44442 0.630414 0
M  V30 1702 C 157.926 -2.02052 0.134617 0
M  V30 1703 C 158.254 -1.49576 -1.24327 0
M  V30 1704 O 157.509 -0.669806 -1.83881 0
M  V30 1705 C 157.808 -3.57332 0.0697835 0
M  V30 1706 C 157.474 -4.29058 1.38635 0
M  V30 1707 C 156.136 -4.4837 1.74694 0
M  V30 1708 C 158.488 -4.69872 2.25543 0
M  V30 1709 C 155.816 -5.05756 2.97369 0
M  V30 1710 C 158.168 -5.28616 3.47487 0
M  V30 1711 C 156.832 -5.46147 3.8377 0
M  V30 1712 H 156.102 -0.739361 0.0492598 0
M  V30 1713 H 158.749 -1.73217 0.816586 0
M  V30 1714 H 157.054 -3.85577 -0.695553 0
M  V30 1715 H 158.751 -3.99637 -0.330344 0
M  V30 1716 H 155.341 -4.14357 1.09574 0
M  V30 1717 H 159.525 -4.54666 1.98979 0
M  V30 1718 H 154.781 -5.17515 3.25558 0
M  V30 1719 H 158.955 -5.59192 4.15063 0
M  V30 1720 H 156.582 -5.9038 4.7891 0
M  V30 1721 N 158.157 -0.370918 -1.53173 0
M  V30 1722 C 159.406 0.218249 -2.00516 0
M  V30 1723 C 159.719 1.49429 -1.26215 0
M  V30 1724 O 160.925 2.16239 -1.64174 0
M  V30 1725 C 159.381 0.43948 -3.57207 0
M  V30 1726 C 158.989 -0.822244 -4.4039 0
M  V30 1727 C 160.733 0.986012 -4.1289 0
M  V30 1728 C 158.64 -0.570304 -5.88644 0
M  V30 1729 H 157.57 0.0853333 -0.749156 0
M  V30 1730 H 160.221 -0.490483 -1.76823 0
M  V30 1731 H 158.603 1.20961 -3.77074 0
M  V30 1732 H 159.777 -1.59557 -4.32294 0
M  V30 1733 H 158.092 -1.29238 -3.95836 0
M  V30 1734 H 160.689 1.18991 -5.21292 0
M  V30 1735 H 161.032 1.94972 -3.6782 0
M  V30 1736 H 161.565 0.27592 -3.96842 0
M  V30 1737 H 158.304 -1.50449 -6.38001 0
M  V30 1738 H 157.824 0.164427 -5.99575 0
M  V30 1739 H 159.503 -0.19784 -6.46697 0
M  V30 1740 N 159.635 1.57281 -0.100228 0
M  V30 1741 C 160.86 1.99302 0.573881 0
M  V30 1742 C 161.285 0.979059 1.60611 0
M  V30 1743 O 160.643 -0.0517803 1.81226 0
M  V30 1744 C 160.691 3.40274 1.19358 0
M  V30 1745 O 159.795 3.41676 2.30935 0
M  V30 1746 H 159.136 0.647944 0.145138 0
M  V30 1747 H 161.666 2.03779 -0.183156 0
M  V30 1748 H 161.676 3.78078 1.53365 0
M  V30 1749 H 160.351 4.13594 0.437385 0
M  V30 1750 H 158.928 3.15672 1.98509 0
M  V30 1751 N 161.113 -0.173488 1.56642 0
M  V30 1752 C 162.023 -1.23482 1.99473 0
M  V30 1753 C 163.039 -1.48567 0.905752 0
M  V30 1754 O 164.215 -1.60758 1.21321 0
M  V30 1755 C 161.28 -2.55444 2.34413 0
M  V30 1756 C 160.341 -2.38241 3.57127 0
M  V30 1757 C 159.574 -3.63909 3.90392 0
M  V30 1758 O 159.797 -4.68996 3.24653 0
M  V30 1759 O 158.731 -3.58149 4.83749 0
M  V30 1760 H 162.557 -0.901279 2.90018 0
M  V30 1761 H 160.142 -0.380185 1.44482 0
M  V30 1762 H 162.024 -3.33292 2.57865 0
M  V30 1763 H 160.699 -2.88382 1.4703 0
M  V30 1764 H 159.606 -1.58431 3.38896 0
M  V30 1765 H 160.939 -2.10228 4.45045 0
M  V30 1766 N 162.591 -1.51276 -0.441967 0
M  V30 1767 C 163.831 -1.65372 -1.20132 0
M  V30 1768 C 164.195 -0.359871 -1.88597 0
M  V30 1769 O 165.396 -0.376551 -2.66149 0
M  V30 1770 C 163.667 -2.8207 -2.1948 0
M  V30 1771 S 165.226 -3.16467 -3.03964 0
M  V30 1772 H 162.044 -0.582669 -0.407453 0
M  V30 1773 H 164.646 -1.89166 -0.493609 0
M  V30 1774 H 163.35 -3.74523 -1.67812 0
M  V30 1775 H 162.881 -2.6045 -2.94838 0
M  V30 1776 H 164.896 -2.62543 -4.21053 0
M  V30 1777 N 164.069 0.697108 -1.41344 0
M  V30 1778 C 165.318 1.45279 -1.39918 0
M  V30 1779 C 165.631 1.95597 -0.0109624 0
M  V30 1780 O 166.837 2.71208 0.125919 0
M  V30 1781 C 165.293 2.62695 -2.46007 0
M  V30 1782 C 164.901 2.19169 -3.90729 0
M  V30 1783 C 166.645 3.40336 -2.53715 0
M  V30 1784 C 164.552 3.33535 -4.88373 0
M  V30 1785 H 163.482 0.545692 -0.520323 0
M  V30 1786 H 166.133 0.756929 -1.67161 0
M  V30 1787 H 164.515 3.34541 -2.11892 0
M  V30 1788 H 165.689 1.54623 -4.34083 0
M  V30 1789 H 164.004 1.54525 -3.86666 0
M  V30 1790 H 166.601 4.2547 -3.2385 0
M  V30 1791 H 166.944 3.85418 -1.5735 0
M  V30 1792 H 167.477 2.75546 -2.86913 0
M  V30 1793 H 164.216 2.93468 -5.86137 0
M  V30 1794 H 163.736 3.96936 -4.49668 0
M  V30 1795 H 165.415 3.99335 -5.09059 0
M  V30 1796 N 165.547 1.27147 0.931209 0
M  V30 1797 C 166.796 1.12664 1.67302 0
M  V30 1798 C 167.109 -0.327718 1.92835 0
M  V30 1799 O 168.315 -0.593392 2.64936 0
M  V30 1800 C 166.771 1.9683 3.01307 0
M  V30 1801 C 166.379 3.46901 2.83485 0
M  V30 1802 C 168.123 1.90985 3.79111 0
M  V30 1803 C 166.03 4.23279 4.13024 0
M  V30 1804 H 164.96 0.41803 0.627509 0
M  V30 1805 H 167.611 1.51539 1.03481 0
M  V30 1806 H 165.993 1.50797 3.66164 0
M  V30 1807 H 167.167 4.00773 2.27415 0
M  V30 1808 H 165.482 3.54088 2.19113 0
M  V30 1809 H 168.079 2.45328 4.75098 0
M  V30 1810 H 168.422 0.882718 4.06834 0
M  V30 1811 H 168.955 2.34895 3.21044 0
M  V30 1812 H 165.694 5.26503 3.90481 0
M  V30 1813 H 165.214 3.74186 4.6877 0
M  V30 1814 H 166.893 4.32265 4.81411 0
M  V30 1815 N 167.025 -1.13721 1.09112 0
M  V30 1816 C 167.957 -2.1871 0.685467 0
M  V30 1817 C 168.97 -1.60527 -0.271068 0
M  V30 1818 O 170.159 -1.78407 -0.0576148 0
M  V30 1819 C 167.259 -3.38898 -0.0111255 0
M  V30 1820 C 166.432 -4.26597 0.966131 0
M  V30 1821 C 165.491 -5.25324 0.303539 0
M  V30 1822 O 164.517 -5.61213 0.950177 0
M  V30 1823 N 165.719 -5.72779 -0.943651 0
M  V30 1824 H 168.484 -2.54126 1.58871 0
M  V30 1825 H 166.045 -1.29012 0.978143 0
M  V30 1826 H 168.037 -4.02014 -0.465517 0
M  V30 1827 H 166.607 -3.01747 -0.816565 0
M  V30 1828 H 165.827 -3.60306 1.59917 0
M  V30 1829 H 167.115 -4.82048 1.6281 0
M  V30 1830 H 166.513 -5.45762 -1.48862 0
M  V30 1831 H 165.07 -6.37847 -1.34142 0
M  V30 1832 N 168.503 -0.877838 -1.30888 0
M  V30 1833 C 169.749 -0.493426 -1.96706 0
M  V30 1834 C 170.082 0.953504 -1.6918 0
M  V30 1835 O 169.357 1.67266 -0.992594 0
M  V30 1836 C 169.64 -0.760429 -3.51979 0
M  V30 1837 C 169.493 -2.25747 -3.89048 0
M  V30 1838 C 170.812 -0.232148 -4.39487 0
M  V30 1839 H 167.931 -0.180746 -0.714493 0
M  V30 1840 H 170.573 -1.10052 -1.54882 0
M  V30 1841 H 168.723 -0.243715 -3.87735 0
M  V30 1842 H 170.395 -2.84204 -3.63354 0
M  V30 1843 H 168.638 -2.72694 -3.37373 0
M  V30 1844 H 169.309 -2.39491 -4.97341 0
M  V30 1845 H 171.785 -0.674314 -4.106 0
M  V30 1846 H 170.661 -0.448355 -5.47066 0
M  V30 1847 H 170.922 0.866297 -4.33529 0
M  V30 1848 N 169.982 1.44106 -0.638065 0
M  V30 1849 C 170.912 2.33448 0.0494287 0
M  V30 1850 C 171.893 1.48606 0.827672 0
M  V30 1851 O 173.078 1.77308 0.792173 0
M  V30 1852 C 170.208 3.31771 1.02691 0
M  V30 1853 C 169.162 4.26485 0.359823 0
M  V30 1854 C 168.488 5.14729 1.44769 0
M  V30 1855 C 169.788 5.17056 -0.738296 0
M  V30 1856 H 171.482 2.91183 -0.696636 0
M  V30 1857 H 169.028 1.40014 -0.336456 0
M  V30 1858 H 170.981 3.93161 1.51666 0
M  V30 1859 H 169.705 2.7226 1.80395 0
M  V30 1860 H 168.364 3.66437 -0.10934 0
M  V30 1861 H 168.012 4.51566 2.21578 0
M  V30 1862 H 167.712 5.78913 1.00668 0
M  V30 1863 H 169.236 5.78991 1.93911 0
M  V30 1864 H 170.65 5.72342 -0.331354 0
M  V30 1865 H 169.047 5.89879 -1.10286 0
M  V30 1866 H 170.117 4.57652 -1.60258 0
M  V30 1867 N 171.46 0.379036 1.52974 0
M  V30 1868 C 172.392 -0.495963 2.2377 0
M  V30 1869 C 173.405 -1.03517 1.25651 0
M  V30 1870 O 174.594 -0.939249 1.51791 0
M  V30 1871 C 171.694 -1.69894 2.93239 0
M  V30 1872 C 170.867 -1.2889 4.17979 0
M  V30 1873 C 169.926 -2.35543 4.70538 0
M  V30 1874 O 168.952 -1.97375 5.33883 0
M  V30 1875 N 170.154 -3.67318 4.49508 0
M  V30 1876 H 172.919 0.110523 2.99496 0
M  V30 1877 H 170.48 0.204878 1.60598 0
M  V30 1878 H 172.472 -2.40747 3.25304 0
M  V30 1879 H 171.042 -2.212 2.20883 0
M  V30 1880 H 170.262 -0.409676 3.92065 0
M  V30 1881 H 171.55 -0.991443 4.99047 0
M  V30 1882 H 170.948 -4.01095 3.98923 0
M  V30 1883 H 169.505 -4.34235 4.8609 0
M  V30 1884 N 172.938 -1.57226 0.108567 0
M  V30 1885 C 174.163 -1.99604 -0.563303 0
M  V30 1886 C 174.588 -0.987563 -1.6009 0
M  V30 1887 O 173.946 0.0421687 -1.81251 0
M  V30 1888 C 173.994 -3.40902 -1.17552 0
M  V30 1889 O 173.098 -3.42896 -2.2912 0
M  V30 1890 H 172.439 -0.648704 -0.1417 0
M  V30 1891 H 174.969 -2.03679 0.193961 0
M  V30 1892 H 174.979 -3.78886 -1.51357 0
M  V30 1893 H 173.654 -4.1382 -0.415445 0
M  V30 1894 H 172.231 -3.1672 -1.96832 0
M  V30 1895 N 174.416 0.165178 -1.56732 0
M  V30 1896 C 175.363 1.2044 -1.96883 0
M  V30 1897 C 176.333 1.43664 -0.833657 0
M  V30 1898 O 177.518 1.56302 -1.09427 0
M  V30 1899 C 174.658 2.53727 -2.33916 0
M  V30 1900 C 173.771 2.3783 -3.6064 0
M  V30 1901 C 172.906 3.64026 -3.86857 0
M  V30 1902 C 171.945 3.43088 -5.06909 0
M  V30 1903 N 171.082 4.61369 -5.29229 0
M  V30 1904 H 175.922 0.854996 -2.85471 0
M  V30 1905 H 173.459 0.41076 -1.41249 0
M  V30 1906 H 175.417 3.31419 -2.53411 0
M  V30 1907 H 174.047 2.8665 -1.48431 0
M  V30 1908 H 173.099 1.51282 -3.49024 0
M  V30 1909 H 174.411 2.18308 -4.4849 0
M  V30 1910 H 173.565 4.50152 -4.06753 0
M  V30 1911 H 172.304 3.86533 -2.97394 0
M  V30 1912 H 171.309 2.55349 -4.86906 0
M  V30 1913 H 172.534 3.21997 -5.97909 0
M  V30 1914 H 170.48 4.84084 -4.42718 0
M  V30 1915 H 170.397 4.44783 -6.11313 0
M  V30 1916 H 171.665 5.48761 -5.53608 0
M  V30 1917 N 175.894 1.51508 0.433938 0
M  V30 1918 C 176.844 1.69451 1.52546 0
M  V30 1919 C 177.828 0.548474 1.51263 0
M  V30 1920 O 179.02 0.804529 1.57659 0
M  V30 1921 C 176.149 1.82604 2.90707 0
M  V30 1922 C 175.235 3.03002 2.96733 0
M  V30 1923 N 175.626 4.26121 2.72496 0
M  V30 1924 C 173.924 3.02327 3.27894 0
M  V30 1925 C 174.625 5.07407 2.84452 0
M  V30 1926 N 173.601 4.42126 3.16269 0
M  V30 1927 H 177.403 2.62305 1.32564 0
M  V30 1928 H 174.917 1.49202 0.641297 0
M  V30 1929 H 176.914 1.93569 3.69238 0
M  V30 1930 H 175.574 0.909339 3.11707 0
M  V30 1931 H 176.585 4.55009 2.4736 0
M  V30 1932 H 173.262 2.20301 3.54646 0
M  V30 1933 H 174.652 6.15422 2.69639 0
M  V30 1934 N 177.372 -0.689602 1.41712 0
M  V30 1935 C 178.783 -1.26973 1.36875 0
M  V30 1936 C 179.134 -1.96124 0.054748 0
M  V30 1937 O 178.259 -1.99141 -0.84687 0
M  V30 1938 C 178.854 -2.30912 2.47922 0
M  V30 1939 C 177.413 -2.84486 2.46464 0
M  V30 1940 C 176.56 -1.58603 2.27465 0
M  V30 1941 H 179.511 -0.48396 1.51141 0
M  V30 1942 H 179.532 -3.12331 2.17323 0
M  V30 1943 H 179.044 -1.80554 3.43543 0
M  V30 1944 H 177.145 -3.39005 1.54617 0
M  V30 1945 H 177.258 -3.34511 3.42986 0
M  V30 1946 H 175.622 -1.84632 1.75451 0
M  V30 1947 H 176.405 -1.10233 3.25121 0
M  V30 1948 N 178.85 -1.27639 -0.924453 0
M  V30 1949 C 180.098 -1.13941 -1.66918 0
M  V30 1950 C 180.419 0.314589 -1.92446 0
M  V30 1951 O 179.689 1.21964 -1.53303 0
M  V30 1952 H 178.269 -0.418678 -0.618642 0
M  V30 1953 H 180.931 -1.60213 -1.10985 0
M  V30 1954 H 180.027 -1.67094 -2.63602 0
M  V30 1955 N 180.328 1.1314 -1.09713 0
M  V30 1956 C 181.605 1.80762 -0.747302 0
M  V30 1957 C 181.985 1.96663 0.767265 0
M  V30 1958 O 181.333 1.53706 1.69076 0
M  V30 1959 C 181.543 3.15606 -1.48975 0
M  V30 1960 C 182.891 3.90914 -1.65746 0
M  V30 1961 O 183.915 3.25239 -1.45251 0
M  V30 1962 O 182.774 5.08718 -1.9967 0
M  V30 1963 H 179.868 0.782103 -0.268782 0
M  V30 1964 H 182.414 1.20041 -1.19951 0
M  V30 1965 H 181.186 2.99278 -2.52088 0
M  V30 1966 H 180.809 3.84029 -1.02991 0
M  V30 1967 N 181.806 0.884767 1.30421 0
M  V30 1968 C 183.053 0.503105 1.96151 0
M  V30 1969 C 183.381 -0.947676 1.69851 0
M  V30 1970 O 182.636 -1.68467 0.995861 0
M  V30 1971 C 182.935 0.724318 3.49983 0
M  V30 1972 C 182.601 2.15015 3.96332 0
M  V30 1973 C 181.263 2.54005 4.08699 0
M  V30 1974 C 183.615 3.07936 4.20505 0
M  V30 1975 C 180.943 3.85128 4.42599 0
M  V30 1976 C 183.295 4.3859 4.55874 0
M  V30 1977 C 181.959 4.77474 4.66449 0
M  V30 1978 H 181.229 0.184099 0.717766 0
M  V30 1979 H 183.876 1.12058 1.55291 0
M  V30 1980 H 182.181 0.0238086 3.91793 0
M  V30 1981 H 183.878 0.408617 3.98913 0
M  V30 1982 H 180.468 1.8375 3.87213 0
M  V30 1983 H 184.652 2.79033 4.10431 0
M  V30 1984 H 179.908 4.14996 4.48986 0
M  V30 1985 H 184.082 5.10629 4.7353 0
M  V30 1986 H 181.709 5.79115 4.92473 0
M  V30 1987 N 183.284 -1.43765 0.645699 0
M  V30 1988 C 184.532 -2.01499 0.155731 0
M  V30 1989 C 184.853 -1.51151 -1.232 0
M  V30 1990 O 184.123 -0.721044 -1.82148 0
M  V30 1991 H 182.703 -0.745003 0.0545817 0
M  V30 1992 H 185.365 -1.76075 0.835677 0
M  V30 1993 H 184.461 -3.1181 0.134577 0
M  V30 1994 N 184.763 -0.387143 -1.52771 0
M  V30 1995 C 185.726 0.436939 -2.24997 0
M  V30 1996 C 186.726 0.991991 -1.26555 0
M  V30 1997 O 187.916 0.874335 -1.50669 0
M  V30 1998 C 185.048 1.61281 -3.00335 0
M  V30 1999 H 186.241 -0.195365 -2.99263 0
M  V30 2000 H 183.794 -0.139218 -1.55679 0
M  V30 2001 H 184.529 2.2826 -2.30364 0
M  V30 2002 H 184.314 1.22154 -3.72587 0
M  V30 2003 H 185.804 2.19629 -3.5518 0
M  V30 2004 N 186.241 1.57166 -0.116904 0
M  V30 2005 C 187.518 1.86645 0.585049 0
M  V30 2006 C 187.898 1.0177 1.84949 0
M  V30 2007 O 187.246 0.0960379 2.28298 0
M  V30 2008 C 187.456 3.37736 0.879507 0
M  V30 2009 C 188.804 4.06289 1.23348 0
M  V30 2010 O 189.828 3.42743 0.969836 0
M  V30 2011 O 188.687 5.18455 1.7282 0
M  V30 2012 H 185.781 0.772593 0.295007 0
M  V30 2013 H 188.327 1.69025 -0.151249 0
M  V30 2014 H 187.099 3.91296 -0.0166136 0
M  V30 2015 H 186.722 3.6078 1.67103 0
M  V30 2016 N 187.719 -0.156864 1.56817 0
M  V30 2017 C 188.682 -1.17781 1.96622 0
M  V30 2018 C 189.682 -1.36401 0.851555 0
M  V30 2019 O 190.872 -1.33561 1.11836 0
M  V30 2020 C 188.004 -2.54008 2.27361 0
M  V30 2021 H 189.197 -0.836564 2.87996 0
M  V30 2022 H 186.75 -0.39985 1.51099 0
M  V30 2023 H 187.485 -2.9312 1.38748 0
M  V30 2024 H 187.27 -2.41856 3.08623 0
M  V30 2025 H 188.76 -3.27558 2.59029 0
M  V30 2026 N 189.197 -1.51736 -0.425897 0
M  V30 2027 C 190.129 -1.70083 -1.53638 0
M  V30 2028 C 191.142 -0.581349 -1.52066 0
M  V30 2029 O 192.331 -0.856017 -1.56635 0
M  V30 2030 C 189.431 -1.71078 -2.9255 0
M  V30 2031 C 188.604 -2.99795 -3.185 0
M  V30 2032 C 187.663 -2.92825 -4.37196 0
M  V30 2033 O 186.689 -3.66756 -4.35291 0
M  V30 2034 N 187.891 -2.0946 -5.41393 0
M  V30 2035 H 190.656 -2.65882 -1.383 0
M  V30 2036 H 188.217 -1.49765 -0.614988 0
M  V30 2037 H 190.209 -1.63969 -3.69995 0
M  V30 2038 H 188.779 -0.828242 -3.01428 0
M  V30 2039 H 187.999 -3.20684 -2.2925 0
M  V30 2040 H 189.287 -3.84977 -3.32671 0
M  V30 2041 H 188.685 -1.48792 -5.45781 0
M  V30 2042 H 187.242 -2.08221 -6.17647 0
M  V30 2043 N 190.675 0.682077 -1.42076 0
M  V30 2044 C 191.923 1.4393 -1.41876 0
M  V30 2045 C 192.244 1.94971 -0.0335599 0
M  V30 2046 O 191.514 1.72591 0.926773 0
M  V30 2047 H 190.094 0.534085 -0.522267 0
M  V30 2048 H 192.756 0.806427 -1.77434 0
M  V30 2049 H 191.852 2.29588 -2.11414 0
M  V30 2050 N 192.153 1.28127 0.917671 0
M  V30 2051 C 193.116 1.11744 2.00115 0
M  V30 2052 C 194.116 0.0583052 1.60694 0
M  V30 2053 O 195.306 0.303755 1.71531 0
M  V30 2054 C 192.438 0.704862 3.33533 0
M  V30 2055 H 193.631 2.07966 2.16079 0
M  V30 2056 H 191.184 1.11058 1.09981 0
M  V30 2057 H 191.919 -0.258299 3.2327 0
M  V30 2058 H 191.704 1.4699 3.63505 0
M  V30 2059 H 193.194 0.612768 4.1308 0
M  V30 2060 N 193.631 -1.12557 1.10312 0
M  V30 2061 C 194.564 -2.1737 0.694674 0
M  V30 2062 C 195.542 -1.59745 -0.303373 0
M  V30 2063 O 196.726 -1.87408 -0.202578 0
M  V30 2064 C 193.853 -3.38691 0.0248052 0
M  V30 2065 C 192.899 -4.14943 0.986121 0
M  V30 2066 S 193.732 -4.73413 2.50281 0
M  V30 2067 C 194.888 -5.9807 1.84562 0
M  V30 2068 H 195.121 -2.5168 1.58255 0
M  V30 2069 H 192.654 -1.23998 0.919992 0
M  V30 2070 H 194.612 -4.08959 -0.355361 0
M  V30 2071 H 193.273 -3.02664 -0.839851 0
M  V30 2072 H 192.466 -5.01854 0.464651 0
M  V30 2073 H 192.068 -3.50377 1.30813 0
M  V30 2074 H 194.36 -6.67232 1.17507 0
M  V30 2075 H 195.303 -6.54841 2.69423 0
M  V30 2076 H 195.711 -5.49073 1.31069 0
M  V30 2077 N 195.109 -0.891671 -1.2995 0
M  V30 2078 C 196.057 -0.353066 -2.29905 0
M  V30 2079 C 197.051 0.543509 -1.60444 0
M  V30 2080 O 198.257 0.4272 -1.74857 0
M  V30 2081 H 194.632 -0.095531 -0.745907 0
M  V30 2082 H 196.603 -1.20961 -2.72784 0
M  V30 2083 C 195.352 0.411475 -3.45257 0
M  V30 2084 H 194.675 -0.269182 -3.98893 0
M  V30 2085 H 196.115 0.753328 -4.17254 0
M  V30 2086 C 194.574 1.6111 -2.9588 0
M  V30 2087 O 195.104 2.71045 -2.96475 0
M  V30 2088 N 193.31 1.45054 -2.51809 0
M  V30 2089 H 192.857 0.556175 -2.51524 0
M  V30 2090 H 192.815 2.25453 -2.1913 0
M  V30 2091 N 196.587 1.43421 -0.653314 0
M  V30 2092 C 197.534 2.30768 0.0382271 0
M  V30 2093 C 198.504 1.44755 0.814576 0
M  V30 2094 O 199.689 1.73624 0.791162 0
M  V30 2095 C 196.829 3.30336 0.998599 0
M  V30 2096 C 195.942 4.31448 0.218342 0
M  V30 2097 C 195.077 5.18098 1.17252 0
M  V30 2098 C 194.116 6.10902 0.382702 0
M  V30 2099 N 193.253 6.90176 1.28848 0
M  V30 2100 H 198.093 2.89357 -0.712511 0
M  V30 2101 H 195.63 1.42548 -0.363128 0
M  V30 2102 H 197.588 3.86572 1.56901 0
M  V30 2103 H 196.218 2.73397 1.71621 0
M  V30 2104 H 195.27 3.77506 -0.46836 0
M  V30 2105 H 196.582 4.97227 -0.395812 0
M  V30 2106 H 195.736 5.7896 1.81356 0
M  V30 2107 H 194.475 4.52444 1.82058 0
M  V30 2108 H 193.48 5.49128 -0.27169 0
M  V30 2109 H 194.705 6.78598 -0.260957 0
M  V30 2110 H 192.651 6.27171 1.92334 0
M  V30 2111 H 192.568 7.52478 0.728887 0
M  V30 2112 H 193.836 7.55543 1.91766 0
M  V30 2113 N 198.065 0.39524 1.52563 0
M  V30 2114 C 199.028 -0.425001 2.25225 0
M  V30 2115 C 200.028 -0.985266 1.27079 0
M  V30 2116 O 201.218 -0.866332 1.5113 0
M  V30 2117 C 198.35 -1.59686 3.01186 0
M  V30 2118 H 199.543 0.211233 2.99155 0
M  V30 2119 H 197.096 0.147472 1.55603 0
M  V30 2120 H 197.831 -2.27035 2.31572 0
M  V30 2121 H 197.616 -1.20176 3.73229 0
M  V30 2122 H 199.106 -2.17743 3.5634 0
M  V30 2123 N 199.544 -1.57102 0.125237 0
M  V30 2124 C 200.474 -2.18659 -0.819174 0
M  V30 2125 C 201.455 -1.12843 -1.27281 0
M  V30 2126 O 202.64 -1.41104 -1.33429 0
M  V30 2127 C 199.77 -2.79096 -2.06695 0
M  V30 2128 C 198.724 -3.90548 -1.75088 0
M  V30 2129 C 198.05 -4.37821 -3.06948 0
M  V30 2130 C 199.35 -5.12356 -1.01435 0
M  V30 2131 H 201.044 -2.9783 -0.306202 0
M  V30 2132 H 198.59 -1.4326 -0.145839 0
M  V30 2133 H 200.543 -3.2082 -2.73226 0
M  V30 2134 H 199.267 -1.97223 -2.60328 0
M  V30 2135 H 197.926 -3.49409 -1.10944 0
M  V30 2136 H 197.574 -3.52799 -3.58527 0
M  V30 2137 H 197.274 -5.12982 -2.86571 0
M  V30 2138 H 198.798 -4.822 -3.74587 0
M  V30 2139 H 200.212 -5.5106 -1.58132 0
M  V30 2140 H 198.609 -5.9314 -0.911319 0
M  V30 2141 H 199.679 -4.849 -0.00218681 0
M  V30 2142 N 201.022 0.148545 -1.56898 0
M  V30 2143 C 201.932 1.20293 -2.01412 0
M  V30 2144 C 202.948 1.47107 -0.929273 0
M  V30 2145 O 204.124 1.58807 -1.23863 0
M  V30 2146 C 201.189 2.51682 -2.38447 0
M  V30 2147 C 200.25 2.32529 -3.60872 0
M  V30 2148 C 199.483 3.57653 -3.96132 0
M  V30 2149 O 199.706 4.63771 -3.32073 0
M  V30 2150 O 198.64 3.50408 -4.89385 0
M  V30 2151 H 202.466 0.855025 -2.91416 0
M  V30 2152 H 200.051 0.357151 -1.45068 0
M  V30 2153 H 201.933 3.29147 -2.63135 0
M  V30 2154 H 200.608 2.86006 -1.51599 0
M  V30 2155 H 199.515 1.53019 -3.41373 0
M  V30 2156 H 200.848 2.03121 -4.48333 0
M  V30 2157 N 202.5 1.5196 0.417844 0
M  V30 2158 C 203.43 1.77634 1.51554 0
M  V30 2159 C 204.411 0.626918 1.58126 0
M  V30 2160 O 205.596 0.871632 1.7354 0
M  V30 2161 C 202.726 1.91911 2.8946 0
M  V30 2162 C 201.68 3.07463 2.97743 0
M  V30 2163 C 201.006 3.06951 4.37819 0
M  V30 2164 C 202.306 4.47082 2.70027 0
M  V30 2165 H 204 2.6955 1.3032 0
M  V30 2166 H 201.546 1.29706 0.625492 0
M  V30 2167 H 203.499 2.08455 3.6623 0
M  V30 2168 H 202.223 0.966598 3.11969 0
M  V30 2169 H 200.882 2.90656 2.23416 0
M  V30 2170 H 200.53 2.09438 4.57323 0
M  V30 2171 H 200.23 3.84556 4.44286 0
M  V30 2172 H 201.754 3.25613 5.16535 0
M  V30 2173 H 203.168 4.6414 3.36522 0
M  V30 2174 H 201.565 5.2654 2.87881 0
M  V30 2175 H 202.635 4.55777 1.65514 0
M  V30 2176 N 203.978 -0.674533 1.42435 0
M  V30 2177 C 205.225 -1.43459 1.42919 0
M  V30 2178 C 205.553 -1.94446 0.0457312 0
M  V30 2179 O 204.808 -1.7132 -0.94593 0
M  V30 2180 C 205.107 -2.64767 2.40069 0
M  V30 2181 C 204.773 -2.3232 3.86443 0
M  V30 2182 C 203.435 -2.23182 4.26314 0
M  V30 2183 C 205.787 -2.05977 4.78773 0
M  V30 2184 C 203.115 -1.85827 5.56494 0
M  V30 2185 C 205.467 -1.70125 6.09295 0
M  V30 2186 C 204.131 -1.59498 6.48164 0
M  V30 2187 H 203.401 -0.524952 0.522978 0
M  V30 2188 H 206.048 -0.769097 1.75377 0
M  V30 2189 H 204.353 -3.36349 2.00939 0
M  V30 2190 H 206.05 -3.22949 2.37707 0
M  V30 2191 H 202.64 -2.40334 3.54877 0
M  V30 2192 H 206.824 -2.11969 4.48757 0
M  V30 2193 H 202.08 -1.76168 5.8547 0
M  V30 2194 H 206.254 -1.48767 6.80324 0
M  V30 2195 H 203.881 -1.30322 7.48946 0
M  V30 2196 N 205.456 -1.28612 -0.910864 0
M  V30 2197 C 206.872 -1.06381 -1.18976 0
M  V30 2198 C 207.072 0.191998 -2.00583 0
M  V30 2199 O 206.128 0.892869 -2.36187 0
M  V30 2200 C 207.441 -2.31295 -1.92154 0
M  V30 2201 C 208.989 -2.36503 -2.05025 0
M  V30 2202 C 209.464 -3.61191 -2.81612 0
M  V30 2203 N 210.955 -3.61847 -2.89172 0
M  V30 2204 C 211.69 -4.55004 -3.4894 0
M  V30 2205 N 211.186 -5.58482 -4.09963 0
M  V30 2206 N 212.979 -4.42594 -3.46506 0
M  V30 2207 H 205.13 -2.09221 -0.366094 0
M  V30 2208 H 207.393 -0.921003 -0.224629 0
M  V30 2209 H 207.099 -3.228 -1.39618 0
M  V30 2210 H 206.973 -2.37934 -2.9269 0
M  V30 2211 H 209.36 -1.45494 -2.5674 0
M  V30 2212 H 209.441 -2.33857 -1.03657 0
M  V30 2213 H 209.085 -4.52545 -2.30576 0
M  V30 2214 H 209.015 -3.61092 -3.83302 0
M  V30 2215 H 211.506 -2.87022 -2.45819 0
M  V30 2216 H 211.819 -6.25704 -4.53557 0
M  V30 2217 H 210.164 -5.62305 -4.08459 0
M  V30 2218 H 213.355 -3.60953 -2.98045 0
M  V30 2219 H 213.528 -5.15381 -3.92793 0
M  V30 2220 N 206.934 1.1197 -1.10907 0
M  V30 2221 C 207.881 2.17846 -0.762345 0
M  V30 2222 C 208.851 1.63995 0.263599 0
M  V30 2223 O 210.036 1.90273 0.141773 0
M  V30 2224 C 207.176 3.44487 -0.205651 0
M  V30 2225 C 206.289 4.12369 -1.28748 0
M  V30 2226 C 205.424 5.26674 -0.691919 0
M  V30 2227 C 204.463 5.86431 -1.75399 0
M  V30 2228 N 203.6 6.92142 -1.17833 0
M  V30 2229 H 208.44 2.46851 -1.6694 0
M  V30 2230 H 205.977 1.21188 -0.833776 0
M  V30 2231 H 207.935 4.16981 0.135037 0
M  V30 2232 H 206.565 3.15884 0.664613 0
M  V30 2233 H 205.617 3.38003 -1.74522 0
M  V30 2234 H 206.929 4.52844 -2.09125 0
M  V30 2235 H 206.083 6.05953 -0.300963 0
M  V30 2236 H 204.822 4.8749 0.143232 0
M  V30 2237 H 203.827 5.05835 -2.15432 0
M  V30 2238 H 205.052 6.27685 -2.59208 0
M  V30 2239 H 202.998 6.54985 -0.364725 0
M  V30 2240 H 202.915 7.31242 -1.91887 0
M  V30 2241 H 204.183 7.75237 -0.81408 0
M  V30 2242 N 208.412 0.89855 1.29475 0
M  V30 2243 C 209.689 0.443416 1.90508 0
M  V30 2244 C 210.069 -1.07685 1.81569 0
M  V30 2245 O 209.417 -1.9182 1.24166 0
M  V30 2246 C 209.627 0.956708 3.35631 0
M  V30 2247 C 210.975 0.999728 4.12663 0
M  V30 2248 O 211.999 0.904299 3.4453 0
M  V30 2249 O 210.858 1.14289 5.34416 0
M  V30 2250 H 207.952 0.138025 0.815401 0
M  V30 2251 H 210.498 0.98834 1.37949 0
M  V30 2252 H 209.27 2.00067 3.36287 0
M  V30 2253 H 208.893 0.391728 3.95666 0
M  V30 2254 N 209.89 -1.43072 0.660911 0
M  V30 2255 C 210.823 -2.28074 -0.0758862 0
M  V30 2256 C 211.801 -1.40271 -0.822362 0
M  V30 2257 O 212.985 -1.69713 -0.820352 0
M  V30 2258 C 210.112 -3.19843 -1.11437 0
M  V30 2259 C 209.158 -4.23957 -0.465069 0
M  V30 2260 S 209.991 -5.29978 0.767078 0
M  V30 2261 C 211.147 -6.25314 -0.270682 0
M  V30 2262 H 211.38 -2.90216 0.645139 0
M  V30 2263 H 208.913 -1.47697 0.449995 0
M  V30 2264 H 210.871 -3.73257 -1.70849 0
M  V30 2265 H 209.532 -2.56863 -1.80776 0
M  V30 2266 H 208.725 -4.88299 -1.24819 0
M  V30 2267 H 208.327 -3.73959 0.0551242 0
M  V30 2268 H 210.619 -6.67932 -1.13459 0
M  V30 2269 H 211.562 -7.07293 0.337916 0
M  V30 2270 H 211.97 -5.61195 -0.609937 0
M  V30 2271 N 211.368 -0.403325 -1.52352 0
M  V30 2272 C 212.331 0.413051 -2.25447 0
M  V30 2273 C 213.331 0.978513 -1.276 0
M  V30 2274 O 214.521 0.858305 -1.51587 0
M  V30 2275 C 211.653 1.58087 -3.02029 0
M  V30 2276 H 212.846 -0.227094 -2.99039 0
M  V30 2277 H 210.399 -0.155722 -1.55522 0
M  V30 2278 H 211.134 2.25804 -2.32772 0
M  V30 2279 H 210.919 1.18195 -3.73861 0
M  V30 2280 H 212.409 2.1585 -3.57489 0
M  V30 2281 N 212.846 1.57033 -0.133567 0
M  V30 2282 C 214.071 2.00475 0.531477 0
M  V30 2283 C 214.496 1.01291 1.58499 0
M  V30 2284 O 213.854 -0.0133279 1.81295 0
M  V30 2285 C 213.902 3.42729 1.12113 0
M  V30 2286 O 213.006 3.46498 2.23636 0
M  V30 2287 H 212.347 0.650876 0.131362 0
M  V30 2288 H 214.877 2.03344 -0.22634 0
M  V30 2289 H 214.887 3.81246 1.4531 0
M  V30 2290 H 213.562 4.14428 0.349557 0
M  V30 2291 H 212.139 3.19811 1.91769 0
M  V30 2292 N 214.325 -0.140222 1.56975 0
M  V30 2293 C 215.273 -1.19207 1.99731 0
M  V30 2294 C 216.267 -1.44089 0.890777 0
M  V30 2295 O 217.473 -1.44301 1.07597 0
M  V30 2296 H 213.848 -0.40142 0.635898 0
M  V30 2297 H 215.819 -0.804813 2.87342 0
M  V30 2298 C 214.568 -2.51617 2.39967 0
M  V30 2299 H 213.891 -2.33303 3.24669 0
M  V30 2300 H 215.331 -3.23827 2.73701 0
M  V30 2301 C 213.79 -3.12654 1.25496 0
M  V30 2302 O 214.32 -3.97786 0.559371 0
M  V30 2303 N 212.526 -2.72206 1.01746 0
M  V30 2304 H 212.073 -2.03074 1.58489 0
M  V30 2305 H 212.031 -3.13377 0.253461 0
M  V30 2306 N 215.803 -1.52179 -0.40978 0
M  V30 2307 C 217.033 -1.69807 -1.17682 0
M  V30 2308 C 217.441 -0.406908 -1.84773 0
M  V30 2309 O 216.784 0.626863 -1.72673 0
M  V30 2310 C 216.846 -2.77712 -2.2829 0
M  V30 2311 C 216.51 -4.19481 -1.81341 0
M  V30 2312 C 217.507 -5.03345 -1.30154 0
M  V30 2313 C 215.192 -4.65713 -1.88194 0
M  V30 2314 C 217.186 -6.31511 -0.864416 0
M  V30 2315 C 214.873 -5.93869 -1.44093 0
M  V30 2316 C 215.871 -6.76597 -0.933023 0
M  V30 2317 O 215.559 -8.02354 -0.49838 0
M  V30 2318 H 215.291 -0.572372 -0.359675 0
M  V30 2319 H 217.845 -1.99511 -0.488311 0
M  V30 2320 H 216.075 -2.43383 -3.00502 0
M  V30 2321 H 217.764 -2.83946 -2.90051 0
M  V30 2322 H 218.53 -4.68819 -1.24232 0
M  V30 2323 H 214.409 -4.01424 -2.26671 0
M  V30 2324 H 217.953 -6.96033 -0.467286 0
M  V30 2325 H 213.85 -6.27903 -1.49694 0
M  V30 2326 H 214.618 -8.16135 -0.621747 0
M  V30 2327 N 217.281 0.66697 -1.42791 0
M  V30 2328 C 218.228 1.7803 -1.4688 0
M  V30 2329 C 219.198 1.6299 -0.319919 0
M  V30 2330 O 220.383 1.83432 -0.525118 0
M  V30 2331 C 217.523 3.1611 -1.38451 0
M  V30 2332 C 216.636 3.42381 -2.63437 0
M  V30 2333 C 215.771 4.70232 -2.47094 0
M  V30 2334 C 214.81 4.89564 -3.67415 0
M  V30 2335 N 213.947 6.08661 -3.49966 0
M  V30 2336 H 218.787 1.7387 -2.42019 0
M  V30 2337 H 216.324 0.84868 -1.20149 0
M  V30 2338 H 218.282 3.95914 -1.31561 0
M  V30 2339 H 216.912 3.19374 -0.469033 0
M  V30 2340 H 215.964 2.56774 -2.80662 0
M  V30 2341 H 217.276 3.52557 -3.52853 0
M  V30 2342 H 216.43 5.5814 -2.37834 0
M  V30 2343 H 215.169 4.62353 -1.5518 0
M  V30 2344 H 214.174 4.00096 -3.77099 0
M  V30 2345 H 215.399 4.99282 -4.6032 0
M  V30 2346 H 213.345 6.0194 -2.60776 0
M  V30 2347 H 213.262 6.19733 -4.32975 0
M  V30 2348 H 214.53 6.99226 -3.44532 0
M  V30 2349 N 218.759 1.29093 0.90403 0
M  V30 2350 C 219.669 1.15727 2.0407 0
M  V30 2351 C 220.685 0.0815308 1.73809 0
M  V30 2352 O 221.861 0.292749 1.99261 0
M  V30 2353 C 218.926 0.830424 3.36608 0
M  V30 2354 C 217.987 1.98955 3.80415 0
M  V30 2355 C 217.22 1.6782 5.06628 0
M  V30 2356 O 217.443 0.597105 5.67266 0
M  V30 2357 O 216.377 2.52486 5.46383 0
M  V30 2358 H 220.203 2.11171 2.18267 0
M  V30 2359 H 217.788 1.08504 1.027 0
M  V30 2360 H 219.67 0.662521 4.16159 0
M  V30 2361 H 218.345 -0.0942678 3.23563 0
M  V30 2362 H 217.252 2.21267 3.01648 0
M  V30 2363 H 218.585 2.89529 3.98037 0
M  V30 2364 N 220.237 -1.11381 1.11499 0
M  V30 2365 C 221.167 -2.19509 0.796125 0
M  V30 2366 C 222.148 -1.68458 -0.235796 0
M  V30 2367 O 223.333 -1.93947 -0.0991344 0
M  V30 2368 C 220.463 -3.46475 0.239205 0
M  V30 2369 C 219.417 -4.10744 1.20307 0
M  V30 2370 C 218.743 -5.32293 0.50683 0
M  V30 2371 C 220.043 -4.55597 2.55399 0
M  V30 2372 H 221.737 -2.46439 1.70024 0
M  V30 2373 H 219.283 -1.18446 0.818935 0
M  V30 2374 H 221.236 -4.214 0.00392006 0
M  V30 2375 H 219.96 -3.19006 -0.700206 0
M  V30 2376 H 218.619 -3.37813 1.42399 0
M  V30 2377 H 218.267 -5.01095 -0.437408 0
M  V30 2378 H 217.967 -5.76243 1.1497 0
M  V30 2379 H 219.491 -6.09956 0.280351 0
M  V30 2380 H 220.905 -5.21841 2.37391 0
M  V30 2381 H 219.302 -5.10363 3.15673 0
M  V30 2382 H 220.372 -3.69013 3.14575 0
M  V30 2383 N 221.715 -0.905404 -1.28997 0
M  V30 2384 C 222.963 -0.533192 -1.9494 0
M  V30 2385 C 223.284 0.924618 -1.71685 0
M  V30 2386 O 222.554 1.65268 -1.05183 0
M  V30 2387 H 221.134 -0.194194 -0.721317 0
M  V30 2388 H 223.796 -1.15294 -1.57141 0
M  V30 2389 H 222.892 -0.72059 -3.03667 0
M  V30 2390 N 223.193 1.4272 -0.668489 0
M  V30 2391 C 224.44 2.01624 -0.18814 0
M  V30 2392 C 224.768 1.5282 1.20317 0
M  V30 2393 O 224.023 0.718323 1.8204 0
M  V30 2394 C 224.322 3.57021 -0.164499 0
M  V30 2395 C 223.988 4.25232 -1.49962 0
M  V30 2396 C 222.65 4.4358 -1.8652 0
M  V30 2397 C 225.002 4.63727 -2.37921 0
M  V30 2398 C 222.33 4.97694 -3.10674 0
M  V30 2399 C 224.682 5.19218 -3.6138 0
M  V30 2400 C 223.346 5.3578 -3.98115 0
M  V30 2401 H 222.616 0.737795 -0.0688454 0
M  V30 2402 H 225.263 1.70991 -0.862225 0
M  V30 2403 H 223.568 3.87285 0.593079 0
M  V30 2404 H 225.265 4.00372 0.224271 0
M  V30 2405 H 221.855 4.11306 -1.20522 0
M  V30 2406 H 226.039 4.4923 -2.10964 0
M  V30 2407 H 221.295 5.08702 -3.39164 0
M  V30 2408 H 225.469 5.4799 -4.29743 0
M  V30 2409 H 223.096 5.77475 -4.94395 0
M  V30 2410 N 224.671 0.411399 1.52136 0
M  V30 2411 C 225.603 -0.448386 2.24771 0
M  V30 2412 C 226.616 -1.00828 1.27818 0
M  V30 2413 O 227.805 -0.906841 1.53749 0
M  V30 2414 C 224.905 -1.63636 2.96777 0
M  V30 2415 C 224.078 -1.19995 4.20618 0
M  V30 2416 C 223.137 -2.25509 4.75428 0
M  V30 2417 O 222.163 -1.86007 5.3795 0
M  V30 2418 N 223.365 -3.577 4.57199 0
M  V30 2419 H 226.13 0.174025 2.99194 0
M  V30 2420 H 223.691 0.238897 1.60128 0
M  V30 2421 H 225.683 -2.33793 3.30338 0
M  V30 2422 H 224.253 -2.16465 2.25526 0
M  V30 2423 H 223.473 -0.326421 3.92846 0
M  V30 2424 H 224.761 -0.885365 5.01038 0
M  V30 2425 H 224.159 -3.92543 4.07341 0
M  V30 2426 H 222.716 -4.23827 4.95191 0
M  V30 2427 N 226.149 -1.5696 0.141893 0
M  V30 2428 C 227.397 -1.95573 -0.509484 0
M  V30 2429 C 227.718 -1.02746 -1.65736 0
M  V30 2430 O 226.988 -0.0880311 -1.95702 0
M  V30 2431 H 225.568 -0.722115 -0.191205 0
M  V30 2432 H 228.23 -1.93697 0.216196 0
M  V30 2433 H 227.326 -2.99171 -0.889 0
M  V30 2434 O 227.666 -0.00315229 -1.615 0
M  V30 2435 H 228.357 0.61308 -1.83742 0
M  V30 END ATOM
M  V30 BEGIN BOND
M  V30 END BOND
M  V30 END CTAB
M  END
$$$$
