drugbank_target|Q9Y4W6 AFG3-like protein 2 (DB00171)
 OpenBabel12092119253D

  0  0  0     0  0            999 V3000
M  V30 BEGIN CTAB
M  V30 COUNTS 12555 12682 0 0 0
M  V30 BEGIN ATOM
M  V30 1 H -0.908 1.98254 -0.117106 0
M  V30 2 N 0 1.576 0 0
M  V30 3 C 0.933 2.03868 1.02534 0
M  V30 4 C 1.911 0.928543 1.3348 0
M  V30 5 O 3.095 1.19667 1.45644 0
M  V30 6 C 0.222 2.43627 2.35294 0
M  V30 7 C -0.732 3.65373 2.2001 0
M  V30 8 S 0.101 5.13292 1.52614 0
M  V30 9 C 1.257 5.56322 2.86805 0
M  V30 10 H 1.49 2.90518 0.631377 0
M  V30 11 H -0.977 1.52953 0.210867 0
M  V30 12 H 0.981 2.67203 3.11629 0
M  V30 13 H -0.358 1.57376 2.7183 0
M  V30 14 H -1.165 3.90944 3.18086 0
M  V30 15 H -1.563 3.418 1.51819 0
M  V30 16 H 0.729 5.58782 3.83104 0
M  V30 17 H 1.672 6.56266 2.65933 0
M  V30 18 H 2.08 4.83886 2.90714 0
M  V30 19 N 1.4781 -0.272755 1.55222 0
M  V30 20 C 2.4411 -1.32041 1.87344 0
M  V30 21 C 3.4411 -1.42342 0.74803 0
M  V30 22 O 4.6311 -1.41488 1.0162 0
M  V30 23 C 1.7631 -2.70173 2.07893 0
M  V30 24 H 2.9561 -1.04789 2.80997 0
M  V30 25 H 0.5091 -0.51083 1.47717 0
M  V30 26 H 1.2441 -3.02605 1.16622 0
M  V30 27 H 1.0291 -2.64082 2.89833 0
M  V30 28 H 2.5191 -3.45869 2.34017 0
M  V30 29 N 2.9562 -1.48159 -0.537278 0
M  V30 30 C 3.9062 -1.5854 -1.63857 0
M  V30 31 C 4.8902 -0.442969 -1.54682 0
M  V30 32 O 6.0822 -0.69401 -1.62827 0
M  V30 33 C 3.2112 -1.62144 -3.02596 0
M  V30 34 C 2.2972 -2.81841 -3.16901 0
M  V30 35 N 2.6882 -4.06337 -3.01204 0
M  V30 36 C 0.9862 -2.79021 -3.47942 0
M  V30 37 C 1.6872 -4.86606 -3.18731 0
M  V30 38 N 0.6632 -4.19288 -3.45974 0
M  V30 39 H 4.4652 -2.5255 -1.50319 0
M  V30 40 H 1.9792 -1.4443 -0.742555 0
M  V30 41 H 3.9762 -1.67674 -3.81695 0
M  V30 42 H 2.6362 -0.69245 -3.17231 0
M  V30 43 H 3.6472 -4.36888 -2.78117 0
M  V30 44 H 0.3242 -1.95347 -3.6898 0
M  V30 45 H 1.7142 -5.95385 -3.11394 0
M  V30 46 N 4.4343 0.785586 -1.36625 0
M  V30 47 C 5.8503 1.08419 -1.17122 0
M  V30 48 C 6.0503 2.015 0.00208491 0
M  V30 49 O 5.1063 2.43551 0.666278 0
M  V30 50 C 6.4193 1.69498 -2.48377 0
M  V30 51 C 7.9673 1.81821 -2.54775 0
M  V30 52 C 8.4423 2.46315 -3.86126 0
M  V30 53 N 9.9333 2.53779 -3.87492 0
M  V30 54 C 10.6683 3.045 -4.85868 0
M  V30 55 N 10.1643 3.55499 -5.94637 0
M  V30 56 N 11.9573 3.03247 -4.73284 0
M  V30 57 H 4.1083 0.167264 -2.1174 0
M  V30 58 H 6.3713 0.13682 -0.938075 0
M  V30 59 H 6.0773 1.08571 -3.34522 0
M  V30 60 H 5.9513 2.6896 -2.64462 0
M  V30 61 H 8.3383 2.41884 -1.69045 0
M  V30 62 H 8.4193 0.811532 -2.42586 0
M  V30 63 H 8.0633 1.86895 -4.72263 0
M  V30 64 H 7.9933 3.47561 -3.95612 0
M  V30 65 H 10.4843 2.17672 -3.08913 0
M  V30 66 H 10.7973 3.92562 -6.65669 0
M  V30 67 H 9.1423 3.5364 -5.98301 0
M  V30 68 H 12.3333 2.62696 -3.87438 0
M  V30 69 H 12.5063 3.42467 -5.50109 0
M  V30 70 N 5.9124 1.20967 1.01018 0
M  V30 71 C 7.1524 1.03511 1.76252 0
M  V30 72 C 7.5164 -0.42458 1.87247 0
M  V30 73 O 8.7174 -0.719508 2.58991 0
M  V30 74 C 6.9884 1.70726 3.13986 0
M  V30 75 S 8.5474 1.68458 4.05176 0
M  V30 76 H 5.3654 0.371037 0.606508 0
M  V30 77 H 7.9674 1.53628 1.20908 0
M  V30 78 H 6.6714 2.76128 3.03614 0
M  V30 79 H 6.2024 1.20767 3.74405 0
M  V30 80 H 8.2174 0.721987 4.90919 0
M  V30 81 N 7.3905 -1.2043 1.01659 0
M  V30 82 C 8.3205 -2.25466 0.607226 0
M  V30 83 C 9.3015 -1.65853 -0.377716 0
M  V30 84 O 10.4865 -1.92409 -0.263149 0
M  V30 85 C 7.6165 -3.47256 -0.0552949 0
M  V30 86 C 6.5705 -4.19462 0.850632 0
M  V30 87 C 5.8965 -5.34673 0.0538859 0
M  V30 88 C 7.1965 -4.75603 2.15868 0
M  V30 89 H 8.8905 -2.59962 1.48526 0
M  V30 90 H 6.4365 -1.2496 0.715605 0
M  V30 91 H 8.3895 -4.19917 -0.353233 0
M  V30 92 H 7.1135 -3.11924 -0.968045 0
M  V30 93 H 5.7725 -3.48667 1.13257 0
M  V30 94 H 5.4205 -4.95585 -0.860514 0
M  V30 95 H 5.1205 -5.83913 0.657192 0
M  V30 96 H 6.6445 -6.10138 -0.237598 0
M  V30 97 H 8.0585 -5.40083 1.92311 0
M  V30 98 H 6.4555 -5.3528 2.71284 0
M  V30 99 H 7.5255 -3.94346 2.82169 0
M  V30 100 N 8.8686 -0.792821 -1.36206 0
M  V30 101 C 10.2846 -0.474903 -1.52371 0
M  V30 102 C 10.4846 1.00622 -1.74578 0
M  V30 103 O 9.5406 1.79162 -1.77924 0
M  V30 104 C 10.8536 -1.3083 -2.70747 0
M  V30 105 C 12.4016 -1.30234 -2.84619 0
M  V30 106 C 12.8766 -2.11956 -4.06004 0
M  V30 107 N 14.3676 -2.09419 -4.13156 0
M  V30 108 C 15.1026 -2.69419 -5.06163 0
M  V30 109 N 14.5986 -3.3829 -6.04592 0
M  V30 110 N 16.3916 -2.59134 -4.98804 0
M  V30 111 H 8.5426 -1.75222 -1.20046 0
M  V30 112 H 10.8056 -0.745024 -0.586211 0
M  V30 113 H 10.5116 -2.35881 -2.6087 0
M  V30 114 H 10.3856 -0.95196 -3.6499 0
M  V30 115 H 12.7726 -0.259748 -2.93955 0
M  V30 116 H 12.8536 -1.69847 -1.91274 0
M  V30 117 H 12.4976 -3.16248 -3.97429 0
M  V30 118 H 12.4276 -1.69711 -4.98503 0
M  V30 119 H 14.9186 -1.59297 -3.42685 0
M  V30 120 H 15.2316 -3.81394 -6.7213 0
M  V30 121 H 13.5766 -3.42393 -6.04807 0
M  V30 122 H 16.7676 -2.04927 -4.20859 0
M  V30 123 H 16.9406 -3.06185 -5.711 0
M  V30 124 N 10.3467 1.47872 -0.545128 0
M  V30 125 C 11.2767 2.32661 0.197793 0
M  V30 126 C 12.2577 1.43041 0.920504 0
M  V30 127 O 13.4427 1.71912 0.90333 0
M  V30 128 C 10.5727 3.24569 1.23582 0
M  V30 129 C 9.5267 4.23333 0.630323 0
M  V30 130 C 8.8527 5.0448 1.77211 0
M  V30 131 C 10.1527 5.20704 -0.407974 0
M  V30 132 H 11.8467 2.95024 -0.510045 0
M  V30 133 H 9.3927 1.4187 -0.246731 0
M  V30 134 H 11.3457 3.8272 1.76362 0
M  V30 135 H 10.0697 2.60236 1.97344 0
M  V30 136 H 8.7287 3.6639 0.123922 0
M  V30 137 H 8.3767 4.36561 2.49847 0
M  V30 138 H 8.0767 5.71339 1.37281 0
M  V30 139 H 9.6007 5.65487 2.3034 0
M  V30 140 H 11.0147 5.7329 0.033305 0
M  V30 141 H 9.4117 5.95699 -0.725486 0
M  V30 142 H 10.4817 4.66917 -1.30828 0
M  V30 143 N 11.8248 0.280983 1.55075 0
M  V30 144 C 13.0708 -0.327573 2.00745 0
M  V30 145 C 13.4258 -1.53045 1.16598 0
M  V30 146 O 12.7188 -1.90221 0.229451 0
M  V30 147 C 12.9128 -0.754656 3.49342 0
M  V30 148 C 12.7418 0.40529 4.4787 0
M  V30 149 C 11.5118 0.890947 4.97383 0
M  V30 150 C 13.7098 1.24371 4.99035 0
M  V30 151 N 11.6918 2.01975 5.79724 0
M  V30 152 C 13.0628 2.22031 5.7888 0
M  V30 153 C 15.1178 1.27638 4.81262 0
M  V30 154 C 13.8208 3.22709 6.42846 0
M  V30 155 C 15.8468 2.27164 5.46031 0
M  V30 156 C 15.2088 3.23556 6.25692 0
M  V30 157 H 11.3078 -0.0848774 0.77738 0
M  V30 158 H 13.8918 0.406342 1.90413 0
M  V30 159 H 12.0628 -1.45778 3.60005 0
M  V30 160 H 13.7948 -1.34105 3.81835 0
M  V30 161 H 10.5498 0.469262 4.71269 0
M  V30 162 H 10.9738 2.58794 6.25584 0
M  V30 163 H 15.6158 0.544936 4.19274 0
M  V30 164 H 13.3338 3.96784 7.0398 0
M  V30 165 H 16.9198 2.30441 5.34217 0
M  V30 166 H 15.7998 3.99309 6.74924 0
M  V30 167 N 13.3029 -1.57598 0.00835791 0
M  V30 168 C 14.5509 -1.90551 -0.6734 0
M  V30 169 C 14.8719 -0.883301 -1.73847 0
M  V30 170 O 14.1419 0.0781442 -1.95744 0
M  V30 171 H 12.7219 -0.703312 -0.251717 0
M  V30 172 H 15.3839 -1.94833 0.0512592 0
M  V30 173 H 14.4799 -2.9056 -1.13935 0
M  V30 174 N 14.781 0.264519 -1.55364 0
M  V30 175 C 16.197 0.61215 -1.47394 0
M  V30 176 C 16.397 1.89134 -0.695018 0
M  V30 177 O 15.453 2.51563 -0.217275 0
M  V30 178 C 16.766 0.731235 -2.91674 0
M  V30 179 C 18.314 0.82473 -3.01939 0
M  V30 180 C 18.789 0.975522 -4.4749 0
M  V30 181 N 20.28 1.04083 -4.51354 0
M  V30 182 C 21.015 1.17646 -5.61201 0
M  V30 183 N 20.511 1.27874 -6.80896 0
M  V30 184 N 22.304 1.20823 -5.48961 0
M  V30 185 H 14.455 -0.575456 -2.04456 0
M  V30 186 H 16.718 -0.196099 -0.927496 0
M  V30 187 H 16.424 -0.138392 -3.51428 0
M  V30 188 H 16.298 1.60883 -3.41169 0
M  V30 189 H 18.685 1.68482 -2.42276 0
M  V30 190 H 18.766 -0.0776479 -2.55682 0
M  V30 191 H 18.41 0.120058 -5.07758 0
M  V30 192 H 18.34 1.89268 -4.91412 0
M  V30 193 H 20.831 0.973846 -3.65136 0
M  V30 194 H 21.144 1.38081 -7.60364 0
M  V30 195 H 19.489 1.24863 -6.83692 0
M  V30 196 H 22.68 1.12469 -4.54388 0
M  V30 197 H 22.853 1.31049 -6.3461 0
M  V30 198 N 16.2591 1.48442 0.529413 0
M  V30 199 C 17.5071 1.56179 1.28267 0
M  V30 200 C 17.8281 0.237721 1.93546 0
M  V30 201 O 17.0981 -0.740779 1.81354 0
M  V30 202 H 15.6781 0.575367 0.476405 0
M  V30 203 H 18.3401 1.84909 0.61602 0
M  V30 204 H 17.4361 2.34312 2.06165 0
M  V30 205 N 17.7372 -0.778329 1.37039 0
M  V30 206 C 18.9852 -1.53361 1.31623 0
M  V30 207 C 19.3062 -1.94739 -0.100831 0
M  V30 208 O 18.5762 -1.65797 -1.04347 0
M  V30 209 H 17.1562 -0.568794 0.484234 0
M  V30 210 H 19.8182 -0.926742 1.71457 0
M  V30 211 H 18.9142 -2.43606 1.95096 0
M  V30 212 N 19.2153 -1.21501 -1.00376 0
M  V30 213 C 20.4553 -1.04444 -1.75701 0
M  V30 214 C 20.8193 0.414644 -1.87469 0
M  V30 215 O 22.0203 0.705763 -2.59369 0
M  V30 216 C 20.2913 -1.72389 -3.13077 0
M  V30 217 S 21.8503 -1.70604 -4.04277 0
M  V30 218 H 18.6683 -0.374249 -0.604532 0
M  V30 219 H 21.2703 -1.54267 -1.20091 0
M  V30 220 H 19.9743 -2.77734 -3.02146 0
M  V30 221 H 19.5053 -1.22751 -3.73759 0
M  V30 222 H 21.5203 -0.748012 -4.9053 0
M  V30 223 N 20.6934 1.19889 -1.02296 0
M  V30 224 C 21.9394 1.89973 -0.726759 0
M  V30 225 C 22.2944 1.7776 0.73614 0
M  V30 226 O 21.5874 1.15523 1.52856 0
M  V30 227 C 21.7814 3.39883 -1.10518 0
M  V30 228 C 21.6104 3.66684 -2.60332 0
M  V30 229 C 20.3804 3.85045 -3.27213 0
M  V30 230 C 22.5784 3.68727 -3.58532 0
M  V30 231 N 20.5604 3.99422 -4.66192 0
M  V30 232 C 21.9314 3.88604 -4.83101 0
M  V30 233 C 23.9864 3.51722 -3.52414 0
M  V30 234 C 22.6894 3.9324 -6.02292 0
M  V30 235 C 24.7154 3.57632 -4.71013 0
M  V30 236 C 24.0774 3.77988 -5.94394 0
M  V30 237 H 20.1764 0.714551 -0.317712 0
M  V30 238 H 22.7604 1.44123 -1.30907 0
M  V30 239 H 20.9314 3.8447 -0.551142 0
M  V30 240 H 22.6634 3.97464 -0.761853 0
M  V30 241 H 19.4184 3.83689 -2.77632 0
M  V30 242 H 19.8424 4.10473 -5.38368 0
M  V30 243 H 24.4844 3.34945 -2.58015 0
M  V30 244 H 22.2024 4.08811 -6.97065 0
M  V30 245 H 25.7884 3.45773 -4.67902 0
M  V30 246 H 24.6684 3.82428 -6.8463 0
M  V30 247 N 22.1715 0.800033 1.35784 0
M  V30 248 C 23.5825 0.439142 1.81462 0
M  V30 249 C 23.9335 -1.03813 1.66485 0
M  V30 250 O 23.0585 -1.80626 1.19177 0
M  V30 251 C 23.6535 0.790314 3.29453 0
M  V30 252 C 22.2125 0.482111 3.733 0
M  V30 253 C 21.3595 1.01938 2.57883 0
M  V30 254 H 24.3105 0.992254 1.23855 0
M  V30 255 H 24.3315 0.0853677 3.80404 0
M  V30 256 H 23.8435 1.86554 3.40322 0
M  V30 257 H 21.9445 -0.584652 3.67984 0
M  V30 258 H 22.0575 1.01015 4.6833 0
M  V30 259 H 20.4215 0.442043 2.50835 0
M  V30 260 H 21.2045 2.10059 2.71533 0
M  V30 261 N 23.6496 -1.47581 0.552962 0
M  V30 262 C 25.0656 -1.5818 0.212424 0
M  V30 263 C 25.2656 -1.55213 -1.28496 0
M  V30 264 O 24.3216 -1.45329 -2.06484 0
M  V30 265 C 25.6346 -2.88865 0.835318 0
M  V30 266 C 27.1826 -3.0244 0.806156 0
M  V30 267 C 27.6576 -4.35819 1.40804 0
M  V30 268 N 29.1486 -4.42444 1.37103 0
M  V30 269 C 29.8836 -5.44202 1.80641 0
M  V30 270 N 29.3796 -6.52795 2.32015 0
M  V30 271 N 31.1726 -5.35222 1.71738 0
M  V30 272 H 23.3236 -1.47753 1.52587 0
M  V30 273 H 25.5866 -0.702941 0.636064 0
M  V30 274 H 25.2926 -2.9676 1.88749 0
M  V30 275 H 25.1666 -3.7579 0.325848 0
M  V30 276 H 27.5536 -2.94144 -0.237317 0
M  V30 277 H 27.6346 -2.17068 1.35334 0
M  V30 278 H 27.2786 -4.44871 2.45056 0
M  V30 279 H 27.2086 -5.19916 0.836338 0
M  V30 280 H 29.6996 -3.6456 0.995202 0
M  V30 281 H 30.0126 -7.26609 2.63171 0
M  V30 282 H 28.3576 -6.53696 2.36023 0
M  V30 283 H 31.5486 -4.49284 1.31382 0
M  V30 284 H 31.7216 -6.14389 2.05987 0
M  V30 285 N 25.1277 -0.289203 -1.54924 0
M  V30 286 C 26.3757 0.322879 -1.99504 0
M  V30 287 C 26.6967 1.55313 -1.1791 0
M  V30 288 O 25.9667 1.94001 -0.272097 0
M  V30 289 H 24.5467 0.122291 -0.736922 0
M  V30 290 H 27.2087 -0.397802 -1.90797 0
M  V30 291 H 26.3047 0.603061 -3.06218 0
M  V30 292 N 26.6058 1.57591 -0.0167156 0
M  V30 293 C 27.5358 2.12496 0.967858 0
M  V30 294 C 28.5168 1.03807 1.34752 0
M  V30 295 O 29.7018 1.31577 1.42833 0
M  V30 296 C 26.8318 2.64194 2.25431 0
M  V30 297 C 25.7858 3.77559 2.01576 0
M  V30 298 C 25.1118 4.15636 3.36379 0
M  V30 299 C 26.4118 5.04151 1.36489 0
M  V30 300 H 28.1058 2.95013 0.510643 0
M  V30 301 H 25.6518 1.41915 0.244181 0
M  V30 302 H 27.6048 3.01236 2.94678 0
M  V30 303 H 26.3288 1.78821 2.73296 0
M  V30 304 H 24.9878 3.40937 1.34751 0
M  V30 305 H 24.6358 3.27263 3.81979 0
M  V30 306 H 24.3358 4.92022 3.21229 0
M  V30 307 H 25.8598 4.5525 4.06915 0
M  V30 308 H 27.2738 5.38857 1.95718 0
M  V30 309 H 25.6708 5.85453 1.31776 0
M  V30 310 H 26.7408 4.83733 0.336219 0
M  V30 311 N 28.0839 -0.256276 1.55502 0
M  V30 312 C 29.0159 -1.33981 1.85962 0
M  V30 313 C 30.0289 -1.44743 0.745212 0
M  V30 314 O 31.2179 -1.4626 1.02324 0
M  V30 315 C 28.3179 -2.7194 2.02242 0
M  V30 316 C 27.4909 -2.83562 3.33033 0
M  V30 317 C 26.5499 -4.02304 3.39172 0
M  V30 318 O 25.5759 -3.92273 4.12444 0
M  V30 319 N 26.7779 -5.15045 2.67784 0
M  V30 320 H 29.5429 -1.08191 2.7949 0
M  V30 321 H 27.1039 -0.446388 1.55624 0
M  V30 322 H 29.0959 -3.49697 2.03701 0
M  V30 323 H 27.6659 -2.90479 1.15502 0
M  V30 324 H 26.8859 -1.92555 3.43971 0
M  V30 325 H 28.1739 -2.88271 4.19258 0
M  V30 326 H 27.5719 -5.26085 2.07968 0
M  V30 327 H 26.1289 -5.90972 2.74947 0
M  V30 328 N 29.562 -1.4872 -0.521534 0
M  V30 329 C 30.494 -1.59968 -1.64143 0
M  V30 330 C 31.507 -0.483463 -1.55456 0
M  V30 331 O 32.696 -0.75467 -1.61762 0
M  V30 332 C 29.796 -1.52127 -3.02838 0
M  V30 333 C 28.969 -2.78932 -3.36921 0
M  V30 334 C 28.028 -2.64428 -4.54933 0
M  V30 335 O 27.054 -3.38331 -4.57735 0
M  V30 336 N 28.256 -1.74606 -5.53618 0
M  V30 337 H 31.021 -2.56548 -1.54929 0
M  V30 338 H 28.582 -1.45551 -0.708988 0
M  V30 339 H 30.574 -1.40106 -3.79674 0
M  V30 340 H 29.144 -0.634868 -3.06085 0
M  V30 341 H 28.364 -3.05455 -2.4918 0
M  V30 342 H 29.652 -3.63041 -3.56481 0
M  V30 343 H 29.05 -1.13782 -5.54139 0
M  V30 344 H 27.607 -1.6852 -6.29638 0
M  V30 345 N 31.0401 0.771051 -1.3745 0
M  V30 346 C 31.9701 1.89827 -1.3597 0
M  V30 347 C 32.9511 1.68562 -0.228216 0
M  V30 348 O 34.1361 1.8941 -0.428675 0
M  V30 349 C 31.2661 3.2712 -1.16662 0
M  V30 350 C 30.2201 3.6295 -2.2683 0
M  V30 351 C 29.5461 4.98791 -1.92644 0
M  V30 352 C 30.8461 3.69627 -3.69017 0
M  V30 353 H 32.5401 1.91323 -2.30295 0
M  V30 354 H 30.0861 0.919082 -1.10855 0
M  V30 355 H 32.0391 4.05615 -1.14256 0
M  V30 356 H 30.7631 3.26059 -0.187926 0
M  V30 357 H 29.4221 2.86763 -2.28392 0
M  V30 358 H 29.0701 4.94271 -0.933021 0
M  V30 359 H 28.7701 5.23733 -2.66416 0
M  V30 360 H 30.2941 5.79685 -1.91826 0
M  V30 361 H 31.7081 4.38273 -3.69581 0
M  V30 362 H 30.1051 4.06067 -4.41848 0
M  V30 363 H 31.1751 2.70273 -4.02592 0
M  V30 364 N 32.5182 1.22032 0.997298 0
M  V30 365 C 33.4482 1.01065 2.10495 0
M  V30 366 C 34.4292 -0.0669542 1.69968 0
M  V30 367 O 35.6142 0.0943987 1.9397 0
M  V30 368 C 32.7442 0.582874 3.42374 0
M  V30 369 C 31.6982 1.60592 3.96729 0
M  V30 370 C 31.0242 1.03412 5.24605 0
M  V30 371 C 32.3242 2.99478 4.27914 0
M  V30 372 H 34.0182 1.93708 2.28292 0
M  V30 373 H 31.5642 0.932761 1.09707 0
M  V30 374 H 33.5172 0.423332 4.19268 0
M  V30 375 H 32.2412 -0.379213 3.24391 0
M  V30 376 H 30.9002 1.75316 3.21963 0
M  V30 377 H 30.5482 0.063518 5.0296 0
M  V30 378 H 30.2482 1.71754 5.61938 0
M  V30 379 H 31.7722 0.886066 6.04137 0
M  V30 380 H 33.1862 2.88153 4.95622 0
M  V30 381 H 31.5832 3.64903 4.76409 0
M  V30 382 H 32.6532 3.49742 3.3587 0
M  V30 383 N 33.9963 -1.19345 1.0293 0
M  V30 384 C 35.2423 -1.89318 0.727083 0
M  V30 385 C 35.5753 -1.79446 -0.742483 0
M  V30 386 O 34.8503 -1.1871 -1.54072 0
M  V30 387 C 35.1333 -3.40238 1.17942 0
M  V30 388 C 34.9863 -3.58979 2.71024 0
M  V30 389 C 36.3053 -4.33479 0.760548 0
M  V30 390 H 33.4243 -0.687475 0.265606 0
M  V30 391 H 36.0663 -1.40477 1.2793 0
M  V30 392 H 34.2163 -3.81964 0.709608 0
M  V30 393 H 35.8883 -3.26421 3.25955 0
M  V30 394 H 34.1313 -3.02018 3.11396 0
M  V30 395 H 34.8023 -4.64823 2.9773 0
M  V30 396 H 37.2783 -3.99469 1.16464 0
M  V30 397 H 36.1543 -5.37664 1.10493 0
M  V30 398 H 36.4153 -4.40813 -0.337063 0
M  V30 399 N 35.4744 -0.807222 -1.35358 0
M  V30 400 C 36.8854 -0.44876 -1.81226 0
M  V30 401 C 37.2364 1.02929 -1.67033 0
M  V30 402 O 36.3614 1.79991 -1.20133 0
M  V30 403 C 36.9564 -0.807774 -3.2903 0
M  V30 404 C 35.5154 -0.501901 -3.73039 0
M  V30 405 C 34.6624 -1.03304 -2.57339 0
M  V30 406 H 37.6134 -0.998808 -1.23327 0
M  V30 407 H 37.6344 -0.10554 -3.80354 0
M  V30 408 H 37.1464 -1.88357 -3.39328 0
M  V30 409 H 35.2474 0.565128 -3.68289 0
M  V30 410 H 35.3604 -1.03497 -4.67787 0
M  V30 411 H 33.7244 -0.455339 -2.50597 0
M  V30 412 H 34.5074 -2.11496 -2.70415 0
M  V30 413 N 36.9525 1.47285 -0.560781 0
M  V30 414 C 38.2005 2.02064 -0.0379868 0
M  V30 415 C 38.5215 1.43711 1.31803 0
M  V30 416 O 37.7915 0.61362 1.86042 0
M  V30 417 H 36.3715 0.746918 -0.0110531 0
M  V30 418 H 39.0335 1.80648 -0.731598 0
M  V30 419 H 38.1295 3.12064 0.0474463 0
M  V30 420 N 38.4306 0.297415 1.54768 0
M  V30 421 C 39.6786 -0.312295 1.99673 0
M  V30 422 C 39.9996 -1.54686 1.18732 0
M  V30 423 O 39.2696 -1.93854 0.282382 0
M  V30 424 H 37.8496 -0.118381 0.73756 0
M  V30 425 H 40.5116 0.407915 1.90583 0
M  V30 426 H 39.6076 -0.586813 3.06534 0
M  V30 427 N 39.9087 -1.5758 0.0250728 0
M  V30 428 C 41.1547 -1.91917 -0.655413 0
M  V30 429 C 41.4877 -0.901433 -1.72011 0
M  V30 430 O 40.7627 0.0764069 -1.9435 0
M  V30 431 C 41.0457 -3.36751 -1.27558 0
M  V30 432 C 40.8987 -4.49258 -0.220719 0
M  V30 433 C 42.2177 -3.81469 -2.19475 0
M  V30 434 H 39.3367 -0.697925 -0.23679 0
M  V30 435 H 41.9787 -1.89825 0.0815036 0
M  V30 436 H 40.1287 -3.38664 -1.90365 0
M  V30 437 H 41.8007 -4.59478 0.409601 0
M  V30 438 H 40.0437 -4.31415 0.454264 0
M  V30 439 H 40.7147 -5.47618 -0.694175 0
M  V30 440 H 43.1907 -3.81266 -1.66659 0
M  V30 441 H 42.0667 -4.83512 -2.59822 0
M  V30 442 H 42.3277 -3.16744 -3.08424 0
M  V30 443 N 41.3868 0.248026 -1.55636 0
M  V30 444 C 42.6348 0.974295 -1.77065 0
M  V30 445 C 42.9558 1.85897 -0.588849 0
M  V30 446 O 42.2258 1.91868 0.395407 0
M  V30 447 H 40.8058 0.362733 -0.653019 0
M  V30 448 H 43.4678 0.266244 -1.93073 0
M  V30 449 H 42.5638 1.59667 -2.68166 0
M  V30 450 N 42.8649 1.48995 0.513639 0
M  V30 451 C 44.2759 1.5119 1.09537 0
M  V30 452 C 44.6269 0.290906 1.94031 0
M  V30 453 O 43.7519 -0.60049 2.07902 0
M  V30 454 C 44.3469 2.73964 1.99322 0
M  V30 455 C 42.9059 2.78978 2.52682 0
M  V30 456 C 42.0529 2.44934 1.30009 0
M  V30 457 H 45.0039 1.55875 0.298125 0
M  V30 458 H 45.0249 2.53409 2.83838 0
M  V30 459 H 44.5369 3.62813 1.37799 0
M  V30 460 H 42.6379 1.94378 3.1788 0
M  V30 461 H 42.7509 3.8083 2.90698 0
M  V30 462 H 41.1149 1.9644 1.62122 0
M  V30 463 H 41.8979 3.36043 0.702131 0
M  V30 464 N 44.343 -0.763751 1.37857 0
M  V30 465 C 45.591 -1.51957 1.33243 0
M  V30 466 C 45.912 -1.94835 -0.0801709 0
M  V30 467 O 45.182 -1.66894 -1.02582 0
M  V30 468 H 43.762 -0.563626 0.49024 0
M  V30 469 H 46.424 -0.908504 1.7243 0
M  V30 470 H 45.52 -2.41523 1.97669 0
M  V30 471 N 45.8211 -1.22559 -0.990812 0
M  V30 472 C 46.7311 -1.01394 -2.11557 0
M  V30 473 C 47.7471 0.0383962 -1.73958 0
M  V30 474 O 48.9231 -0.154787 -2.00804 0
M  V30 475 C 45.9881 -0.596569 -3.41529 0
M  V30 476 C 45.0491 -1.72276 -3.93217 0
M  V30 477 C 44.2821 -1.32521 -5.16985 0
M  V30 478 O 44.5051 -0.204909 -5.70032 0
M  V30 479 O 43.4391 -2.14247 -5.62478 0
M  V30 480 H 47.2651 -1.95633 -2.32296 0
M  V30 481 H 44.8501 -1.01172 -1.0993 0
M  V30 482 H 46.7321 -0.374263 -4.19735 0
M  V30 483 H 45.4071 0.316939 -3.22145 0
M  V30 484 H 44.3141 -1.99961 -3.16174 0
M  V30 485 H 45.6471 -2.61421 -4.17037 0
M  V30 486 N 47.2992 1.18797 -1.03562 0
M  V30 487 C 48.2312 2.21731 -0.580337 0
M  V30 488 C 49.2442 1.59051 0.347349 0
M  V30 489 O 50.4332 1.77929 0.142669 0
M  V30 490 C 47.5332 3.38459 0.172805 0
M  V30 491 C 46.7062 4.3072 -0.761496 0
M  V30 492 C 45.7652 5.26174 -0.0525547 0
M  V30 493 O 44.7912 5.65108 -0.681333 0
M  V30 494 N 45.9932 5.67624 1.21586 0
M  V30 495 H 48.7582 2.61417 -1.46565 0
M  V30 496 H 46.3192 1.33531 -0.915476 0
M  V30 497 H 48.3112 3.99335 0.656793 0
M  V30 498 H 46.8812 2.97507 0.959602 0
M  V30 499 H 46.1012 3.67525 -1.42544 0
M  V30 500 H 47.3892 4.89267 -1.39626 0
M  V30 501 H 46.7872 5.38038 1.74732 0
M  V30 502 H 45.3442 6.30721 1.64421 0
M  V30 503 N 48.7773 0.814389 1.34928 0
M  V30 504 C 50.1883 0.458364 1.80986 0
M  V30 505 C 50.5393 -1.02042 1.67577 0
M  V30 506 O 49.6643 -1.79352 1.21086 0
M  V30 507 C 50.2593 0.825212 3.28597 0
M  V30 508 C 48.8183 0.521677 3.72767 0
M  V30 509 C 47.9653 1.04668 2.56788 0
M  V30 510 H 50.9163 1.00533 1.22795 0
M  V30 511 H 50.9373 0.12571 3.80292 0
M  V30 512 H 50.4493 1.90154 3.38324 0
M  V30 513 H 48.5503 -0.545589 3.68584 0
M  V30 514 H 48.6633 1.05977 4.67232 0
M  V30 515 H 47.0273 0.468622 2.50352 0
M  V30 516 H 47.8103 2.12927 2.6929 0
M  V30 517 N 50.2554 -1.46986 0.568584 0
M  V30 518 C 51.4954 -2.04336 0.0512999 0
M  V30 519 C 51.8594 -1.43214 -1.27881 0
M  V30 520 O 53.0604 -1.91679 -1.88448 0
M  V30 521 C 51.3314 -3.57389 -0.0282328 0
M  V30 522 S 52.8904 -4.36056 -0.489991 0
M  V30 523 H 49.7084 -0.71034 0.0306349 0
M  V30 524 H 52.3104 -1.80212 0.757891 0
M  V30 525 H 51.0144 -3.99395 0.944011 0
M  V30 526 H 50.5454 -3.86028 -0.75803 0
M  V30 527 H 52.5604 -4.6441 -1.74752 0
M  V30 528 N 51.7335 -0.305618 -1.54608 0
M  V30 529 C 52.6635 0.561482 -2.26649 0
M  V30 530 C 53.6445 1.13415 -1.26772 0
M  V30 531 O 54.8295 1.16262 -1.55553 0
M  V30 532 C 51.9595 1.73122 -3.01075 0
M  V30 533 C 50.9135 1.2887 -4.08138 0
M  V30 534 C 50.2395 2.54396 -4.70305 0
M  V30 535 C 51.5395 0.416578 -5.20636 0
M  V30 536 H 53.2335 -0.0393902 -2.99374 0
M  V30 537 H 50.7795 -0.020385 -1.43986 0
M  V30 538 H 52.7325 2.34396 -3.50195 0
M  V30 539 H 51.4565 2.3584 -2.25936 0
M  V30 540 H 50.1155 0.698991 -3.59875 0
M  V30 541 H 49.7635 3.15439 -3.918 0
M  V30 542 H 49.4635 2.25486 -5.42614 0
M  V30 543 H 50.9875 3.16464 -5.2219 0
M  V30 544 H 52.4015 0.935116 -5.65622 0
M  V30 545 H 50.7985 0.221046 -5.99693 0
M  V30 546 H 51.8685 -0.557162 -4.81688 0
M  V30 547 N 53.2116 1.57565 -0.0334293 0
M  V30 548 C 54.6276 1.56297 0.322997 0
M  V30 549 C 54.8276 1.03945 1.7262 0
M  V30 550 O 53.8836 0.688109 2.42943 0
M  V30 551 C 55.1966 3.00232 0.167664 0
M  V30 552 C 56.7446 3.12078 0.240107 0
M  V30 553 C 57.2196 4.57859 0.113513 0
M  V30 554 N 58.7106 4.62887 0.170359 0
M  V30 555 C 59.4456 5.73319 0.0962517 0
M  V30 556 N 58.9416 6.92794 -0.0291881 0
M  V30 557 N 60.7346 5.61898 0.150551 0
M  V30 558 H 52.8856 1.89923 -0.950956 0
M  V30 559 H 55.1486 0.873824 -0.367608 0
M  V30 560 H 54.8546 3.42501 -0.799102 0
M  V30 561 H 54.7286 3.654 0.936083 0
M  V30 562 H 57.1156 2.69718 1.19733 0
M  V30 563 H 57.1966 2.49623 -0.558763 0
M  V30 564 H 56.8406 5.009 -0.840314 0
M  V30 565 H 56.7706 5.18299 0.931302 0
M  V30 566 H 59.2616 3.76954 0.26728 0
M  V30 567 H 59.5746 7.7276 -0.0789252 0
M  V30 568 H 57.9196 6.94971 -0.0640299 0
M  V30 569 H 61.1106 4.67448 0.246981 0
M  V30 570 H 61.2836 6.47938 0.0893365 0
M  V30 571 N 54.6897 -0.239769 1.55765 0
M  V30 572 C 55.9177 -0.98417 1.81994 0
M  V30 573 C 56.3327 -1.7867 0.610124 0
M  V30 574 O 55.6897 -1.77571 -0.421271 0
M  V30 575 C 55.7407 -1.91635 3.06526 0
M  V30 576 O 55.4617 -1.14629 4.22838 0
M  V30 577 C 56.9627 -2.77616 3.45607 0
M  V30 578 H 54.1827 -0.28928 0.605441 0
M  V30 579 H 56.7267 -0.260499 2.02834 0
M  V30 580 H 54.8817 -2.5942 2.87715 0
M  V30 581 H 55.2957 -1.77745 4.93464 0
M  V30 582 H 56.7697 -3.38759 4.35828 0
M  V30 583 H 57.2467 -3.4909 2.6652 0
M  V30 584 H 57.8527 -2.15271 3.66795 0
M  V30 585 N 56.1678 -1.49265 -0.50573 0
M  V30 586 C 57.0978 -1.68495 -1.61653 0
M  V30 587 C 58.0788 -0.53366 -1.61512 0
M  V30 588 O 59.2638 -0.76897 -1.78327 0
M  V30 589 C 56.3938 -1.74709 -3.00157 0
M  V30 590 C 55.3478 -2.89581 -3.15162 0
M  V30 591 C 54.6738 -2.80903 -4.5497 0
M  V30 592 C 55.9738 -4.30578 -2.95634 0
M  V30 593 H 57.6678 -2.61493 -1.45814 0
M  V30 594 H 55.2138 -1.25838 -0.70005 0
M  V30 595 H 57.1668 -1.86748 -3.77761 0
M  V30 596 H 55.8908 -0.783067 -3.17074 0
M  V30 597 H 54.5498 -2.77136 -2.39982 0
M  V30 598 H 54.1978 -1.82419 -4.68756 0
M  V30 599 H 53.8978 -3.57999 -4.65951 0
M  V30 600 H 55.4218 -2.94944 -5.34641 0
M  V30 601 H 56.8358 -4.4373 -3.63011 0
M  V30 602 H 55.2328 -5.0886 -3.18091 0
M  V30 603 H 56.3028 -4.45352 -1.91806 0
M  V30 604 N 57.6459 0.756429 -1.3826 0
M  V30 605 C 58.8759 1.54341 -1.3734 0
M  V30 606 C 59.2839 1.89159 0.0393917 0
M  V30 607 O 58.6269 1.5307 1.01565 0
M  V30 608 C 58.6889 2.87238 -2.16182 0
M  V30 609 C 58.3529 2.74973 -3.65019 0
M  V30 610 C 59.3499 2.44962 -4.58574 0
M  V30 611 C 57.0349 2.92515 -4.08338 0
M  V30 612 C 59.0289 2.32642 -5.93428 0
M  V30 613 C 56.7159 2.79815 -5.43274 0
M  V30 614 C 57.7139 2.49921 -6.35632 0
M  V30 615 O 57.4019 2.37275 -7.68086 0
M  V30 616 H 57.1339 0.484281 -0.471643 0
M  V30 617 H 59.6879 0.944152 -1.82414 0
M  V30 618 H 57.9179 3.49342 -1.65822 0
M  V30 619 H 59.6069 3.48731 -2.07705 0
M  V30 620 H 60.3729 2.31081 -4.26412 0
M  V30 621 H 56.2519 3.14781 -3.368 0
M  V30 622 H 59.7959 2.0923 -6.65484 0
M  V30 623 H 55.6929 2.93269 -5.75034 0
M  V30 624 H 56.4609 2.52509 -7.78577 0
M  V30 625 N 59.124 1.23083 0.984299 0
M  V30 626 C 60.54 0.992637 1.24975 0
M  V30 627 C 60.74 -0.308618 1.99123 0
M  V30 628 O 59.796 -1.02905 2.30579 0
M  V30 629 C 61.109 2.19698 2.05312 0
M  V30 630 C 62.657 2.24147 2.18465 0
M  V30 631 C 63.132 3.44157 3.02192 0
M  V30 632 N 64.623 3.44372 3.09777 0
M  V30 633 C 65.358 4.33886 3.74874 0
M  V30 634 N 64.854 5.3363 4.41827 0
M  V30 635 N 66.647 4.21639 3.71721 0
M  V30 636 H 58.798 2.06731 0.487453 0
M  V30 637 H 61.061 0.906339 0.277944 0
M  V30 638 H 60.767 3.1411 1.58201 0
M  V30 639 H 60.641 2.20465 3.06064 0
M  V30 640 H 63.028 1.30277 2.64786 0
M  V30 641 H 63.109 2.27415 1.17115 0
M  V30 642 H 62.753 4.38332 2.56568 0
M  V30 643 H 62.683 3.3813 4.03702 0
M  V30 644 H 65.174 2.72201 2.62135 0
M  V30 645 H 65.487 5.98196 4.89266 0
M  V30 646 H 63.832 5.37534 4.40548 0
M  V30 647 H 67.023 3.42962 3.18582 0
M  V30 648 H 67.196 4.91604 4.22173 0
M  V30 649 N 60.6021 -1.18246 1.0419 0
M  V30 650 C 61.8491 -1.88257 0.746017 0
M  V30 651 C 62.1771 -1.80429 -0.726331 0
M  V30 652 O 61.4321 -1.2 -1.54591 0
M  V30 653 C 61.7311 -3.38082 1.15911 0
M  V30 654 C 61.3971 -3.66114 2.63195 0
M  V30 655 C 60.0591 -3.73474 3.03432 0
M  V30 656 C 62.4111 -3.78398 3.5842 0
M  V30 657 C 59.7391 -3.90599 4.37778 0
M  V30 658 C 62.0911 -3.97039 4.92487 0
M  V30 659 C 60.7551 -4.02635 5.32392 0
M  V30 660 H 60.0251 -0.688883 0.272987 0
M  V30 661 H 62.6721 -1.3995 1.30715 0
M  V30 662 H 60.9771 -3.88377 0.516806 0
M  V30 663 H 62.6741 -3.90596 0.907516 0
M  V30 664 H 59.2641 -3.61003 2.3103 0
M  V30 665 H 63.4481 -3.72042 3.28479 0
M  V30 666 H 58.7041 -3.93175 4.68213 0
M  V30 667 H 62.8781 -4.05486 5.66175 0
M  V30 668 H 60.5051 -4.15657 6.36501 0
M  V30 669 N 62.0802 -0.821533 -1.34494 0
M  V30 670 C 63.3262 -0.409552 -1.98622 0
M  V30 671 C 63.6592 1.0244 -1.64984 0
M  V30 672 O 62.9342 1.71325 -0.920758 0
M  V30 673 C 63.2172 -0.610458 -3.54888 0
M  V30 674 C 63.0702 -2.09043 -3.98273 0
M  V30 675 C 64.3892 -0.0455379 -4.40076 0
M  V30 676 H 61.5082 -0.15028 -0.721516 0
M  V30 677 H 64.1502 -1.03384 -1.59411 0
M  V30 678 H 62.3002 -0.079044 -3.8842 0
M  V30 679 H 63.9722 -2.68537 -3.75081 0
M  V30 680 H 62.2152 -2.58139 -3.48635 0
M  V30 681 H 62.8862 -2.18182 -5.07051 0
M  V30 682 H 65.3622 -0.499557 -4.1309 0
M  V30 683 H 64.2382 -0.215922 -5.48475 0
M  V30 684 H 64.4992 1.04939 -4.29465 0
M  V30 685 N 63.5583 1.46682 -0.576371 0
M  V30 686 C 64.7863 2.06798 -0.0649635 0
M  V30 687 C 65.2013 1.42612 1.23723 0
M  V30 688 O 64.5583 0.529203 1.74659 0
M  V30 689 C 64.6093 3.6132 0.114202 0
M  V30 690 O 64.3303 4.23104 -1.13644 0
M  V30 691 C 65.8313 4.38349 0.66069 0
M  V30 692 H 63.0513 0.668778 -0.0545616 0
M  V30 693 H 65.5953 1.88404 -0.795237 0
M  V30 694 H 63.7503 3.79162 0.794673 0
M  V30 695 H 64.1643 5.15894 -0.946253 0
M  V30 696 H 65.6383 5.47081 0.73526 0
M  V30 697 H 66.1153 4.05953 1.67627 0
M  V30 698 H 66.7213 4.25297 0.0152951 0
M  V30 699 N 65.0364 0.313813 1.54444 0
M  V30 700 C 66.2644 -0.293918 2.04802 0
M  V30 701 C 66.6794 -1.46537 1.19047 0
M  V30 702 O 66.0364 -1.81182 0.218939 0
M  V30 703 C 66.0874 -0.737806 3.53891 0
M  V30 704 O 65.8084 0.387038 4.36387 0
M  V30 705 C 67.3094 -1.40936 4.203 0
M  V30 706 H 64.5294 -0.0620057 0.668129 0
M  V30 707 H 67.0734 0.457169 1.99324 0
M  V30 708 H 65.2284 -1.43889 3.59687 0
M  V30 709 H 65.6424 0.0391274 5.24485 0
M  V30 710 H 67.1164 -1.67099 5.26101 0
M  V30 711 H 67.5934 -2.35355 3.70816 0
M  V30 712 H 68.1994 -0.751117 4.18615 0
M  V30 713 N 66.5145 -1.57545 0.0417849 0
M  V30 714 C 67.4465 -2.07904 -0.964799 0
M  V30 715 C 68.4595 -1.00497 -1.28079 0
M  V30 716 O 69.6485 -1.28087 -1.24322 0
M  V30 717 C 66.7485 -2.49928 -2.28887 0
M  V30 718 C 65.9215 -3.80562 -2.15619 0
M  V30 719 C 64.9805 -4.08999 -3.31069 0
M  V30 720 O 64.0065 -4.79061 -3.0739 0
M  V30 721 N 65.2085 -3.6017 -4.55256 0
M  V30 722 H 67.9735 -2.94886 -0.535029 0
M  V30 723 H 65.5345 -1.61252 -0.144681 0
M  V30 724 H 67.5265 -2.66034 -3.04972 0
M  V30 725 H 66.0965 -1.68245 -2.63463 0
M  V30 726 H 65.3165 -3.74129 -1.24183 0
M  V30 727 H 66.6045 -4.66126 -2.03971 0
M  V30 728 H 66.0025 -3.03512 -4.77386 0
M  V30 729 H 64.5595 -3.81532 -5.28466 0
M  V30 730 N 67.9926 0.231505 -1.5589 0
M  V30 731 C 68.9556 1.27028 -1.90779 0
M  V30 732 C 69.9556 1.40308 -0.785507 0
M  V30 733 O 71.1456 1.38744 -1.05336 0
M  V30 734 C 68.2776 2.64566 -2.14983 0
M  V30 735 H 69.4706 0.973017 -2.83677 0
M  V30 736 H 67.0236 0.471486 -1.49019 0
M  V30 737 H 67.7586 2.99406 -1.24604 0
M  V30 738 H 67.5436 2.56305 -2.96732 0
M  V30 739 H 69.0336 3.39543 -2.43105 0
M  V30 740 N 69.4707 1.49531 0.497807 0
M  V30 741 C 70.8867 1.36365 0.829266 0
M  V30 742 C 71.0867 0.399184 1.97506 0
M  V30 743 O 70.1427 -0.167977 2.51941 0
M  V30 744 C 71.4557 2.77153 1.16647 0
M  V30 745 C 73.0037 2.85877 1.27449 0
M  V30 746 C 73.4787 4.2744 1.64497 0
M  V30 747 N 74.9697 4.30265 1.7154 0
M  V30 748 C 75.7047 5.3677 2.01656 0
M  V30 749 N 75.2007 6.53516 2.29976 0
M  V30 750 N 76.9937 5.24189 2.02934 0
M  V30 751 H 69.1447 2.10831 -0.257703 0
M  V30 752 H 71.4077 0.946534 -0.0527091 0
M  V30 753 H 71.1137 3.49442 0.397872 0
M  V30 754 H 70.9877 3.12722 2.10915 0
M  V30 755 H 73.3747 2.13824 2.0338 0
M  V30 756 H 73.4557 2.53887 0.312244 0
M  V30 757 H 73.0997 5.00021 0.891151 0
M  V30 758 H 73.0297 4.56896 2.61827 0
M  V30 759 H 75.5207 3.4607 1.51802 0
M  V30 760 H 75.8337 7.30506 2.52153 0
M  V30 761 H 74.1787 6.56737 2.27425 0
M  V30 762 H 77.3697 4.31988 1.80289 0
M  V30 763 H 77.5427 6.07286 2.26071 0
M  V30 764 N 70.9488 -0.749086 1.3866 0
M  V30 765 C 71.9118 -1.84457 1.36045 0
M  V30 766 C 72.9118 -1.58682 0.260122 0
M  V30 767 O 74.1018 -1.66343 0.517261 0
M  V30 768 C 71.2338 -3.22008 1.11911 0
M  V30 769 H 72.4268 -1.88182 2.33512 0
M  V30 770 H 69.9798 -0.951266 1.24019 0
M  V30 771 H 70.7148 -3.2395 0.150686 0
M  V30 772 H 70.4998 -3.42111 1.91579 0
M  V30 773 H 71.9898 -4.0208 1.12788 0
M  V30 774 N 72.4269 -1.23603 -0.977757 0
M  V30 775 C 73.6519 -1.09735 -1.75991 0
M  V30 776 C 74.0769 0.346858 -1.84874 0
M  V30 777 O 73.4349 1.25093 -1.3123 0
M  V30 778 C 73.4829 -1.73051 -3.16363 0
M  V30 779 O 72.5869 -0.994452 -4.0023 0
M  V30 780 H 71.9279 -0.384476 -0.541364 0
M  V30 781 H 74.4579 -1.6371 -1.2272 0
M  V30 782 H 74.4679 -1.78398 -3.66931 0
M  V30 783 H 73.1429 -2.78137 -3.09213 0
M  V30 784 H 71.7199 -1.01812 -3.58732 0
M  V30 785 N 73.905 1.17692 -1.04816 0
M  V30 786 C 75.321 1.39863 -0.768794 0
M  V30 787 C 75.521 1.91118 0.638451 0
M  V30 788 O 74.577 2.10036 1.40146 0
M  V30 789 C 75.89 2.39274 -1.82122 0
M  V30 790 C 77.438 2.52987 -1.843 0
M  V30 791 C 77.913 3.55669 -2.88555 0
M  V30 792 N 79.404 3.63183 -2.87493 0
M  V30 793 C 80.139 4.42381 -3.64811 0
M  V30 794 N 79.635 5.25125 -4.51903 0
M  V30 795 N 81.428 4.37217 -3.53267 0
M  V30 796 H 73.579 0.82752 -1.95617 0
M  V30 797 H 75.842 0.426123 -0.846831 0
M  V30 798 H 75.548 2.08678 -2.83102 0
M  V30 799 H 75.422 3.38725 -1.65967 0
M  V30 800 H 77.809 2.82896 -0.839869 0
M  V30 801 H 77.89 1.53623 -2.04532 0
M  V30 802 H 77.534 3.26499 -3.89051 0
M  V30 803 H 77.464 4.54728 -2.65575 0
M  V30 804 H 79.955 3.04103 -2.24343 0
M  V30 805 H 80.268 5.82728 -5.07591 0
M  V30 806 H 78.613 5.24519 -4.55966 0
M  V30 807 H 81.804 3.71626 -2.84625 0
M  V30 808 H 81.977 4.98696 -4.13771 0
M  V30 809 N 75.3831 0.828654 1.34056 0
M  V30 810 C 76.3311 0.242973 2.31327 0
M  V30 811 C 77.3251 -0.61944 1.57668 0
M  V30 812 O 78.5311 -0.51014 1.7262 0
M  V30 813 H 74.9061 0.059834 0.749616 0
M  V30 814 H 76.8771 1.07809 2.78244 0
M  V30 815 C 75.6261 -0.575733 3.429 0
M  V30 816 H 74.9491 0.0785582 3.99723 0
M  V30 817 H 76.3891 -0.951547 4.13185 0
M  V30 818 C 74.8481 -1.75044 2.87856 0
M  V30 819 O 75.3781 -2.84882 2.83205 0
M  V30 820 N 73.5841 -1.56903 2.44602 0
M  V30 821 H 73.1311 -0.675547 2.48584 0
M  V30 822 H 73.0891 -2.35652 2.08124 0
M  V30 823 N 76.8612 -1.46375 0.584142 0
M  V30 824 C 78.0862 -2.07268 0.0740405 0
M  V30 825 C 78.5112 -1.42979 -1.22223 0
M  V30 826 O 77.8692 -0.514092 -1.73859 0
M  V30 827 C 77.9172 -3.60518 -0.0767769 0
M  V30 828 O 77.0212 -3.96533 -1.13292 0
M  V30 829 H 76.3622 -0.660961 0.0634524 0
M  V30 830 H 78.8922 -1.87991 0.807492 0
M  V30 831 H 78.9022 -4.07021 -0.282489 0
M  V30 832 H 77.5772 -4.06702 0.86986 0
M  V30 833 H 76.1542 -3.61738 -0.905553 0
M  V30 834 N 78.3393 -0.321999 -1.54275 0
M  V30 835 C 79.2693 0.537411 -2.27231 0
M  V30 836 C 80.2503 1.12064 -1.27968 0
M  V30 837 O 81.4353 1.14606 -1.56777 0
M  V30 838 C 78.5653 1.69919 -3.02894 0
M  V30 839 C 77.5193 1.24534 -4.09482 0
M  V30 840 C 76.8453 2.49394 -4.72977 0
M  V30 841 C 78.1453 0.361335 -5.21049 0
M  V30 842 H 79.8393 -0.0711406 -2.99315 0
M  V30 843 H 77.3853 -0.0356555 -1.43956 0
M  V30 844 H 79.3383 2.30668 -3.52662 0
M  V30 845 H 78.0623 2.33431 -2.28424 0
M  V30 846 H 76.7213 0.660782 -3.60596 0
M  V30 847 H 76.3693 3.11265 -3.95124 0
M  V30 848 H 76.0693 2.19718 -5.44975 0
M  V30 849 H 77.5933 3.10908 -5.25517 0
M  V30 850 H 79.0073 0.875072 -5.66582 0
M  V30 851 H 77.4043 0.157428 -5.99893 0
M  V30 852 H 78.4743 -0.60822 -4.8107 0
M  V30 853 N 79.8174 1.5752 -0.0501392 0
M  V30 854 C 80.7474 2.14502 0.922566 0
M  V30 855 C 81.7284 1.06642 1.3252 0
M  V30 856 O 82.9134 1.34577 1.4001 0
M  V30 857 C 80.0434 2.68916 2.19776 0
M  V30 858 C 78.9974 3.8175 1.93523 0
M  V30 859 C 78.3234 4.22677 3.27487 0
M  V30 860 C 79.6234 5.06932 1.25765 0
M  V30 861 H 81.3174 2.9603 0.447952 0
M  V30 862 H 78.8634 1.42401 0.214024 0
M  V30 863 H 80.8164 3.07419 2.88222 0
M  V30 864 H 79.5404 1.84578 2.69441 0
M  V30 865 H 78.1994 3.43718 1.27489 0
M  V30 866 H 77.8474 3.35291 3.74952 0
M  V30 867 H 77.5474 4.98725 3.1072 0
M  V30 868 H 79.0714 4.63779 3.97166 0
M  V30 869 H 80.4854 5.42888 1.84244 0
M  V30 870 H 78.8824 5.88116 1.19328 0
M  V30 871 H 79.9524 4.84337 0.233536 0
M  V30 872 N 81.2955 -0.223234 1.56011 0
M  V30 873 C 82.5235 -0.964812 1.83027 0
M  V30 874 C 82.9385 -1.78013 0.62904 0
M  V30 875 O 82.2955 -1.78008 -0.402414 0
M  V30 876 C 82.3465 -1.88373 3.08542 0
M  V30 877 O 82.0675 -1.10137 4.2403 0
M  V30 878 C 83.5685 -2.73934 3.48533 0
M  V30 879 H 80.7885 -0.282842 0.608475 0
M  V30 880 H 83.3325 -0.238971 2.03099 0
M  V30 881 H 81.4875 -2.56354 2.9045 0
M  V30 882 H 81.9015 -1.72501 4.95322 0
M  V30 883 H 83.3755 -3.34117 4.39397 0
M  V30 884 H 83.8525 -3.46244 2.70207 0
M  V30 885 H 84.4585 -2.11369 3.69057 0
M  V30 886 N 82.7736 -1.49793 -0.48987 0
M  V30 887 C 84.0506 -1.50348 -1.25119 0
M  V30 888 C 84.4306 -0.237466 -2.0976 0
M  V30 889 O 83.7786 0.77981 -2.14782 0
M  V30 890 C 83.9886 -2.78872 -2.09837 0
M  V30 891 C 85.3366 -3.288 -2.68655 0
M  V30 892 O 86.3606 -2.80065 -2.20096 0
M  V30 893 O 85.2196 -4.13707 -3.57083 0
M  V30 894 H 82.3136 -0.602242 -0.566775 0
M  V30 895 H 84.8596 -1.62067 -0.503229 0
M  V30 896 H 83.6316 -3.62499 -1.47343 0
M  V30 897 H 83.2546 -2.70066 -2.91805 0
M  V30 898 N 84.2517 0.741722 -1.39055 0
M  V30 899 C 85.5007 1.49656 -1.35225 0
M  V30 900 C 85.8137 1.95533 0.0512708 0
M  V30 901 O 87.0197 2.7067 0.212138 0
M  V30 902 C 85.4757 2.70389 -2.37525 0
M  V30 903 C 85.0837 2.31489 -3.83558 0
M  V30 904 C 86.8277 3.48236 -2.42759 0
M  V30 905 C 84.7347 3.48903 -4.77515 0
M  V30 906 H 83.6647 0.56197 -0.502699 0
M  V30 907 H 86.3157 0.809727 -1.64668 0
M  V30 908 H 84.6977 3.41113 -2.01142 0
M  V30 909 H 85.8717 1.68354 -4.28945 0
M  V30 910 H 84.1867 1.66749 -3.81554 0
M  V30 911 H 86.7837 4.35558 -3.1015 0
M  V30 912 H 87.1267 3.90229 -1.45008 0
M  V30 913 H 87.6597 2.84535 -2.78002 0
M  V30 914 H 84.3987 3.11966 -5.76504 0
M  V30 915 H 83.9187 4.11041 -4.36813 0
M  V30 916 H 85.5977 4.15328 -4.96096 0
M  V30 917 N 85.7298 1.2412 0.971189 0
M  V30 918 C 86.9788 1.07284 1.70801 0
M  V30 919 C 87.2918 -0.388902 1.91695 0
M  V30 920 O 88.4978 -0.677379 2.62914 0
M  V30 921 C 86.9538 1.87145 3.07416 0
M  V30 922 C 86.5618 3.37707 2.94377 0
M  V30 923 C 88.3058 1.78828 3.84995 0
M  V30 924 C 86.2128 4.09925 4.26281 0
M  V30 925 H 85.1428 0.397854 0.64049 0
M  V30 926 H 87.7938 1.4817 1.0825 0
M  V30 927 H 86.1758 1.39071 3.70777 0
M  V30 928 H 87.3498 3.93335 2.4005 0
M  V30 929 H 85.6648 3.46938 2.30267 0
M  V30 930 H 88.2618 2.30089 4.82662 0
M  V30 931 H 88.6048 0.75284 4.09436 0
M  V30 932 H 89.1378 2.24563 3.28354 0
M  V30 933 H 85.8768 5.13813 4.07033 0
M  V30 934 H 85.3968 3.59083 4.80437 0
M  V30 935 H 87.0758 4.1673 4.94919 0
M  V30 936 N 87.2079 -1.17134 1.05439 0
M  V30 937 C 88.1709 -2.19439 0.661764 0
M  V30 938 C 89.1709 -1.58199 -0.288042 0
M  V30 939 O 90.3609 -1.74053 -0.0715803 0
M  V30 940 C 87.4929 -3.40889 -0.0276209 0
M  V30 941 H 88.6859 -2.55688 1.56728 0
M  V30 942 H 86.2389 -1.31259 0.848567 0
M  V30 943 H 86.9739 -3.10187 -0.94629 0
M  V30 944 H 86.7589 -3.86586 0.655238 0
M  V30 945 H 88.2489 -4.16603 -0.288342 0
M  V30 946 N 88.686 -0.835752 -1.33615 0
M  V30 947 C 89.649 -0.272 -2.2758 0
M  V30 948 C 90.649 0.557487 -1.50827 0
M  V30 949 O 91.839 0.37173 -1.70188 0
M  V30 950 C 88.971 0.617173 -3.35267 0
M  V30 951 H 90.164 -1.10111 -2.78954 0
M  V30 952 H 87.717 -0.608594 -1.43965 0
M  V30 953 H 88.452 1.46884 -2.89129 0
M  V30 954 H 88.237 0.0237066 -3.92093 0
M  V30 955 H 89.727 1.005 -4.05326 0
M  V30 956 N 90.1641 1.46063 -0.591896 0
M  V30 957 C 91.3941 2.06418 -0.0867676 0
M  V30 958 C 91.8021 1.43975 1.22751 0
M  V30 959 O 91.1451 0.542531 1.75506 0
M  V30 960 C 91.2071 3.59213 0.143725 0
M  V30 961 C 90.8711 4.439 -1.08635 0
M  V30 962 C 91.8681 4.79864 -2.00067 0
M  V30 963 C 89.5531 4.84896 -1.31077 0
M  V30 964 C 91.5471 5.55661 -3.12282 0
M  V30 965 C 89.2341 5.6045 -2.43596 0
M  V30 966 C 90.2321 5.95747 -3.34027 0
M  V30 967 O 89.9201 6.69772 -4.4459 0
M  V30 968 H 89.6521 0.673443 -0.0587447 0
M  V30 969 H 92.2061 1.88539 -0.814994 0
M  V30 970 H 90.4361 3.75433 0.926668 0
M  V30 971 H 92.1251 4.01463 0.5985 0
M  V30 972 H 92.8911 4.48763 -1.83947 0
M  V30 973 H 88.7701 4.56867 -0.61594 0
M  V30 974 H 92.3141 5.8313 -3.82891 0
M  V30 975 H 88.2111 5.90965 -2.59674 0
M  V30 976 H 88.9791 6.88207 -4.43073 0
M  V30 977 N 91.6422 0.330177 1.54103 0
M  V30 978 C 92.5742 -0.566902 2.22079 0
M  V30 979 C 93.5872 -1.07462 1.22294 0
M  V30 980 O 94.7762 -0.987065 1.48726 0
M  V30 981 C 91.8762 -1.79138 2.87685 0
M  V30 982 C 91.0492 -1.42123 4.13666 0
M  V30 983 C 90.1082 -2.50394 4.62806 0
M  V30 984 O 89.1342 -2.14261 5.27334 0
M  V30 985 N 90.3362 -3.81433 4.37595 0
M  V30 986 H 93.1012 0.0151844 2.99696 0
M  V30 987 H 90.6622 0.153681 1.61169 0
M  V30 988 H 92.6542 -2.50975 3.1748 0
M  V30 989 H 91.2242 -2.28115 2.13734 0
M  V30 990 H 90.4442 -0.534201 3.90564 0
M  V30 991 H 91.7322 -1.14971 4.9564 0
M  V30 992 H 91.1302 -4.13584 3.8596 0
M  V30 993 H 89.6872 -4.4948 4.72029 0
M  V30 994 N 93.1203 -1.57491 0.0584922 0
M  V30 995 C 94.5363 -1.56792 -0.298091 0
M  V30 996 C 94.7363 -1.06679 -1.70944 0
M  V30 997 O 93.7923 -0.726672 -2.41818 0
M  V30 998 C 95.1053 -3.00461 -0.119879 0
M  V30 999 C 96.6533 -3.1242 -0.190428 0
M  V30 1000 C 97.1283 -4.57982 -0.0406567 0
M  V30 1001 N 98.6193 -4.63099 -0.0966958 0
M  V30 1002 C 99.3543 -5.734 -0.00502943 0
M  V30 1003 N 98.8503 -6.9266 0.139402 0
M  V30 1004 N 100.643 -5.62067 -0.0611391 0
M  V30 1005 H 92.7943 -1.88386 0.98105 0
M  V30 1006 H 95.0573 -0.867865 0.381463 0
M  V30 1007 H 94.7633 -3.41187 0.85349 0
M  V30 1008 H 94.6373 -3.66843 -0.877833 0
M  V30 1009 H 97.0243 -2.71589 -1.15427 0
M  V30 1010 H 97.1053 -2.48702 0.598405 0
M  V30 1011 H 96.7493 -4.995 0.919897 0
M  V30 1012 H 96.6793 -5.19715 -0.848727 0
M  V30 1013 H 99.1703 -3.77331 -0.207277 0
M  V30 1014 H 99.4833 -7.72536 0.201855 0
M  V30 1015 H 97.8283 -6.94781 0.174586 0
M  V30 1016 H 101.019 -4.67782 -0.172583 0
M  V30 1017 H 101.192 -6.47999 0.0137562 0
M  V30 1018 N 94.5984 0.214957 -1.56127 0
M  V30 1019 C 95.8454 0.938372 -1.79446 0
M  V30 1020 C 96.1734 1.8407 -0.628378 0
M  V30 1021 O 95.4284 1.91837 0.386925 0
M  V30 1022 C 95.7274 1.80314 -3.0858 0
M  V30 1023 C 95.3934 1.05349 -4.3842 0
M  V30 1024 C 94.0554 0.846435 -4.73697 0
M  V30 1025 C 96.4074 0.524588 -5.18553 0
M  V30 1026 C 93.7354 0.098683 -5.86617 0
M  V30 1027 C 96.0874 -0.209853 -6.32252 0
M  V30 1028 C 94.7514 -0.428102 -6.66126 0
M  V30 1029 H 94.0214 0.343375 -0.656639 0
M  V30 1030 H 96.6684 0.206077 -1.90388 0
M  V30 1031 H 94.9734 2.6035 -2.92789 0
M  V30 1032 H 96.6704 2.36513 -3.23825 0
M  V30 1033 H 93.2604 1.22486 -4.10725 0
M  V30 1034 H 97.4444 0.672008 -4.91729 0
M  V30 1035 H 92.7004 -0.0805753 -6.11347 0
M  V30 1036 H 96.8744 -0.627157 -6.9357 0
M  V30 1037 H 94.5014 -1.00944 -7.53468 0
M  V30 1038 N 96.0765 1.50051 0.48192 0
M  V30 1039 C 97.3165 1.62128 1.24474 0
M  V30 1040 C 97.6805 0.309742 1.89485 0
M  V30 1041 O 98.8815 0.305854 2.67054 0
M  V30 1042 C 97.1525 2.76151 2.26882 0
M  V30 1043 S 98.7115 3.08297 3.12247 0
M  V30 1044 H 95.5295 0.571661 0.422759 0
M  V30 1045 H 98.1315 1.87791 0.54359 0
M  V30 1046 H 96.8355 3.69942 1.77683 0
M  V30 1047 H 96.3665 2.52541 3.0164 0
M  V30 1048 H 98.3815 2.51287 4.27866 0
M  V30 1049 N 97.5546 -0.734337 1.39446 0
M  V30 1050 C 98.7796 -1.52866 1.40167 0
M  V30 1051 C 99.2046 -1.881 -0.00171513 0
M  V30 1052 O 98.5626 -1.51957 -0.988879 0
M  V30 1053 C 98.6106 -2.79235 2.28167 0
M  V30 1054 O 97.7146 -3.75185 1.71201 0
M  V30 1055 H 97.0556 -0.461618 0.477289 0
M  V30 1056 H 99.5856 -0.905949 1.8345 0
M  V30 1057 H 99.5956 -3.27963 2.42702 0
M  V30 1058 H 98.2706 -2.52923 3.30156 0
M  V30 1059 H 96.8476 -3.33958 1.65912 0
M  V30 1060 N 99.0327 -1.24633 -0.964593 0
M  V30 1061 C 100.449 -1.01239 -1.2338 0
M  V30 1062 C 100.649 0.2769 -1.99588 0
M  V30 1063 O 99.7047 0.992241 -2.32187 0
M  V30 1064 C 101.018 -2.22937 -2.01791 0
M  V30 1065 C 102.566 -2.27594 -2.14872 0
M  V30 1066 C 103.041 -3.48921 -2.96678 0
M  V30 1067 N 104.532 -3.49257 -3.04259 0
M  V30 1068 C 105.267 -4.39795 -3.67924 0
M  V30 1069 N 104.763 -5.40591 -4.33281 0
M  V30 1070 N 106.556 -4.275 -3.64966 0
M  V30 1071 H 98.7067 -2.0748 -0.454502 0
M  V30 1072 H 100.97 -0.910647 -0.26349 0
M  V30 1073 H 100.676 -3.16587 -1.53184 0
M  V30 1074 H 100.55 -2.25306 -3.02518 0
M  V30 1075 H 102.937 -1.34473 -2.6268 0
M  V30 1076 H 103.018 -2.2925 -1.13482 0
M  V30 1077 H 102.662 -4.42359 -2.49562 0
M  V30 1078 H 102.592 -3.4451 -3.98272 0
M  V30 1079 H 105.083 -2.76337 -2.57771 0
M  V30 1080 H 105.396 -6.05904 -4.79687 0
M  V30 1081 H 103.741 -5.44475 -4.3194 0
M  V30 1082 H 106.932 -3.47987 -3.13086 0
M  V30 1083 H 107.105 -4.98258 -4.14298 0
M  V30 1084 N 100.511 1.16574 -1.06058 0
M  V30 1085 C 101.922 1.68662 -0.800632 0
M  V30 1086 C 102.273 1.84184 0.67608 0
M  V30 1087 O 101.398 1.53568 1.52466 0
M  V30 1088 C 101.993 3.06356 -1.44676 0
M  V30 1089 C 100.552 3.55575 -1.23465 0
M  V30 1090 C 99.6988 2.31616 -1.52477 0
M  V30 1091 H 102.65 1.00969 -1.22438 0
M  V30 1092 H 102.671 3.70636 -0.860788 0
M  V30 1093 H 102.183 2.95027 -2.52152 0
M  V30 1094 H 100.284 3.72167 -0.179527 0
M  V30 1095 H 100.397 4.37812 -1.94571 0
M  V30 1096 H 98.7608 2.36512 -0.945209 0
M  V30 1097 H 99.5438 2.22887 -2.61106 0
M  V30 1098 N 101.989 0.842826 1.3317 0
M  V30 1099 C 103.4 0.496651 1.79973 0
M  V30 1100 C 103.751 -0.984641 1.69703 0
M  V30 1101 O 102.876 -1.76743 1.24863 0
M  V30 1102 C 103.471 0.894727 3.26772 0
M  V30 1103 C 102.03 0.600629 3.71577 0
M  V30 1104 C 101.177 1.10091 2.5451 0
M  V30 1105 H 104.128 1.03116 1.20635 0
M  V30 1106 H 104.149 0.206347 3.7994 0
M  V30 1107 H 103.661 1.97287 3.34215 0
M  V30 1108 H 101.762 -0.467284 3.69658 0
M  V30 1109 H 101.875 1.15863 4.64879 0
M  V30 1110 H 100.239 0.52162 2.49301 0
M  V30 1111 H 101.022 2.18591 2.64713 0
M  V30 1112 N 103.467 -1.45747 0.599634 0
M  V30 1113 C 104.414 -2.30467 -0.123849 0
M  V30 1114 C 105.384 -1.41632 -0.86774 0
M  V30 1115 O 106.569 -1.70568 -0.855056 0
M  V30 1116 C 103.709 -3.26402 -1.12051 0
M  V30 1117 C 102.822 -4.3034 -0.37832 0
M  V30 1118 C 101.957 -5.13389 -1.364 0
M  V30 1119 C 100.996 -6.09061 -0.609171 0
M  V30 1120 N 100.133 -6.84918 -1.54374 0
M  V30 1121 H 104.973 -2.91802 0.604627 0
M  V30 1122 H 102.51 -1.43797 0.309972 0
M  V30 1123 H 104.468 -3.80482 -1.7114 0
M  V30 1124 H 103.098 -2.66839 -1.8165 0
M  V30 1125 H 102.15 -3.78984 0.327929 0
M  V30 1126 H 103.462 -4.98354 0.210997 0
M  V30 1127 H 102.616 -5.7183 -2.02719 0
M  V30 1128 H 101.355 -4.45376 -1.98725 0
M  V30 1129 H 100.36 -5.49758 0.0676979 0
M  V30 1130 H 101.585 -6.79099 0.00891991 0
M  V30 1131 H 99.531 -6.19601 -2.15478 0
M  V30 1132 H 99.448 -7.49254 -1.00766 0
M  V30 1133 H 100.716 -7.47906 -2.19676 0
M  V30 1134 N 104.945 -0.338344 -1.53925 0
M  V30 1135 C 106.193 0.259245 -2.0043 0
M  V30 1136 C 106.514 1.51484 -1.22791 0
M  V30 1137 O 105.784 1.93037 -0.33368 0
M  V30 1138 H 104.364 0.0987845 -0.740439 0
M  V30 1139 H 107.026 -0.458302 -1.89435 0
M  V30 1140 H 106.122 0.505334 -3.07982 0
M  V30 1141 N 106.423 1.57458 -0.0668435 0
M  V30 1142 C 107.67 1.93301 0.603406 0
M  V30 1143 C 107.998 0.946486 1.69917 0
M  V30 1144 O 107.253 -0.0387021 1.95662 0
M  V30 1145 C 107.552 3.35784 1.22409 0
M  V30 1146 C 107.218 4.50179 0.254955 0
M  V30 1147 C 105.88 4.81199 -0.0116746 0
M  V30 1148 C 108.232 5.19598 -0.408338 0
M  V30 1149 C 105.56 5.78978 -0.94877 0
M  V30 1150 C 107.912 6.18381 -1.33372 0
M  V30 1151 C 106.576 6.47821 -1.60887 0
M  V30 1152 H 105.846 0.707338 0.220802 0
M  V30 1153 H 108.493 1.91012 -0.136665 0
M  V30 1154 H 106.798 3.34515 2.03978 0
M  V30 1155 H 108.495 3.60804 1.74989 0
M  V30 1156 H 105.085 4.25983 0.472954 0
M  V30 1157 H 109.269 4.95832 -0.215456 0
M  V30 1158 H 104.525 6.00115 -1.16925 0
M  V30 1159 H 108.699 6.71277 -1.85367 0
M  V30 1160 H 106.326 7.23399 -2.33661 0
M  V30 1161 N 107.901 -0.206675 1.56239 0
M  V30 1162 C 108.811 -1.27686 1.96808 0
M  V30 1163 C 109.827 -1.50455 0.874035 0
M  V30 1164 O 111.003 -1.63295 1.17884 0
M  V30 1165 C 108.068 -2.60358 2.28942 0
M  V30 1166 C 107.129 -2.45762 3.51994 0
M  V30 1167 C 106.362 -3.72108 3.82585 0
M  V30 1168 O 106.585 -4.75776 3.14631 0
M  V30 1169 O 105.519 -3.6833 4.76043 0
M  V30 1170 H 109.345 -0.962593 2.88041 0
M  V30 1171 H 106.93 -0.410746 1.43643 0
M  V30 1172 H 108.812 -3.38687 2.50737 0
M  V30 1173 H 107.487 -2.91435 1.4088 0
M  V30 1174 H 106.394 -1.65584 3.35459 0
M  V30 1175 H 107.727 -2.19621 4.40486 0
M  V30 1176 N 109.379 -1.50304 -0.473955 0
M  V30 1177 C 110.326 -1.68959 -1.57231 0
M  V30 1178 C 111.296 -0.530899 -1.57387 0
M  V30 1179 O 112.481 -0.761133 -1.74961 0
M  V30 1180 C 109.621 -1.7871 -2.95223 0
M  V30 1181 C 108.734 -3.06061 -3.04878 0
M  V30 1182 C 107.869 -3.06626 -4.33767 0
M  V30 1183 C 106.908 -4.28443 -4.37154 0
M  V30 1184 N 106.045 -4.26763 -5.5751 0
M  V30 1185 H 110.885 -2.6273 -1.40631 0
M  V30 1186 H 108.422 -1.30241 -0.683789 0
M  V30 1187 H 110.38 -1.82344 -3.75242 0
M  V30 1188 H 109.01 -0.883806 -3.10465 0
M  V30 1189 H 108.062 -3.11911 -2.17751 0
M  V30 1190 H 109.374 -3.96039 -3.0324 0
M  V30 1191 H 108.528 -3.08973 -5.22131 0
M  V30 1192 H 107.267 -2.14473 -4.3801 0
M  V30 1193 H 106.272 -4.2631 -3.47188 0
M  V30 1194 H 107.497 -5.2182 -4.34605 0
M  V30 1195 H 105.443 -3.37462 -5.62544 0
M  V30 1196 H 105.36 -5.10507 -5.57601 0
M  V30 1197 H 106.628 -4.33253 -6.48006 0
M  V30 1198 N 110.857 0.726932 -1.39834 0
M  V30 1199 C 112.087 1.51393 -1.40583 0
M  V30 1200 C 112.495 1.892 -0.000740625 0
M  V30 1201 O 111.838 1.55189 0.982951 0
M  V30 1202 C 111.9 2.82588 -2.22226 0
M  V30 1203 C 111.564 2.67169 -3.70769 0
M  V30 1204 C 112.561 2.3518 -4.63666 0
M  V30 1205 C 110.246 2.83788 -4.14451 0
M  V30 1206 C 112.24 2.20002 -5.98229 0
M  V30 1207 C 109.927 2.68229 -5.49087 0
M  V30 1208 C 110.925 2.36382 -6.4079 0
M  V30 1209 O 110.613 2.2093 -7.72946 0
M  V30 1210 H 110.345 0.474168 -0.48181 0
M  V30 1211 H 112.899 0.905247 -1.84376 0
M  V30 1212 H 111.129 3.45746 -1.73195 0
M  V30 1213 H 112.818 3.44247 -2.15055 0
M  V30 1214 H 113.584 2.21984 -4.31217 0
M  V30 1215 H 109.463 3.07566 -3.43401 0
M  V30 1216 H 113.007 1.95067 -6.69772 0
M  V30 1217 H 108.904 2.81006 -5.81125 0
M  V30 1218 H 109.672 2.35937 -7.83757 0
M  V30 1219 N 112.336 1.25143 0.95797 0
M  V30 1220 C 113.583 1.09692 1.70217 0
M  V30 1221 C 113.911 -0.362654 1.91089 0
M  V30 1222 O 113.166 -1.28386 1.47701 0
M  V30 1223 C 113.465 1.79272 3.09187 0
M  V30 1224 C 113.131 3.29196 3.08125 0
M  V30 1225 C 111.793 3.70096 3.07543 0
M  V30 1226 C 114.145 4.24995 3.0171 0
M  V30 1227 C 111.473 5.05213 2.9829 0
M  V30 1228 C 113.825 5.60132 2.93999 0
M  V30 1229 C 112.489 6.00365 2.9175 0
M  V30 1230 H 111.759 0.401393 0.622868 0
M  V30 1231 H 114.406 1.55372 1.11945 0
M  V30 1232 H 112.711 1.26014 3.70982 0
M  V30 1233 H 114.408 1.64773 3.65583 0
M  V30 1234 H 110.998 2.96651 3.09348 0
M  V30 1235 H 115.182 3.9439 3.01281 0
M  V30 1236 H 110.438 5.35569 2.94916 0
M  V30 1237 H 114.612 6.3406 2.87996 0
M  V30 1238 H 112.239 7.05023 2.84336 0
M  V30 1239 N 113.814 -1.1601 1.06675 0
M  V30 1240 C 115.225 -1.68235 0.809565 0
M  V30 1241 C 115.576 -1.8454 -0.666303 0
M  V30 1242 O 114.701 -1.54374 -1.5165 0
M  V30 1243 C 115.296 -3.05585 1.46299 0
M  V30 1244 C 113.855 -3.54915 1.25349 0
M  V30 1245 C 113.002 -2.30804 1.53703 0
M  V30 1246 H 115.953 -1.00318 1.22971 0
M  V30 1247 H 115.974 -3.70174 0.880431 0
M  V30 1248 H 115.486 -2.93686 2.53713 0
M  V30 1249 H 113.587 -3.72067 0.199261 0
M  V30 1250 H 113.7 -4.36774 1.9689 0
M  V30 1251 H 112.064 -2.36007 0.957739 0
M  V30 1252 H 112.847 -2.21499 2.62284 0
M  V30 1253 N 115.292 -0.849877 -1.32721 0
M  V30 1254 C 116.24 -0.279745 -2.30912 0
M  V30 1255 C 117.234 0.594278 -1.58634 0
M  V30 1256 O 118.44 0.482613 -1.73409 0
M  V30 1257 H 114.815 -0.0717521 -0.748569 0
M  V30 1258 H 116.786 -1.12222 -2.76494 0
M  V30 1259 C 115.535 0.521108 -3.43773 0
M  V30 1260 H 114.858 -0.142141 -3.99547 0
M  V30 1261 H 116.298 0.885693 -4.14646 0
M  V30 1262 C 114.757 1.70442 -2.90605 0
M  V30 1263 O 115.287 2.8034 -2.87702 0
M  V30 1264 N 113.493 1.52991 -2.47067 0
M  V30 1265 H 113.04 0.635914 -2.49628 0
M  V30 1266 H 112.998 2.32311 -2.11847 0
M  V30 1267 N 116.77 1.45427 -0.607355 0
M  V30 1268 C 118.018 2.01841 -0.102253 0
M  V30 1269 C 118.339 1.47832 1.27164 0
M  V30 1270 O 117.609 0.672497 1.83995 0
M  V30 1271 H 116.189 0.746188 -0.0348101 0
M  V30 1272 H 118.851 1.78229 -0.7887 0
M  V30 1273 H 117.947 3.12057 -0.0518585 0
M  V30 1274 N 118.248 0.346503 1.53744 0
M  V30 1275 C 119.195 -0.508914 2.25119 0
M  V30 1276 C 120.165 -1.09315 1.25058 0
M  V30 1277 O 121.35 -1.12921 1.53797 0
M  V30 1278 C 118.49 -1.65246 3.02965 0
M  V30 1279 C 117.603 -1.09525 4.17886 0
M  V30 1280 C 116.738 -2.20634 4.83212 0
M  V30 1281 C 115.777 -1.62279 5.90196 0
M  V30 1282 N 114.914 -2.67143 6.49291 0
M  V30 1283 H 119.754 0.106283 2.9781 0
M  V30 1284 H 117.291 0.0642227 1.4696 0
M  V30 1285 H 119.249 -2.32574 3.4636 0
M  V30 1286 H 117.879 -2.2386 2.32565 0
M  V30 1287 H 116.931 -0.312818 3.79112 0
M  V30 1288 H 118.243 -0.628444 4.94825 0
M  V30 1289 H 117.397 -2.95821 5.29693 0
M  V30 1290 H 116.136 -2.70659 4.05703 0
M  V30 1291 H 115.141 -0.855989 5.43096 0
M  V30 1292 H 116.366 -1.13102 6.69615 0
M  V30 1293 H 114.312 -3.16417 5.74645 0
M  V30 1294 H 114.229 -2.25093 7.21713 0
M  V30 1295 H 115.497 -3.4209 7.00425 0
M  V30 1296 N 119.726 -1.57421 0.075193 0
M  V30 1297 C 120.674 -2.14124 -0.908508 0
M  V30 1298 C 121.668 -1.07898 -1.30592 0
M  V30 1299 O 122.874 -1.26273 -1.28277 0
M  V30 1300 H 119.249 -0.684707 -0.310935 0
M  V30 1301 H 121.22 -2.95634 -0.405374 0
M  V30 1302 C 119.969 -2.72044 -2.16535 0
M  V30 1303 H 119.292 -3.53456 -1.86839 0
M  V30 1304 H 120.732 -3.15311 -2.83469 0
M  V30 1305 C 119.191 -1.66968 -2.92615 0
M  V30 1306 O 119.721 -1.0967 -3.86439 0
M  V30 1307 N 117.927 -1.37923 -2.55784 0
M  V30 1308 H 117.474 -1.84706 -1.79559 0
M  V30 1309 H 117.432 -0.67852 -3.06991 0
M  V30 1310 N 121.204 0.198386 -1.56346 0
M  V30 1311 C 122.452 0.91747 -1.80075 0
M  V30 1312 C 122.773 1.83929 -0.647692 0
M  V30 1313 O 122.043 1.93029 0.334166 0
M  V30 1314 H 120.623 0.341774 -0.664228 0
M  V30 1315 H 123.285 0.204684 -1.93822 0
M  V30 1316 H 122.381 1.51055 -2.7311 0
M  V30 1317 N 122.682 1.50554 0.465978 0
M  V30 1318 C 123.629 1.6979 1.56333 0
M  V30 1319 C 124.599 0.539239 1.57103 0
M  V30 1320 O 125.784 0.770401 1.74555 0
M  V30 1321 C 122.924 1.80273 2.94271 0
M  V30 1322 C 122.037 3.07674 3.0325 0
M  V30 1323 C 121.172 3.08922 4.32135 0
M  V30 1324 C 120.211 4.30755 4.34875 0
M  V30 1325 N 119.348 4.29714 5.55239 0
M  V30 1326 H 124.188 2.63472 1.39235 0
M  V30 1327 H 121.725 1.30602 0.676873 0
M  V30 1328 H 123.683 1.84332 3.74269 0
M  V30 1329 H 122.313 0.900258 3.09992 0
M  V30 1330 H 121.365 3.13062 2.16094 0
M  V30 1331 H 122.677 3.97642 3.01135 0
M  V30 1332 H 121.831 3.11738 5.20485 0
M  V30 1333 H 120.57 2.16792 4.36866 0
M  V30 1334 H 119.575 4.28146 3.44922 0
M  V30 1335 H 120.8 5.24117 4.31831 0
M  V30 1336 H 118.746 3.4044 5.60746 0
M  V30 1337 H 118.663 5.13456 5.54886 0
M  V30 1338 H 119.931 4.36683 6.457 0
M  V30 1339 N 124.16 -0.719506 1.40217 0
M  V30 1340 C 125.107 -1.83359 1.40172 0
M  V30 1341 C 126.077 -1.64065 0.259206 0
M  V30 1342 O 127.262 -1.85254 0.456677 0
M  V30 1343 C 124.402 -3.2103 1.26624 0
M  V30 1344 C 123.515 -3.51923 2.50548 0
M  V30 1345 C 122.65 -4.79079 2.29471 0
M  V30 1346 C 121.689 -5.02863 3.48992 0
M  V30 1347 N 120.826 -6.2123 3.27135 0
M  V30 1348 H 125.666 -1.82733 2.35399 0
M  V30 1349 H 123.203 -0.892688 1.16917 0
M  V30 1350 H 125.161 -4.00524 1.16776 0
M  V30 1351 H 123.791 -3.20895 0.350176 0
M  V30 1352 H 122.843 -2.67014 2.70939 0
M  V30 1353 H 124.155 -3.6541 3.39525 0
M  V30 1354 H 123.309 -5.66582 2.16955 0
M  V30 1355 H 122.048 -4.67794 1.37913 0
M  V30 1356 H 121.053 -4.13816 3.6199 0
M  V30 1357 H 122.278 -5.16023 4.41472 0
M  V30 1358 H 120.224 -6.11204 2.38256 0
M  V30 1359 H 120.141 -6.35375 4.09675 0
M  V30 1360 H 121.409 -7.11532 3.18344 0
M  V30 1361 N 125.638 -1.25649 -0.95132 0
M  V30 1362 C 126.601 -1.06399 -2.03007 0
M  V30 1363 C 127.601 -0.0156794 -1.60792 0
M  V30 1364 O 128.791 -0.25817 -1.72276 0
M  V30 1365 C 125.923 -0.616184 -3.35285 0
M  V30 1366 H 127.116 -2.02164 -2.21517 0
M  V30 1367 H 124.669 -1.08103 -1.12887 0
M  V30 1368 H 125.404 0.343917 -3.22471 0
M  V30 1369 H 125.189 -1.37301 -3.67275 0
M  V30 1370 H 126.679 -0.503032 -4.14559 0
M  V30 1371 N 127.117 1.15442 -1.07289 0
M  V30 1372 C 128.342 1.90638 -0.816828 0
M  V30 1373 C 128.767 1.77445 0.624083 0
M  V30 1374 O 128.125 1.10671 1.43602 0
M  V30 1375 C 128.173 3.39008 -1.22906 0
M  V30 1376 O 127.277 4.10701 -0.373975 0
M  V30 1377 H 126.618 0.593555 -0.297638 0
M  V30 1378 H 129.148 1.46198 -1.43134 0
M  V30 1379 H 129.158 3.89801 -1.20497 0
M  V30 1380 H 127.833 3.47929 -2.27856 0
M  V30 1381 H 126.41 3.70046 -0.460499 0
M  V30 1382 N 128.595 0.856903 1.32268 0
M  V30 1383 C 129.505 0.306131 2.32594 0
M  V30 1384 C 130.521 -0.577209 1.64147 0
M  V30 1385 O 131.697 -0.477043 1.95669 0
M  V30 1386 C 128.762 -0.494561 3.43154 0
M  V30 1387 C 127.823 0.415186 4.27288 0
M  V30 1388 C 127.056 -0.347387 5.32568 0
M  V30 1389 O 127.279 -1.57708 5.48165 0
M  V30 1390 O 126.213 0.287982 6.01211 0
M  V30 1391 H 130.039 1.13737 2.81598 0
M  V30 1392 H 127.624 0.619902 1.35932 0
M  V30 1393 H 129.506 -0.948944 4.10576 0
M  V30 1394 H 128.181 -1.30257 2.96336 0
M  V30 1395 H 127.088 0.917793 3.62667 0
M  V30 1396 H 128.421 1.18844 4.77637 0
M  V30 1397 N 130.073 -1.45103 0.615059 0
M  V30 1398 C 131.484 -1.85654 0.197383 0
M  V30 1399 C 131.835 -1.51433 -1.24749 0
M  V30 1400 O 130.96 -0.944608 -1.94695 0
M  V30 1401 C 131.555 -3.36972 0.351448 0
M  V30 1402 C 130.114 -3.76398 -0.011593 0
M  V30 1403 C 129.261 -2.69024 0.672394 0
M  V30 1404 H 132.212 -1.35797 0.821263 0
M  V30 1405 H 132.233 -3.78239 -0.414227 0
M  V30 1406 H 131.745 -3.61847 1.40314 0
M  V30 1407 H 129.846 -3.5714 -1.06217 0
M  V30 1408 H 129.959 -4.77532 0.387265 0
M  V30 1409 H 128.323 -2.54465 0.109284 0
M  V30 1410 H 129.106 -2.96735 1.72636 0
M  V30 1411 N 131.551 -0.354651 -1.53558 0
M  V30 1412 C 132.498 0.496968 -2.25386 0
M  V30 1413 C 133.468 1.0865 -1.25636 0
M  V30 1414 O 134.653 1.12104 -1.54394 0
M  V30 1415 C 131.793 1.63637 -3.03837 0
M  V30 1416 C 130.906 1.07307 -4.18461 0
M  V30 1417 C 130.041 2.18068 -4.84376 0
M  V30 1418 C 129.08 1.59147 -5.91049 0
M  V30 1419 N 128.217 2.63695 -6.50699 0
M  V30 1420 H 133.057 -0.122075 -2.9775 0
M  V30 1421 H 130.594 -0.0720154 -1.46924 0
M  V30 1422 H 132.552 2.30734 -3.47589 0
M  V30 1423 H 131.182 2.22623 -2.33749 0
M  V30 1424 H 130.234 0.292708 -3.79272 0
M  V30 1425 H 131.546 0.602193 -4.95152 0
M  V30 1426 H 130.7 2.93007 -5.31255 0
M  V30 1427 H 129.439 2.68504 -4.07133 0
M  V30 1428 H 128.444 0.827175 -5.43542 0
M  V30 1429 H 129.669 1.09549 -6.70206 0
M  V30 1430 H 127.615 3.13365 -5.76315 0
M  V30 1431 H 127.532 2.21263 -7.22896 0
M  V30 1432 H 128.8 3.3837 -7.02229 0
M  V30 1433 N 133.029 1.57378 -0.0835403 0
M  V30 1434 C 133.939 2.16897 0.894021 0
M  V30 1435 C 134.955 1.13528 1.31861 0
M  V30 1436 O 136.131 1.45848 1.3889 0
M  V30 1437 C 133.196 2.72831 2.13925 0
M  V30 1438 C 132.257 3.91115 1.76997 0
M  V30 1439 C 131.49 4.44371 2.95584 0
M  V30 1440 O 131.713 3.96596 4.09961 0
M  V30 1441 O 130.647 5.35549 2.74719 0
M  V30 1442 H 134.473 3.00814 0.417679 0
M  V30 1443 H 132.058 1.48741 0.140181 0
M  V30 1444 H 133.94 3.0863 2.86924 0
M  V30 1445 H 132.615 1.91967 2.60635 0
M  V30 1446 H 131.522 3.60148 1.01214 0
M  V30 1447 H 132.855 4.73307 1.3506 0
M  V30 1448 N 134.507 -0.190092 1.56449 0
M  V30 1449 C 135.753 -0.911052 1.81184 0
M  V30 1450 C 136.086 -1.82699 0.658396 0
M  V30 1451 O 135.361 -1.91491 -0.340775 0
M  V30 1452 C 135.644 -1.72297 3.16205 0
M  V30 1453 C 135.497 -0.831419 4.42049 0
M  V30 1454 C 136.816 -2.69454 3.47969 0
M  V30 1455 H 133.935 -0.32977 0.659106 0
M  V30 1456 H 136.577 -0.178169 1.89163 0
M  V30 1457 H 134.727 -2.34778 3.09534 0
M  V30 1458 H 136.399 -0.220929 4.60771 0
M  V30 1459 H 134.642 -0.138406 4.33579 0
M  V30 1460 H 135.313 -1.43461 5.33032 0
M  V30 1461 H 137.789 -2.17104 3.54972 0
M  V30 1462 H 136.665 -3.23342 4.43555 0
M  V30 1463 H 136.926 -3.48744 2.71717 0
M  V30 1464 N 135.985 -1.50799 -0.457987 0
M  V30 1465 C 136.918 -1.65273 -1.57353 0
M  V30 1466 C 137.896 -0.500578 -1.54703 0
M  V30 1467 O 139.08 -0.721781 -1.74134 0
M  V30 1468 C 136.207 -1.64737 -2.95938 0
M  V30 1469 C 135.253 -2.8567 -3.16693 0
M  V30 1470 S 136.086 -4.46791 -2.95191 0
M  V30 1471 C 137.242 -4.48968 -4.36095 0
M  V30 1472 H 137.475 -2.59633 -1.44838 0
M  V30 1473 H 135.008 -1.40225 -0.64625 0
M  V30 1474 H 136.966 -1.65112 -3.7583 0
M  V30 1475 H 135.627 -0.715899 -3.05833 0
M  V30 1476 H 134.82 -2.81637 -4.17967 0
M  V30 1477 H 134.422 -2.8293 -2.44594 0
M  V30 1478 H 136.714 -4.23337 -5.28954 0
M  V30 1479 H 137.657 -5.50664 -4.45168 0
M  V30 1480 H 138.065 -3.78522 -4.18786 0
M  V30 1481 N 137.463 0.71206 -1.40597 0
M  V30 1482 C 138.711 1.46907 -1.38791 0
M  V30 1483 C 139.032 1.94998 0.00780391 0
M  V30 1484 O 138.302 1.70587 0.963174 0
M  V30 1485 H 136.882 0.545043 -0.51082 0
M  V30 1486 H 139.544 0.843882 -1.75683 0
M  V30 1487 H 138.64 2.34021 -2.06496 0
M  V30 1488 N 138.941 1.26152 0.944643 0
M  V30 1489 C 139.851 1.09176 2.07648 0
M  V30 1490 C 140.867 0.0261935 1.7398 0
M  V30 1491 O 142.043 0.229208 2.00091 0
M  V30 1492 C 139.108 0.722915 3.39079 0
M  V30 1493 C 138.169 1.86752 3.86552 0
M  V30 1494 C 137.402 1.51617 5.11711 0
M  V30 1495 O 137.625 0.416331 5.68879 0
M  V30 1496 O 136.559 2.34975 5.54139 0
M  V30 1497 H 140.385 2.0412 2.24875 0
M  V30 1498 H 137.97 1.05182 1.061 0
M  V30 1499 H 139.852 0.529787 4.18056 0
M  V30 1500 H 138.527 -0.197159 3.23099 0
M  V30 1501 H 137.434 2.11558 3.08535 0
M  V30 1502 H 138.767 2.76719 4.07047 0
M  V30 1503 N 140.419 -1.14872 1.07899 0
M  V30 1504 C 141.366 -2.19791 0.704319 0
M  V30 1505 C 142.336 -1.63238 -0.306987 0
M  V30 1506 O 143.521 -1.8983 -0.192171 0
M  V30 1507 C 140.661 -3.44911 0.114244 0
M  V30 1508 C 139.774 -4.15637 1.1777 0
M  V30 1509 C 138.909 -5.28324 0.552037 0
M  V30 1510 C 137.948 -5.90875 1.59789 0
M  V30 1511 N 137.085 -6.95022 0.994404 0
M  V30 1512 H 141.925 -2.5119 1.60336 0
M  V30 1513 H 139.462 -1.23356 0.801352 0
M  V30 1514 H 141.42 -4.16477 -0.245544 0
M  V30 1515 H 140.05 -3.14011 -0.74813 0
M  V30 1516 H 139.102 -3.42512 1.65499 0
M  V30 1517 H 140.414 -4.5823 1.97046 0
M  V30 1518 H 139.568 -6.06538 0.1402 0
M  V30 1519 H 138.307 -4.86939 -0.272431 0
M  V30 1520 H 137.312 -5.11369 2.01945 0
M  V30 1521 H 138.537 -6.34337 2.42474 0
M  V30 1522 H 136.483 -6.55722 0.190939 0
M  V30 1523 H 136.4 -7.36073 1.72432 0
M  V30 1524 H 137.668 -7.77123 0.608253 0
M  V30 1525 N 141.898 -0.863906 -1.31812 0
M  V30 1526 C 142.845 -0.313303 -2.28664 0
M  V30 1527 C 143.815 0.584868 -1.55462 0
M  V30 1528 O 145 0.517805 -1.83639 0
M  V30 1529 C 142.14 0.48441 -3.41683 0
M  V30 1530 C 141.253 -0.440594 -4.29747 0
M  V30 1531 C 140.388 0.370652 -5.29905 0
M  V30 1532 C 139.427 -0.551164 -6.09613 0
M  V30 1533 N 138.564 0.223462 -7.01744 0
M  V30 1534 H 143.404 -1.14444 -2.75148 0
M  V30 1535 H 140.941 -0.575769 -1.35364 0
M  V30 1536 H 142.899 0.962627 -4.05943 0
M  V30 1537 H 141.529 1.28029 -2.96325 0
M  V30 1538 H 140.581 -1.03724 -3.65986 0
M  V30 1539 H 141.893 -1.14767 -4.85417 0
M  V30 1540 H 141.047 0.911638 -5.99812 0
M  V30 1541 H 139.786 1.11105 -4.74876 0
M  V30 1542 H 138.791 -1.10396 -5.38603 0
M  V30 1543 H 140.016 -1.29032 -6.66729 0
M  V30 1544 H 137.962 0.946787 -6.49132 0
M  V30 1545 H 137.879 -0.424399 -7.54808 0
M  V30 1546 H 139.147 0.745876 -7.75923 0
M  V30 1547 N 143.376 1.44774 -0.622745 0
M  V30 1548 C 144.286 2.34433 0.0886031 0
M  V30 1549 C 145.302 1.52131 0.844529 0
M  V30 1550 O 146.478 1.84886 0.798691 0
M  V30 1551 C 143.543 3.29986 1.0635 0
M  V30 1552 C 142.604 4.28195 0.307873 0
M  V30 1553 C 141.837 5.19183 1.23633 0
M  V30 1554 O 142.06 5.13918 2.47476 0
M  V30 1555 O 140.994 5.97515 0.725189 0
M  V30 1556 H 144.82 2.96693 -0.648599 0
M  V30 1557 H 142.405 1.44408 -0.382957 0
M  V30 1558 H 144.287 3.88825 1.6246 0
M  V30 1559 H 142.962 2.70269 1.78146 0
M  V30 1560 H 141.869 3.72927 -0.296064 0
M  V30 1561 H 143.202 4.90808 -0.3699 0
M  V30 1562 N 144.854 0.36279 1.53368 0
M  V30 1563 C 146.079 -0.231226 2.06107 0
M  V30 1564 C 146.504 -1.419 1.23474 0
M  V30 1565 O 145.862 -1.79524 0.253128 0
M  V30 1566 C 145.91 -0.605523 3.5548 0
M  V30 1567 O 145.014 -1.70312 3.7559 0
M  V30 1568 H 144.355 -0.034327 0.663112 0
M  V30 1569 H 146.885 0.522584 1.97814 0
M  V30 1570 H 146.895 -0.877314 3.98456 0
M  V30 1571 H 145.57 0.263004 4.15068 0
M  V30 1572 H 144.147 -1.4271 3.44512 0
M  V30 1573 N 146.332 -1.57332 0.0918853 0
M  V30 1574 C 147.279 -2.13847 -0.868211 0
M  V30 1575 C 148.249 -1.05618 -1.28196 0
M  V30 1576 O 149.434 -1.33387 -1.36427 0
M  V30 1577 C 146.574 -2.72062 -2.12312 0
M  V30 1578 C 145.687 -3.94514 -1.7602 0
M  V30 1579 C 144.822 -4.40903 -2.96273 0
M  V30 1580 C 143.861 -5.55953 -2.56092 0
M  V30 1581 N 142.998 -5.97209 -3.69169 0
M  V30 1582 H 147.838 -2.95575 -0.379406 0
M  V30 1583 H 145.375 -1.46048 -0.175606 0
M  V30 1584 H 147.333 -3.03931 -2.858 0
M  V30 1585 H 145.963 -1.93068 -2.58698 0
M  V30 1586 H 145.015 -3.68979 -0.925135 0
M  V30 1587 H 146.327 -4.7802 -1.42472 0
M  V30 1588 H 145.481 -4.74539 -3.78018 0
M  V30 1589 H 144.22 -3.56291 -3.33029 0
M  V30 1590 H 143.225 -5.21948 -1.72773 0
M  V30 1591 H 144.45 -6.42311 -2.20484 0
M  V30 1592 H 142.396 -5.15543 -4.05649 0
M  V30 1593 H 142.313 -6.75504 -3.39456 0
M  V30 1594 H 143.581 -6.35475 -4.51434 0
M  V30 1595 N 147.81 0.181792 -1.56548 0
M  V30 1596 C 149.221 0.745244 -1.71181 0
M  V30 1597 C 149.572 1.83262 -0.70068 0
M  V30 1598 O 148.697 2.15946 0.140154 0
M  V30 1599 C 149.292 1.35859 -3.10367 0
M  V30 1600 C 147.851 1.86898 -3.2672 0
M  V30 1601 C 146.998 0.743942 -2.67134 0
M  V30 1602 H 149.949 -0.0434661 -1.5864 0
M  V30 1603 H 149.97 2.22817 -3.08436 0
M  V30 1604 H 149.482 0.566948 -3.83937 0
M  V30 1605 H 147.583 2.68738 -2.5809 0
M  V30 1606 H 147.696 2.02162 -4.34359 0
M  V30 1607 H 146.06 1.16169 -2.26665 0
M  V30 1608 H 146.843 -0.035676 -3.43281 0
M  V30 1609 N 149.288 1.51039 0.449983 0
M  V30 1610 C 150.251 1.70863 1.5277 0
M  V30 1611 C 151.251 0.578846 1.5002 0
M  V30 1612 O 152.441 0.846213 1.52266 0
M  V30 1613 C 149.573 1.75341 2.9235 0
M  V30 1614 H 150.766 2.67034 1.36502 0
M  V30 1615 H 148.319 1.40838 0.677812 0
M  V30 1616 H 149.054 0.809383 3.14037 0
M  V30 1617 H 148.839 2.57436 2.95752 0
M  V30 1618 H 150.329 1.92559 3.70555 0
M  V30 1619 N 150.766 -0.704594 1.40972 0
M  V30 1620 C 151.729 -1.80035 1.41845 0
M  V30 1621 C 152.729 -1.57774 0.310474 0
M  V30 1622 O 153.919 -1.64613 0.56992 0
M  V30 1623 C 151.051 -3.18284 1.22098 0
M  V30 1624 H 152.244 -1.80658 2.3938 0
M  V30 1625 H 149.797 -0.911329 1.26982 0
M  V30 1626 H 150.532 -3.23306 0.253672 0
M  V30 1627 H 150.317 -3.35843 2.02366 0
M  V30 1628 H 151.807 -3.98289 1.25522 0
M  V30 1629 N 152.244 -1.26651 -0.937939 0
M  V30 1630 C 153.472 -1.15173 -1.7188 0
M  V30 1631 C 153.887 0.292668 -1.86518 0
M  V30 1632 O 153.244 1.20014 -1.37488 0
M  V30 1633 C 153.295 -1.81925 -3.12387 0
M  V30 1634 O 153.016 -3.2072 -2.98446 0
M  V30 1635 C 154.517 -1.76442 -4.06673 0
M  V30 1636 H 151.737 -0.400911 -0.538063 0
M  V30 1637 H 154.281 -1.67332 -1.1756 0
M  V30 1638 H 152.436 -1.33696 -3.63599 0
M  V30 1639 H 152.85 -3.53802 -3.872 0
M  V30 1640 H 154.324 -2.27781 -5.02812 0
M  V30 1641 H 154.801 -0.731608 -4.33064 0
M  V30 1642 H 155.407 -2.24238 -3.61382 0
M  V30 1643 N 153.722 1.14298 -1.08507 0
M  V30 1644 C 154.95 1.89219 -0.836876 0
M  V30 1645 C 155.365 1.78638 0.611054 0
M  V30 1646 O 154.722 1.14643 1.41998 0
M  V30 1647 C 154.773 3.39158 -1.25116 0
M  V30 1648 O 154.494 3.49449 -2.64229 0
M  V30 1649 C 155.995 4.31073 -1.03398 0
M  V30 1650 H 153.215 0.599328 -0.301739 0
M  V30 1651 H 155.759 1.44746 -1.44461 0
M  V30 1652 H 153.914 3.81251 -0.687514 0
M  V30 1653 H 154.328 4.42589 -2.81452 0
M  V30 1654 H 155.802 5.34646 -1.37323 0
M  V30 1655 H 156.279 4.3919 0.0289259 0
M  V30 1656 H 156.885 3.94738 -1.58311 0
M  V30 1657 N 155.201 0.870884 1.31352 0
M  V30 1658 C 156.617 0.562932 1.49343 0
M  V30 1659 C 156.817 -0.902725 1.80148 0
M  V30 1660 O 155.873 -1.68484 1.88067 0
M  V30 1661 C 157.186 1.46393 2.62659 0
M  V30 1662 C 158.734 1.46607 2.76542 0
M  V30 1663 C 159.209 2.35266 3.92955 0
M  V30 1664 N 160.7 2.33151 4.00243 0
M  V30 1665 C 161.435 2.98471 4.89594 0
M  V30 1666 N 160.931 3.72964 5.8384 0
M  V30 1667 N 162.724 2.87775 4.82848 0
M  V30 1668 H 154.875 1.81923 1.09626 0
M  V30 1669 H 157.138 0.777934 0.541777 0
M  V30 1670 H 156.844 2.50689 2.46674 0
M  V30 1671 H 156.718 1.16314 3.58819 0
M  V30 1672 H 159.105 0.43069 2.9194 0
M  V30 1673 H 159.186 1.8071 1.81046 0
M  V30 1674 H 158.83 3.38881 3.78315 0
M  V30 1675 H 158.76 1.98487 4.87761 0
M  V30 1676 H 161.251 1.79006 3.32814 0
M  V30 1677 H 161.564 4.19932 6.4875 0
M  V30 1678 H 159.909 3.77073 5.83816 0
M  V30 1679 H 163.1 2.29116 4.08195 0
M  V30 1680 H 163.273 3.38961 5.52277 0
M  V30 1681 N 156.679 -1.44442 0.630414 0
M  V30 1682 C 157.904 -2.06927 0.139944 0
M  V30 1683 C 158.329 -1.46795 -1.17613 0
M  V30 1684 O 157.687 -0.569144 -1.72135 0
M  V30 1685 C 157.735 -3.6058 0.0379581 0
M  V30 1686 O 156.839 -3.99937 -1.0062 0
M  V30 1687 H 156.18 -0.658608 0.0844483 0
M  V30 1688 H 158.71 -1.85327 0.866891 0
M  V30 1689 H 158.72 -4.07714 -0.152856 0
M  V30 1690 H 157.395 -4.03728 0.998809 0
M  V30 1691 H 155.972 -3.64436 -0.79001 0
M  V30 1692 N 158.157 -0.370918 -1.53173 0
M  V30 1693 C 159.382 0.220293 -2.06227 0
M  V30 1694 C 159.807 1.41243 -1.24225 0
M  V30 1695 O 159.165 1.79387 -0.262645 0
M  V30 1696 C 159.213 0.586663 -3.55796 0
M  V30 1697 O 158.317 1.68317 -3.76488 0
M  V30 1698 H 157.658 0.0308099 -0.663285 0
M  V30 1699 H 160.188 -0.533068 -1.97534 0
M  V30 1700 H 160.198 0.85617 -3.98916 0
M  V30 1701 H 158.873 -0.285013 -4.14922 0
M  V30 1702 H 157.45 1.40881 -3.45264 0
M  V30 1703 N 159.635 1.57281 -0.100228 0
M  V30 1704 C 160.883 1.94153 0.561157 0
M  V30 1705 C 161.204 0.983157 1.68401 0
M  V30 1706 O 160.474 0.0361132 1.95867 0
M  V30 1707 H 159.054 0.716791 0.210283 0
M  V30 1708 H 161.716 1.94202 -0.164765 0
M  V30 1709 H 160.812 2.96709 0.968008 0
M  V30 1710 N 161.113 -0.173488 1.56642 0
M  V30 1711 C 162.361 -0.888706 1.81512 0
M  V30 1712 C 162.682 -1.82875 0.676872 0
M  V30 1713 O 161.952 -1.93536 -0.303414 0
M  V30 1714 H 160.532 -0.331164 0.669582 0
M  V30 1715 H 163.194 -0.173823 1.94123 0
M  V30 1716 H 162.29 -1.46691 2.75478 0
M  V30 1717 N 162.591 -1.51276 -0.441967 0
M  V30 1718 C 163.839 -1.63392 -1.18943 0
M  V30 1719 C 164.16 -0.350159 -1.9183 0
M  V30 1720 O 163.43 0.633784 -1.85364 0
M  V30 1721 H 162.01 -0.602164 -0.442049 0
M  V30 1722 H 164.672 -1.88186 -0.507165 0
M  V30 1723 H 163.768 -2.45934 -1.92154 0
M  V30 1724 N 164.069 0.697108 -1.41344 0
M  V30 1725 C 165.317 1.45426 -1.40341 0
M  V30 1726 C 165.638 1.94996 -0.0128787 0
M  V30 1727 O 164.908 1.71599 0.945027 0
M  V30 1728 H 163.488 0.539594 -0.516573 0
M  V30 1729 H 166.15 0.825201 -1.76569 0
M  V30 1730 H 165.246 2.31817 -2.08967 0
M  V30 1731 N 165.547 1.27147 0.931209 0
M  V30 1732 C 166.795 1.13055 1.6752 0
M  V30 1733 C 167.116 -0.324791 1.92276 0
M  V30 1734 O 166.386 -1.22775 1.52654 0
M  V30 1735 H 164.966 0.415391 0.620854 0
M  V30 1736 H 167.628 1.59623 1.11833 0
M  V30 1737 H 166.724 1.65694 2.64485 0
M  V30 1738 N 167.025 -1.13721 1.09112 0
M  V30 1739 C 168.273 -1.84559 0.823562 0
M  V30 1740 C 168.594 -1.83754 -0.652658 0
M  V30 1741 O 167.864 -1.29102 -1.47342 0
M  V30 1742 H 166.444 -0.683376 0.301673 0
M  V30 1743 H 169.106 -1.37771 1.37859 0
M  V30 1744 H 168.202 -2.8917 1.17419 0
M  V30 1745 N 168.503 -0.877838 -1.30888 0
M  V30 1746 C 169.751 -0.491723 -1.96027 0
M  V30 1747 C 170.072 0.960827 -1.69685 0
M  V30 1748 O 169.342 1.67462 -1.01654 0
M  V30 1749 H 167.922 -0.17885 -0.725273 0
M  V30 1750 H 170.584 -1.11935 -1.59551 0
M  V30 1751 H 169.68 -0.656016 -3.05128 0
M  V30 1752 N 169.982 1.44106 -0.638065 0
M  V30 1753 C 171.23 2.01579 -0.145043 0
M  V30 1754 C 171.551 1.50496 1.24 0
M  V30 1755 O 170.821 0.711374 1.82527 0
M  V30 1756 H 169.401 0.745282 -0.05063 0
M  V30 1757 H 172.063 1.76516 -0.826327 0
M  V30 1758 H 171.159 3.11877 -0.118039 0
M  V30 1759 N 171.46 0.379036 1.52974 0
M  V30 1760 C 172.407 -0.461048 2.26148 0
M  V30 1761 C 173.377 -1.06637 1.27349 0
M  V30 1762 O 174.562 -1.09633 1.56157 0
M  V30 1763 C 171.702 -1.58782 3.06402 0
M  V30 1764 C 170.815 -1.00636 4.20115 0
M  V30 1765 C 169.95 -2.10334 4.87784 0
M  V30 1766 C 168.989 -1.49724 5.93506 0
M  V30 1767 N 168.126 -2.5331 6.54812 0
M  V30 1768 H 172.966 0.169429 2.97518 0
M  V30 1769 H 170.503 0.0953806 1.4679 0
M  V30 1770 H 172.461 -2.25174 3.51215 0
M  V30 1771 H 171.091 -2.18876 2.37261 0
M  V30 1772 H 170.143 -0.232332 3.7969 0
M  V30 1773 H 171.455 -0.523343 4.96047 0
M  V30 1774 H 170.609 -2.84519 5.35849 0
M  V30 1775 H 169.348 -2.61992 4.11353 0
M  V30 1776 H 168.353 -0.740598 5.44789 0
M  V30 1777 H 169.578 -0.988732 6.71864 0
M  V30 1778 H 167.524 -3.04156 5.81227 0
M  V30 1779 H 167.441 -2.09734 7.26325 0
M  V30 1780 H 168.709 -3.27155 7.07524 0
M  V30 1781 N 172.938 -1.57226 0.108567 0
M  V30 1782 C 174.354 -1.5766 -0.248058 0
M  V30 1783 C 174.554 -1.12063 -1.67464 0
M  V30 1784 O 173.61 -0.803236 -2.39383 0
M  V30 1785 C 174.923 -3.0069 -0.0242287 0
M  V30 1786 C 176.471 -3.12868 -0.0909372 0
M  V30 1787 C 176.946 -4.57879 0.105067 0
M  V30 1788 N 178.437 -4.63172 0.0506846 0
M  V30 1789 C 179.172 -5.73126 0.177396 0
M  V30 1790 N 178.668 -6.91866 0.359696 0
M  V30 1791 N 180.461 -5.61977 0.117709 0
M  V30 1792 H 172.612 -1.85169 1.04049 0
M  V30 1793 H 174.875 -0.85529 0.40888 0
M  V30 1794 H 174.581 -3.38299 0.961604 0
M  V30 1795 H 174.455 -3.6945 -0.76068 0
M  V30 1796 H 176.842 -2.75124 -1.06729 0
M  V30 1797 H 176.923 -2.46672 0.677225 0
M  V30 1798 H 176.567 -4.96321 1.07834 0
M  V30 1799 H 176.497 -5.22153 -0.682954 0
M  V30 1800 H 178.988 -3.778 -0.0871266 0
M  V30 1801 H 179.301 -7.71503 0.447529 0
M  V30 1802 H 177.646 -6.93874 0.395536 0
M  V30 1803 H 180.837 -4.68094 -0.0236741 0
M  V30 1804 H 181.01 -6.47627 0.219905 0
M  V30 1805 N 174.416 0.165178 -1.56732 0
M  V30 1806 C 175.664 0.879068 -1.8198 0
M  V30 1807 C 175.985 1.82514 -0.686561 0
M  V30 1808 O 175.255 1.93694 0.293146 0
M  V30 1809 H 173.835 0.327608 -0.671329 0
M  V30 1810 H 176.497 0.163526 -1.94213 0
M  V30 1811 H 175.593 1.45228 -2.76252 0
M  V30 1812 N 175.894 1.51508 0.433938 0
M  V30 1813 C 177.142 1.6402 1.18075 0
M  V30 1814 C 177.463 0.360328 1.91642 0
M  V30 1815 O 176.733 -0.623945 1.85698 0
M  V30 1816 H 175.313 0.6045 0.43885 0
M  V30 1817 H 177.975 1.88452 0.497178 0
M  V30 1818 H 177.071 2.46949 1.90847 0
M  V30 1819 N 177.372 -0.689602 1.41712 0
M  V30 1820 C 178.319 -1.80345 1.44029 0
M  V30 1821 C 179.289 -1.63478 0.293948 0
M  V30 1822 O 180.474 -1.84244 0.495869 0
M  V30 1823 C 177.614 -3.18272 1.33405 0
M  V30 1824 C 176.727 -3.46529 2.57956 0
M  V30 1825 C 175.862 -4.74103 2.39582 0
M  V30 1826 C 174.901 -4.95347 3.5958 0
M  V30 1827 N 174.038 -6.14151 3.40239 0
M  V30 1828 H 178.878 -1.77698 2.39222 0
M  V30 1829 H 176.415 -0.867688 1.18784 0
M  V30 1830 H 178.373 -3.97956 1.25246 0
M  V30 1831 H 177.003 -3.2008 0.418164 0
M  V30 1832 H 176.055 -2.61207 2.76542 0
M  V30 1833 H 177.367 -3.58126 3.47199 0
M  V30 1834 H 176.521 -5.61853 2.28924 0
M  V30 1835 H 175.26 -4.64763 1.47805 0
M  V30 1836 H 174.265 -4.06044 3.70686 0
M  V30 1837 H 175.49 -5.06542 4.52318 0
M  V30 1838 H 173.436 -6.06013 2.51167 0
M  V30 1839 H 173.353 -6.26543 4.23061 0
M  V30 1840 H 174.621 -7.04619 3.33365 0
M  V30 1841 N 178.85 -1.27639 -0.924453 0
M  V30 1842 C 179.797 -1.10644 -2.0255 0
M  V30 1843 C 180.767 -0.00658438 -1.66099 0
M  V30 1844 O 181.952 -0.16952 -1.90045 0
M  V30 1845 C 179.092 -0.76309 -3.36557 0
M  V30 1846 C 178.205 -1.94091 -3.85944 0
M  V30 1847 C 177.34 -1.53914 -5.08413 0
M  V30 1848 C 176.379 -2.68425 -5.50104 0
M  V30 1849 N 175.516 -2.28815 -6.63768 0
M  V30 1850 H 180.356 -2.04858 -2.16419 0
M  V30 1851 H 177.893 -1.01974 -1.06017 0
M  V30 1852 H 179.851 -0.544822 -4.13627 0
M  V30 1853 H 178.481 0.142102 -3.22487 0
M  V30 1854 H 177.533 -2.27162 -3.05125 0
M  V30 1855 H 178.845 -2.7998 -4.12811 0
M  V30 1856 H 177.999 -1.28231 -5.92994 0
M  V30 1857 H 176.738 -0.651391 -4.8333 0
M  V30 1858 H 175.743 -2.94819 -4.64071 0
M  V30 1859 H 176.968 -3.57826 -5.7718 0
M  V30 1860 H 174.914 -1.42495 -6.40337 0
M  V30 1861 H 174.831 -3.08242 -6.90306 0
M  V30 1862 H 176.099 -2.06387 -7.51681 0
M  V30 1863 N 180.328 1.1314 -1.09713 0
M  V30 1864 C 181.605 1.80762 -0.747302 0
M  V30 1865 C 181.985 1.96663 0.767265 0
M  V30 1866 O 181.333 1.53706 1.69076 0
M  V30 1867 C 181.543 3.15606 -1.48975 0
M  V30 1868 C 182.891 3.90914 -1.65746 0
M  V30 1869 O 183.915 3.25239 -1.45251 0
M  V30 1870 O 182.774 5.08718 -1.9967 0
M  V30 1871 H 179.868 0.782103 -0.268782 0
M  V30 1872 H 182.414 1.20041 -1.19951 0
M  V30 1873 H 181.186 2.99278 -2.52088 0
M  V30 1874 H 180.809 3.84029 -1.02991 0
M  V30 1875 N 181.806 0.884767 1.30421 0
M  V30 1876 C 183.083 0.423185 1.90967 0
M  V30 1877 C 183.463 -1.09605 1.80416 0
M  V30 1878 O 182.811 -1.93126 1.22125 0
M  V30 1879 C 183.021 0.921056 3.36627 0
M  V30 1880 C 184.369 0.955903 4.137 0
M  V30 1881 O 185.393 0.867706 3.4547 0
M  V30 1882 O 184.252 1.08614 5.35598 0
M  V30 1883 H 181.346 0.129369 0.816819 0
M  V30 1884 H 183.892 0.973653 1.3899 0
M  V30 1885 H 182.664 1.96489 3.3839 0
M  V30 1886 H 182.287 0.349741 3.96059 0
M  V30 1887 N 183.284 -1.43765 0.645699 0
M  V30 1888 C 184.509 -2.06767 0.161883 0
M  V30 1889 C 184.934 -1.48034 -1.16049 0
M  V30 1890 O 184.292 -0.587369 -1.71522 0
M  V30 1891 C 184.34 -3.60519 0.0762003 0
M  V30 1892 O 183.444 -4.00982 -0.963721 0
M  V30 1893 H 182.785 -0.657675 0.091429 0
M  V30 1894 H 185.315 -1.84397 0.886499 0
M  V30 1895 H 185.325 -4.07853 -0.109604 0
M  V30 1896 H 184 -4.02646 1.04157 0
M  V30 1897 H 182.577 -3.65253 -0.751312 0
M  V30 1898 N 184.763 -0.387143 -1.52771 0
M  V30 1899 C 185.713 0.465942 -2.23188 0
M  V30 1900 C 186.697 1.03138 -1.23496 0
M  V30 1901 O 187.889 0.957845 -1.48843 0
M  V30 1902 C 185.018 1.59384 -3.04059 0
M  V30 1903 C 184.104 1.04024 -4.11144 0
M  V30 1904 N 184.495 0.211416 -5.05358 0
M  V30 1905 C 182.793 1.31295 -4.26237 0
M  V30 1906 C 183.494 -0.0941698 -5.81624 0
M  V30 1907 N 182.47 0.509207 -5.4121 0
M  V30 1908 H 186.272 -0.173856 -2.93385 0
M  V30 1909 H 183.786 -0.19633 -1.61209 0
M  V30 1910 H 185.783 2.21738 -3.53041 0
M  V30 1911 H 184.443 2.23648 -2.35397 0
M  V30 1912 H 185.454 -0.151151 -5.17679 0
M  V30 1913 H 182.131 1.95679 -3.68803 0
M  V30 1914 H 183.521 -0.765572 -6.67524 0
M  V30 1915 N 186.241 1.57166 -0.116904 0
M  V30 1916 C 187.487 1.96206 0.536166 0
M  V30 1917 C 187.842 0.99915 1.64422 0
M  V30 1918 O 187.135 0.0288195 1.91578 0
M  V30 1919 C 187.329 3.39508 1.11664 0
M  V30 1920 C 187.158 4.49651 0.0663474 0
M  V30 1921 C 185.928 5.03982 -0.36474 0
M  V30 1922 C 188.126 5.09322 -0.713829 0
M  V30 1923 N 186.108 5.97699 -1.40102 0
M  V30 1924 C 187.479 5.98963 -1.60136 0
M  V30 1925 C 189.534 4.91989 -0.764948 0
M  V30 1926 C 188.237 6.73128 -2.53556 0
M  V30 1927 C 190.263 5.66833 -1.68685 0
M  V30 1928 C 189.625 6.56158 -2.56196 0
M  V30 1929 H 185.724 0.764203 0.165886 0
M  V30 1930 H 188.308 1.93623 -0.204535 0
M  V30 1931 H 186.479 3.42743 1.82707 0
M  V30 1932 H 188.211 3.65677 1.73386 0
M  V30 1933 H 184.966 4.73592 0.027252 0
M  V30 1934 H 185.39 6.49262 -1.91802 0
M  V30 1935 H 190.032 4.22676 -0.102501 0
M  V30 1936 H 187.75 7.41689 -3.20816 0
M  V30 1937 H 191.336 5.55427 -1.73181 0
M  V30 1938 H 190.216 7.13057 -3.26372 0
M  V30 1939 N 187.719 -0.156864 1.56817 0
M  V30 1940 C 188.965 -0.867645 1.83966 0
M  V30 1941 C 189.32 -1.79233 0.699511 0
M  V30 1942 O 188.613 -1.89186 -0.303176 0
M  V30 1943 C 188.807 -1.68737 3.1506 0
M  V30 1944 C 188.636 -0.843548 4.41718 0
M  V30 1945 C 187.406 -0.512994 5.02689 0
M  V30 1946 C 189.604 -0.178416 5.1399 0
M  V30 1947 N 187.586 0.345456 6.12927 0
M  V30 1948 C 188.957 0.540586 6.17639 0
M  V30 1949 C 191.012 -0.0980696 4.97803 0
M  V30 1950 C 189.715 1.33233 7.06853 0
M  V30 1951 C 191.741 0.680387 5.87473 0
M  V30 1952 C 191.103 1.3877 6.90596 0
M  V30 1953 H 187.202 -0.295642 0.723961 0
M  V30 1954 H 189.786 -0.13365 1.94241 0
M  V30 1955 H 187.957 -2.39268 3.0595 0
M  V30 1956 H 189.689 -2.34056 3.30151 0
M  V30 1957 H 186.444 -0.846476 4.65974 0
M  V30 1958 H 186.868 0.765415 6.72659 0
M  V30 1959 H 191.51 -0.630562 4.18071 0
M  V30 1960 H 189.228 1.87612 7.8602 0
M  V30 1961 H 192.814 0.744415 5.77018 0
M  V30 1962 H 191.694 1.9804 7.58782 0
M  V30 1963 N 189.197 -1.51736 -0.425897 0
M  V30 1964 C 190.422 -1.69082 -1.20108 0
M  V30 1965 C 190.847 -0.392398 -1.83962 0
M  V30 1966 O 190.205 0.64858 -1.69302 0
M  V30 1967 C 190.253 -2.81604 -2.25237 0
M  V30 1968 O 189.357 -2.46004 -3.30992 0
M  V30 1969 H 188.698 -0.563408 -0.35138 0
M  V30 1970 H 191.228 -1.98358 -0.501512 0
M  V30 1971 H 191.238 -3.06025 -2.69838 0
M  V30 1972 H 189.913 -3.75817 -1.78142 0
M  V30 1973 H 188.49 -2.32195 -2.91787 0
M  V30 1974 N 190.675 0.682077 -1.42076 0
M  V30 1975 C 192.091 0.994324 -1.24841 0
M  V30 1976 C 192.291 2.0096 -0.147389 0
M  V30 1977 O 191.347 2.47822 0.483782 0
M  V30 1978 C 192.66 1.50607 -2.60265 0
M  V30 1979 C 194.208 1.62421 -2.6756 0
M  V30 1980 C 194.683 2.16994 -4.03333 0
M  V30 1981 N 196.174 2.24337 -4.0525 0
M  V30 1982 C 196.909 2.67621 -5.07116 0
M  V30 1983 N 196.405 3.1041 -6.19368 0
M  V30 1984 N 198.198 2.67305 -4.94474 0
M  V30 1985 H 190.349 0.00973908 -2.12398 0
M  V30 1986 H 192.612 0.0668593 -0.945639 0
M  V30 1987 H 192.318 0.834583 -3.41654 0
M  V30 1988 H 192.192 2.48602 -2.83684 0
M  V30 1989 H 194.579 2.28678 -1.86521 0
M  V30 1990 H 194.66 0.629352 -2.47937 0
M  V30 1991 H 194.304 1.51349 -4.84826 0
M  V30 1992 H 194.234 3.17258 -4.20304 0
M  V30 1993 H 196.725 1.94158 -3.24209 0
M  V30 1994 H 197.038 3.42103 -6.92954 0
M  V30 1995 H 195.383 3.08286 -6.22884 0
M  V30 1996 H 198.574 2.33233 -4.05857 0
M  V30 1997 H 198.747 3.00718 -5.73997 0
M  V30 1998 N 192.153 1.28127 0.917671 0
M  V30 1999 C 193.4 1.15052 1.66641 0
M  V30 2000 C 193.728 -0.301677 1.92146 0
M  V30 2001 O 192.983 -1.23622 1.51711 0
M  V30 2002 C 193.282 1.89018 3.03327 0
M  V30 2003 C 192.948 3.38832 2.97496 0
M  V30 2004 C 191.61 3.79693 2.95613 0
M  V30 2005 C 193.962 4.34378 2.88036 0
M  V30 2006 C 191.29 5.14447 2.82066 0
M  V30 2007 C 193.642 5.69201 2.7603 0
M  V30 2008 C 192.306 6.09343 2.72502 0
M  V30 2009 H 191.576 0.421006 0.609783 0
M  V30 2010 H 194.223 1.58855 1.06945 0
M  V30 2011 H 192.528 1.37752 3.66785 0
M  V30 2012 H 194.225 1.76321 3.60156 0
M  V30 2013 H 190.815 3.06342 2.99754 0
M  V30 2014 H 194.999 4.03775 2.88581 0
M  V30 2015 H 190.255 5.44681 2.77728 0
M  V30 2016 H 194.429 6.42901 2.67678 0
M  V30 2017 H 192.056 7.13712 2.61762 0
M  V30 2018 N 193.631 -1.12557 1.10312 0
M  V30 2019 C 194.563 -2.17971 0.708625 0
M  V30 2020 C 195.576 -1.60806 -0.254027 0
M  V30 2021 O 196.765 -1.78458 -0.0386891 0
M  V30 2022 C 193.865 -3.38891 0.0248198 0
M  V30 2023 C 193.038 -4.25548 1.01132 0
M  V30 2024 C 192.097 -5.24972 0.35924 0
M  V30 2025 O 191.123 -5.60174 1.00965 0
M  V30 2026 N 192.325 -5.73747 -0.882847 0
M  V30 2027 H 195.09 -2.52427 1.61557 0
M  V30 2028 H 192.651 -1.27967 0.991771 0
M  V30 2029 H 194.643 -4.02485 -0.422852 0
M  V30 2030 H 193.213 -3.02596 -0.784514 0
M  V30 2031 H 192.433 -3.58589 1.6373 0
M  V30 2032 H 193.721 -4.80294 1.67914 0
M  V30 2033 H 193.119 -5.4731 -1.43065 0
M  V30 2034 H 191.676 -6.39234 -1.27369 0
M  V30 2035 N 195.109 -0.891671 -1.2995 0
M  V30 2036 C 196.056 -0.361736 -2.27948 0
M  V30 2037 C 197.026 0.551761 -1.56668 0
M  V30 2038 O 198.211 0.478736 -1.84696 0
M  V30 2039 C 195.351 0.411825 -3.42634 0
M  V30 2040 C 194.464 -0.531651 -4.28716 0
M  V30 2041 C 193.599 0.258167 -5.30572 0
M  V30 2042 C 192.638 -0.680349 -6.08307 0
M  V30 2043 N 191.775 0.0745613 -7.0206 0
M  V30 2044 H 196.615 -1.20254 -2.72659 0
M  V30 2045 H 194.152 -0.604352 -1.34112 0
M  V30 2046 H 196.11 0.876304 -4.07893 0
M  V30 2047 H 194.74 1.21715 -2.98974 0
M  V30 2048 H 193.792 -1.11463 -3.63703 0
M  V30 2049 H 195.104 -1.25038 -4.82874 0
M  V30 2050 H 194.258 0.784204 -6.0161 0
M  V30 2051 H 192.997 1.01008 -4.77126 0
M  V30 2052 H 192.002 -1.21796 -5.3614 0
M  V30 2053 H 193.227 -1.43145 -6.63842 0
M  V30 2054 H 191.173 0.808883 -6.50994 0
M  V30 2055 H 191.09 -0.584409 -7.53738 0
M  V30 2056 H 192.358 0.581123 -7.77331 0
M  V30 2057 N 196.587 1.43421 -0.653314 0
M  V30 2058 C 197.835 2.01414 -0.166415 0
M  V30 2059 C 198.156 1.51803 1.22397 0
M  V30 2060 O 197.426 0.730693 1.81763 0
M  V30 2061 H 196.006 0.744703 -0.0585319 0
M  V30 2062 H 198.668 1.75629 -0.845003 0
M  V30 2063 H 197.764 3.11734 -0.151111 0
M  V30 2064 N 198.065 0.39524 1.52563 0
M  V30 2065 C 199.342 -0.242908 1.94086 0
M  V30 2066 C 199.722 -1.63841 1.33114 0
M  V30 2067 O 199.07 -2.22928 0.501529 0
M  V30 2068 C 199.28 -0.26327 3.48006 0
M  V30 2069 C 200.628 -0.489354 4.21771 0
M  V30 2070 O 201.652 -0.343226 3.54543 0
M  V30 2071 O 200.511 -0.776169 5.4096 0
M  V30 2072 H 197.605 -0.152536 0.812811 0
M  V30 2073 H 200.151 0.450178 1.6362 0
M  V30 2074 H 198.923 0.713985 3.84731 0
M  V30 2075 H 198.546 -1.00103 3.84792 0
M  V30 2076 N 199.544 -1.57102 0.125237 0
M  V30 2077 C 200.793 -1.94582 -0.531095 0
M  V30 2078 C 201.106 -1.01126 -1.6743 0
M  V30 2079 O 202.312 -1.28097 -2.39381 0
M  V30 2080 C 200.768 -3.45839 -0.996164 0
M  V30 2081 C 200.376 -4.47842 0.118926 0
M  V30 2082 C 202.12 -3.92227 -1.62352 0
M  V30 2083 C 200.027 -5.90284 -0.363192 0
M  V30 2084 H 198.957 -0.726391 -0.20217 0
M  V30 2085 H 201.608 -1.82339 0.206092 0
M  V30 2086 H 199.99 -3.53338 -1.78796 0
M  V30 2087 H 201.164 -4.52018 0.895358 0
M  V30 2088 H 199.479 -4.11243 0.653324 0
M  V30 2089 H 202.076 -4.96069 -1.99548 0
M  V30 2090 H 202.419 -3.32552 -2.50429 0
M  V30 2091 H 202.952 -3.87554 -0.897019 0
M  V30 2092 H 199.691 -6.53728 0.481679 0
M  V30 2093 H 199.211 -5.89515 -1.10597 0
M  V30 2094 H 200.89 -6.41752 -0.822377 0
M  V30 2095 N 201.022 0.148545 -1.56898 0
M  V30 2096 C 202.433 0.708766 -1.72723 0
M  V30 2097 C 202.784 1.81734 -0.739395 0
M  V30 2098 O 201.909 2.16194 0.0943169 0
M  V30 2099 C 202.504 1.29245 -3.13179 0
M  V30 2100 C 201.063 1.79925 -3.30611 0
M  V30 2101 C 200.21 0.687111 -2.68652 0
M  V30 2102 H 203.161 -0.0771063 -1.58513 0
M  V30 2103 H 203.182 2.16224 -3.13093 0
M  V30 2104 H 202.694 0.485382 -3.85053 0
M  V30 2105 H 200.795 2.63203 -2.63732 0
M  V30 2106 H 200.908 1.92903 -4.38549 0
M  V30 2107 H 199.272 1.11335 -2.29078 0
M  V30 2108 H 200.055 -0.108483 -3.43129 0
M  V30 2109 N 202.5 1.5196 0.417844 0
M  V30 2110 C 203.746 1.66793 1.16411 0
M  V30 2111 C 204.101 0.388758 1.88432 0
M  V30 2112 O 203.394 -0.616409 1.81414 0
M  V30 2113 C 203.588 2.82269 2.19223 0
M  V30 2114 C 203.417 4.21293 1.57297 0
M  V30 2115 C 202.187 4.86948 1.34944 0
M  V30 2116 C 204.385 5.03704 1.03858 0
M  V30 2117 N 202.367 6.1003 0.688195 0
M  V30 2118 C 203.738 6.1795 0.503742 0
M  V30 2119 C 205.793 4.89095 0.932203 0
M  V30 2120 C 204.496 7.19188 -0.127034 0
M  V30 2121 C 206.522 5.90559 0.315293 0
M  V30 2122 C 205.884 7.0409 -0.208906 0
M  V30 2123 H 201.983 0.66407 0.412959 0
M  V30 2124 H 204.567 1.89242 0.457772 0
M  V30 2125 H 202.738 2.61451 2.87225 0
M  V30 2126 H 204.47 2.86183 2.86149 0
M  V30 2127 H 201.225 4.45156 1.61657 0
M  V30 2128 H 201.649 6.75964 0.374449 0
M  V30 2129 H 206.291 4.01557 1.32332 0
M  V30 2130 H 204.009 8.06359 -0.530231 0
M  V30 2131 H 207.595 5.81327 0.234625 0
M  V30 2132 H 206.475 7.81257 -0.67875 0
M  V30 2133 N 203.978 -0.674533 1.42435 0
M  V30 2134 C 205.255 -1.4305 1.33402 0
M  V30 2135 C 205.635 -2.11081 -0.0284674 0
M  V30 2136 O 204.983 -2.03257 -1.04397 0
M  V30 2137 C 205.193 -2.43272 2.50239 0
M  V30 2138 C 206.541 -3.07907 2.92367 0
M  V30 2139 O 207.565 -2.53599 2.50132 0
M  V30 2140 O 206.424 -4.0632 3.65467 0
M  V30 2141 H 203.518 -0.638076 0.526106 0
M  V30 2142 H 206.064 -0.703235 1.54443 0
M  V30 2143 H 204.836 -1.91803 3.41068 0
M  V30 2144 H 204.459 -3.23479 2.31186 0
M  V30 2145 N 205.456 -1.28612 -0.910864 0
M  V30 2146 C 206.733 -1.06632 -1.63979 0
M  V30 2147 C 207.113 0.393351 -2.07403 0
M  V30 2148 O 206.461 1.37999 -1.82122 0
M  V30 2149 C 206.671 -2.0436 -2.8291 0
M  V30 2150 C 208.019 -2.34666 -3.5386 0
M  V30 2151 O 209.043 -2.02467 -2.93062 0
M  V30 2152 O 207.902 -2.89631 -4.63439 0
M  V30 2153 H 204.996 -0.407737 -0.7195 0
M  V30 2154 H 207.542 -1.39942 -0.959914 0
M  V30 2155 H 206.314 -3.02727 -2.47936 0
M  V30 2156 H 205.937 -1.71714 -3.58609 0
M  V30 2157 N 206.934 1.1197 -1.10907 0
M  V30 2158 C 207.881 2.17846 -0.762345 0
M  V30 2159 C 208.851 1.63995 0.263599 0
M  V30 2160 O 210.036 1.90273 0.141773 0
M  V30 2161 C 207.176 3.44487 -0.205651 0
M  V30 2162 C 206.289 4.12369 -1.28748 0
M  V30 2163 C 205.424 5.26674 -0.691919 0
M  V30 2164 C 204.463 5.86431 -1.75399 0
M  V30 2165 N 203.6 6.92142 -1.17833 0
M  V30 2166 H 208.44 2.46851 -1.6694 0
M  V30 2167 H 205.977 1.21188 -0.833776 0
M  V30 2168 H 207.935 4.16981 0.135037 0
M  V30 2169 H 206.565 3.15884 0.664613 0
M  V30 2170 H 205.617 3.38003 -1.74522 0
M  V30 2171 H 206.929 4.52844 -2.09125 0
M  V30 2172 H 206.083 6.05953 -0.300963 0
M  V30 2173 H 204.822 4.8749 0.143232 0
M  V30 2174 H 203.827 5.05835 -2.15432 0
M  V30 2175 H 205.052 6.27685 -2.59208 0
M  V30 2176 H 202.998 6.54985 -0.364725 0
M  V30 2177 H 202.915 7.31242 -1.91887 0
M  V30 2178 H 204.183 7.75237 -0.81408 0
M  V30 2179 N 208.412 0.89855 1.29475 0
M  V30 2180 C 209.689 0.443416 1.90508 0
M  V30 2181 C 210.069 -1.07685 1.81569 0
M  V30 2182 O 209.417 -1.9182 1.24166 0
M  V30 2183 C 209.627 0.956708 3.35631 0
M  V30 2184 C 210.975 0.999728 4.12663 0
M  V30 2185 O 211.999 0.904299 3.4453 0
M  V30 2186 O 210.858 1.14289 5.34416 0
M  V30 2187 H 207.952 0.138025 0.815401 0
M  V30 2188 H 210.498 0.98834 1.37949 0
M  V30 2189 H 209.27 2.00067 3.36287 0
M  V30 2190 H 208.893 0.391728 3.95666 0
M  V30 2191 N 209.89 -1.43072 0.660911 0
M  V30 2192 C 211.137 -2.01721 0.177445 0
M  V30 2193 C 211.465 -1.5218 -1.21126 0
M  V30 2194 O 210.72 -0.708659 -1.82419 0
M  V30 2195 C 211.019 -3.57103 0.145563 0
M  V30 2196 C 210.685 -4.26021 1.47705 0
M  V30 2197 C 209.347 -4.44563 1.84165 0
M  V30 2198 C 211.699 -4.64983 2.35458 0
M  V30 2199 C 209.027 -4.99334 3.0803 0
M  V30 2200 C 211.379 -5.21127 3.58622 0
M  V30 2201 C 210.043 -5.37884 3.95268 0
M  V30 2202 H 209.313 -0.73815 0.0649317 0
M  V30 2203 H 211.96 -1.71446 0.853144 0
M  V30 2204 H 210.265 -3.86965 -0.61361 0
M  V30 2205 H 211.962 -4.00248 -0.2455 0
M  V30 2206 H 208.552 -4.11939 1.18339 0
M  V30 2207 H 212.736 -4.50343 2.08579 0
M  V30 2208 H 207.992 -5.10493 3.36462 0
M  V30 2209 H 212.166 -5.50262 4.26831 0
M  V30 2210 H 209.793 -5.80089 4.91325 0
M  V30 2211 N 211.368 -0.403325 -1.52352 0
M  V30 2212 C 212.784 -0.0539281 -1.59509 0
M  V30 2213 C 212.984 1.43307 -1.41652 0
M  V30 2214 O 212.04 2.19924 -1.24056 0
M  V30 2215 C 213.353 -0.543654 -2.95745 0
M  V30 2216 C 214.901 -0.501125 -3.08962 0
M  V30 2217 C 215.376 -0.967267 -4.47669 0
M  V30 2218 N 216.867 -0.923849 -4.53893 0
M  V30 2219 C 217.602 -1.25578 -5.5948 0
M  V30 2220 N 217.098 -1.65889 -6.72646 0
M  V30 2221 N 218.891 -1.17613 -5.49658 0
M  V30 2222 H 211.042 -1.37123 -1.62206 0
M  V30 2223 H 213.305 -0.56294 -0.76276 0
M  V30 2224 H 213.011 -1.58275 -3.14073 0
M  V30 2225 H 212.885 0.0498042 -3.77167 0
M  V30 2226 H 215.272 0.528909 -2.90321 0
M  V30 2227 H 215.353 -1.13056 -2.2946 0
M  V30 2228 H 214.997 -1.9956 -4.67053 0
M  V30 2229 H 214.927 -0.314698 -5.25659 0
M  V30 2230 H 217.418 -0.627403 -3.72655 0
M  V30 2231 H 217.731 -1.89543 -7.49195 0
M  V30 2232 H 216.076 -1.69787 -6.73942 0
M  V30 2233 H 219.267 -0.860115 -4.6013 0
M  V30 2234 H 219.44 -1.43812 -6.3184 0
M  V30 2235 N 212.846 1.57033 -0.133567 0
M  V30 2236 C 213.779 2.11824 0.848872 0
M  V30 2237 C 214.757 1.03833 1.2513 0
M  V30 2238 O 215.941 1.31579 1.34978 0
M  V30 2239 C 213.068 2.62692 2.138 0
M  V30 2240 C 212.114 3.82705 1.88253 0
M  V30 2241 S 212.947 5.2438 1.08563 0
M  V30 2242 C 214.103 5.78627 2.38624 0
M  V30 2243 H 214.336 2.94824 0.38289 0
M  V30 2244 H 211.869 1.5419 0.0804796 0
M  V30 2245 H 213.827 2.92652 2.87863 0
M  V30 2246 H 212.488 1.79847 2.57515 0
M  V30 2247 H 211.681 4.16496 2.83809 0
M  V30 2248 H 211.283 3.53437 1.22305 0
M  V30 2249 H 213.575 5.8924 3.34369 0
M  V30 2250 H 214.518 6.76443 2.09358 0
M  V30 2251 H 214.926 5.06783 2.48658 0
M  V30 2252 N 214.325 -0.140222 1.56975 0
M  V30 2253 C 215.572 -0.851687 1.83719 0
M  V30 2254 C 215.9 -1.80862 0.715485 0
M  V30 2255 O 215.155 -1.93464 -0.294956 0
M  V30 2256 C 215.454 -1.65386 3.16832 0
M  V30 2257 C 215.12 -0.843112 4.42947 0
M  V30 2258 C 213.782 -0.619464 4.77196 0
M  V30 2259 C 216.134 -0.276582 5.20466 0
M  V30 2260 C 213.462 0.181312 5.8642 0
M  V30 2261 C 215.814 0.51127 6.30531 0
M  V30 2262 C 214.478 0.745432 6.63325 0
M  V30 2263 H 213.748 -0.311654 0.672274 0
M  V30 2264 H 216.395 -0.115006 1.91154 0
M  V30 2265 H 214.7 -2.46084 3.04877 0
M  V30 2266 H 216.397 -2.20793 3.34741 0
M  V30 2267 H 212.987 -1.0275 4.16101 0
M  V30 2268 H 217.171 -0.436632 4.94376 0
M  V30 2269 H 212.427 0.372165 6.10266 0
M  V30 2270 H 216.601 0.957354 6.89788 0
M  V30 2271 H 214.228 1.36778 7.47794 0
M  V30 2272 N 215.803 -1.52179 -0.40978 0
M  V30 2273 C 217.05 -1.66206 -1.15679 0
M  V30 2274 C 217.378 -0.391674 -1.90516 0
M  V30 2275 O 216.633 0.62533 -1.8544 0
M  V30 2276 C 216.932 -2.83428 -2.17723 0
M  V30 2277 C 216.598 -4.21672 -1.59699 0
M  V30 2278 C 215.26 -4.59274 -1.43599 0
M  V30 2279 C 217.612 -5.07825 -1.17317 0
M  V30 2280 C 214.94 -5.80709 -0.836328 0
M  V30 2281 C 217.292 -6.29864 -0.587691 0
M  V30 2282 C 215.956 -6.66216 -0.413818 0
M  V30 2283 H 215.226 -0.608192 -0.423301 0
M  V30 2284 H 217.873 -1.86279 -0.444097 0
M  V30 2285 H 216.178 -2.57687 -2.95135 0
M  V30 2286 H 217.875 -2.91477 -2.75394 0
M  V30 2287 H 214.465 -3.9204 -1.73213 0
M  V30 2288 H 218.649 -4.79359 -1.28565 0
M  V30 2289 H 213.905 -6.07498 -0.689626 0
M  V30 2290 H 218.079 -6.95948 -0.250894 0
M  V30 2291 H 215.706 -7.60182 0.0529471 0
M  V30 2292 N 217.281 0.66697 -1.42791 0
M  V30 2293 C 218.211 1.79218 -1.49677 0
M  V30 2294 C 219.192 1.66405 -0.352623 0
M  V30 2295 O 220.377 1.85708 -0.567993 0
M  V30 2296 C 217.507 3.17565 -1.40605 0
M  V30 2297 C 216.461 3.45124 -2.53127 0
M  V30 2298 C 215.787 4.83127 -2.29112 0
M  V30 2299 C 217.087 3.41236 -3.95418 0
M  V30 2300 H 218.781 1.73713 -2.43853 0
M  V30 2301 H 216.327 0.83432 -1.17367 0
M  V30 2302 H 218.28 3.96022 -1.44029 0
M  V30 2303 H 217.004 3.23767 -0.429271 0
M  V30 2304 H 215.663 2.69031 -2.49034 0
M  V30 2305 H 215.311 4.85988 -1.29709 0
M  V30 2306 H 215.011 5.02528 -3.04531 0
M  V30 2307 H 216.535 5.63859 -2.34297 0
M  V30 2308 H 217.949 4.09651 -4.01073 0
M  V30 2309 H 216.346 3.72173 -4.70752 0
M  V30 2310 H 217.416 2.39665 -4.21532 0
M  V30 2311 N 218.759 1.29093 0.90403 0
M  V30 2312 C 220.005 1.17996 1.65676 0
M  V30 2313 C 220.36 -0.266816 1.90541 0
M  V30 2314 O 219.653 -1.19 1.50165 0
M  V30 2315 C 219.847 1.92224 3.01305 0
M  V30 2316 C 219.676 3.43972 2.89678 0
M  V30 2317 C 218.446 4.1332 2.90679 0
M  V30 2318 C 220.644 4.39546 2.67028 0
M  V30 2319 N 218.626 5.51463 2.69743 0
M  V30 2320 C 219.997 5.65119 2.5503 0
M  V30 2321 C 222.052 4.29359 2.52101 0
M  V30 2322 C 220.755 6.81663 2.29626 0
M  V30 2323 C 222.781 5.4565 2.28079 0
M  V30 2324 C 222.143 6.70193 2.16843 0
M  V30 2325 H 218.242 0.486759 0.612037 0
M  V30 2326 H 220.826 1.62868 1.06688 0
M  V30 2327 H 218.997 1.49773 3.58361 0
M  V30 2328 H 220.729 1.73429 3.65656 0
M  V30 2329 H 217.484 3.64984 3.01801 0
M  V30 2330 H 217.908 6.24105 2.6234 0
M  V30 2331 H 222.55 3.33769 2.59534 0
M  V30 2332 H 220.268 7.77313 2.20932 0
M  V30 2333 H 223.854 5.39664 2.1738 0
M  V30 2334 H 222.734 7.58659 1.98511 0
M  V30 2335 N 220.237 -1.11381 1.11499 0
M  V30 2336 C 221.465 -1.86934 0.88675 0
M  V30 2337 C 221.88 -1.80195 -0.563476 0
M  V30 2338 O 221.237 -1.18367 -1.38908 0
M  V30 2339 C 221.288 -3.35722 1.34064 0
M  V30 2340 O 221.009 -3.4232 2.73401 0
M  V30 2341 C 222.51 -4.2818 1.14791 0
M  V30 2342 H 219.73 -0.591117 0.317523 0
M  V30 2343 H 222.274 -1.40865 1.48248 0
M  V30 2344 H 220.429 -3.79294 0.788355 0
M  V30 2345 H 220.843 -4.34971 2.93087 0
M  V30 2346 H 222.317 -5.30817 1.5145 0
M  V30 2347 H 222.794 -4.39113 0.0875279 0
M  V30 2348 H 223.4 -3.90402 1.68721 0
M  V30 2349 N 221.715 -0.905404 -1.28997 0
M  V30 2350 C 222.678 -0.392253 -2.25819 0
M  V30 2351 C 223.678 0.476753 -1.5357 0
M  V30 2352 O 224.868 0.280994 -1.71919 0
M  V30 2353 C 222 0.438588 -3.38067 0
M  V30 2354 H 223.193 -1.24743 -2.72725 0
M  V30 2355 H 220.746 -0.684051 -1.40536 0
M  V30 2356 H 221.481 1.31352 -2.96508 0
M  V30 2357 H 221.266 -0.184167 -3.91667 0
M  V30 2358 H 222.756 0.78873 -4.10084 0
M  V30 2359 N 223.193 1.4272 -0.668489 0
M  V30 2360 C 224.123 2.335 -0.000100175 0
M  V30 2361 C 225.104 1.50328 0.795964 0
M  V30 2362 O 226.289 1.78949 0.754385 0
M  V30 2363 C 223.419 3.33874 0.956302 0
M  V30 2364 C 222.373 4.27152 0.269278 0
M  V30 2365 C 221.699 5.17684 1.33818 0
M  V30 2366 C 222.999 5.15373 -0.847805 0
M  V30 2367 H 224.693 2.89639 -0.758244 0
M  V30 2368 H 222.239 1.39269 -0.366079 0
M  V30 2369 H 224.192 3.9629 1.43292 0
M  V30 2370 H 222.916 2.76025 1.74579 0
M  V30 2371 H 221.575 3.66123 -0.187042 0
M  V30 2372 H 221.223 4.56165 2.1195 0
M  V30 2373 H 220.923 5.80918 0.883659 0
M  V30 2374 H 222.447 5.82974 1.81586 0
M  V30 2375 H 223.861 5.7151 -0.452681 0
M  V30 2376 H 222.258 5.87407 -1.22773 0
M  V30 2377 H 223.328 4.5415 -1.69929 0
M  V30 2378 N 224.671 0.411399 1.52136 0
M  V30 2379 C 225.918 -0.163645 2.01838 0
M  V30 2380 C 226.246 -1.4495 1.29691 0
M  V30 2381 O 225.501 -1.91725 0.392431 0
M  V30 2382 C 225.8 -0.455872 3.54481 0
M  V30 2383 C 225.466 0.741055 4.44769 0
M  V30 2384 C 224.128 1.06936 4.69167 0
M  V30 2385 C 226.48 1.54075 4.97906 0
M  V30 2386 C 223.808 2.19851 5.43951 0
M  V30 2387 C 226.16 2.66067 5.73926 0
M  V30 2388 C 224.824 2.99381 5.96596 0
M  V30 2389 H 224.094 -0.0598821 0.738576 0
M  V30 2390 H 226.741 0.553283 1.83333 0
M  V30 2391 H 225.046 -1.2544 3.71177 0
M  V30 2392 H 226.743 -0.913802 3.90449 0
M  V30 2393 H 223.333 0.475192 4.25958 0
M  V30 2394 H 227.517 1.30033 4.78963 0
M  V30 2395 H 222.773 2.46006 5.59724 0
M  V30 2396 H 226.947 3.28419 6.14096 0
M  V30 2397 H 224.574 3.86992 6.54325 0
M  V30 2398 N 226.149 -1.5696 0.141893 0
M  V30 2399 C 227.395 -1.97034 -0.504884 0
M  V30 2400 C 227.75 -1.02518 -1.62812 0
M  V30 2401 O 227.043 -0.0592943 -1.91508 0
M  V30 2402 C 227.237 -3.41242 -1.06249 0
M  V30 2403 C 227.066 -4.497 0.00519653 0
M  V30 2404 C 225.836 -5.03338 0.444873 0
M  V30 2405 C 228.034 -5.08122 0.794767 0
M  V30 2406 N 226.016 -5.95395 1.49593 0
M  V30 2407 C 227.387 -5.96339 1.69645 0
M  V30 2408 C 229.442 -4.9071 0.843122 0
M  V30 2409 C 228.145 -6.69009 2.64233 0
M  V30 2410 C 230.171 -5.64077 1.77681 0
M  V30 2411 C 229.533 -6.51999 2.66603 0
M  V30 2412 H 225.632 -0.766745 -0.153707 0
M  V30 2413 H 228.216 -1.93273 0.235313 0
M  V30 2414 H 226.387 -3.45606 -1.77231 0
M  V30 2415 H 228.119 -3.68389 -1.67546 0
M  V30 2416 H 224.874 -4.73576 0.0480959 0
M  V30 2417 H 225.298 -6.46128 2.02107 0
M  V30 2418 H 229.94 -4.22459 0.169732 0
M  V30 2419 H 227.658 -7.36492 3.32575 0
M  V30 2420 H 231.244 -5.52602 1.81996 0
M  V30 2421 H 230.124 -7.07775 3.37675 0
M  V30 2422 N 227.627 0.131896 -1.57047 0
M  V30 2423 C 228.875 0.840269 -1.83804 0
M  V30 2424 C 229.196 1.81017 -0.72512 0
M  V30 2425 O 228.466 1.94272 0.251995 0
M  V30 2426 H 227.046 0.313294 -0.678127 0
M  V30 2427 H 229.708 0.122294 -1.94516 0
M  V30 2428 H 228.804 1.39335 -2.79271 0
M  V30 2429 N 229.106 1.52395 0.401703 0
M  V30 2430 C 230.354 1.66488 1.14569 0
M  V30 2431 C 230.675 0.400897 1.90835 0
M  V30 2432 O 229.945 -0.584415 1.8698 0
M  V30 2433 H 228.525 0.613672 0.425929 0
M  V30 2434 H 231.187 1.89464 0.457093 0
M  V30 2435 H 230.283 2.50942 1.85566 0
M  V30 2436 N 230.584 -0.659388 1.43143 0
M  V30 2437 C 231.83 -1.42145 1.44647 0
M  V30 2438 C 232.163 -1.9408 0.0681907 0
M  V30 2439 O 231.438 -1.71899 -0.910007 0
M  V30 2440 C 231.721 -2.60735 2.48373 0
M  V30 2441 C 231.574 -2.14332 3.95451 0
M  V30 2442 C 232.893 -3.62951 2.48906 0
M  V30 2443 H 230.012 -0.51552 0.526696 0
M  V30 2444 H 232.654 -0.748069 1.74654 0
M  V30 2445 H 230.804 -3.18184 2.22916 0
M  V30 2446 H 232.476 -1.61932 4.31944 0
M  V30 2447 H 230.719 -1.4576 4.08578 0
M  V30 2448 H 231.39 -2.99583 4.63631 0
M  V30 2449 H 233.866 -3.1525 2.71582 0
M  V30 2450 H 232.742 -4.43487 3.23435 0
M  V30 2451 H 233.003 -4.15126 1.52061 0
M  V30 2452 N 232.062 -1.29571 -0.897171 0
M  V30 2453 C 232.995 -1.0924 -2.00354 0
M  V30 2454 C 233.973 -0.00354011 -1.626 0
M  V30 2455 O 235.157 -0.15473 -1.87864 0
M  V30 2456 C 232.284 -0.66352 -3.32137 0
M  V30 2457 C 231.33 -1.75146 -3.88878 0
M  V30 2458 S 232.163 -3.35124 -4.17674 0
M  V30 2459 C 233.319 -2.9411 -5.52494 0
M  V30 2460 H 233.552 -2.02907 -2.17292 0
M  V30 2461 H 231.085 -1.13746 -1.04408 0
M  V30 2462 H 233.043 -0.422791 -4.08317 0
M  V30 2463 H 231.704 0.253588 -3.13075 0
M  V30 2464 H 230.897 -1.40337 -4.84068 0
M  V30 2465 H 230.499 -1.94584 -3.19395 0
M  V30 2466 H 232.791 -2.41312 -6.33068 0
M  V30 2467 H 233.734 -3.88161 -5.9223 0
M  V30 2468 H 234.142 -2.32332 -5.14473 0
M  V30 2469 N 233.54 1.10788 -1.12088 0
M  V30 2470 C 234.787 1.82671 -0.873931 0
M  V30 2471 C 235.115 1.85004 0.600311 0
M  V30 2472 O 234.37 1.30365 1.45957 0
M  V30 2473 C 234.669 3.29294 -1.38926 0
M  V30 2474 C 234.335 3.47113 -2.87791 0
M  V30 2475 C 232.997 3.51684 -3.28439 0
M  V30 2476 C 235.349 3.52808 -3.83635 0
M  V30 2477 C 232.677 3.59513 -4.63646 0
M  V30 2478 C 235.029 3.62169 -5.18668 0
M  V30 2479 C 233.693 3.65003 -5.58864 0
M  V30 2480 H 232.963 0.668441 -0.319794 0
M  V30 2481 H 235.61 1.30613 -1.40045 0
M  V30 2482 H 233.915 3.83894 -0.783122 0
M  V30 2483 H 235.612 3.83416 -1.17443 0
M  V30 2484 H 232.202 3.4423 -2.5535 0
M  V30 2485 H 236.386 3.4853 -3.53328 0
M  V30 2486 H 231.642 3.59987 -4.94185 0
M  V30 2487 H 235.816 3.6552 -5.92763 0
M  V30 2488 H 233.443 3.70822 -6.63623 0
M  V30 2489 N 235.018 0.912232 1.28515 0
M  V30 2490 C 236.248 0.559604 1.98877 0
M  V30 2491 C 236.656 -0.863113 1.68366 0
M  V30 2492 O 235.999 -1.58304 0.931969 0
M  V30 2493 C 236.061 0.68703 3.52874 0
M  V30 2494 C 235.725 2.07901 4.06972 0
M  V30 2495 C 236.722 3.05157 4.20922 0
M  V30 2496 C 234.407 2.39178 4.417 0
M  V30 2497 C 236.401 4.31806 4.68852 0
M  V30 2498 C 234.088 3.66068 4.89324 0
M  V30 2499 C 235.086 4.62195 5.02856 0
M  V30 2500 O 234.774 5.86829 5.49442 0
M  V30 2501 H 234.506 0.212191 0.641834 0
M  V30 2502 H 237.06 1.22712 1.64715 0
M  V30 2503 H 235.29 -0.0375486 3.86682 0
M  V30 2504 H 236.979 0.341727 4.04459 0
M  V30 2505 H 237.745 2.82311 3.94367 0
M  V30 2506 H 233.624 1.65109 4.30418 0
M  V30 2507 H 237.168 5.06842 4.79329 0
M  V30 2508 H 233.065 3.88739 5.15318 0
M  V30 2509 H 233.833 5.89597 5.6773 0
M  V30 2510 N 236.496 -1.42363 0.676048 0
M  V30 2511 C 237.426 -2.33497 0.0124832 0
M  V30 2512 C 238.407 -1.50748 -0.787981 0
M  V30 2513 O 239.592 -1.79346 -0.744884 0
M  V30 2514 C 236.722 -3.34377 -0.938582 0
M  V30 2515 C 235.676 -4.27289 -0.246622 0
M  V30 2516 C 235.002 -5.18386 -1.31071 0
M  V30 2517 C 236.302 -5.14916 0.875125 0
M  V30 2518 H 237.996 -2.89233 0.773593 0
M  V30 2519 H 235.542 -1.39073 0.37346 0
M  V30 2520 H 237.495 -3.97044 -1.41188 0
M  V30 2521 H 236.219 -2.76947 -1.73113 0
M  V30 2522 H 234.878 -3.66018 0.206456 0
M  V30 2523 H 234.526 -4.57282 -2.09528 0
M  V30 2524 H 234.226 -5.81378 -0.852839 0
M  V30 2525 H 235.75 -5.83929 -1.78492 0
M  V30 2526 H 237.164 -5.71262 0.482983 0
M  V30 2527 H 235.561 -5.86747 1.25887 0
M  V30 2528 H 236.631 -4.53242 1.72335 0
M  V30 2529 N 237.974 -0.419461 -1.51915 0
M  V30 2530 C 238.904 0.391813 -2.30189 0
M  V30 2531 C 239.885 1.03699 -1.34836 0
M  V30 2532 O 241.07 1.04403 -1.63748 0
M  V30 2533 C 238.2 1.50312 -3.13087 0
M  V30 2534 C 237.154 0.9824 -4.16573 0
M  V30 2535 C 236.48 2.18809 -4.8788 0
M  V30 2536 C 237.78 0.0292356 -5.22292 0
M  V30 2537 H 239.474 -0.26135 -2.98257 0
M  V30 2538 H 237.02 -0.127134 -1.43438 0
M  V30 2539 H 238.973 2.07773 -3.66617 0
M  V30 2540 H 237.697 2.18431 -2.42807 0
M  V30 2541 H 236.356 0.430119 -3.64068 0
M  V30 2542 H 236.004 2.85507 -4.14119 0
M  V30 2543 H 235.704 1.84615 -5.57845 0
M  V30 2544 H 237.228 2.76858 -5.44226 0
M  V30 2545 H 238.642 0.512976 -5.71 0
M  V30 2546 H 237.039 -0.2244 -5.9968 0
M  V30 2547 H 238.109 -0.912931 -4.76228 0
M  V30 2548 N 239.452 1.56882 -0.150215 0
M  V30 2549 C 240.382 2.19935 0.784284 0
M  V30 2550 C 241.363 1.14854 1.25469 0
M  V30 2551 O 242.548 1.43209 1.31168 0
M  V30 2552 C 239.678 2.82349 2.02229 0
M  V30 2553 C 238.632 3.93285 1.68853 0
M  V30 2554 C 237.958 4.42649 2.99944 0
M  V30 2555 C 239.258 5.13904 0.932714 0
M  V30 2556 H 240.952 2.9828 0.258781 0
M  V30 2557 H 238.498 1.43473 0.123029 0
M  V30 2558 H 240.451 3.25126 2.68088 0
M  V30 2559 H 239.175 2.0134 2.57157 0
M  V30 2560 H 237.834 3.5113 1.05371 0
M  V30 2561 H 237.482 3.58458 3.52869 0
M  V30 2562 H 237.182 5.17476 2.78374 0
M  V30 2563 H 238.706 4.88099 3.66868 0
M  V30 2564 H 240.12 5.53506 1.49345 0
M  V30 2565 H 238.517 5.94515 0.81684 0
M  V30 2566 H 239.587 4.84842 -0.0749568 0
M  V30 2567 N 240.93 -0.123565 1.57115 0
M  V30 2568 C 241.877 -1.15177 2.00007 0
M  V30 2569 C 242.847 -1.41403 0.871454 0
M  V30 2570 O 244.032 -1.53346 1.13533 0
M  V30 2571 C 241.172 -2.47436 2.40561 0
M  V30 2572 C 240.285 -2.28184 3.66819 0
M  V30 2573 C 239.42 -3.53641 3.96373 0
M  V30 2574 C 238.459 -3.29528 5.15827 0
M  V30 2575 N 237.596 -4.47175 5.41275 0
M  V30 2576 H 242.436 -0.779008 2.87638 0
M  V30 2577 H 239.973 -0.373166 1.42288 0
M  V30 2578 H 241.931 -3.24584 2.62109 0
M  V30 2579 H 240.561 -2.82614 1.55978 0
M  V30 2580 H 239.613 -1.41976 3.52912 0
M  V30 2581 H 240.925 -2.0634 4.5412 0
M  V30 2582 H 240.079 -4.39209 4.18545 0
M  V30 2583 H 238.818 -3.78512 3.07538 0
M  V30 2584 H 237.823 -2.42349 4.93505 0
M  V30 2585 H 239.048 -3.06031 6.06236 0
M  V30 2586 H 236.994 -4.72175 4.55397 0
M  V30 2587 H 236.911 -4.28419 6.22891 0
M  V30 2588 H 238.179 -5.3389 5.67963 0
M  V30 2589 N 242.408 -1.52605 -0.393616 0
M  V30 2590 C 243.824 -1.41753 -0.733357 0
M  V30 2591 C 244.024 -0.534293 -1.94287 0
M  V30 2592 O 243.08 -0.0059787 -2.52499 0
M  V30 2593 C 244.393 -2.84531 -0.972772 0
M  V30 2594 C 245.941 -2.93978 -1.07453 0
M  V30 2595 C 246.416 -4.37756 -1.3466 0
M  V30 2596 N 247.907 -4.4106 -1.41492 0
M  V30 2597 C 248.642 -5.49387 -1.642 0
M  V30 2598 N 248.138 -6.67806 -1.8441 0
M  V30 2599 N 249.931 -5.36923 -1.66342 0
M  V30 2600 H 242.082 -2.08555 0.402328 0
M  V30 2601 H 244.345 -0.940654 0.117789 0
M  V30 2602 H 244.051 -3.51353 -0.156204 0
M  V30 2603 H 243.925 -3.26508 -1.88871 0
M  V30 2604 H 246.312 -2.27326 -1.88167 0
M  V30 2605 H 246.393 -2.55435 -0.136605 0
M  V30 2606 H 246.037 -5.04972 -0.544581 0
M  V30 2607 H 245.967 -4.73848 -2.2973 0
M  V30 2608 H 248.458 -3.55705 -1.27601 0
M  V30 2609 H 248.771 -7.46141 -2.01231 0
M  V30 2610 H 247.116 -6.70843 -1.81644 0
M  V30 2611 H 250.307 -4.43381 -1.50102 0
M  V30 2612 H 250.48 -6.21416 -1.837 0
M  V30 2613 N 243.887 0.651787 -1.4349 0
M  V30 2614 C 245.112 1.44434 -1.48841 0
M  V30 2615 C 245.537 1.8779 -0.107955 0
M  V30 2616 O 244.895 1.57464 0.898602 0
M  V30 2617 C 244.943 2.65458 -2.44059 0
M  V30 2618 O 244.047 3.64566 -1.92784 0
M  V30 2619 H 243.388 0.433005 -0.503391 0
M  V30 2620 H 245.918 0.797451 -1.88419 0
M  V30 2621 H 245.928 3.13255 -2.6141 0
M  V30 2622 H 244.603 2.33244 -3.4434 0
M  V30 2623 H 243.18 3.23716 -1.851 0
M  V30 2624 N 245.365 1.30045 0.890287 0
M  V30 2625 C 246.613 1.18327 1.63839 0
M  V30 2626 C 246.934 -0.263455 1.93212 0
M  V30 2627 O 246.204 -1.17856 1.56482 0
M  V30 2628 H 244.784 0.434933 0.607324 0
M  V30 2629 H 247.446 1.631 1.06698 0
M  V30 2630 H 246.542 1.74024 2.59079 0
M  V30 2631 N 246.843 -1.10192 1.12674 0
M  V30 2632 C 248.259 -1.34235 0.863317 0
M  V30 2633 C 248.459 -1.95062 -0.505277 0
M  V30 2634 O 247.515 -2.19192 -1.25345 0
M  V30 2635 C 248.828 -2.2616 1.98172 0
M  V30 2636 C 250.376 -2.3969 2.0129 0
M  V30 2637 C 250.851 -3.34946 3.1237 0
M  V30 2638 N 252.342 -3.42515 3.11829 0
M  V30 2639 C 253.077 -4.16199 3.94419 0
M  V30 2640 N 252.573 -4.92747 4.87004 0
M  V30 2641 N 254.366 -4.11843 3.82547 0
M  V30 2642 H 246.517 -0.690798 2.00853 0
M  V30 2643 H 248.78 -0.366774 0.874174 0
M  V30 2644 H 248.486 -1.8868 2.96804 0
M  V30 2645 H 248.36 -3.26488 1.88906 0
M  V30 2646 H 250.747 -2.76438 1.03276 0
M  V30 2647 H 250.828 -1.39169 2.14629 0
M  V30 2648 H 250.472 -2.98923 4.10619 0
M  V30 2649 H 250.402 -4.35353 2.96269 0
M  V30 2650 H 252.893 -2.87926 2.44759 0
M  V30 2651 H 253.206 -5.46376 5.46528 0
M  V30 2652 H 251.551 -4.91862 4.91016 0
M  V30 2653 H 254.742 -3.51136 3.0955 0
M  V30 2654 H 254.915 -4.69007 4.47142 0
M  V30 2655 N 248.321 -0.919034 -1.28029 0
M  V30 2656 C 249.231 -0.416756 -2.30869 0
M  V30 2657 C 250.247 0.498235 -1.66714 0
M  V30 2658 O 251.423 0.383144 -1.97722 0
M  V30 2659 C 248.488 0.330274 -3.45123 0
M  V30 2660 C 247.549 -0.618578 -4.2482 0
M  V30 2661 C 246.782 0.0928959 -5.33619 0
M  V30 2662 O 247.005 1.31375 -5.55065 0
M  V30 2663 O 245.939 -0.574499 -5.99152 0
M  V30 2664 H 249.765 -1.27043 -2.75851 0
M  V30 2665 H 247.35 -0.684052 -1.3282 0
M  V30 2666 H 249.232 0.751972 -4.14636 0
M  V30 2667 H 247.907 1.1597 -3.02213 0
M  V30 2668 H 246.814 -1.08978 -3.57875 0
M  V30 2669 H 248.147 -1.41497 -4.71423 0
M  V30 2670 N 249.799 1.42003 -0.683588 0
M  V30 2671 C 251.048 2.00638 -0.206681 0
M  V30 2672 C 251.361 1.5472 1.19671 0
M  V30 2673 O 252.567 2.05833 1.77045 0
M  V30 2674 C 251.023 3.58487 -0.318632 0
M  V30 2675 C 250.631 4.1339 -1.72663 0
M  V30 2676 C 252.375 4.24384 0.0991141 0
M  V30 2677 C 250.282 5.63633 -1.79087 0
M  V30 2678 H 249.212 0.750408 -0.0735107 0
M  V30 2679 H 251.863 1.62624 -0.850048 0
M  V30 2680 H 250.245 3.94047 0.392781 0
M  V30 2681 H 251.419 3.89273 -2.46583 0
M  V30 2682 H 249.734 3.59976 -2.09299 0
M  V30 2683 H 252.331 5.34652 0.0713833 0
M  V30 2684 H 252.674 4.00505 1.13586 0
M  V30 2685 H 253.207 3.93816 -0.561599 0
M  V30 2686 H 249.946 5.92323 -2.80774 0
M  V30 2687 H 249.466 5.89714 -1.09535 0
M  V30 2688 H 251.145 6.28201 -1.5483 0
M  V30 2689 N 251.277 0.427512 1.51691 0
M  V30 2690 C 252.505 -0.141191 2.06418 0
M  V30 2691 C 252.92 -1.37303 1.29589 0
M  V30 2692 O 252.277 -1.79059 0.352732 0
M  V30 2693 C 252.328 -0.473266 3.58389 0
M  V30 2694 O 252.049 0.709673 4.32314 0
M  V30 2695 C 253.55 -1.09371 4.29596 0
M  V30 2696 H 250.77 -0.0122747 0.670888 0
M  V30 2697 H 253.314 0.603764 1.95384 0
M  V30 2698 H 251.469 -1.16812 3.69369 0
M  V30 2699 H 251.883 0.42807 5.2275 0
M  V30 2700 H 253.357 -1.27613 5.37046 0
M  V30 2701 H 253.834 -2.072 3.87253 0
M  V30 2702 H 254.44 -0.43853 4.23033 0
M  V30 2703 N 252.755 -1.56801 0.158532 0
M  V30 2704 C 254.001 -1.97559 -0.483957 0
M  V30 2705 C 254.356 -1.04239 -1.61716 0
M  V30 2706 O 253.649 -0.079603 -1.91435 0
M  V30 2707 C 253.843 -3.4235 -1.02623 0
M  V30 2708 C 253.672 -4.49669 0.0528929 0
M  V30 2709 C 252.442 -5.02838 0.498234 0
M  V30 2710 C 254.64 -5.0725 0.848616 0
M  V30 2711 N 252.622 -5.93775 1.559 0
M  V30 2712 C 253.993 -5.94506 1.7596 0
M  V30 2713 C 256.048 -4.89788 0.895121 0
M  V30 2714 C 254.751 -6.66169 2.71314 0
M  V30 2715 C 256.777 -5.62161 1.83654 0
M  V30 2716 C 256.139 -6.49134 2.73503 0
M  V30 2717 H 252.238 -0.768332 -0.145566 0
M  V30 2718 H 254.822 -1.93012 0.255799 0
M  V30 2719 H 252.993 -3.47467 -1.73555 0
M  V30 2720 H 254.725 -3.70145 -1.63629 0
M  V30 2721 H 251.48 -4.73498 0.0983222 0
M  V30 2722 H 251.904 -6.43948 2.08949 0
M  V30 2723 H 256.546 -4.22255 0.21453 0
M  V30 2724 H 254.264 -7.32923 3.40367 0
M  V30 2725 H 257.85 -5.5064 1.87847 0
M  V30 2726 H 256.73 -7.04153 3.45163 0
M  V30 2727 N 254.233 0.115231 -1.57178 0
M  V30 2728 C 255.18 1.14115 -2.00615 0
M  V30 2729 C 256.15 1.40939 -0.878941 0
M  V30 2730 O 257.335 1.52741 -1.14345 0
M  V30 2731 C 254.475 2.46156 -2.4187 0
M  V30 2732 C 253.588 2.26236 -3.68024 0
M  V30 2733 C 252.723 3.51534 -3.98243 0
M  V30 2734 C 251.762 3.26787 -5.17568 0
M  V30 2735 N 250.899 4.44298 -5.43639 0
M  V30 2736 H 255.739 0.763743 -2.88047 0
M  V30 2737 H 253.276 0.365615 -1.42484 0
M  V30 2738 H 255.234 3.23189 -2.63827 0
M  V30 2739 H 253.864 2.81783 -1.57475 0
M  V30 2740 H 252.916 1.40102 -3.5366 0
M  V30 2741 H 254.228 2.03929 -4.55208 0
M  V30 2742 H 253.382 4.36984 -4.20868 0
M  V30 2743 H 252.121 3.76876 -3.09541 0
M  V30 2744 H 251.126 2.39729 -4.94783 0
M  V30 2745 H 252.351 3.02812 -6.0785 0
M  V30 2746 H 250.297 4.69754 -4.57895 0
M  V30 2747 H 250.214 4.25109 -6.25154 0
M  V30 2748 H 251.482 5.3087 -5.70786 0
M  V30 2749 N 255.711 1.52812 0.385517 0
M  V30 2750 C 256.988 1.5861 1.14465 0
M  V30 2751 C 257.368 0.381402 2.07626 0
M  V30 2752 O 256.716 -0.629999 2.19643 0
M  V30 2753 C 256.926 2.92664 1.90128 0
M  V30 2754 C 258.274 3.46526 2.45367 0
M  V30 2755 O 259.298 2.94562 2.0028 0
M  V30 2756 O 258.157 4.37323 3.27736 0
M  V30 2757 H 255.251 0.639855 0.523941 0
M  V30 2758 H 257.797 1.65149 0.390389 0
M  V30 2759 H 256.569 3.71788 1.22022 0
M  V30 2760 H 256.192 2.89527 2.72507 0
M  V30 2761 N 257.189 -0.644168 1.43834 0
M  V30 2762 C 258.436 -1.40395 1.4593 0
M  V30 2763 C 258.764 -1.94305 0.0869658 0
M  V30 2764 O 258.019 -1.73288 -0.909378 0
M  V30 2765 C 258.318 -2.59615 2.45631 0
M  V30 2766 C 257.984 -2.2407 3.91284 0
M  V30 2767 C 256.646 -2.14089 4.30952 0
M  V30 2768 C 258.998 -1.95775 4.83034 0
M  V30 2769 C 256.326 -1.73981 5.6031 0
M  V30 2770 C 258.678 -1.57163 6.12766 0
M  V30 2771 C 257.342 -1.45713 6.51402 0
M  V30 2772 H 256.612 -0.513741 0.533995 0
M  V30 2773 H 259.259 -0.731724 1.76969 0
M  V30 2774 H 257.564 -3.32011 2.08028 0
M  V30 2775 H 259.261 -3.17834 2.44504 0
M  V30 2776 H 255.851 -2.32753 3.59895 0
M  V30 2777 H 260.035 -2.02403 4.53152 0
M  V30 2778 H 255.291 -1.63709 5.89075 0
M  V30 2779 H 259.465 -1.34303 6.83327 0
M  V30 2780 H 257.092 -1.14406 7.51542 0
M  V30 2781 N 258.668 -1.30515 -0.883378 0
M  V30 2782 C 259.914 -1.19607 -1.63774 0
M  V30 2783 C 260.247 0.248314 -1.92606 0
M  V30 2784 O 259.522 1.17742 -1.54813 0
M  V30 2785 C 259.805 -2.02669 -2.97653 0
M  V30 2786 C 259.658 -3.55335 -2.75784 0
M  V30 2787 C 260.977 -1.86573 -3.98596 0
M  V30 2788 H 258.096 -0.435856 -0.594305 0
M  V30 2789 H 260.738 -1.60165 -1.02212 0
M  V30 2790 H 258.888 -1.68208 -3.50197 0
M  V30 2791 H 260.56 -3.99863 -2.30016 0
M  V30 2792 H 258.803 -3.79438 -2.1026 0
M  V30 2793 H 259.474 -4.08745 -3.70988 0
M  V30 2794 H 261.95 -2.16703 -3.55217 0
M  V30 2795 H 260.826 -2.47014 -4.90179 0
M  V30 2796 H 261.087 -0.825321 -4.34328 0
M  V30 2797 N 260.146 1.09593 -1.13257 0
M  V30 2798 C 261.094 2.18271 -0.803783 0
M  V30 2799 C 262.088 1.68054 0.213148 0
M  V30 2800 O 263.294 1.79862 0.0704699 0
M  V30 2801 H 259.669 0.711949 -0.242143 0
M  V30 2802 H 261.64 2.43235 -1.72856 0
M  V30 2803 C 260.389 3.46536 -0.28424 0
M  V30 2804 H 259.712 3.85545 -1.05807 0
M  V30 2805 H 261.152 4.23899 -0.0925945 0
M  V30 2806 C 259.611 3.22036 0.989684 0
M  V30 2807 O 260.141 3.44509 2.06584 0
M  V30 2808 N 258.347 2.7565 0.920086 0
M  V30 2809 H 257.894 2.57562 0.0442019 0
M  V30 2810 H 257.852 2.59635 1.77306 0
M  V30 2811 N 261.624 0.925811 1.2754 0
M  V30 2812 C 262.572 0.413897 2.28888 0
M  V30 2813 C 263.566 -0.500779 1.61829 0
M  V30 2814 O 264.772 -0.38069 1.75928 0
M  V30 2815 H 261.147 0.115274 0.743112 0
M  V30 2816 H 263.118 1.28151 2.69481 0
M  V30 2817 C 261.867 -0.319792 3.46226 0
M  V30 2818 H 261.19 0.374846 3.98039 0
M  V30 2819 H 262.63 -0.642435 4.19105 0
M  V30 2820 C 261.089 -1.53209 3.00048 0
M  V30 2821 O 261.619 -2.6309 3.03557 0
M  V30 2822 N 259.825 -1.38326 2.55566 0
M  V30 2823 H 259.372 -0.489292 2.5291 0
M  V30 2824 H 259.33 -2.19564 2.25031 0
M  V30 2825 N 263.102 -1.41638 0.69111 0
M  V30 2826 C 264.332 -2.0533 0.228758 0
M  V30 2827 C 264.74 -1.52089 -1.12541 0
M  V30 2828 O 264.083 -0.662145 -1.71351 0
M  V30 2829 C 264.145 -3.59349 0.10407 0
M  V30 2830 C 263.809 -4.35362 1.38956 0
M  V30 2831 C 264.806 -4.64942 2.32648 0
M  V30 2832 C 262.491 -4.74714 1.64169 0
M  V30 2833 C 264.485 -5.32828 3.49818 0
M  V30 2834 C 262.172 -5.42338 2.81625 0
M  V30 2835 C 263.17 -5.71322 3.74273 0
M  V30 2836 O 262.858 -6.37554 4.89673 0
M  V30 2837 H 262.59 -0.667796 0.104997 0
M  V30 2838 H 265.144 -1.82477 0.942938 0
M  V30 2839 H 263.374 -3.80924 -0.665839 0
M  V30 2840 H 265.063 -4.04633 -0.320519 0
M  V30 2841 H 265.829 -4.35025 2.14425 0
M  V30 2842 H 261.708 -4.51538 0.929202 0
M  V30 2843 H 265.252 -5.55368 4.22152 0
M  V30 2844 H 261.149 -5.71673 2.99768 0
M  V30 2845 H 261.917 -6.56049 4.8943 0
M  V30 2846 N 264.58 -0.43555 -1.51462 0
M  V30 2847 C 265.51 0.367376 -2.30592 0
M  V30 2848 C 266.491 1.02263 -1.35928 0
M  V30 2849 O 267.676 1.02661 -1.64847 0
M  V30 2850 C 264.806 1.46983 -3.14664 0
M  V30 2851 C 263.76 0.938161 -4.17591 0
M  V30 2852 C 263.086 2.13622 -4.90173 0
M  V30 2853 C 264.386 -0.0261621 -5.22293 0
M  V30 2854 H 266.08 -0.292969 -2.97963 0
M  V30 2855 H 263.626 -0.14234 -1.43295 0
M  V30 2856 H 265.579 2.03873 -3.688 0
M  V30 2857 H 264.303 2.15843 -2.4511 0
M  V30 2858 H 262.962 0.391481 -3.64504 0
M  V30 2859 H 262.61 2.81098 -4.17124 0
M  V30 2860 H 262.31 1.78688 -5.59772 0
M  V30 2861 H 263.834 2.7107 -5.47132 0
M  V30 2862 H 265.248 0.452384 -5.71512 0
M  V30 2863 H 263.645 -0.287992 -5.99409 0
M  V30 2864 H 264.715 -0.963391 -4.75233 0
M  V30 2865 N 266.058 1.56714 -0.166846 0
M  V30 2866 C 267.283 2.01557 0.488833 0
M  V30 2867 C 267.708 1.0463 1.56314 0
M  V30 2868 O 267.066 0.0251304 1.81283 0
M  V30 2869 C 267.114 3.4503 1.04818 0
M  V30 2870 O 266.218 3.51163 2.16236 0
M  V30 2871 H 265.559 0.653516 0.117526 0
M  V30 2872 H 268.089 2.02818 -0.269421 0
M  V30 2873 H 268.099 3.84243 1.37191 0
M  V30 2874 H 266.774 4.15077 0.261572 0
M  V30 2875 H 265.351 3.23807 1.84942 0
M  V30 2876 N 267.536 -0.106894 1.57237 0
M  V30 2877 C 268.483 -1.13049 2.01217 0
M  V30 2878 C 269.453 -1.40471 0.886403 0
M  V30 2879 O 270.638 -1.52133 1.15153 0
M  V30 2880 C 267.778 -2.4487 2.43172 0
M  V30 2881 C 266.891 -2.24281 3.69218 0
M  V30 2882 C 266.026 -3.49417 4.00101 0
M  V30 2883 C 265.065 -3.24038 5.19294 0
M  V30 2884 N 264.202 -4.41409 5.45988 0
M  V30 2885 H 269.042 -0.748456 2.88448 0
M  V30 2886 H 266.579 -0.358054 1.42676 0
M  V30 2887 H 268.537 -3.21786 2.65537 0
M  V30 2888 H 267.167 -2.80944 1.58967 0
M  V30 2889 H 266.219 -1.38224 3.54398 0
M  V30 2890 H 267.531 -2.01512 4.56283 0
M  V30 2891 H 266.685 -4.34746 4.2318 0
M  V30 2892 H 265.424 -3.75229 3.11535 0
M  V30 2893 H 264.429 -2.37102 4.96047 0
M  V30 2894 H 265.654 -2.99584 6.09447 0
M  V30 2895 H 263.6 -4.67319 4.60379 0
M  V30 2896 H 263.517 -4.21788 6.274 0
M  V30 2897 H 264.785 -5.27836 5.73593 0
M  V30 2898 N 269.014 -1.53014 -0.377408 0
M  V30 2899 C 270.262 -1.6829 -1.11906 0
M  V30 2900 C 270.583 -0.431206 -1.90173 0
M  V30 2901 O 269.853 0.554595 -1.87886 0
M  V30 2902 H 268.433 -0.620371 -0.416112 0
M  V30 2903 H 271.095 -1.90167 -0.426893 0
M  V30 2904 H 270.191 -2.53862 -1.8155 0
M  V30 2905 N 270.492 0.636531 -1.44174 0
M  V30 2906 C 271.738 1.39826 -1.4689 0
M  V30 2907 C 272.071 1.93947 -0.0990585 0
M  V30 2908 O 271.346 1.73325 0.882544 0
M  V30 2909 C 271.629 2.56751 -2.5249 0
M  V30 2910 C 271.482 2.08014 -3.98811 0
M  V30 2911 C 272.801 3.58946 -2.54649 0
M  V30 2912 H 269.92 0.507075 -0.53483 0
M  V30 2913 H 272.562 0.720188 -1.75822 0
M  V30 2914 H 270.712 3.14597 -2.2795 0
M  V30 2915 H 272.384 1.5504 -4.34466 0
M  V30 2916 H 270.627 1.39242 -4.10846 0
M  V30 2917 H 271.298 2.92169 -4.68339 0
M  V30 2918 H 273.774 3.1089 -2.76563 0
M  V30 2919 H 272.65 4.38286 -3.3045 0
M  V30 2920 H 272.911 4.12655 -1.58646 0
M  V30 2921 N 271.97 1.30982 0.876444 0
M  V30 2922 C 273.216 1.20474 1.63138 0
M  V30 2923 C 273.549 -0.238096 1.92735 0
M  V30 2924 O 272.824 -1.1692 1.55435 0
M  V30 2925 C 273.107 2.04244 2.96574 0
M  V30 2926 C 272.96 3.56793 2.73896 0
M  V30 2927 C 274.279 1.88684 3.97601 0
M  V30 2928 H 271.398 0.439001 0.591985 0
M  V30 2929 H 274.04 1.60704 1.01361 0
M  V30 2930 H 272.19 1.70063 3.493 0
M  V30 2931 H 273.862 4.01077 2.27892 0
M  V30 2932 H 272.105 3.80548 2.08245 0
M  V30 2933 H 272.776 4.10706 3.68815 0
M  V30 2934 H 275.252 2.18584 3.54062 0
M  V30 2935 H 274.128 2.4961 4.88862 0
M  V30 2936 H 274.389 0.848343 4.33884 0
M  V30 2937 N 273.449 -1.08991 1.13837 0
M  V30 2938 C 274.726 -1.77863 0.813876 0
M  V30 2939 C 275.106 -1.99375 -0.693746 0
M  V30 2940 O 274.454 -1.59875 -1.63255 0
M  V30 2941 C 274.664 -3.0986 1.60586 0
M  V30 2942 C 276.012 -3.84493 1.8014 0
M  V30 2943 O 277.036 -3.19624 1.57222 0
M  V30 2944 O 275.895 -5.00957 2.18413 0
M  V30 2945 H 272.989 -0.771589 0.297624 0
M  V30 2946 H 275.535 -1.15507 1.24323 0
M  V30 2947 H 274.307 -2.89715 2.63022 0
M  V30 2948 H 273.93 -3.79942 1.17173 0
M  V30 2949 N 274.927 -0.932562 -1.27047 0
M  V30 2950 C 276.343 -0.633544 -1.46487 0
M  V30 2951 C 276.543 0.815746 -1.84249 0
M  V30 2952 O 275.599 1.59319 -1.95892 0
M  V30 2953 C 276.912 -1.58758 -2.55375 0
M  V30 2954 C 278.46 -1.59634 -2.69232 0
M  V30 2955 C 278.935 -2.53747 -3.81283 0
M  V30 2956 N 280.426 -2.51982 -3.88664 0
M  V30 2957 C 281.161 -3.21491 -4.74796 0
M  V30 2958 N 280.657 -4.00395 -5.65381 0
M  V30 2959 N 282.45 -3.10485 -4.68568 0
M  V30 2960 H 274.601 -1.86946 -1.00821 0
M  V30 2961 H 276.864 -0.802897 -0.504044 0
M  V30 2962 H 276.57 -2.62172 -2.34432 0
M  V30 2963 H 276.444 -1.33301 -3.52861 0
M  V30 2964 H 278.831 -0.569488 -2.89553 0
M  V30 2965 H 278.912 -1.89142 -1.72218 0
M  V30 2966 H 278.556 -3.56545 -3.61715 0
M  V30 2967 H 278.486 -2.21532 -4.77735 0
M  V30 2968 H 280.977 -1.94681 -3.23895 0
M  V30 2969 H 281.29 -4.50406 -6.27976 0
M  V30 2970 H 279.635 -4.04498 -5.65161 0
M  V30 2971 H 282.826 -2.48331 -3.96799 0
M  V30 2972 H 282.999 -3.64925 -5.35475 0
M  V30 2973 N 276.405 1.4127 -0.698611 0
M  V30 2974 C 277.335 2.33447 -0.049629 0
M  V30 2975 C 278.316 1.51982 0.763898 0
M  V30 2976 O 279.501 1.80509 0.716257 0
M  V30 2977 C 276.631 3.35828 0.885267 0
M  V30 2978 C 275.585 4.27627 0.178613 0
M  V30 2979 C 274.911 5.20406 1.22807 0
M  V30 2980 C 276.211 5.13459 -0.956933 0
M  V30 2981 H 277.905 2.87966 -0.81951 0
M  V30 2982 H 275.451 1.38461 -0.395538 0
M  V30 2983 H 277.404 3.9924 1.34854 0
M  V30 2984 H 276.128 2.79666 1.68685 0
M  V30 2985 H 274.787 3.65643 -0.26466 0
M  V30 2986 H 274.435 4.60558 2.02226 0
M  V30 2987 H 274.135 5.82661 0.760239 0
M  V30 2988 H 275.659 5.86695 1.69179 0
M  V30 2989 H 277.073 5.70421 -0.573805 0
M  V30 2990 H 275.47 5.8467 -1.35205 0
M  V30 2991 H 276.54 4.50443 -1.79524 0
M  V30 2992 N 277.883 0.443576 1.51229 0
M  V30 2993 C 278.793 -0.370721 2.31652 0
M  V30 2994 C 279.809 -1.02186 1.40833 0
M  V30 2995 O 280.985 -1.01586 1.73903 0
M  V30 2996 C 278.05 -1.45376 3.14749 0
M  V30 2997 C 277.111 -0.822099 4.21355 0
M  V30 2998 C 276.344 -1.85353 5.0048 0
M  V30 2999 O 276.567 -3.07656 4.80316 0
M  V30 3000 O 275.501 -1.4406 5.84406 0
M  V30 3001 H 279.327 0.286002 3.0235 0
M  V30 3002 H 276.912 0.20598 1.47973 0
M  V30 3003 H 278.794 -2.08173 3.66391 0
M  V30 3004 H 277.469 -2.09445 2.46809 0
M  V30 3005 H 276.376 -0.155909 3.73775 0
M  V30 3006 H 277.709 -0.224797 4.91686 0
M  V30 3007 N 279.361 -1.56624 0.175154 0
M  V30 3008 C 280.607 -1.9729 -0.469506 0
M  V30 3009 C 280.94 -1.06128 -1.62636 0
M  V30 3010 O 280.215 -0.109183 -1.94193 0
M  V30 3011 C 280.498 -3.47375 -0.948804 0
M  V30 3012 C 280.351 -4.49317 0.208491 0
M  V30 3013 C 281.67 -4.00652 -1.82116 0
M  V30 3014 H 278.789 -0.717317 -0.16919 0
M  V30 3015 H 281.431 -1.88184 0.262062 0
M  V30 3016 H 279.581 -3.55267 -1.57219 0
M  V30 3017 H 281.253 -4.53482 0.845682 0
M  V30 3018 H 279.496 -4.25121 0.863395 0
M  V30 3019 H 280.167 -5.51741 -0.169059 0
M  V30 3020 H 282.643 -3.95416 -1.2956 0
M  V30 3021 H 281.519 -5.06075 -2.12554 0
M  V30 3022 H 281.78 -3.44699 -2.7683 0
M  V30 3023 N 280.839 0.0985539 -1.57292 0
M  V30 3024 C 282.085 0.803867 -1.86188 0
M  V30 3025 C 282.418 1.78549 -0.763794 0
M  V30 3026 O 281.693 1.93153 0.22855 0
M  V30 3027 C 281.976 1.53568 -3.25713 0
M  V30 3028 C 281.829 0.572277 -4.46145 0
M  V30 3029 C 283.148 2.48708 -3.63087 0
M  V30 3030 H 280.267 0.290781 -0.677211 0
M  V30 3031 H 282.909 0.0675783 -1.8988 0
M  V30 3032 H 281.059 2.16332 -3.22696 0
M  V30 3033 H 282.731 -0.0480894 -4.61275 0
M  V30 3034 H 280.974 -0.114618 -4.33649 0
M  V30 3035 H 281.645 1.12139 -5.40489 0
M  V30 3036 H 284.121 1.96039 -3.67026 0
M  V30 3037 H 282.997 2.96932 -4.61652 0
M  V30 3038 H 283.258 3.32309 -2.91588 0
M  V30 3039 N 282.317 1.53212 0.369288 0
M  V30 3040 C 283.265 1.80054 1.47253 0
M  V30 3041 C 284.259 0.669456 1.55611 0
M  V30 3042 O 285.465 0.852328 1.58541 0
M  V30 3043 H 281.84 0.570034 0.490475 0
M  V30 3044 H 283.811 2.72403 1.21817 0
M  V30 3045 C 282.56 2.00403 2.84137 0
M  V30 3046 H 281.883 2.86876 2.78464 0
M  V30 3047 H 283.323 2.23164 3.60519 0
M  V30 3048 C 281.782 0.782081 3.27697 0
M  V30 3049 O 282.312 -0.0310205 4.01688 0
M  V30 3050 N 280.518 0.606573 2.84199 0
M  V30 3051 H 280.065 1.26939 2.24152 0
M  V30 3052 H 280.023 -0.20962 3.137 0
M  V30 3053 N 283.795 -0.628877 1.44509 0
M  V30 3054 C 284.742 -1.74074 1.51549 0
M  V30 3055 C 285.712 -1.62084 0.363021 0
M  V30 3056 O 286.897 -1.81975 0.573567 0
M  V30 3057 C 284.037 -3.12328 1.46784 0
M  V30 3058 C 283.15 -3.35277 2.72422 0
M  V30 3059 C 282.285 -4.63515 2.59475 0
M  V30 3060 C 281.324 -4.7965 3.80266 0
M  V30 3061 N 280.461 -5.99168 3.65981 0
M  V30 3062 H 285.301 -1.67392 2.46544 0
M  V30 3063 H 282.838 -0.816527 1.22357 0
M  V30 3064 H 284.796 -3.92286 1.42012 0
M  V30 3065 H 283.426 -3.18018 0.553544 0
M  V30 3066 H 282.478 -2.49242 2.87372 0
M  V30 3067 H 283.79 -3.43078 3.62076 0
M  V30 3068 H 282.944 -5.51638 2.52548 0
M  V30 3069 H 281.683 -4.58076 1.67384 0
M  V30 3070 H 280.688 -3.89957 3.87574 0
M  V30 3071 H 281.913 -4.86902 4.73395 0
M  V30 3072 H 279.859 -5.94814 2.76644 0
M  V30 3073 H 279.776 -6.08035 4.49254 0
M  V30 3074 H 281.044 -6.89846 3.6295 0
M  V30 3075 N 285.273 -1.31445 -0.869486 0
M  V30 3076 C 286.689 -1.10113 -1.15531 0
M  V30 3077 C 286.889 0.128087 -2.01092 0
M  V30 3078 O 285.945 0.817276 -2.38908 0
M  V30 3079 C 287.258 -2.37291 -1.84698 0
M  V30 3080 C 288.806 -2.42906 -1.97397 0
M  V30 3081 C 289.281 -3.69967 -2.69979 0
M  V30 3082 N 290.772 -3.70864 -2.77514 0
M  V30 3083 C 291.507 -4.65875 -3.34287 0
M  V30 3084 N 291.003 -5.71242 -3.91988 0
M  V30 3085 N 292.796 -4.53394 -3.3225 0
M  V30 3086 H 284.947 -2.1028 -0.299347 0
M  V30 3087 H 287.21 -0.927683 -0.195214 0
M  V30 3088 H 286.916 -3.27078 -1.29278 0
M  V30 3089 H 286.79 -2.47125 -2.84972 0
M  V30 3090 H 289.177 -1.53588 -2.51982 0
M  V30 3091 H 289.258 -2.37036 -0.961643 0
M  V30 3092 H 288.902 -4.59652 -2.16062 0
M  V30 3093 H 288.832 -3.73103 -3.7162 0
M  V30 3094 H 291.323 -2.94697 -2.36563 0
M  V30 3095 H 291.636 -6.39817 -4.33421 0
M  V30 3096 H 289.981 -5.75015 -3.90362 0
M  V30 3097 H 293.172 -3.70252 -2.8641 0
M  V30 3098 H 293.345 -5.27617 -3.76197 0
M  V30 3099 N 286.751 1.08385 -1.14413 0
M  V30 3100 C 287.998 1.80776 -0.912482 0
M  V30 3101 C 288.326 1.86236 0.560934 0
M  V30 3102 O 287.581 1.33431 1.43159 0
M  V30 3103 C 287.88 3.26273 -1.45879 0
M  V30 3104 C 287.546 3.4093 -2.95089 0
M  V30 3105 C 286.208 3.44638 -3.35824 0
M  V30 3106 C 288.56 3.44591 -3.91033 0
M  V30 3107 C 285.888 3.49597 -4.71167 0
M  V30 3108 C 288.24 3.51086 -5.26233 0
M  V30 3109 C 286.904 3.53067 -5.6648 0
M  V30 3110 H 286.174 0.661507 -0.333901 0
M  V30 3111 H 288.821 1.27613 -1.42784 0
M  V30 3112 H 287.126 3.82146 -0.864376 0
M  V30 3113 H 288.823 3.80839 -1.2555 0
M  V30 3114 H 285.413 3.38736 -2.62594 0
M  V30 3115 H 289.597 3.40957 -3.60641 0
M  V30 3116 H 284.853 3.49424 -5.0171 0
M  V30 3117 H 289.027 3.52864 -6.00383 0
M  V30 3118 H 286.654 3.56662 -6.71339 0
M  V30 3119 N 288.23 0.939286 1.26551 0
M  V30 3120 C 289.476 0.586715 1.94128 0
M  V30 3121 C 289.809 -0.8717 1.73537 0
M  V30 3122 O 289.084 -1.62339 1.07127 0
M  V30 3123 C 289.367 0.927497 3.4795 0
M  V30 3124 C 289.22 2.44052 3.77834 0
M  V30 3125 C 290.539 0.441569 4.37879 0
M  V30 3126 H 287.658 0.21463 0.705055 0
M  V30 3127 H 290.3 1.17316 1.49455 0
M  V30 3128 H 288.45 0.428431 3.8613 0
M  V30 3129 H 290.122 3.01216 3.4938 0
M  V30 3130 H 288.365 2.8848 3.23978 0
M  V30 3131 H 289.036 2.62947 4.85348 0
M  V30 3132 H 291.512 0.869448 4.06915 0
M  V30 3133 H 290.388 0.708856 5.44304 0
M  V30 3134 H 290.649 -0.658467 4.37169 0
M  V30 3135 N 289.708 -1.40897 0.706093 0
M  V30 3136 C 291.124 -1.55042 0.37869 0
M  V30 3137 C 291.324 -1.67944 -1.11342 0
M  V30 3138 O 290.38 -1.66372 -1.89938 0
M  V30 3139 C 291.693 -2.78398 1.13643 0
M  V30 3140 C 293.241 -2.92206 1.12181 0
M  V30 3141 C 293.716 -4.18463 1.86152 0
M  V30 3142 N 295.207 -4.25443 1.83173 0
M  V30 3143 C 295.942 -5.2202 2.37239 0
M  V30 3144 N 295.438 -6.24563 2.99821 0
M  V30 3145 N 297.231 -5.14033 2.27435 0
M  V30 3146 H 289.382 -1.30769 1.67372 0
M  V30 3147 H 291.645 -0.631653 0.706907 0
M  V30 3148 H 291.351 -2.7511 2.19106 0
M  V30 3149 H 291.225 -3.70228 0.721853 0
M  V30 3150 H 293.612 -2.95004 0.0754171 0
M  V30 3151 H 293.693 -2.01521 1.57554 0
M  V30 3152 H 293.337 -4.16427 2.90776 0
M  V30 3153 H 293.267 -5.08141 1.38206 0
M  V30 3154 H 295.758 -3.51976 1.37556 0
M  V30 3155 H 296.071 -6.94665 3.38616 0
M  V30 3156 H 294.416 -6.25035 3.03902 0
M  V30 3157 H 297.607 -4.3285 1.78208 0
M  V30 3158 H 297.78 -5.89129 2.69873 0
M  V30 3159 N 291.186 -0.45159 -1.50991 0
M  V30 3160 C 292.432 0.110237 -2.025 0
M  V30 3161 C 292.765 1.41109 -1.33424 0
M  V30 3162 O 292.04 1.89135 -0.453659 0
M  V30 3163 C 292.323 0.314271 -3.58726 0
M  V30 3164 C 292.176 -1.00623 -4.38401 0
M  V30 3165 C 293.495 1.07767 -4.26702 0
M  V30 3166 H 290.614 0.0385897 -0.735989 0
M  V30 3167 H 293.256 -0.593374 -1.80497 0
M  V30 3168 H 291.406 0.913601 -3.77605 0
M  V30 3169 H 293.078 -1.64064 -4.31139 0
M  V30 3170 H 291.321 -1.6075 -4.02917 0
M  V30 3171 H 291.992 -0.817341 -5.45915 0
M  V30 3172 H 294.468 0.56986 -4.12179 0
M  V30 3173 H 293.344 1.18921 -5.35863 0
M  V30 3174 H 293.605 2.10939 -3.88532 0
M  V30 3175 N 292.664 1.56529 -0.183458 0
M  V30 3176 C 293.892 2.01623 0.464285 0
M  V30 3177 C 294.307 1.06366 1.55986 0
M  V30 3178 O 293.664 0.0665398 1.82379 0
M  V30 3179 C 293.715 3.46475 1.03139 0
M  V30 3180 O 293.436 4.38095 -0.0204675 0
M  V30 3181 C 294.937 4.0703 1.75617 0
M  V30 3182 H 292.157 0.660596 0.117704 0
M  V30 3183 H 294.701 2.02451 -0.288751 0
M  V30 3184 H 292.856 3.46383 1.73486 0
M  V30 3185 H 293.27 5.22973 0.399952 0
M  V30 3186 H 294.744 5.10271 2.10542 0
M  V30 3187 H 295.221 3.49819 2.65563 0
M  V30 3188 H 295.827 4.1086 1.09882 0
M  V30 3189 N 294.142 -0.090211 1.57342 0
M  V30 3190 C 295.389 -0.792807 1.86335 0
M  V30 3191 C 295.717 -1.78494 0.772662 0
M  V30 3192 O 294.972 -1.94305 -0.233258 0
M  V30 3193 C 295.271 -1.55222 3.21933 0
M  V30 3194 C 294.937 -0.701765 4.45406 0
M  V30 3195 C 293.599 -0.467334 4.78925 0
M  V30 3196 C 295.951 -0.11086 5.21082 0
M  V30 3197 C 293.279 0.367785 5.85546 0
M  V30 3198 C 295.631 0.711609 6.28585 0
M  V30 3199 C 294.295 0.956086 6.60617 0
M  V30 3200 H 293.565 -0.290109 0.681849 0
M  V30 3201 H 296.212 -0.0541332 1.91423 0
M  V30 3202 H 294.517 -2.3626 3.12551 0
M  V30 3203 H 296.214 -2.10032 3.41595 0
M  V30 3204 H 292.804 -0.894598 4.1916 0
M  V30 3205 H 296.988 -0.279129 4.95514 0
M  V30 3206 H 292.244 0.566128 6.08773 0
M  V30 3207 H 296.418 1.17632 6.86393 0
M  V30 3208 H 294.045 1.60499 7.43064 0
M  V30 3209 N 295.62 -1.53406 -0.361157 0
M  V30 3210 C 296.848 -1.73717 -1.12383 0
M  V30 3211 C 297.263 -0.468161 -1.82904 0
M  V30 3212 O 296.62 0.559198 -1.73722 0
M  V30 3213 C 296.671 -2.90558 -2.15078 0
M  V30 3214 O 296.392 -4.12549 -1.47428 0
M  V30 3215 C 297.893 -3.22777 -3.03858 0
M  V30 3216 H 295.113 -0.580896 -0.335858 0
M  V30 3217 H 297.657 -2.00167 -0.418728 0
M  V30 3218 H 295.812 -2.66489 -2.8118 0
M  V30 3219 H 296.226 -4.78009 -2.15887 0
M  V30 3220 H 297.7 -4.07927 -3.71887 0
M  V30 3221 H 298.177 -2.38329 -3.68912 0
M  V30 3222 H 298.783 -3.48787 -2.43367 0
M  V30 3223 N 297.098 0.621204 -1.44841 0
M  V30 3224 C 298.509 1.20298 -1.42777 0
M  V30 3225 C 298.86 1.95639 -0.148259 0
M  V30 3226 O 297.985 2.02955 0.750892 0
M  V30 3227 C 298.58 2.1882 -2.58657 0
M  V30 3228 C 297.139 2.72403 -2.59756 0
M  V30 3229 C 296.286 1.4757 -2.34773 0
M  V30 3230 H 299.237 0.411297 -1.53278 0
M  V30 3231 H 299.258 3.01607 -2.31977 0
M  V30 3232 H 298.77 1.63957 -3.51766 0
M  V30 3233 H 296.871 3.31242 -1.70615 0
M  V30 3234 H 296.984 3.17765 -3.58556 0
M  V30 3235 H 295.348 1.76051 -1.8406 0
M  V30 3236 H 296.131 0.945954 -3.3001 0
M  V30 3237 N 298.576 1.31904 0.862503 0
M  V30 3238 C 299.824 1.21776 1.61292 0
M  V30 3239 C 300.145 -0.222413 1.93727 0
M  V30 3240 O 299.415 -1.1451 1.58947 0
M  V30 3241 H 297.995 0.447717 0.597962 0
M  V30 3242 H 300.657 1.65326 1.03215 0
M  V30 3243 H 299.753 1.7948 2.5533 0
M  V30 3244 N 300.054 -1.07777 1.14986 0
M  V30 3245 C 301.001 -2.14867 0.842672 0
M  V30 3246 C 301.971 -1.6486 -0.202552 0
M  V30 3247 O 303.156 -1.90668 -0.0710568 0
M  V30 3248 C 300.296 -3.43486 0.333363 0
M  V30 3249 C 299.409 -4.07306 1.43965 0
M  V30 3250 C 298.544 -5.23744 0.886914 0
M  V30 3251 C 297.583 -5.79517 1.97043 0
M  V30 3252 N 296.72 -6.87291 1.4344 0
M  V30 3253 H 301.56 -2.40485 1.75986 0
M  V30 3254 H 299.097 -1.1801 0.878179 0
M  V30 3255 H 301.055 -4.17195 0.0198163 0
M  V30 3256 H 299.685 -3.18133 -0.546916 0
M  V30 3257 H 298.737 -3.31293 1.86946 0
M  V30 3258 H 300.049 -4.44771 2.25788 0
M  V30 3259 H 299.203 -6.04419 0.525651 0
M  V30 3260 H 297.942 -4.87685 0.0377957 0
M  V30 3261 H 296.947 -4.97491 2.34057 0
M  V30 3262 H 298.172 -6.17632 2.82325 0
M  V30 3263 H 296.118 -6.5318 0.607567 0
M  V30 3264 H 296.035 -7.23617 2.18895 0
M  V30 3265 H 297.303 -7.71682 1.10124 0
M  V30 3266 N 301.532 -0.945985 -1.26051 0
M  V30 3267 C 302.76 -0.613025 -1.9761 0
M  V30 3268 C 303.175 0.813035 -1.70397 0
M  V30 3269 O 302.532 1.54274 -0.974979 0
M  V30 3270 C 302.583 -0.85159 -3.51326 0
M  V30 3271 O 302.304 -2.22157 -3.77595 0
M  V30 3272 C 303.805 -0.529831 -4.40122 0
M  V30 3273 H 301.025 -0.230593 -0.630133 0
M  V30 3274 H 303.569 -1.268 -1.60443 0
M  V30 3275 H 301.724 -0.243151 -3.86636 0
M  V30 3276 H 302.138 -2.2852 -4.721 0
M  V30 3277 H 303.612 -0.747348 -5.46917 0
M  V30 3278 H 304.089 0.535341 -4.35925 0
M  V30 3279 H 304.695 -1.11721 -4.10364 0
M  V30 3280 N 303.011 1.40521 -0.713556 0
M  V30 3281 C 304.422 1.83853 -0.324807 0
M  V30 3282 C 304.773 1.59667 1.14021 0
M  V30 3283 O 303.898 1.07649 1.87725 0
M  V30 3284 C 304.493 3.33751 -0.582746 0
M  V30 3285 C 303.052 3.75584 -0.247727 0
M  V30 3286 C 302.199 2.63753 -0.856121 0
M  V30 3287 H 305.15 1.29817 -0.91286 0
M  V30 3288 H 305.171 3.80194 0.152682 0
M  V30 3289 H 304.683 3.51322 -1.64908 0
M  V30 3290 H 302.784 3.63608 0.813624 0
M  V30 3291 H 302.897 4.7373 -0.715307 0
M  V30 3292 H 301.261 2.53108 -0.28432 0
M  V30 3293 H 302.044 2.84137 -1.92668 0
M  V30 3294 N 304.489 0.459591 1.5075 0
M  V30 3295 C 305.735 -0.0994966 2.02556 0
M  V30 3296 C 306.068 -1.40399 1.3417 0
M  V30 3297 O 305.343 -1.88892 0.463683 0
M  V30 3298 C 305.626 -0.295242 3.58888 0
M  V30 3299 C 305.479 1.02947 4.37861 0
M  V30 3300 C 306.798 -1.05502 4.27267 0
M  V30 3301 H 303.917 -0.034686 0.736183 0
M  V30 3302 H 306.559 0.602938 1.8018 0
M  V30 3303 H 304.709 -0.893563 3.78084 0
M  V30 3304 H 306.381 1.66348 4.30263 0
M  V30 3305 H 304.624 1.62885 4.02058 0
M  V30 3306 H 305.295 0.846281 5.45474 0
M  V30 3307 H 307.771 -0.547993 4.12476 0
M  V30 3308 H 306.647 -1.16077 5.36486 0
M  V30 3309 H 306.908 -2.08875 3.89645 0
M  V30 3310 N 305.967 -1.56429 0.191757 0
M  V30 3311 C 307.244 -1.89224 -0.495332 0
M  V30 3312 C 307.624 -1.10478 -1.79883 0
M  V30 3313 O 306.972 -0.204852 -2.2758 0
M  V30 3314 C 307.182 -3.41548 -0.717367 0
M  V30 3315 C 308.53 -4.11711 -1.03823 0
M  V30 3316 O 309.554 -3.4698 -0.805204 0
M  V30 3317 O 308.413 -5.2611 -1.47887 0
M  V30 3318 H 305.507 -0.785788 -0.25781 0
M  V30 3319 H 308.053 -1.68111 0.231721 0
M  V30 3320 H 306.825 -3.90772 0.203287 0
M  V30 3321 H 306.448 -3.68342 -1.497 0
M  V30 3322 N 307.445 0.0818655 -1.57387 0
M  V30 3323 C 308.693 0.781368 -1.86384 0
M  V30 3324 C 309.014 1.78618 -0.782342 0
M  V30 3325 O 308.284 1.94976 0.190061 0
M  V30 3326 H 306.864 0.291562 -0.687751 0
M  V30 3327 H 309.526 0.060348 -1.94807 0
M  V30 3328 H 308.622 1.3038 -2.83562 0
M  V30 3329 N 308.923 1.53595 0.353017 0
M  V30 3330 C 309.855 1.77219 1.45348 0
M  V30 3331 C 310.868 0.65324 1.49119 0
M  V30 3332 O 312.057 0.929775 1.52373 0
M  V30 3333 C 309.157 1.84841 2.84055 0
M  V30 3334 C 308.33 3.14649 3.03833 0
M  V30 3335 C 307.389 3.13351 4.22727 0
M  V30 3336 O 306.415 3.87107 4.17297 0
M  V30 3337 N 307.617 2.35052 5.30783 0
M  V30 3338 H 310.382 2.72178 1.25457 0
M  V30 3339 H 307.943 1.52528 0.542833 0
M  V30 3340 H 309.935 1.81435 3.61751 0
M  V30 3341 H 308.505 0.971114 2.97133 0
M  V30 3342 H 307.725 3.31256 2.13689 0
M  V30 3343 H 309.013 4.00411 3.13925 0
M  V30 3344 H 308.411 1.74663 5.38061 0
M  V30 3345 H 306.968 2.37453 6.07009 0
M  V30 3346 N 310.401 -0.613514 1.45168 0
M  V30 3347 C 311.631 -1.39743 1.52169 0
M  V30 3348 C 312.039 -1.88596 0.151086 0
M  V30 3349 O 311.382 -1.6251 -0.856521 0
M  V30 3350 C 311.444 -2.64035 2.43979 0
M  V30 3351 C 311.108 -2.36861 3.90827 0
M  V30 3352 C 312.105 -1.97591 4.80889 0
M  V30 3353 C 309.79 -2.49956 4.35692 0
M  V30 3354 C 311.784 -1.71768 6.1382 0
M  V30 3355 C 309.471 -2.23747 5.68665 0
M  V30 3356 C 310.469 -1.84714 6.57548 0
M  V30 3357 O 310.157 -1.58809 7.88058 0
M  V30 3358 H 309.889 -0.434382 0.517966 0
M  V30 3359 H 312.443 -0.75587 1.90986 0
M  V30 3360 H 310.673 -3.3089 2.00122 0
M  V30 3361 H 312.362 -3.26069 2.41731 0
M  V30 3362 H 313.128 -1.87015 4.47493 0
M  V30 3363 H 309.007 -2.79305 3.66756 0
M  V30 3364 H 312.551 -1.41227 6.83155 0
M  V30 3365 H 308.448 -2.33938 6.01617 0
M  V30 3366 H 309.216 -1.7291 8.00028 0
M  V30 3367 N 311.879 -1.3236 -0.855495 0
M  V30 3368 C 313.125 -1.23054 -1.612 0
M  V30 3369 C 313.458 0.207404 -1.93089 0
M  V30 3370 O 312.733 1.14432 -1.57275 0
M  V30 3371 C 313.016 -2.08937 -2.93287 0
M  V30 3372 C 312.869 -3.61105 -2.68185 0
M  V30 3373 C 314.188 -1.94986 -3.94549 0
M  V30 3374 H 311.307 -0.448364 -0.584926 0
M  V30 3375 H 313.949 -1.62297 -0.987917 0
M  V30 3376 H 312.099 -1.75599 -3.46551 0
M  V30 3377 H 313.771 -4.04652 -2.21483 0
M  V30 3378 H 312.014 -3.83813 -2.02164 0
M  V30 3379 H 312.685 -4.16522 -3.62234 0
M  V30 3380 H 315.161 -2.24189 -3.5054 0
M  V30 3381 H 314.037 -2.57356 -4.84829 0
M  V30 3382 H 314.298 -0.917263 -4.3248 0
M  V30 3383 N 313.357 1.07166 -1.15556 0
M  V30 3384 C 314.603 1.80222 -0.942961 0
M  V30 3385 C 314.958 1.85121 0.524209 0
M  V30 3386 O 314.251 1.32531 1.38369 0
M  V30 3387 C 314.445 3.24707 -1.49332 0
M  V30 3388 C 314.274 3.33887 -3.01247 0
M  V30 3389 C 313.044 3.44337 -3.69811 0
M  V30 3390 C 315.242 3.24484 -3.99017 0
M  V30 3391 N 313.224 3.42439 -5.09518 0
M  V30 3392 C 314.595 3.29726 -5.25053 0
M  V30 3393 C 316.65 3.08307 -3.90962 0
M  V30 3394 C 315.353 3.20455 -6.43973 0
M  V30 3395 C 317.379 3.00371 -5.09442 0
M  V30 3396 C 316.741 3.06227 -6.34354 0
M  V30 3397 H 312.84 0.672709 -0.398731 0
M  V30 3398 H 315.424 1.27905 -1.46794 0
M  V30 3399 H 313.595 3.7544 -0.994946 0
M  V30 3400 H 315.327 3.85894 -1.21935 0
M  V30 3401 H 312.082 3.48762 -3.20409 0
M  V30 3402 H 312.506 3.45013 -5.8249 0
M  V30 3403 H 317.148 3.02633 -2.95251 0
M  V30 3404 H 314.866 3.24888 -7.39914 0
M  V30 3405 H 318.452 2.88955 -5.04971 0
M  V30 3406 H 317.332 3.00132 -7.24493 0
M  V30 3407 N 314.835 0.952656 1.25548 0
M  V30 3408 C 316.082 0.606373 1.93208 0
M  V30 3409 C 316.41 -0.85631 1.74636 0
M  V30 3410 O 315.665 -1.62951 1.08376 0
M  V30 3411 C 315.964 0.908818 3.45652 0
M  V30 3412 C 315.63 2.35722 3.84378 0
M  V30 3413 C 314.292 2.75312 3.9466 0
M  V30 3414 C 316.644 3.29793 4.03591 0
M  V30 3415 C 313.972 4.08047 4.21562 0
M  V30 3416 C 316.324 4.62138 4.31985 0
M  V30 3417 C 314.988 5.01528 4.40484 0
M  V30 3418 H 314.258 0.221888 0.706998 0
M  V30 3419 H 316.905 1.20132 1.49133 0
M  V30 3420 H 315.21 0.231456 3.91116 0
M  V30 3421 H 316.907 0.619498 3.96186 0
M  V30 3422 H 313.497 2.04017 3.76928 0
M  V30 3423 H 317.681 3.00397 3.95064 0
M  V30 3424 H 312.937 4.38212 4.26357 0
M  V30 3425 H 317.111 5.35012 4.45797 0
M  V30 3426 H 314.738 6.04406 4.61083 0
M  V30 3427 N 316.313 -1.40141 0.720998 0
M  V30 3428 C 317.261 -2.3252 0.0608547 0
M  V30 3429 C 318.255 -1.52326 -0.741152 0
M  V30 3430 O 319.461 -1.68089 -0.643911 0
M  V30 3431 H 315.836 -0.751999 0.000876664 0
M  V30 3432 H 317.807 -2.8584 0.856614 0
M  V30 3433 C 316.556 -3.37331 -0.842809 0
M  V30 3434 H 315.879 -3.99108 -0.235084 0
M  V30 3435 H 317.319 -4.04452 -1.27257 0
M  V30 3436 C 315.778 -2.73246 -1.97074 0
M  V30 3437 O 316.308 -2.59998 -3.06209 0
M  V30 3438 N 314.514 -2.31547 -1.75597 0
M  V30 3439 H 314.061 -2.42522 -0.868368 0
M  V30 3440 H 314.019 -1.89007 -2.51244 0
M  V30 3441 N 317.792 -0.46758 -1.50504 0
M  V30 3442 C 319.041 0.0902868 -2.01498 0
M  V30 3443 C 319.354 1.411 -1.35463 0
M  V30 3444 O 320.56 2.0536 -1.77594 0
M  V30 3445 C 319.016 0.21142 -3.59278 0
M  V30 3446 C 318.624 -1.10065 -4.34269 0
M  V30 3447 C 320.368 0.721433 -4.18325 0
M  V30 3448 C 318.275 -0.943505 -5.83825 0
M  V30 3449 H 317.205 0.037517 -0.753066 0
M  V30 3450 H 319.856 -0.601943 -1.73346 0
M  V30 3451 H 318.238 0.967352 -3.84003 0
M  V30 3452 H 319.412 -1.86726 -4.21272 0
M  V30 3453 H 317.727 -1.5415 -3.86816 0
M  V30 3454 H 320.324 0.85598 -5.27804 0
M  V30 3455 H 320.667 1.71186 -3.79475 0
M  V30 3456 H 321.2 0.0229843 -3.97793 0
M  V30 3457 H 317.939 -1.90719 -6.27141 0
M  V30 3458 H 317.459 -0.217213 -5.99407 0
M  V30 3459 H 319.138 -0.608715 -6.4413 0
M  V30 3460 N 319.27 1.56325 -0.20005 0
M  V30 3461 C 320.518 1.97329 0.436547 0
M  V30 3462 C 320.839 1.08826 1.61808 0
M  V30 3463 O 320.109 0.160604 1.95241 0
M  V30 3464 H 318.689 0.728714 0.164272 0
M  V30 3465 H 321.351 1.92761 -0.287937 0
M  V30 3466 H 320.447 3.02264 0.777353 0
M  V30 3467 N 320.748 -0.0735177 1.57428 0
M  V30 3468 C 321.973 -0.789787 1.91774 0
M  V30 3469 C 322.398 -1.70413 0.796306 0
M  V30 3470 O 321.756 -1.79555 -0.250961 0
M  V30 3471 C 321.804 -1.5609 3.25067 0
M  V30 3472 O 320.908 -2.67144 3.14178 0
M  V30 3473 H 320.249 -0.215582 0.628029 0
M  V30 3474 H 322.779 -0.0422781 2.04556 0
M  V30 3475 H 322.789 -1.94052 3.58898 0
M  V30 3476 H 321.464 -0.890015 4.06265 0
M  V30 3477 H 320.041 -2.32052 2.91901 0
M  V30 3478 N 322.226 -1.5378 -0.344866 0
M  V30 3479 C 323.472 -1.71216 -1.08687 0
M  V30 3480 C 323.805 -0.473281 -1.88345 0
M  V30 3481 O 323.08 0.52968 -1.87149 0
M  V30 3482 C 323.363 -2.97486 -2.02914 0
M  V30 3483 C 323.216 -4.31579 -1.26727 0
M  V30 3484 C 324.535 -3.19422 -3.0275 0
M  V30 3485 H 321.654 -0.62301 -0.393735 0
M  V30 3486 H 324.296 -1.8645 -0.365563 0
M  V30 3487 H 322.446 -2.84629 -2.64421 0
M  V30 3488 H 324.118 -4.56284 -0.67845 0
M  V30 3489 H 322.361 -4.30049 -0.569273 0
M  V30 3490 H 323.032 -5.16106 -1.95803 0
M  V30 3491 H 325.508 -3.316 -2.51357 0
M  V30 3492 H 324.384 -4.09169 -3.65885 0
M  V30 3493 H 324.645 -2.35656 -3.74057 0
M  V30 3494 N 323.704 0.605807 -1.45491 0
M  V30 3495 C 324.981 1.36522 -1.40075 0
M  V30 3496 C 325.361 2.10976 -0.0722744 0
M  V30 3497 O 324.709 2.08007 0.945808 0
M  V30 3498 C 324.919 2.31056 -2.61561 0
M  V30 3499 C 326.267 2.93608 -3.06724 0
M  V30 3500 O 327.291 2.41376 -2.61946 0
M  V30 3501 O 326.15 3.88421 -3.84437 0
M  V30 3502 H 323.244 0.612248 -0.555951 0
M  V30 3503 H 325.79 0.628747 -1.57623 0
M  V30 3504 H 324.562 1.75311 -3.49831 0
M  V30 3505 H 324.185 3.12081 -2.46356 0
M  V30 3506 N 325.182 1.32811 0.848464 0
M  V30 3507 C 326.41 1.26739 1.63538 0
M  V30 3508 C 326.825 -0.163484 1.88091 0
M  V30 3509 O 326.182 -1.10258 1.45429 0
M  V30 3510 C 326.233 2.03013 2.99112 0
M  V30 3511 O 325.954 3.40518 2.75643 0
M  V30 3512 C 327.455 2.04038 3.93552 0
M  V30 3513 H 324.675 0.437024 0.509167 0
M  V30 3514 H 327.219 1.75033 1.05753 0
M  V30 3515 H 325.374 1.58426 3.53525 0
M  V30 3516 H 325.788 3.79635 3.61908 0
M  V30 3517 H 327.262 2.61877 4.85926 0
M  V30 3518 H 327.739 1.0282 4.26995 0
M  V30 3519 H 328.345 2.486 3.45077 0
M  V30 3520 N 326.66 -1.06551 1.16123 0
M  V30 3521 C 327.907 -1.79302 0.941126 0
M  V30 3522 C 328.235 -1.87105 -0.531235 0
M  V30 3523 O 327.49 -1.35692 -1.41018 0
M  V30 3524 C 327.789 -3.23911 1.51052 0
M  V30 3525 C 327.455 -3.36193 3.00475 0
M  V30 3526 C 326.117 -3.39252 3.41265 0
M  V30 3527 C 328.469 -3.38326 3.96465 0
M  V30 3528 C 325.797 -3.42057 4.76669 0
M  V30 3529 C 328.149 -3.4267 5.31752 0
M  V30 3530 C 326.813 -3.4401 5.72026 0
M  V30 3531 H 326.083 -0.656111 0.344382 0
M  V30 3532 H 328.73 -1.25325 1.44796 0
M  V30 3533 H 327.035 -3.80723 0.925063 0
M  V30 3534 H 328.732 -3.78793 1.31593 0
M  V30 3535 H 325.322 -3.34516 2.6795 0
M  V30 3536 H 329.506 -3.35176 3.6602 0
M  V30 3537 H 324.762 -3.41398 5.07206 0
M  V30 3538 H 328.936 -3.43268 6.05921 0
M  V30 3539 H 326.563 -3.45937 6.76928 0
M  V30 3540 N 328.138 -0.959301 -1.25041 0
M  V30 3541 C 329.048 -0.489994 -2.29426 0
M  V30 3542 C 330.064 0.444944 -1.68215 0
M  V30 3543 O 331.24 0.320046 -1.98841 0
M  V30 3544 C 328.305 0.220309 -3.45999 0
M  V30 3545 C 327.366 -0.753418 -4.22637 0
M  V30 3546 C 326.599 -0.076918 -5.33645 0
M  V30 3547 O 326.822 1.13649 -5.58963 0
M  V30 3548 O 325.756 -0.764824 -5.97021 0
M  V30 3549 H 329.582 -1.35755 -2.71669 0
M  V30 3550 H 327.167 -0.725961 -1.30576 0
M  V30 3551 H 329.049 0.619677 -4.16819 0
M  V30 3552 H 327.724 1.06296 -3.0575 0
M  V30 3553 H 326.631 -1.20308 -3.54227 0
M  V30 3554 H 327.964 -1.56423 -4.66683 0
M  V30 3555 N 329.616 1.39756 -0.72842 0
M  V30 3556 C 331.032 1.5442 -0.403308 0
M  V30 3557 C 331.232 1.69694 1.08656 0
M  V30 3558 O 330.288 1.69373 1.87267 0
M  V30 3559 C 331.601 2.76555 -1.18058 0
M  V30 3560 C 333.149 2.90384 -1.16815 0
M  V30 3561 C 333.624 4.15449 -1.92785 0
M  V30 3562 N 335.115 4.22475 -1.89918 0
M  V30 3563 C 335.85 5.1818 -2.45514 0
M  V30 3564 N 335.346 6.19714 -3.09719 0
M  V30 3565 N 337.139 5.1035 -2.35584 0
M  V30 3566 H 329.29 1.28089 -1.69431 0
M  V30 3567 H 331.553 0.620327 -0.716867 0
M  V30 3568 H 331.259 2.7159 -2.23455 0
M  V30 3569 H 331.133 3.69033 -0.780662 0
M  V30 3570 H 333.52 2.94846 -0.12234 0
M  V30 3571 H 333.601 1.98988 -1.6074 0
M  V30 3572 H 333.245 4.11749 -2.97364 0
M  V30 3573 H 333.175 5.05877 -1.46272 0
M  V30 3574 H 335.666 3.49743 -1.43138 0
M  V30 3575 H 335.979 6.8919 -3.49625 0
M  V30 3576 H 334.324 6.20121 -3.13807 0
M  V30 3577 H 337.515 4.2996 -1.85072 0
M  V30 3578 H 337.688 5.84761 -2.79211 0
M  V30 3579 N 331.094 0.475555 1.50254 0
M  V30 3580 C 332.042 -0.330276 2.30243 0
M  V30 3581 C 333.036 -0.986306 1.37726 0
M  V30 3582 O 334.242 -0.9169 1.54897 0
M  V30 3583 H 330.617 -0.125353 0.741479 0
M  V30 3584 H 332.588 0.364702 2.96163 0
M  V30 3585 C 331.337 -1.39704 3.18399 0
M  V30 3586 H 330.66 -0.901621 3.89501 0
M  V30 3587 H 332.1 -1.93336 3.77355 0
M  V30 3588 C 330.559 -2.4014 2.36293 0
M  V30 3589 O 331.089 -3.45504 2.04914 0
M  V30 3590 N 329.295 -2.1197 1.98789 0
M  V30 3591 H 328.842 -1.2631 2.24507 0
M  V30 3592 H 328.8 -2.79403 1.44157 0
M  V30 3593 N 332.573 -1.56217 0.208337 0
M  V30 3594 C 333.503 -2.22694 -0.702116 0
M  V30 3595 C 334.484 -1.19432 -1.2112 0
M  V30 3596 O 335.669 -1.47978 -1.25762 0
M  V30 3597 C 332.799 -2.8966 -1.9161 0
M  V30 3598 C 331.753 -3.9928 -1.5414 0
M  V30 3599 C 331.079 -4.53476 -2.83308 0
M  V30 3600 C 332.379 -5.17012 -0.741339 0
M  V30 3601 H 334.073 -2.99034 -0.147898 0
M  V30 3602 H 331.619 -1.43831 -0.0696951 0
M  V30 3603 H 333.572 -3.34852 -2.55836 0
M  V30 3604 H 332.296 -2.10746 -2.49507 0
M  V30 3605 H 330.955 -3.54799 -0.922668 0
M  V30 3606 H 330.603 -3.71308 -3.39322 0
M  V30 3607 H 330.303 -5.27451 -2.58976 0
M  V30 3608 H 331.827 -5.01378 -3.485 0
M  V30 3609 H 333.241 -5.58667 -1.28699 0
M  V30 3610 H 331.638 -5.97137 -0.595627 0
M  V30 3611 H 332.708 -4.8423 0.254851 0
M  V30 3612 N 334.051 0.0651679 -1.57465 0
M  V30 3613 C 334.961 1.09448 -2.07505 0
M  V30 3614 C 335.977 1.41974 -1.00595 0
M  V30 3615 O 337.153 1.52018 -1.32107 0
M  V30 3616 C 334.218 2.38689 -2.51453 0
M  V30 3617 C 333.279 2.13073 -3.72691 0
M  V30 3618 C 332.512 3.36152 -4.14533 0
M  V30 3619 O 332.735 4.45517 -3.56189 0
M  V30 3620 O 331.669 3.23974 -5.07272 0
M  V30 3621 H 335.495 0.69935 -2.95538 0
M  V30 3622 H 333.08 0.279752 -1.46757 0
M  V30 3623 H 334.962 3.14736 -2.80212 0
M  V30 3624 H 333.637 2.77568 -1.66546 0
M  V30 3625 H 332.544 1.34709 -3.49005 0
M  V30 3626 H 333.877 1.79071 -4.5847 0
M  V30 3627 N 335.529 1.53961 0.336706 0
M  V30 3628 C 336.757 1.75483 1.09605 0
M  V30 3629 C 337.172 0.4972 1.82136 0
M  V30 3630 O 336.529 -0.53149 1.74589 0
M  V30 3631 C 336.58 2.93943 2.10428 0
M  V30 3632 O 336.301 4.14842 1.40846 0
M  V30 3633 C 337.802 3.27571 2.98684 0
M  V30 3634 H 335.022 0.586166 0.326574 0
M  V30 3635 H 337.566 2.00808 0.38683 0
M  V30 3636 H 335.721 2.70929 2.76905 0
M  V30 3637 H 336.135 4.81383 2.08255 0
M  V30 3638 H 337.609 4.13791 3.6535 0
M  V30 3639 H 338.086 2.44168 3.65074 0
M  V30 3640 H 338.692 3.52615 2.37787 0
M  V30 3641 N 337.007 -0.598083 1.45811 0
M  V30 3642 C 337.937 -1.71873 1.58057 0
M  V30 3643 C 338.918 -1.64533 0.431615 0
M  V30 3644 O 340.103 -1.82787 0.65595 0
M  V30 3645 C 337.233 -3.10495 1.55597 0
M  V30 3646 C 336.187 -3.32654 2.69305 0
M  V30 3647 C 335.513 -4.71646 2.51902 0
M  V30 3648 C 336.813 -3.21981 4.11248 0
M  V30 3649 H 338.507 -1.61881 2.51863 0
M  V30 3650 H 336.053 -0.777372 1.21214 0
M  V30 3651 H 338.006 -3.88699 1.6276 0
M  V30 3652 H 336.73 -3.2135 0.583255 0
M  V30 3653 H 335.389 -2.56843 2.61586 0
M  V30 3654 H 335.037 -4.79246 1.52748 0
M  V30 3655 H 334.737 -4.87426 3.2816 0
M  V30 3656 H 336.261 -5.52038 2.60933 0
M  V30 3657 H 337.675 -3.90049 4.20161 0
M  V30 3658 H 336.072 -3.49289 4.87972 0
M  V30 3659 H 337.142 -2.1928 4.32486 0
M  V30 3660 N 338.485 -1.33259 -0.841409 0
M  V30 3661 C 339.417 -1.19136 -1.95804 0
M  V30 3662 C 340.43 -0.122965 -1.62335 0
M  V30 3663 O 341.619 -0.373154 -1.74556 0
M  V30 3664 C 338.719 -0.804268 -3.29218 0
M  V30 3665 C 337.892 -1.96376 -3.90839 0
M  V30 3666 C 336.951 -1.55806 -5.02604 0
M  V30 3667 O 335.977 -2.27203 -5.21888 0
M  V30 3668 N 337.179 -0.461609 -5.78662 0
M  V30 3669 H 339.944 -2.15326 -2.08458 0
M  V30 3670 H 337.505 -1.25971 -1.017 0
M  V30 3671 H 339.497 -0.51501 -4.0141 0
M  V30 3672 H 338.067 0.0668809 -3.12528 0
M  V30 3673 H 337.287 -2.41879 -3.11269 0
M  V30 3674 H 338.575 -2.73966 -4.28742 0
M  V30 3675 H 337.973 0.132343 -5.65545 0
M  V30 3676 H 336.53 -0.232013 -6.51387 0
M  V30 3677 N 339.963 1.05934 -1.16686 0
M  V30 3678 C 340.895 2.13468 -0.834503 0
M  V30 3679 C 341.908 1.62013 0.15984 0
M  V30 3680 O 343.097 1.7838 -0.0654228 0
M  V30 3681 C 340.197 3.3817 -0.222361 0
M  V30 3682 C 339.37 4.18928 -1.25771 0
M  V30 3683 C 338.429 5.21985 -0.664703 0
M  V30 3684 O 337.455 5.53334 -1.33453 0
M  V30 3685 N 338.657 5.77919 0.546834 0
M  V30 3686 H 341.422 2.42578 -1.75999 0
M  V30 3687 H 338.983 1.21967 -1.06469 0
M  V30 3688 H 340.975 4.04266 0.187472 0
M  V30 3689 H 339.545 3.06655 0.606758 0
M  V30 3690 H 338.765 3.48433 -1.84358 0
M  V30 3691 H 340.053 4.69687 -1.95631 0
M  V30 3692 H 339.451 5.54721 1.10912 0
M  V30 3693 H 338.008 6.45573 0.898829 0
M  V30 3694 N 341.441 0.965919 1.2453 0
M  V30 3695 C 342.351 0.502154 2.29163 0
M  V30 3696 C 343.367 -0.436017 1.68448 0
M  V30 3697 O 344.543 -0.309497 1.99008 0
M  V30 3698 C 341.608 -0.201956 3.46111 0
M  V30 3699 C 340.669 0.775821 4.22232 0
M  V30 3700 C 339.902 0.105217 5.33596 0
M  V30 3701 O 340.125 -1.10683 5.59558 0
M  V30 3702 O 339.059 0.796475 5.96607 0
M  V30 3703 H 342.885 1.37194 2.70946 0
M  V30 3704 H 340.47 0.732875 1.30189 0
M  V30 3705 H 342.352 -0.597564 4.17142 0
M  V30 3706 H 341.027 -1.04673 3.06309 0
M  V30 3707 H 339.934 1.22185 3.53584 0
M  V30 3708 H 341.267 1.58896 4.65846 0
M  V30 3709 N 342.919 -1.39368 0.735821 0
M  V30 3710 C 343.849 -2.33234 0.111506 0
M  V30 3711 C 344.83 -1.53954 -0.723334 0
M  V30 3712 O 346.015 -1.82344 -0.668147 0
M  V30 3713 C 343.145 -3.38057 -0.795917 0
M  V30 3714 C 342.099 -4.2795 -0.065172 0
M  V30 3715 C 341.425 -5.23479 -1.08967 0
M  V30 3716 C 342.725 -5.10741 1.09273 0
M  V30 3717 H 344.419 -2.85692 0.895571 0
M  V30 3718 H 341.965 -1.37364 0.432109 0
M  V30 3719 H 343.918 -4.02675 -1.24221 0
M  V30 3720 H 342.642 -2.8404 -1.61211 0
M  V30 3721 H 341.301 -3.64813 0.361511 0
M  V30 3722 H 340.949 -4.65758 -1.89944 0
M  V30 3723 H 340.649 -5.84472 -0.605489 0
M  V30 3724 H 342.173 -5.90974 -1.53565 0
M  V30 3725 H 343.587 -5.68699 0.724841 0
M  V30 3726 H 341.984 -5.8088 1.50659 0
M  V30 3727 H 343.054 -4.45525 1.91404 0
M  V30 3728 N 344.397 -0.483516 -1.5 0
M  V30 3729 C 345.645 0.067027 -2.01989 0
M  V30 3730 C 345.966 1.3909 -1.36671 0
M  V30 3731 O 345.236 1.88978 -0.516152 0
M  V30 3732 H 343.816 0.0277606 -0.746484 0
M  V30 3733 H 346.478 -0.636773 -1.84204 0
M  V30 3734 H 345.574 0.209484 -3.11396 0
M  V30 3735 N 345.875 1.56104 -0.216619 0
M  V30 3736 C 347.124 1.97348 0.416744 0
M  V30 3737 C 347.437 1.10715 1.6125 0
M  V30 3738 O 348.643 1.41836 2.31506 0
M  V30 3739 C 347.099 3.51059 0.792835 0
M  V30 3740 C 346.707 4.46387 -0.379828 0
M  V30 3741 C 348.451 4.01026 1.39208 0
M  V30 3742 C 346.358 5.91397 0.0184223 0
M  V30 3743 H 345.288 0.736942 0.159475 0
M  V30 3744 H 347.939 1.80827 -0.31205 0
M  V30 3745 H 346.321 3.63162 1.57891 0
M  V30 3746 H 347.495 4.46029 -1.15737 0
M  V30 3747 H 345.81 4.06734 -0.891979 0
M  V30 3748 H 348.407 5.0686 1.70286 0
M  V30 3749 H 348.75 3.46587 2.30614 0
M  V30 3750 H 349.283 3.92125 0.669537 0
M  V30 3751 H 346.022 6.49807 -0.862002 0
M  V30 3752 H 345.542 5.94961 0.760384 0
M  V30 3753 H 347.221 6.45455 0.446818 0
M  V30 3754 N 347.353 -0.0568162 1.57498 0
M  V30 3755 C 348.263 -1.08346 2.08083 0
M  V30 3756 C 349.279 -1.41439 1.01346 0
M  V30 3757 O 350.455 -1.51316 1.32912 0
M  V30 3758 C 347.52 -2.37352 2.52715 0
M  V30 3759 C 346.581 -2.11093 3.73816 0
M  V30 3760 C 345.814 -3.33949 4.1631 0
M  V30 3761 O 346.037 -4.43622 3.58547 0
M  V30 3762 O 344.971 -3.21279 5.08983 0
M  V30 3763 H 348.797 -0.683667 2.95905 0
M  V30 3764 H 346.382 -0.271965 1.46904 0
M  V30 3765 H 348.264 -3.13246 2.81877 0
M  V30 3766 H 346.939 -2.76681 1.68016 0
M  V30 3767 H 345.846 -1.32856 3.49714 0
M  V30 3768 H 347.179 -1.76637 4.59413 0
M  V30 3769 N 348.832 -1.54138 -0.328536 0
M  V30 3770 C 350.08 -1.71765 -1.06496 0
M  V30 3771 C 350.401 -0.49149 -1.88704 0
M  V30 3772 O 349.671 0.494539 -1.89555 0
M  V30 3773 H 348.251 -0.633295 -0.396164 0
M  V30 3774 H 350.913 -1.91429 -0.366176 0
M  V30 3775 H 350.009 -2.5951 -1.73381 0
M  V30 3776 N 350.31 0.590341 -1.46126 0
M  V30 3777 C 351.22 1.72793 -1.58681 0
M  V30 3778 C 352.236 1.67516 -0.470566 0
M  V30 3779 O 353.412 1.87562 -0.733642 0
M  V30 3780 C 350.477 3.09287 -1.5666 0
M  V30 3781 C 349.538 3.25886 -2.79458 0
M  V30 3782 C 348.771 4.55869 -2.77524 0
M  V30 3783 O 348.994 5.3928 -1.85832 0
M  V30 3784 O 347.928 4.75552 -3.68964 0
M  V30 3785 H 351.754 1.65149 -2.54872 0
M  V30 3786 H 349.339 0.756486 -1.28832 0
M  V30 3787 H 351.221 3.90577 -1.58202 0
M  V30 3788 H 349.896 3.17385 -0.636271 0
M  V30 3789 H 348.803 2.44119 -2.83472 0
M  V30 3790 H 350.136 3.22675 -3.71674 0
M  V30 3791 N 351.788 1.33704 0.83433 0
M  V30 3792 C 352.736 1.24323 1.96587 0
M  V30 3793 C 353.73 0.143659 1.6879 0
M  V30 3794 O 354.936 0.30791 1.77347 0
M  V30 3795 H 351.311 0.385925 0.645419 0
M  V30 3796 H 353.282 2.19978 2.01624 0
M  V30 3797 C 352.031 1.00394 3.32891 0
M  V30 3798 H 351.354 1.84231 3.54822 0
M  V30 3799 H 352.794 0.97862 4.12552 0
M  V30 3800 C 351.253 -0.293047 3.35623 0
M  V30 3801 O 351.783 -1.29823 3.80143 0
M  V30 3802 N 349.989 -0.322174 2.88809 0
M  V30 3803 H 349.536 0.496379 2.52772 0
M  V30 3804 H 349.494 -1.18977 2.91019 0
M  V30 3805 N 353.266 -1.05314 1.17247 0
M  V30 3806 C 354.682 -1.30452 0.919473 0
M  V30 3807 C 354.882 -1.9703 -0.42209 0
M  V30 3808 O 353.938 -2.24311 -1.15935 0
M  V30 3809 C 355.251 -2.17551 2.07586 0
M  V30 3810 C 356.799 -2.30937 2.11275 0
M  V30 3811 C 357.274 -3.21396 3.26296 0
M  V30 3812 N 358.765 -3.28981 3.26076 0
M  V30 3813 C 359.5 -3.99095 4.11716 0
M  V30 3814 N 358.996 -4.71648 5.07465 0
M  V30 3815 N 360.789 -3.95247 3.9967 0
M  V30 3816 H 352.94 -0.604988 2.03602 0
M  V30 3817 H 355.203 -0.329368 0.888944 0
M  V30 3818 H 354.909 -1.75921 3.0454 0
M  V30 3819 H 354.783 -3.18182 2.02584 0
M  V30 3820 H 357.17 -2.71809 1.14907 0
M  V30 3821 H 357.251 -1.2994 2.20339 0
M  V30 3822 H 356.895 -2.81238 4.22927 0
M  V30 3823 H 356.825 -4.22395 3.14467 0
M  V30 3824 H 359.316 -2.77286 2.5675 0
M  V30 3825 H 359.629 -5.22705 5.6921 0
M  V30 3826 H 357.974 -4.70594 5.11435 0
M  V30 3827 H 361.165 -3.37691 3.24164 0
M  V30 3828 H 361.338 -4.4962 4.66632 0
M  V30 3829 N 354.744 -0.972509 -1.24016 0
M  V30 3830 C 355.99 -0.637978 -1.92504 0
M  V30 3831 C 356.323 0.825383 -1.75787 0
M  V30 3832 O 355.598 1.59442 -1.11393 0
M  V30 3833 C 355.881 -1.01942 -3.45369 0
M  V30 3834 C 355.734 -2.53983 -3.71231 0
M  V30 3835 C 357.053 -0.55751 -4.36555 0
M  V30 3836 H 354.172 -0.233248 -0.699117 0
M  V30 3837 H 356.814 -1.21238 -1.46292 0
M  V30 3838 H 354.964 -0.530656 -3.84859 0
M  V30 3839 H 356.636 -3.10374 -3.41271 0
M  V30 3840 H 354.879 -2.96968 -3.16216 0
M  V30 3841 H 355.55 -2.75723 -4.78206 0
M  V30 3842 H 358.026 -0.977029 -4.04467 0
M  V30 3843 H 356.902 -0.85292 -5.42233 0
M  V30 3844 H 357.163 0.542328 -4.38761 0
M  V30 3845 N 356.222 1.38976 -0.743202 0
M  V30 3846 C 357.633 1.83123 -0.363732 0
M  V30 3847 C 357.984 1.6205 1.10609 0
M  V30 3848 O 357.109 1.11606 1.854 0
M  V30 3849 C 357.704 3.32439 -0.653408 0
M  V30 3850 C 356.263 3.74974 -0.327338 0
M  V30 3851 C 355.41 2.61878 -0.911875 0
M  V30 3852 H 358.361 1.27852 -0.940191 0
M  V30 3853 H 358.382 3.80432 0.0720031 0
M  V30 3854 H 357.894 3.47745 -1.72323 0
M  V30 3855 H 355.995 3.65252 0.736314 0
M  V30 3856 H 356.108 4.72106 -0.815631 0
M  V30 3857 H 354.472 2.52448 -0.337944 0
M  V30 3858 H 355.255 2.79987 -1.98651 0
M  V30 3859 N 357.7 0.491464 1.49741 0
M  V30 3860 C 358.946 -0.0565092 2.02721 0
M  V30 3861 C 359.279 -1.37522 1.37118 0
M  V30 3862 O 358.554 -1.87866 0.503645 0
M  V30 3863 C 358.837 -0.219051 3.59433 0
M  V30 3864 C 358.69 1.12211 4.35579 0
M  V30 3865 C 360.009 -0.964157 4.29409 0
M  V30 3866 H 357.128 -0.0190627 0.736753 0
M  V30 3867 H 359.77 0.641021 1.7886 0
M  V30 3868 H 357.92 -0.813165 3.79895 0
M  V30 3869 H 359.592 1.75437 4.26637 0
M  V30 3870 H 357.835 1.71377 3.98513 0
M  V30 3871 H 358.506 0.961794 5.43556 0
M  V30 3872 H 360.982 -0.460378 4.13545 0
M  V30 3873 H 359.858 -1.04671 5.38828 0
M  V30 3874 H 360.119 -2.00563 3.93988 0
M  V30 3875 N 359.178 -1.55987 0.224894 0
M  V30 3876 C 360.424 -1.98684 -0.406502 0
M  V30 3877 C 360.757 -1.11248 -1.59177 0
M  V30 3878 O 360.032 -0.170909 -1.93748 0
M  V30 3879 C 360.315 -3.50218 -0.837808 0
M  V30 3880 C 360.168 -4.48426 0.351332 0
M  V30 3881 C 361.487 -4.06243 -1.69278 0
M  V30 3882 H 358.606 -0.722337 -0.146283 0
M  V30 3883 H 361.248 -1.87255 0.321799 0
M  V30 3884 H 359.398 -3.60089 -1.45837 0
M  V30 3885 H 361.07 -4.50562 0.989526 0
M  V30 3886 H 359.313 -4.22159 0.998207 0
M  V30 3887 H 359.984 -5.52 0.00655905 0
M  V30 3888 H 362.46 -3.99337 -1.16914 0
M  V30 3889 H 361.336 -5.12581 -1.96346 0
M  V30 3890 H 361.597 -3.53332 -2.65723 0
M  V30 3891 N 360.656 0.0484629 -1.57525 0
M  V30 3892 C 361.886 0.754326 -1.92337 0
M  V30 3893 C 362.294 1.70443 -0.82132 0
M  V30 3894 O 361.637 1.82466 0.21254 0
M  V30 3895 C 361.699 1.58231 -3.22805 0
M  V30 3896 C 361.363 0.799074 -4.4996 0
M  V30 3897 C 362.36 0.1079 -5.19788 0
M  V30 3898 C 360.045 0.759345 -4.96527 0
M  V30 3899 C 362.039 -0.612516 -6.3445 0
M  V30 3900 C 359.726 0.0351713 -6.1109 0
M  V30 3901 C 360.724 -0.649537 -6.79904 0
M  V30 3902 O 360.412 -1.36199 -7.92278 0
M  V30 3903 H 360.144 0.218257 -0.639797 0
M  V30 3904 H 362.698 0.0159295 -2.05394 0
M  V30 3905 H 360.928 2.36406 -3.06021 0
M  V30 3906 H 362.617 2.16898 -3.43089 0
M  V30 3907 H 363.383 0.129748 -4.84826 0
M  V30 3908 H 359.262 1.28177 -4.42822 0
M  V30 3909 H 362.806 -1.14751 -6.88097 0
M  V30 3910 H 358.703 0.0113314 -6.45499 0
M  V30 3911 H 359.471 -1.27366 -8.0853 0
M  V30 3912 N 362.134 1.5431 0.320358 0
M  V30 3913 C 363.383 1.7188 1.05546 0
M  V30 3914 C 363.696 0.501143 1.89071 0
M  V30 3915 O 364.902 0.558258 2.65699 0
M  V30 3916 C 363.358 3.04025 1.92605 0
M  V30 3917 C 362.966 4.33207 1.14176 0
M  V30 3918 C 364.71 3.30959 2.65832 0
M  V30 3919 C 362.617 5.56412 2.00399 0
M  V30 3920 H 361.547 0.640547 0.397763 0
M  V30 3921 H 364.198 1.80802 0.313522 0
M  V30 3922 H 362.58 2.89019 2.7071 0
M  V30 3923 H 363.754 4.58989 0.40819 0
M  V30 3924 H 362.069 4.13062 0.526165 0
M  V30 3925 H 364.666 4.20203 3.30656 0
M  V30 3926 H 365.009 2.48979 3.33639 0
M  V30 3927 H 365.542 3.46847 1.94787 0
M  V30 3928 H 362.281 6.41004 1.37094 0
M  V30 3929 H 361.801 5.34844 2.7148 0
M  V30 3930 H 363.48 5.92938 2.58908 0
M  V30 3931 N 363.613 -0.582584 1.46437 0
M  V30 3932 C 364.576 -1.67366 1.56592 0
M  V30 3933 C 365.576 -1.54575 0.443072 0
M  V30 3934 O 366.766 -1.59191 0.707381 0
M  V30 3935 C 363.898 -3.06791 1.48634 0
M  V30 3936 H 365.091 -1.5972 2.5383 0
M  V30 3937 H 362.644 -0.800432 1.34249 0
M  V30 3938 H 363.379 -3.19993 0.526763 0
M  V30 3939 H 363.164 -3.17484 2.30101 0
M  V30 3940 H 364.654 -3.86218 1.58826 0
M  V30 3941 N 365.091 -1.34144 -0.827227 0
M  V30 3942 C 366.001 -1.27428 -1.96975 0
M  V30 3943 C 367.017 -0.182728 -1.73038 0
M  V30 3944 O 368.193 -0.408426 -1.97215 0
M  V30 3945 C 365.258 -1.02526 -3.31194 0
M  V30 3946 C 364.319 -2.20796 -3.68168 0
M  V30 3947 C 363.552 -1.97073 -4.95982 0
M  V30 3948 O 363.775 -0.926822 -5.6282 0
M  V30 3949 O 362.709 -2.83912 -5.30733 0
M  V30 3950 H 366.535 -2.23537 -2.05584 0
M  V30 3951 H 364.12 -1.14307 -0.961989 0
M  V30 3952 H 366.002 -0.904026 -4.11589 0
M  V30 3953 H 364.677 -0.0945389 -3.23562 0
M  V30 3954 H 363.584 -2.38477 -2.88235 0
M  V30 3955 H 364.917 -3.12243 -3.8048 0
M  V30 3956 N 366.569 1.04691 -1.17803 0
M  V30 3957 C 367.794 1.81984 -0.994813 0
M  V30 3958 C 368.219 1.82586 0.452112 0
M  V30 3959 O 367.577 1.23854 1.324 0
M  V30 3960 C 367.625 3.2575 -1.54659 0
M  V30 3961 O 366.729 4.05267 -0.763728 0
M  V30 3962 H 366.07 0.562483 -0.352857 0
M  V30 3963 H 368.6 1.3189 -1.56417 0
M  V30 3964 H 368.61 3.76541 -1.57102 0
M  V30 3965 H 367.285 3.24627 -2.59981 0
M  V30 3966 H 365.862 3.63972 -0.811108 0
M  V30 3967 N 368.047 0.979072 1.23499 0
M  V30 3968 C 369.324 0.563674 1.87302 0
M  V30 3969 C 369.704 -0.959199 1.88049 0
M  V30 3970 O 369.052 -1.83535 1.36114 0
M  V30 3971 C 369.262 1.16822 3.28867 0
M  V30 3972 C 370.61 1.26014 4.0547 0
M  V30 3973 O 371.634 1.12158 3.38082 0
M  V30 3974 O 370.493 1.48044 5.26066 0
M  V30 3975 H 367.587 0.189602 0.804972 0
M  V30 3976 H 370.133 1.07407 1.31384 0
M  V30 3977 H 368.905 2.21049 3.22883 0
M  V30 3978 H 368.528 0.642564 3.92373 0
M  V30 3979 N 369.525 -1.3858 0.750561 0
M  V30 3980 C 370.773 -1.99789 0.30477 0
M  V30 3981 C 371.094 -1.59874 -1.11649 0
M  V30 3982 O 370.364 -0.85417 -1.76297 0
M  V30 3983 H 368.944 -0.738902 0.109694 0
M  V30 3984 H 371.606 -1.69391 0.963983 0
M  V30 3985 H 370.702 -3.09952 0.365499 0
M  V30 3986 N 371.003 -0.499398 -1.49478 0
M  V30 3987 C 372.228 0.044722 -2.07352 0
M  V30 3988 C 372.653 1.30207 -1.35749 0
M  V30 3989 O 372.011 1.76516 -0.413732 0
M  V30 3990 C 372.059 0.283013 -3.59488 0
M  V30 3991 O 371.163 1.35804 -3.89398 0
M  V30 3992 H 370.504 -0.0255147 -0.66351 0
M  V30 3993 H 373.034 -0.698561 -1.92305 0
M  V30 3994 H 373.044 0.515007 -4.04737 0
M  V30 3995 H 371.719 -0.635636 -4.11014 0
M  V30 3996 H 370.296 1.11113 -3.55961 0
M  V30 3997 N 372.481 1.55866 -0.233164 0
M  V30 3998 C 373.728 1.98603 0.395374 0
M  V30 3999 C 374.056 1.12105 1.58942 0
M  V30 4000 O 373.311 0.168656 1.94972 0
M  V30 4001 C 373.61 3.46856 0.861724 0
M  V30 4002 C 373.276 4.50348 -0.223066 0
M  V30 4003 C 371.938 4.78371 -0.521038 0
M  V30 4004 C 374.29 5.12355 -0.956124 0
M  V30 4005 C 371.618 5.6568 -1.55638 0
M  V30 4006 C 373.97 6.00786 -1.98089 0
M  V30 4007 C 372.634 6.27148 -2.28565 0
M  V30 4008 H 371.904 0.726739 0.144677 0
M  V30 4009 H 374.551 1.88491 -0.338114 0
M  V30 4010 H 372.856 3.5423 1.67418 0
M  V30 4011 H 374.553 3.77302 1.35809 0
M  V30 4012 H 371.143 4.28596 0.0193234 0
M  V30 4013 H 375.327 4.90765 -0.739166 0
M  V30 4014 H 370.583 5.84365 -1.798 0
M  V30 4015 H 374.757 6.4788 -2.55391 0
M  V30 4016 H 372.384 6.94597 -3.08932 0
M  V30 4017 N 373.959 -0.0401083 1.57549 0
M  V30 4018 C 374.889 -1.04384 2.08869 0
M  V30 4019 C 375.87 -1.38407 0.988817 0
M  V30 4020 O 377.055 -1.47483 1.26342 0
M  V30 4021 C 374.185 -2.34808 2.55895 0
M  V30 4022 C 373.139 -2.15057 3.70047 0
M  V30 4023 C 372.465 -3.51145 4.03239 0
M  V30 4024 C 373.765 -1.54576 4.98902 0
M  V30 4025 H 375.459 -0.616666 2.92981 0
M  V30 4026 H 373.005 -0.295184 1.40942 0
M  V30 4027 H 374.958 -3.05346 2.90417 0
M  V30 4028 H 373.682 -2.79565 1.68853 0
M  V30 4029 H 372.341 -1.46954 3.35857 0
M  V30 4030 H 371.989 -3.93529 3.13279 0
M  V30 4031 H 371.689 -3.38758 4.80122 0
M  V30 4032 H 373.213 -4.23062 4.40285 0
M  V30 4033 H 374.627 -2.15017 5.31451 0
M  V30 4034 H 373.024 -1.52796 5.80322 0
M  V30 4035 H 374.094 -0.51039 4.82206 0
M  V30 4036 N 375.437 -1.54477 -0.31217 0
M  V30 4037 C 376.367 -1.87652 -1.38957 0
M  V30 4038 C 377.348 -0.734358 -1.53431 0
M  V30 4039 O 378.533 -0.98911 -1.67123 0
M  V30 4040 C 375.663 -2.11396 -2.75552 0
M  V30 4041 C 374.617 -3.27243 -2.75855 0
M  V30 4042 C 373.943 -3.36382 -4.15633 0
M  V30 4043 C 375.243 -4.64622 -2.38587 0
M  V30 4044 H 376.937 -2.77887 -1.11442 0
M  V30 4045 H 374.483 -1.33707 -0.534655 0
M  V30 4046 H 376.436 -2.33189 -3.51 0
M  V30 4047 H 375.16 -1.17921 -3.04569 0
M  V30 4048 H 373.819 -3.05356 -2.02863 0
M  V30 4049 H 373.467 -2.40445 -4.41809 0
M  V30 4050 H 373.167 -4.14249 -4.1674 0
M  V30 4051 H 374.691 -3.60422 -4.92877 0
M  V30 4052 H 376.105 -4.86219 -3.03749 0
M  V30 4053 H 374.502 -5.45121 -2.50925 0
M  V30 4054 H 375.572 -4.66097 -1.33723 0
M  V30 4055 N 376.915 0.57481 -1.46744 0
M  V30 4056 C 378.14 1.36341 -1.56288 0
M  V30 4057 C 378.565 1.86954 -0.207347 0
M  V30 4058 O 377.923 1.62006 0.813871 0
M  V30 4059 C 377.971 2.52147 -2.57787 0
M  V30 4060 O 377.075 3.53834 -2.11838 0
M  V30 4061 H 376.416 0.405713 -0.525636 0
M  V30 4062 H 378.946 0.696453 -1.92382 0
M  V30 4063 H 378.956 2.98958 -2.77648 0
M  V30 4064 H 377.631 2.14663 -3.5622 0
M  V30 4065 H 376.208 3.1345 -2.01999 0
M  V30 4066 N 378.394 1.34581 0.820102 0
M  V30 4067 C 379.327 1.20735 1.93644 0
M  V30 4068 C 380.305 0.0983343 1.62302 0
M  V30 4069 O 381.489 0.263997 1.86642 0
M  V30 4070 C 378.616 0.856037 3.27704 0
M  V30 4071 C 377.662 1.97521 3.78005 0
M  V30 4072 S 378.495 3.58906 3.97425 0
M  V30 4073 C 379.651 3.25822 5.34407 0
M  V30 4074 H 379.884 2.15231 2.05093 0
M  V30 4075 H 377.417 1.1964 0.97599 0
M  V30 4076 H 379.375 0.660133 4.05157 0
M  V30 4077 H 378.036 -0.0706253 3.14021 0
M  V30 4078 H 377.229 1.68321 4.75062 0
M  V30 4079 H 376.831 2.12875 3.07507 0
M  V30 4080 H 379.123 2.77812 6.17922 0
M  V30 4081 H 380.066 4.22029 5.68592 0
M  V30 4082 H 380.474 2.61932 5.00052 0
M  V30 4083 N 379.872 -1.04064 1.18357 0
M  V30 4084 C 380.802 -2.14001 0.934113 0
M  V30 4085 C 381.783 -1.69616 -0.128186 0
M  V30 4086 O 382.968 -1.94185 0.0244093 0
M  V30 4087 C 380.098 -3.44253 0.459066 0
M  V30 4088 C 379.052 -4.02261 1.46185 0
M  V30 4089 C 378.378 -5.27992 0.844322 0
M  V30 4090 C 379.678 -4.38432 2.83856 0
M  V30 4091 H 381.372 -2.35127 1.85352 0
M  V30 4092 H 378.918 -1.12998 0.892604 0
M  V30 4093 H 380.871 -4.20522 0.271907 0
M  V30 4094 H 379.595 -3.22813 -0.495912 0
M  V30 4095 H 378.254 -3.28074 1.63595 0
M  V30 4096 H 377.902 -5.02862 -0.117845 0
M  V30 4097 H 377.602 -5.67765 1.51384 0
M  V30 4098 H 379.126 -6.06938 0.667693 0
M  V30 4099 H 380.54 -5.05688 2.70098 0
M  V30 4100 H 378.937 -4.89254 3.47491 0
M  V30 4101 H 380.007 -3.4826 3.37406 0
M  V30 4102 N 381.35 -0.985608 -1.22978 0
M  V30 4103 C 382.761 -0.693593 -1.73338 0
M  V30 4104 C 383.112 0.789935 -1.79595 0
M  V30 4105 O 382.237 1.61771 -1.43733 0
M  V30 4106 C 382.832 -1.25235 -3.14804 0
M  V30 4107 C 381.391 -1.00987 -3.626 0
M  V30 4108 C 380.538 -1.37695 -2.40698 0
M  V30 4109 H 383.489 -1.15884 -1.08428 0
M  V30 4110 H 383.51 -0.627329 -3.75293 0
M  V30 4111 H 383.022 -2.33209 -3.10218 0
M  V30 4112 H 381.123 0.0535565 -3.72562 0
M  V30 4113 H 381.236 -1.66812 -4.49122 0
M  V30 4114 H 379.6 -0.795459 -2.4196 0
M  V30 4115 H 380.383 -2.46657 -2.38779 0
M  V30 4116 N 382.828 1.3818 -0.7579 0
M  V30 4117 C 384.056 2.04301 -0.326937 0
M  V30 4118 C 384.471 1.57163 1.0462 0
M  V30 4119 O 383.828 0.746626 1.66529 0
M  V30 4120 C 383.879 3.59846 -0.345363 0
M  V30 4121 O 383.6 4.05256 -1.66432 0
M  V30 4122 C 385.101 4.4319 0.098927 0
M  V30 4123 H 382.321 0.656443 -0.139012 0
M  V30 4124 H 384.865 1.76786 -1.02796 0
M  V30 4125 H 383.02 3.86182 0.306955 0
M  V30 4126 H 383.434 4.99709 -1.59345 0
M  V30 4127 H 384.908 5.51989 0.0348745 0
M  V30 4128 H 385.385 4.23947 1.14741 0
M  V30 4129 H 385.991 4.22051 -0.52468 0
M  V30 4130 N 384.306 0.507319 1.49211 0
M  V30 4131 C 385.552 -0.0350047 2.0277 0
M  V30 4132 C 385.885 -1.3606 1.38569 0
M  V30 4133 O 385.16 -1.87321 0.523542 0
M  V30 4134 C 385.443 -0.180916 3.59645 0
M  V30 4135 C 385.296 1.16825 4.34364 0
M  V30 4136 C 386.615 -0.918558 4.30407 0
M  V30 4137 H 383.734 -0.0112473 0.736914 0
M  V30 4138 H 386.376 0.659956 1.7817 0
M  V30 4139 H 384.526 -0.772826 3.80736 0
M  V30 4140 H 386.198 1.79952 4.24753 0
M  V30 4141 H 384.441 1.75594 3.96673 0
M  V30 4142 H 385.112 1.01939 5.42506 0
M  V30 4143 H 387.588 -0.41649 4.1401 0
M  V30 4144 H 386.464 -0.989505 5.39907 0
M  V30 4145 H 386.725 -1.96373 3.96093 0
M  V30 4146 N 385.784 -1.5574 0.241426 0
M  V30 4147 C 386.714 -2.24133 -0.654722 0
M  V30 4148 C 387.695 -1.21974 -1.1856 0
M  V30 4149 O 388.88 -1.50612 -1.22595 0
M  V30 4150 C 386.01 -2.93659 -1.85423 0
M  V30 4151 C 384.964 -4.0246 -1.45636 0
M  V30 4152 C 384.29 -4.59383 -2.73626 0
M  V30 4153 C 385.59 -5.18468 -0.631506 0
M  V30 4154 H 387.284 -2.99281 -0.0844353 0
M  V30 4155 H 384.83 -1.43947 -0.0391707 0
M  V30 4156 H 386.783 -3.40203 -2.48676 0
M  V30 4157 H 385.507 -2.15991 -2.44981 0
M  V30 4158 H 384.166 -3.56676 -0.847202 0
M  V30 4159 H 383.814 -3.78422 -3.3137 0
M  V30 4160 H 383.514 -5.32826 -2.4773 0
M  V30 4161 H 385.038 -5.08658 -3.37786 0
M  V30 4162 H 386.452 -5.61272 -1.1682 0
M  V30 4163 H 384.849 -5.98266 -0.468831 0
M  V30 4164 H 385.919 -4.8358 0.357506 0
M  V30 4165 N 387.262 0.0317525 -1.57568 0
M  V30 4166 C 388.511 0.722131 -1.8833 0
M  V30 4167 C 388.824 1.76664 -0.839587 0
M  V30 4168 O 390.03 2.50942 -1.03635 0
M  V30 4169 C 388.486 1.33544 -3.34207 0
M  V30 4170 C 388.094 0.327415 -4.46802 0
M  V30 4171 C 389.838 2.00585 -3.7412 0
M  V30 4172 C 387.745 0.948915 -5.83738 0
M  V30 4173 H 386.675 0.273466 -0.702661 0
M  V30 4174 H 389.326 -0.0235811 -1.83485 0
M  V30 4175 H 387.708 2.13077 -3.33788 0
M  V30 4176 H 388.882 -0.441006 -4.58685 0
M  V30 4177 H 387.197 -0.240758 -4.15703 0
M  V30 4178 H 389.794 2.47932 -4.73744 0
M  V30 4179 H 390.137 2.82285 -3.05975 0
M  V30 4180 H 390.67 1.27831 -3.76702 0
M  V30 4181 H 387.409 0.171387 -6.55276 0
M  V30 4182 H 386.929 1.68724 -5.7558 0
M  V30 4183 H 388.608 1.45705 -6.3038 0
M  V30 4184 N 388.74 1.54641 0.303973 0
M  V30 4185 C 389.989 1.7299 1.03717 0
M  V30 4186 C 390.302 0.521168 1.88529 0
M  V30 4187 O 391.508 0.586408 2.65092 0
M  V30 4188 C 389.964 3.06051 1.89369 0
M  V30 4189 C 389.572 4.34393 1.09574 0
M  V30 4190 C 391.316 3.3376 2.62306 0
M  V30 4191 C 389.223 5.58506 1.94486 0
M  V30 4192 H 388.153 0.64473 0.390947 0
M  V30 4193 H 390.804 1.81124 0.294328 0
M  V30 4194 H 389.186 2.91874 2.67629 0
M  V30 4195 H 390.36 4.59396 0.359485 0
M  V30 4196 H 388.675 4.13597 0.482324 0
M  V30 4197 H 391.272 4.23687 3.26181 0
M  V30 4198 H 391.615 2.52503 3.3098 0
M  V30 4199 H 392.148 3.48894 1.91097 0
M  V30 4200 H 388.887 6.42422 1.30287 0
M  V30 4201 H 388.407 5.37694 2.65792 0
M  V30 4202 H 390.086 5.95651 2.52605 0
M  V30 4203 N 390.218 -0.567019 1.47046 0
M  V30 4204 C 391.181 -1.65696 1.58359 0
M  V30 4205 C 392.181 -1.54097 0.459441 0
M  V30 4206 O 393.371 -1.58432 0.724225 0
M  V30 4207 C 390.503 -3.05197 1.51879 0
M  V30 4208 H 391.696 -1.57019 2.5551 0
M  V30 4209 H 389.249 -0.786148 1.3509 0
M  V30 4210 H 389.984 -3.19417 0.560673 0
M  V30 4211 H 389.769 -3.15025 2.33455 0
M  V30 4212 H 391.259 -3.84511 1.62913 0
M  V30 4213 N 391.696 -1.35014 -0.812953 0
M  V30 4214 C 392.943 -1.27931 -1.56971 0
M  V30 4215 C 393.271 0.148034 -1.93936 0
M  V30 4216 O 392.526 1.11175 -1.61054 0
M  V30 4217 C 392.825 -2.12524 -2.87347 0
M  V30 4218 C 392.491 -3.61401 -2.6963 0
M  V30 4219 C 391.153 -4.01983 -2.64506 0
M  V30 4220 C 393.505 -4.55894 -2.52607 0
M  V30 4221 C 390.833 -5.35235 -2.40293 0
M  V30 4222 C 393.185 -5.89336 -2.29925 0
M  V30 4223 C 391.849 -6.2907 -2.23219 0
M  V30 4224 H 391.119 -0.468131 -0.574399 0
M  V30 4225 H 393.766 -1.66851 -0.939836 0
M  V30 4226 H 392.071 -1.66463 -3.54679 0
M  V30 4227 H 393.768 -2.04383 -3.45005 0
M  V30 4228 H 390.358 -3.29193 -2.74463 0
M  V30 4229 H 394.542 -4.25431 -2.55583 0
M  V30 4230 H 389.798 -5.65028 -2.33566 0
M  V30 4231 H 393.972 -6.62139 -2.15743 0
M  V30 4232 H 391.599 -7.32256 -2.04219 0
M  V30 4233 N 393.175 1.03435 -1.18907 0
M  V30 4234 C 394.105 2.13503 -0.945448 0
M  V30 4235 C 395.086 1.69682 0.119189 0
M  V30 4236 O 396.271 1.94169 -0.034707 0
M  V30 4237 C 393.401 3.44004 -0.477316 0
M  V30 4238 C 392.355 4.0148 -1.48316 0
M  V30 4239 C 391.681 5.27537 -0.872311 0
M  V30 4240 C 392.981 4.36921 -2.86177 0
M  V30 4241 H 394.675 2.34141 -1.86597 0
M  V30 4242 H 392.221 1.12523 -0.898584 0
M  V30 4243 H 394.174 4.20372 -0.294204 0
M  V30 4244 H 392.898 3.23072 0.478786 0
M  V30 4245 H 391.557 3.27201 -1.65332 0
M  V30 4246 H 391.205 5.02917 0.0911752 0
M  V30 4247 H 390.905 5.66954 -1.54393 0
M  V30 4248 H 392.429 6.06576 -0.699871 0
M  V30 4249 H 393.843 5.04248 -2.72776 0
M  V30 4250 H 392.24 4.87405 -3.50081 0
M  V30 4251 H 393.31 3.46466 -3.39248 0
M  V30 4252 N 394.653 0.992116 1.22453 0
M  V30 4253 C 395.583 0.561677 2.26644 0
M  V30 4254 C 396.564 -0.411055 1.65059 0
M  V30 4255 O 397.749 -0.301861 1.9184 0
M  V30 4256 C 394.879 -0.125247 3.47074 0
M  V30 4257 C 393.833 0.765948 4.21091 0
M  V30 4258 C 393.159 -0.0538484 5.34673 0
M  V30 4259 C 394.459 2.06242 4.79856 0
M  V30 4260 H 396.153 1.43259 2.62902 0
M  V30 4261 H 393.699 0.690283 1.26377 0
M  V30 4262 H 395.652 -0.437764 4.1912 0
M  V30 4263 H 394.376 -1.03069 3.0991 0
M  V30 4264 H 393.035 1.0621 3.50878 0
M  V30 4265 H 392.683 -0.960188 4.9375 0
M  V30 4266 H 392.383 0.539415 5.85119 0
M  V30 4267 H 393.907 -0.360477 6.09535 0
M  V30 4268 H 395.321 1.8139 5.43848 0
M  V30 4269 H 393.718 2.60444 5.40638 0
M  V30 4270 H 394.788 2.74167 3.99951 0
M  V30 4271 N 396.131 -1.37776 0.765217 0
M  V30 4272 C 397.361 -2.03828 0.337277 0
M  V30 4273 C 397.769 -1.57841 -1.04321 0
M  V30 4274 O 397.112 -0.752043 -1.67601 0
M  V30 4275 C 397.174 -3.58292 0.294407 0
M  V30 4276 C 396.838 -4.27384 1.61838 0
M  V30 4277 C 397.835 -4.51956 2.56967 0
M  V30 4278 C 395.52 -4.65345 1.89102 0
M  V30 4279 C 397.514 -5.13536 3.77571 0
M  V30 4280 C 395.201 -5.26647 3.09978 0
M  V30 4281 C 396.199 -5.50679 4.04032 0
M  V30 4282 O 395.887 -6.10702 5.2278 0
M  V30 4283 H 395.619 -0.661292 0.140248 0
M  V30 4284 H 398.173 -1.77222 1.03834 0
M  V30 4285 H 396.403 -3.83918 -0.462983 0
M  V30 4286 H 398.092 -4.05763 -0.105581 0
M  V30 4287 H 398.858 -4.23048 2.37183 0
M  V30 4288 H 394.737 -4.45978 1.16725 0
M  V30 4289 H 398.281 -5.3221 4.50997 0
M  V30 4290 H 394.178 -5.54979 3.29649 0
M  V30 4291 H 394.946 -6.29183 5.23517 0
M  V30 4292 N 397.609 -0.515225 -1.4894 0
M  V30 4293 C 398.837 0.0206034 -2.0689 0
M  V30 4294 C 399.252 1.29514 -1.37374 0
M  V30 4295 O 398.609 1.76698 -0.456529 0
M  V30 4296 C 398.66 0.26351 -3.60538 0
M  V30 4297 O 398.381 -0.960517 -4.27441 0
M  V30 4298 C 399.882 0.841383 -4.35242 0
M  V30 4299 H 397.102 -0.0268608 -0.670462 0
M  V30 4300 H 399.646 -0.716651 -1.91532 0
M  V30 4301 H 397.801 0.950777 -3.75552 0
M  V30 4302 H 398.215 -0.73212 -5.19365 0
M  V30 4303 H 399.689 0.96085 -5.43573 0
M  V30 4304 H 400.166 1.8427 -3.98674 0
M  V30 4305 H 400.772 0.191143 -4.2487 0
M  V30 4306 N 399.087 1.5561 -0.249682 0
M  V30 4307 C 400.336 1.98187 0.37479 0
M  V30 4308 C 400.649 1.14111 1.58865 0
M  V30 4309 O 401.855 1.46714 2.28445 0
M  V30 4310 C 400.311 3.52661 0.718192 0
M  V30 4311 C 399.919 4.45481 -0.474428 0
M  V30 4312 C 401.663 4.03888 1.3067 0
M  V30 4313 C 399.57 5.91303 -0.107026 0
M  V30 4314 H 398.5 0.740159 0.143808 0
M  V30 4315 H 401.151 1.80125 -0.350336 0
M  V30 4316 H 399.533 3.66429 1.50152 0
M  V30 4317 H 400.707 4.43473 -1.25172 0
M  V30 4318 H 399.022 4.04751 -0.978052 0
M  V30 4319 H 401.619 5.10358 1.59496 0
M  V30 4320 H 401.962 3.51401 2.23211 0
M  V30 4321 H 402.495 3.93457 0.586211 0
M  V30 4322 H 399.234 6.47833 -0.999642 0
M  V30 4323 H 398.754 5.9644 0.634013 0
M  V30 4324 H 400.433 6.46258 0.309807 0
M  V30 4325 N 400.565 -0.0233959 1.57583 0
M  V30 4326 C 401.981 -0.379134 1.55031 0
M  V30 4327 C 402.181 -1.76255 0.976548 0
M  V30 4328 O 401.237 -2.45266 0.600078 0
M  V30 4329 C 402.55 -0.275792 2.99433 0
M  V30 4330 C 404.098 -0.352458 3.11009 0
M  V30 4331 C 404.573 -0.278501 4.57152 0
M  V30 4332 N 406.064 -0.337123 4.61972 0
M  V30 4333 C 406.799 -0.302876 5.726 0
M  V30 4334 N 406.295 -0.220589 6.92449 0
M  V30 4335 N 408.088 -0.353023 5.6099 0
M  V30 4336 H 400.239 0.881869 1.93227 0
M  V30 4337 H 402.502 0.335867 0.886509 0
M  V30 4338 H 402.208 0.675108 3.4516 0
M  V30 4339 H 402.082 -1.06721 3.61788 0
M  V30 4340 H 404.469 -1.29379 2.65226 0
M  V30 4341 H 404.55 0.468409 2.51475 0
M  V30 4342 H 404.194 0.659189 5.03604 0
M  V30 4343 H 404.124 -1.11755 5.14605 0
M  V30 4344 H 406.615 -0.403002 3.75745 0
M  V30 4345 H 406.928 -0.199713 7.72542 0
M  V30 4346 H 405.273 -0.186555 6.9475 0
M  V30 4347 H 408.464 -0.415339 4.66254 0
M  V30 4348 H 408.637 -0.322866 6.47195 0
M  V30 4349 N 402.043 -1.548 -0.295768 0
M  V30 4350 C 403.459 -1.4613 -0.641722 0
M  V30 4351 C 403.659 -0.656771 -1.90496 0
M  V30 4352 O 402.715 -0.166547 -2.5195 0
M  V30 4353 C 404.028 -2.90141 -0.789852 0
M  V30 4354 C 405.576 -3.00216 -0.885396 0
M  V30 4355 C 406.051 -4.45434 -1.06548 0
M  V30 4356 N 407.542 -4.49166 -1.13156 0
M  V30 4357 C 408.277 -5.58717 -1.28929 0
M  V30 4358 N 407.773 -6.78182 -1.41567 0
M  V30 4359 N 409.566 -5.46415 -1.31859 0
M  V30 4360 H 401.717 -2.05574 0.534147 0
M  V30 4361 H 403.98 -0.931259 0.177372 0
M  V30 4362 H 403.686 -3.51635 0.0675598 0
M  V30 4363 H 403.56 -3.37859 -1.67724 0
M  V30 4364 H 405.947 -2.38833 -1.73329 0
M  V30 4365 H 406.028 -2.55787 0.0261185 0
M  V30 4366 H 405.672 -5.07413 -0.222335 0
M  V30 4367 H 405.602 -4.87499 -1.9913 0
M  V30 4368 H 408.093 -3.631 -1.04721 0
M  V30 4369 H 408.406 -7.57428 -1.53372 0
M  V30 4370 H 406.751 -6.81037 -1.38613 0
M  V30 4371 H 409.942 -4.5203 -1.21601 0
M  V30 4372 H 410.115 -6.31841 -1.43808 0
M  V30 4373 N 403.521 0.559213 -1.47345 0
M  V30 4374 C 404.769 1.31388 -1.53563 0
M  V30 4375 C 405.09 1.93985 -0.198678 0
M  V30 4376 O 404.36 1.79825 0.777167 0
M  V30 4377 H 402.94 0.487901 -0.565652 0
M  V30 4378 H 405.602 0.65315 -1.8363 0
M  V30 4379 H 404.698 2.10844 -2.30111 0
M  V30 4380 N 404.999 1.35443 0.805782 0
M  V30 4381 C 406.41 1.25768 1.37983 0
M  V30 4382 C 406.761 -0.10958 1.95894 0
M  V30 4383 O 405.886 -1.01056 1.91355 0
M  V30 4384 C 406.481 2.27727 2.5085 0
M  V30 4385 C 405.04 2.2179 3.04115 0
M  V30 4386 C 404.187 2.13393 1.77084 0
M  V30 4387 H 407.138 1.4656 0.608752 0
M  V30 4388 H 407.159 1.90422 3.29424 0
M  V30 4389 H 406.671 3.27227 2.08671 0
M  V30 4390 H 404.772 1.25703 3.50756 0
M  V30 4391 H 404.885 3.13788 3.62042 0
M  V30 4392 H 403.249 1.59384 1.98668 0
M  V30 4393 H 404.032 3.14755 1.37056 0
M  V30 4394 N 406.477 -1.02803 1.19454 0
M  V30 4395 C 407.44 -2.09264 0.934955 0
M  V30 4396 C 408.44 -1.60576 -0.0849015 0
M  V30 4397 O 409.63 -1.73554 0.149933 0
M  V30 4398 C 406.762 -3.38482 0.40531 0
M  V30 4399 H 407.955 -2.33726 1.87916 0
M  V30 4400 H 405.508 -1.19426 1.00832 0
M  V30 4401 H 406.243 -3.19689 -0.544899 0
M  V30 4402 H 406.028 -3.75142 1.14065 0
M  V30 4403 H 407.518 -4.16894 0.242806 0
M  V30 4404 N 407.956 -0.998596 -1.21925 0
M  V30 4405 C 409.204 -0.676325 -1.90448 0
M  V30 4406 C 409.525 0.794719 -1.78071 0
M  V30 4407 O 408.795 1.5701 -1.17152 0
M  V30 4408 H 407.375 -0.247165 -0.704925 0
M  V30 4409 H 410.037 -1.26633 -1.48156 0
M  V30 4410 H 409.133 -0.943858 -2.97486 0
M  V30 4411 N 409.434 1.37368 -0.772513 0
M  V30 4412 C 410.683 1.98918 -0.333861 0
M  V30 4413 C 410.996 1.62017 1.09589 0
M  V30 4414 O 412.202 2.16676 1.63596 0
M  V30 4415 C 410.658 3.55735 -0.545971 0
M  V30 4416 C 410.266 4.01573 -1.98603 0
M  V30 4417 C 412.01 4.24156 -0.170979 0
M  V30 4418 C 409.917 5.51102 -2.1457 0
M  V30 4419 H 408.847 0.744214 -0.121085 0
M  V30 4420 H 411.498 1.56888 -0.95175 0
M  V30 4421 H 409.88 3.95748 0.141387 0
M  V30 4422 H 411.054 3.72803 -2.7084 0
M  V30 4423 H 409.369 3.45937 -2.31769 0
M  V30 4424 H 411.966 5.34024 -0.26878 0
M  V30 4425 H 412.309 4.06917 0.878855 0
M  V30 4426 H 412.842 3.89447 -0.810914 0
M  V30 4427 H 409.581 5.73268 -3.17875 0
M  V30 4428 H 409.101 5.81554 -1.46817 0
M  V30 4429 H 410.78 6.17083 -1.94468 0
M  V30 4430 N 410.912 0.523116 1.48665 0
M  V30 4431 C 412.16 -0.0134497 2.02096 0
M  V30 4432 C 412.481 -1.35418 1.40311 0
M  V30 4433 O 411.751 -1.87543 0.566074 0
M  V30 4434 H 410.331 -0.00795915 0.746958 0
M  V30 4435 H 412.993 0.685388 1.82451 0
M  V30 4436 H 412.089 -0.126849 3.11842 0
M  V30 4437 N 412.39 -1.55475 0.257931 0
M  V30 4438 C 413.806 -1.59307 -0.0966563 0
M  V30 4439 C 414.006 -1.27514 -1.5602 0
M  V30 4440 O 413.062 -1.02774 -2.30637 0
M  V30 4441 C 414.375 -2.99552 0.262481 0
M  V30 4442 C 415.923 -3.1231 0.207683 0
M  V30 4443 C 416.398 -4.54793 0.541012 0
M  V30 4444 N 417.889 -4.6058 0.491921 0
M  V30 4445 C 418.624 -5.68825 0.722857 0
M  V30 4446 N 418.12 -6.85287 1.0175 0
M  V30 4447 N 419.913 -5.58296 0.652815 0
M  V30 4448 H 412.064 -1.74409 1.21224 0
M  V30 4449 H 414.327 -0.812424 0.48854 0
M  V30 4450 H 414.033 -3.27593 1.27967 0
M  V30 4451 H 413.907 -3.75019 -0.40508 0
M  V30 4452 H 416.294 -2.84044 -0.800195 0
M  V30 4453 H 416.375 -2.39095 0.909255 0
M  V30 4454 H 416.019 -4.83783 1.5465 0
M  V30 4455 H 415.949 -5.26285 -0.18216 0
M  V30 4456 H 418.44 -3.7691 0.273366 0
M  V30 4457 H 418.753 -7.63725 1.18084 0
M  V30 4458 H 417.098 -6.86945 1.05509 0
M  V30 4459 H 420.289 -4.66189 0.422592 0
M  V30 4460 H 420.462 -6.42582 0.836182 0
M  V30 4461 N 413.868 0.0150385 -1.57593 0
M  V30 4462 C 415.096 0.714395 -1.94175 0
M  V30 4463 C 415.511 1.68135 -0.858841 0
M  V30 4464 O 414.868 1.81766 0.163567 0
M  V30 4465 C 414.919 1.45933 -3.30735 0
M  V30 4466 O 414.64 0.531167 -4.34868 0
M  V30 4467 C 416.141 2.25456 -3.81686 0
M  V30 4468 H 413.361 0.199923 -0.640525 0
M  V30 4469 H 415.905 -0.0316096 -2.04476 0
M  V30 4470 H 414.06 2.15709 -3.21789 0
M  V30 4471 H 414.474 1.05509 -5.13778 0
M  V30 4472 H 415.948 2.731 -4.79709 0
M  V30 4473 H 416.425 3.07485 -3.13607 0
M  V30 4474 H 417.031 1.60727 -3.9376 0
M  V30 4475 N 415.346 1.54954 0.287554 0
M  V30 4476 C 416.594 1.74528 1.01904 0
M  V30 4477 C 416.915 0.541349 1.87335 0
M  V30 4478 O 416.185 -0.444108 1.908 0
M  V30 4479 H 414.765 0.643576 0.379235 0
M  V30 4480 H 417.427 1.92333 0.315294 0
M  V30 4481 H 416.523 2.64015 1.6644 0
M  V30 4482 N 416.824 -0.551391 1.4764 0
M  V30 4483 C 418.24 -0.877887 1.33287 0
M  V30 4484 C 418.44 -1.98817 0.327721 0
M  V30 4485 O 417.496 -2.51171 -0.258695 0
M  V30 4486 C 418.809 -1.26563 2.72768 0
M  V30 4487 C 420.357 -1.37673 2.81097 0
M  V30 4488 C 420.832 -1.79799 4.21232 0
M  V30 4489 N 422.323 -1.8694 4.23802 0
M  V30 4490 C 423.058 -2.20876 5.29151 0
M  V30 4491 N 422.554 -2.53386 6.448 0
M  V30 4492 N 424.347 -2.217 5.16532 0
M  V30 4493 H 416.498 0.18153 2.11623 0
M  V30 4494 H 418.761 0.0185514 0.947818 0
M  V30 4495 H 418.467 -0.523591 3.47781 0
M  V30 4496 H 418.341 -2.22052 3.04915 0
M  V30 4497 H 420.728 -2.10956 2.06353 0
M  V30 4498 H 420.809 -0.40357 2.52596 0
M  V30 4499 H 420.453 -1.07083 4.96483 0
M  V30 4500 H 420.383 -2.78128 4.4716 0
M  V30 4501 H 422.874 -1.64179 3.40373 0
M  V30 4502 H 423.187 -2.78325 7.20941 0
M  V30 4503 H 421.532 -2.50953 6.48111 0
M  V30 4504 H 424.723 -1.95745 4.25207 0
M  V30 4505 H 424.896 -2.47818 5.98741 0
M  V30 4506 N 418.302 -1.35869 -0.798587 0
M  V30 4507 C 419.55 -1.29332 -1.55298 0
M  V30 4508 C 419.871 0.129729 -1.94568 0
M  V30 4509 O 419.141 1.06796 -1.6423 0
M  V30 4510 H 417.721 -0.475737 -0.57592 0
M  V30 4511 H 420.383 -1.70062 -0.952093 0
M  V30 4512 H 419.479 -1.91458 -2.46476 0
M  V30 4513 N 419.78 1.02168 -1.19998 0
M  V30 4514 C 420.713 2.10232 -0.887558 0
M  V30 4515 C 421.691 1.61827 0.158317 0
M  V30 4516 O 422.875 1.88471 0.0330249 0
M  V30 4517 C 420.002 3.37092 -0.32964 0
M  V30 4518 C 419.048 4.0438 -1.3557 0
M  V30 4519 S 419.881 4.48956 -2.91888 0
M  V30 4520 C 421.037 5.79024 -2.37658 0
M  V30 4521 H 421.27 2.36409 -1.80272 0
M  V30 4522 H 418.803 1.15211 -1.0279 0
M  V30 4523 H 420.761 4.10498 -0.0142824 0
M  V30 4524 H 419.422 3.08996 0.563941 0
M  V30 4525 H 418.615 4.95632 -0.9146 0
M  V30 4526 H 418.217 3.37176 -1.61828 0
M  V30 4527 H 420.509 6.53942 -1.77103 0
M  V30 4528 H 421.452 6.27924 -3.27287 0
M  V30 4529 H 421.86 5.35043 -1.79971 0
M  V30 4530 N 421.258 1.00505 1.21394 0
M  V30 4531 C 422.506 0.686415 1.90086 0
M  V30 4532 C 422.827 -0.785264 1.7849 0
M  V30 4533 O 422.097 -1.56387 1.17983 0
M  V30 4534 H 420.677 0.2509 0.703604 0
M  V30 4535 H 423.339 1.27417 1.47482 0
M  V30 4536 H 422.435 0.959621 2.96981 0
M  V30 4537 N 422.737 -1.36956 0.779787 0
M  V30 4538 C 423.985 -1.99097 0.347079 0
M  V30 4539 C 424.306 -1.62206 -1.08232 0
M  V30 4540 O 423.576 -0.891373 -1.74446 0
M  V30 4541 H 422.156 -0.736409 0.125342 0
M  V30 4542 H 424.818 -1.67308 0.999696 0
M  V30 4543 H 423.914 -3.09107 0.431162 0
M  V30 4544 N 424.215 -0.530993 -1.48385 0
M  V30 4545 C 425.145 0.219985 -2.32461 0
M  V30 4546 C 426.126 0.934111 -1.42156 0
M  V30 4547 O 427.311 0.919694 -1.71042 0
M  V30 4548 C 424.441 1.26674 -3.23375 0
M  V30 4549 C 423.395 0.67069 -4.22712 0
M  V30 4550 C 422.721 1.82017 -5.02766 0
M  V30 4551 C 424.021 -0.358268 -5.2107 0
M  V30 4552 H 425.715 -0.48187 -2.95497 0
M  V30 4553 H 423.261 -0.233182 -1.42099 0
M  V30 4554 H 425.214 1.80006 -3.81019 0
M  V30 4555 H 423.938 1.99818 -2.58341 0
M  V30 4556 H 422.597 0.158878 -3.66256 0
M  V30 4557 H 422.245 2.54002 -4.34157 0
M  V30 4558 H 421.945 1.42727 -5.70003 0
M  V30 4559 H 423.469 2.35725 -5.63264 0
M  V30 4560 H 424.883 0.0880081 -5.73232 0
M  V30 4561 H 423.28 -0.66861 -5.96364 0
M  V30 4562 H 424.35 -1.26367 -4.68145 0
M  V30 4563 N 425.693 1.55336 -0.266172 0
M  V30 4564 C 426.94 1.99397 0.353158 0
M  V30 4565 C 427.268 1.15451 1.56529 0
M  V30 4566 O 426.523 0.209974 1.9457 0
M  V30 4567 C 426.822 3.48606 0.787957 0
M  V30 4568 C 426.488 4.49773 -0.318541 0
M  V30 4569 C 425.15 4.77158 -0.62239 0
M  V30 4570 C 427.502 5.10212 -1.06459 0
M  V30 4571 C 424.83 5.62251 -1.67602 0
M  V30 4572 C 427.182 5.96449 -2.10788 0
M  V30 4573 C 425.846 6.22158 -2.41817 0
M  V30 4574 H 425.116 0.729644 0.12923 0
M  V30 4575 H 427.763 1.87732 -0.37802 0
M  V30 4576 H 426.068 3.57701 1.59866 0
M  V30 4577 H 427.765 3.80098 1.27775 0
M  V30 4578 H 424.355 4.2854 -0.0715925 0
M  V30 4579 H 428.539 4.89086 -0.843098 0
M  V30 4580 H 423.795 5.80419 -1.92155 0
M  V30 4581 H 427.969 6.42317 -2.69076 0
M  V30 4582 H 425.596 6.87888 -3.23596 0
M  V30 4583 N 427.171 -0.0066808 1.57599 0
M  V30 4584 C 428.396 -0.707738 1.94951 0
M  V30 4585 C 428.821 -1.66882 0.867868 0
M  V30 4586 O 428.179 -1.80457 -0.17458 0
M  V30 4587 C 428.227 -1.42162 3.31394 0
M  V30 4588 O 427.331 -2.53578 3.25226 0
M  V30 4589 H 426.672 -0.188752 0.636607 0
M  V30 4590 H 429.202 0.0445193 2.04552 0
M  V30 4591 H 429.212 -1.78655 3.66806 0
M  V30 4592 H 427.887 -0.716903 4.09675 0
M  V30 4593 H 426.464 -2.19463 3.01481 0
M  V30 4594 N 428.649 -1.55105 -0.279332 0
M  V30 4595 C 429.895 -1.75672 -1.01327 0
M  V30 4596 C 430.228 -0.552739 -1.86168 0
M  V30 4597 O 429.503 0.449827 -1.89227 0
M  V30 4598 C 429.786 -3.05825 -1.90114 0
M  V30 4599 C 429.639 -4.36565 -1.08309 0
M  V30 4600 C 430.958 -3.31975 -2.8893 0
M  V30 4601 H 428.077 -0.639149 -0.366957 0
M  V30 4602 H 430.719 -1.87833 -0.286154 0
M  V30 4603 H 428.869 -2.95588 -2.52111 0
M  V30 4604 H 430.541 -4.58751 -0.484314 0
M  V30 4605 H 428.784 -4.32076 -0.386362 0
M  V30 4606 H 429.455 -5.23946 -1.73737 0
M  V30 4607 H 431.931 -3.41963 -2.37067 0
M  V30 4608 H 430.807 -4.2432 -3.48201 0
M  V30 4609 H 431.068 -2.51309 -3.63725 0
M  V30 4610 N 430.127 0.543554 -1.4793 0
M  V30 4611 C 431.375 1.29752 -1.54948 0
M  V30 4612 C 431.696 1.93764 -0.219242 0
M  V30 4613 O 430.966 1.80639 0.75805 0
M  V30 4614 H 429.546 0.481874 -0.570795 0
M  V30 4615 H 432.208 0.633636 -1.84312 0
M  V30 4616 H 431.304 2.08392 -2.32334 0
M  V30 4617 N 431.605 1.3629 0.791371 0
M  V30 4618 C 432.515 1.32606 1.93527 0
M  V30 4619 C 433.531 0.228541 1.72493 0
M  V30 4620 O 434.707 0.460571 1.96063 0
M  V30 4621 C 431.772 1.11271 3.28359 0
M  V30 4622 C 430.833 2.3048 3.62185 0
M  V30 4623 C 430.066 2.10154 4.90583 0
M  V30 4624 O 430.289 1.07572 5.60165 0
M  V30 4625 O 429.223 2.97884 5.23019 0
M  V30 4626 H 433.049 2.28909 1.99585 0
M  V30 4627 H 430.634 1.16818 0.931344 0
M  V30 4628 H 432.516 1.01283 4.09047 0
M  V30 4629 H 431.191 0.180292 3.23198 0
M  V30 4630 H 430.098 2.46036 2.81811 0
M  V30 4631 H 431.431 3.22221 3.72068 0
M  V30 4632 N 433.083 -1.0153 1.20538 0
M  V30 4633 C 434.311 -1.78746 1.04199 0
M  V30 4634 C 434.726 -1.84323 -0.408733 0
M  V30 4635 O 434.083 -1.29714 -1.28377 0
M  V30 4636 C 434.134 -3.23152 1.62035 0
M  V30 4637 O 433.855 -3.17918 3.0143 0
M  V30 4638 C 435.356 -4.16911 1.50666 0
M  V30 4639 H 432.576 -0.56208 0.366479 0
M  V30 4640 H 435.12 -1.27794 1.59653 0
M  V30 4641 H 433.275 -3.71248 1.10697 0
M  V30 4642 H 433.689 -4.08567 3.28897 0
M  V30 4643 H 435.163 -5.16072 1.95892 0
M  V30 4644 H 435.64 -4.36791 0.459363 0
M  V30 4645 H 436.246 -3.74698 2.01201 0
M  V30 4646 N 434.561 -1.01147 -1.20859 0
M  V30 4647 C 435.789 -0.716911 -1.94082 0
M  V30 4648 C 436.204 0.721568 -1.74467 0
M  V30 4649 O 435.561 1.48889 -1.05539 0
M  V30 4650 C 435.612 -1.03662 -3.46318 0
M  V30 4651 O 435.333 -2.4186 -3.65288 0
M  V30 4652 C 436.834 -0.762386 -4.36695 0
M  V30 4653 H 434.054 -0.26367 -0.617024 0
M  V30 4654 H 436.598 -1.35127 -1.53496 0
M  V30 4655 H 434.753 -0.447757 -3.84804 0
M  V30 4656 H 435.167 -2.53224 -4.59323 0
M  V30 4657 H 436.641 -1.03621 -5.42187 0
M  V30 4658 H 437.118 0.303514 -4.3815 0
M  V30 4659 H 437.724 -1.33316 -4.03865 0
M  V30 4660 N 436.039 1.36541 -0.78704 0
M  V30 4661 C 437.002 2.28413 -0.189778 0
M  V30 4662 C 438.002 1.48719 0.611499 0
M  V30 4663 O 439.192 1.68737 0.432842 0
M  V30 4664 C 436.324 3.32824 0.737638 0
M  V30 4665 H 437.517 2.82743 -0.999831 0
M  V30 4666 H 435.07 1.46065 -0.556298 0
M  V30 4667 H 435.805 2.83646 1.57212 0
M  V30 4668 H 435.59 3.91752 0.165044 0
M  V30 4669 H 437.08 4.0144 1.15047 0
M  V30 4670 N 437.518 0.538854 1.48102 0
M  V30 4671 C 438.465 -0.219042 2.29758 0
M  V30 4672 C 439.435 -0.925562 1.37922 0
M  V30 4673 O 440.62 -0.924855 1.66886 0
M  V30 4674 C 437.76 -1.25452 3.2149 0
M  V30 4675 C 436.873 -0.555943 4.28408 0
M  V30 4676 C 436.008 -1.57512 5.0731 0
M  V30 4677 C 435.047 -0.860498 6.06021 0
M  V30 4678 N 434.184 -1.82564 6.77949 0
M  V30 4679 H 439.024 0.483449 2.94052 0
M  V30 4680 H 436.561 0.250247 1.44956 0
M  V30 4681 H 438.519 -1.86727 3.7308 0
M  V30 4682 H 437.149 -1.92528 2.591 0
M  V30 4683 H 436.201 0.170938 3.80016 0
M  V30 4684 H 437.513 0.00474616 4.988 0
M  V30 4685 H 436.667 -2.26191 5.62959 0
M  V30 4686 H 435.406 -2.16972 4.36778 0
M  V30 4687 H 434.411 -0.159686 5.49568 0
M  V30 4688 H 435.636 -0.271897 6.78555 0
M  V30 4689 H 433.582 -2.40915 6.10161 0
M  V30 4690 H 433.499 -1.31662 7.44447 0
M  V30 4691 H 434.767 -2.50414 7.38182 0
M  V30 4692 N 438.996 -1.55193 0.274407 0
M  V30 4693 C 440.242 -1.99877 -0.343086 0
M  V30 4694 C 440.575 -1.16256 -1.55558 0
M  V30 4695 O 439.85 -0.232462 -1.93106 0
M  V30 4696 C 440.133 -3.52706 -0.725965 0
M  V30 4697 C 439.986 -4.47081 0.493818 0
M  V30 4698 C 441.305 -4.11422 -1.56268 0
M  V30 4699 H 438.424 -0.726625 -0.123229 0
M  V30 4700 H 441.066 -1.86136 0.38121 0
M  V30 4701 H 439.216 -3.64546 -1.34307 0
M  V30 4702 H 440.888 -4.47186 1.13237 0
M  V30 4703 H 439.131 -4.1877 1.13201 0
M  V30 4704 H 439.802 -5.51699 0.18217 0
M  V30 4705 H 442.278 -4.02855 -1.04151 0
M  V30 4706 H 441.154 -5.18568 -1.79939 0
M  V30 4707 H 441.415 -3.61607 -2.54348 0
M  V30 4708 N 440.474 -0.00167713 -1.576 0
M  V30 4709 C 441.404 0.988091 -2.11563 0
M  V30 4710 C 442.385 1.35736 -1.02517 0
M  V30 4711 O 443.57 1.44082 -1.30208 0
M  V30 4712 C 440.7 2.27941 -2.62031 0
M  V30 4713 C 439.654 2.0517 -3.75619 0
M  V30 4714 C 438.98 3.4033 -4.12407 0
M  V30 4715 C 440.28 1.41294 -5.02825 0
M  V30 4716 H 441.974 0.538771 -2.94513 0
M  V30 4717 H 439.52 0.257712 -1.41675 0
M  V30 4718 H 441.473 2.97539 -2.9841 0
M  V30 4719 H 440.197 2.74989 -1.76205 0
M  V30 4720 H 438.856 1.37998 -3.39635 0
M  V30 4721 H 438.504 3.85085 -3.23603 0
M  V30 4722 H 438.204 3.25909 -4.88935 0
M  V30 4723 H 439.728 4.1124 -4.51347 0
M  V30 4724 H 441.142 2.00851 -5.36965 0
M  V30 4725 H 439.539 1.37356 -5.84169 0
M  V30 4726 H 440.609 0.382362 -4.8339 0
M  V30 4727 N 441.952 1.55251 0.271103 0
M  V30 4728 C 442.899 1.88261 1.33516 0
M  V30 4729 C 443.869 0.734296 1.48988 0
M  V30 4730 O 445.054 0.985741 1.63364 0
M  V30 4731 C 442.194 2.16168 2.69008 0
M  V30 4732 C 441.307 3.43678 2.61743 0
M  V30 4733 C 440.442 3.61276 3.89427 0
M  V30 4734 C 439.481 4.82472 3.7668 0
M  V30 4735 N 438.618 4.96717 4.96202 0
M  V30 4736 H 443.458 2.79015 1.04665 0
M  V30 4737 H 440.995 1.38137 0.505618 0
M  V30 4738 H 442.953 2.30349 3.47844 0
M  V30 4739 H 441.583 1.28646 2.96057 0
M  V30 4740 H 440.635 3.37959 1.74607 0
M  V30 4741 H 441.947 4.3265 2.48224 0
M  V30 4742 H 441.101 3.75284 4.76704 0
M  V30 4743 H 439.84 2.70492 4.05814 0
M  V30 4744 H 438.845 4.68465 2.87786 0
M  V30 4745 H 440.07 5.74692 3.61809 0
M  V30 4746 H 438.016 4.08865 5.12997 0
M  V30 4747 H 437.933 5.79738 4.85222 0
M  V30 4748 H 439.201 5.15113 5.85046 0
M  V30 4749 N 443.43 -0.535701 1.48216 0
M  V30 4750 C 444.707 -1.29683 1.46429 0
M  V30 4751 C 445.087 -2.10391 0.172852 0
M  V30 4752 O 444.435 -2.12282 -0.845488 0
M  V30 4753 C 444.645 -2.18313 2.72287 0
M  V30 4754 C 445.993 -2.78639 3.20383 0
M  V30 4755 O 447.017 -2.28604 2.73164 0
M  V30 4756 O 445.876 -3.69636 4.02531 0
M  V30 4757 H 442.97 -0.585026 0.584529 0
M  V30 4758 H 445.516 -0.552827 1.60443 0
M  V30 4759 H 444.288 -1.58421 3.57797 0
M  V30 4760 H 443.911 -2.99971 2.60966 0
M  V30 4761 N 444.908 -1.36708 -0.784132 0
M  V30 4762 C 445.818 -1.3363 -1.92822 0
M  V30 4763 C 446.834 -0.237686 -1.72369 0
M  V30 4764 O 448.01 -0.470962 -1.95816 0
M  V30 4765 C 445.075 -1.13011 -3.27764 0
M  V30 4766 C 444.136 -2.32397 -3.60957 0
M  V30 4767 C 443.369 -2.12752 -4.89461 0
M  V30 4768 O 443.592 -1.10541 -5.59586 0
M  V30 4769 O 442.526 -3.00653 -5.21432 0
M  V30 4770 H 446.352 -2.29964 -1.98369 0
M  V30 4771 H 443.937 -1.1731 -0.925136 0
M  V30 4772 H 445.819 -1.03451 -4.08504 0
M  V30 4773 H 444.494 -0.19743 -3.23097 0
M  V30 4774 H 443.401 -2.47527 -2.80502 0
M  V30 4775 H 444.734 -3.2419 -3.70354 0
M  V30 4776 N 446.386 1.0089 -1.21074 0
M  V30 4777 C 447.635 1.74019 -1.01981 0
M  V30 4778 C 447.948 1.90408 0.447665 0
M  V30 4779 O 449.154 2.60707 0.757906 0
M  V30 4780 C 447.61 3.13026 -1.77603 0
M  V30 4781 C 447.218 3.04623 -3.28495 0
M  V30 4782 C 448.962 3.90312 -1.66904 0
M  V30 4783 C 446.869 4.38685 -3.96623 0
M  V30 4784 H 445.799 0.652422 -0.377971 0
M  V30 4785 H 448.45 1.12755 -1.44771 0
M  V30 4786 H 446.832 3.74878 -1.27604 0
M  V30 4787 H 448.006 2.52032 -3.85767 0
M  V30 4788 H 446.321 2.40827 -3.39693 0
M  V30 4789 H 448.918 4.8951 -2.15138 0
M  V30 4790 H 449.261 4.11558 -0.62658 0
M  V30 4791 H 449.794 3.35104 -2.14359 0
M  V30 4792 H 446.533 4.22641 -5.01054 0
M  V30 4793 H 446.053 4.91252 -3.4414 0
M  V30 4794 H 447.732 5.075 -4.01314 0
M  V30 4795 N 447.864 1.01787 1.20321 0
M  V30 4796 C 449.141 0.622978 1.85414 0
M  V30 4797 C 449.521 -0.898887 1.91006 0
M  V30 4798 O 448.869 -1.79112 1.41884 0
M  V30 4799 C 449.079 1.27226 3.24984 0
M  V30 4800 C 450.427 1.3885 4.01255 0
M  V30 4801 O 451.451 1.22857 3.34342 0
M  V30 4802 O 450.31 1.64705 5.2109 0
M  V30 4803 H 447.404 0.215116 0.798533 0
M  V30 4804 H 449.95 1.11533 1.27901 0
M  V30 4805 H 448.722 2.31209 3.15687 0
M  V30 4806 H 448.345 0.767069 3.90131 0
M  V30 4807 N 449.342 -1.36122 0.79427 0
M  V30 4808 C 450.588 -1.99406 0.369452 0
M  V30 4809 C 450.921 -1.62886 -1.05743 0
M  V30 4810 O 450.196 -0.886053 -1.73145 0
M  V30 4811 C 450.479 -3.56046 0.538833 0
M  V30 4812 C 450.332 -4.02404 2.00976 0
M  V30 4813 C 451.651 -4.40079 -0.0431359 0
M  V30 4814 H 448.77 -0.724397 0.135712 0
M  V30 4815 H 451.412 -1.61461 1.00151 0
M  V30 4816 H 449.562 -3.885 0.000771004 0
M  V30 4817 H 451.234 -3.80415 2.60926 0
M  V30 4818 H 449.477 -3.53765 2.51063 0
M  V30 4819 H 450.148 -5.11344 2.07922 0
M  V30 4820 H 452.624 -4.14013 0.416228 0
M  V30 4821 H 451.5 -5.48799 0.105374 0
M  V30 4822 H 451.761 -4.27264 -1.13571 0
M  V30 4823 N 450.82 -0.546701 -1.47814 0
M  V30 4824 C 451.767 0.206854 -2.29871 0
M  V30 4825 C 452.737 0.918235 -1.38411 0
M  V30 4826 O 453.922 0.915991 -1.67375 0
M  V30 4827 C 451.062 1.23746 -3.22151 0
M  V30 4828 C 450.175 0.533216 -4.28697 0
M  V30 4829 C 449.31 1.5482 -5.08138 0
M  V30 4830 C 448.349 0.828347 -6.06469 0
M  V30 4831 N 447.486 1.78966 -6.78908 0
M  V30 4832 H 452.326 -0.499037 -2.93792 0
M  V30 4833 H 449.863 -0.25793 -1.44821 0
M  V30 4834 H 451.821 1.84746 -3.74065 0
M  V30 4835 H 450.451 1.91151 -2.60117 0
M  V30 4836 H 449.503 -0.191089 -3.7992 0
M  V30 4837 H 450.815 -0.0311987 -4.9879 0
M  V30 4838 H 449.969 2.23202 -5.6415 0
M  V30 4839 H 448.708 2.14652 -4.37922 0
M  V30 4840 H 447.713 0.130539 -5.49645 0
M  V30 4841 H 448.938 0.235907 -6.7869 0
M  V30 4842 H 446.884 2.37675 -6.1143 0
M  V30 4843 H 446.801 1.27712 -7.45135 0
M  V30 4844 H 448.069 2.46496 -7.395 0
M  V30 4845 N 452.299 1.55045 -0.282633 0
M  V30 4846 C 453.546 1.9976 0.33199 0
M  V30 4847 C 453.874 1.17105 1.55295 0
M  V30 4848 O 453.129 0.230599 1.94337 0
M  V30 4849 C 453.428 3.49422 0.750938 0
M  V30 4850 C 453.094 4.4941 -0.366228 0
M  V30 4851 C 451.756 4.76471 -0.672964 0
M  V30 4852 C 454.108 5.09054 -1.11864 0
M  V30 4853 C 451.436 5.60442 -1.73556 0
M  V30 4854 C 453.788 5.9418 -2.17102 0
M  V30 4855 C 452.452 6.19558 -2.48402 0
M  V30 4856 H 451.722 0.730974 0.121484 0
M  V30 4857 H 454.369 1.8732 -0.39791 0
M  V30 4858 H 452.674 3.59377 1.56063 0
M  V30 4859 H 454.371 3.81432 1.23736 0
M  V30 4860 H 450.961 4.2844 -0.117041 0
M  V30 4861 H 455.145 4.88165 -0.894925 0
M  V30 4862 H 450.401 5.78349 -1.983 0
M  V30 4863 H 454.575 6.39427 -2.75873 0
M  V30 4864 H 452.202 6.84417 -3.30874 0
M  V30 4865 N 453.777 0.010035 1.57597 0
M  V30 4866 C 454.724 -0.978122 2.09049 0
M  V30 4867 C 455.694 -1.33509 0.988159 0
M  V30 4868 O 456.879 -1.43172 1.26121 0
M  V30 4869 C 454.019 -2.26158 2.60666 0
M  V30 4870 C 453.132 -1.96275 3.84838 0
M  V30 4871 C 452.267 -3.18776 4.24918 0
M  V30 4872 C 451.306 -2.84625 5.41899 0
M  V30 4873 N 450.443 -3.99693 5.77226 0
M  V30 4874 H 455.283 -0.532431 2.93205 0
M  V30 4875 H 452.82 -0.251234 1.44939 0
M  V30 4876 H 454.778 -3.01202 2.88675 0
M  V30 4877 H 453.408 -2.68378 1.79369 0
M  V30 4878 H 452.46 -1.11555 3.63675 0
M  V30 4879 H 453.772 -1.67111 4.69974 0
M  V30 4880 H 452.926 -4.02157 4.54262 0
M  V30 4881 H 451.665 -3.51087 3.38511 0
M  V30 4882 H 450.67 -1.99653 5.12268 0
M  V30 4883 H 451.895 -2.53551 6.29991 0
M  V30 4884 H 449.841 -4.31882 4.93776 0
M  V30 4885 H 449.758 -3.74087 6.56959 0
M  V30 4886 H 451.026 -4.83834 6.11167 0
M  V30 4887 N 455.255 -1.55392 -0.262866 0
M  V30 4888 C 456.532 -1.67204 -1.01499 0
M  V30 4889 C 456.912 -0.545186 -2.03939 0
M  V30 4890 O 456.26 0.453467 -2.23955 0
M  V30 4891 C 456.47 -3.06847 -1.6627 0
M  V30 4892 C 457.818 -3.64928 -2.17054 0
M  V30 4893 O 458.842 -3.09545 -1.76239 0
M  V30 4894 O 457.701 -4.61984 -2.91947 0
M  V30 4895 H 454.795 -0.679467 -0.471438 0
M  V30 4896 H 457.341 -1.67729 -0.257918 0
M  V30 4897 H 456.113 -3.80309 -0.920915 0
M  V30 4898 H 455.736 -3.10266 -2.48638 0
M  V30 4899 N 456.733 0.527833 -1.48498 0
M  V30 4900 C 457.979 1.28545 -1.56857 0
M  V30 4901 C 458.312 1.92678 -0.242651 0
M  V30 4902 O 457.587 1.79394 0.751545 0
M  V30 4903 C 457.87 2.37314 -2.70839 0
M  V30 4904 C 457.723 1.77858 -4.13142 0
M  V30 4905 C 459.042 3.39068 -2.80573 0
M  V30 4906 H 456.161 0.466006 -0.570971 0
M  V30 4907 H 458.803 0.587784 -1.8068 0
M  V30 4908 H 456.953 2.96821 -2.50658 0
M  V30 4909 H 458.625 1.22385 -4.44769 0
M  V30 4910 H 456.868 1.08383 -4.20042 0
M  V30 4911 H 457.539 2.56624 -4.88721 0
M  V30 4912 H 460.015 2.89518 -2.98862 0
M  V30 4913 H 458.891 4.12566 -3.6205 0
M  V30 4914 H 459.152 3.9975 -1.88818 0
M  V30 4915 N 458.211 1.37122 0.776871 0
M  V30 4916 C 459.174 1.32301 1.8716 0
M  V30 4917 C 460.174 0.228099 1.59174 0
M  V30 4918 O 461.364 0.483642 1.67352 0
M  V30 4919 C 458.496 1.054 3.24197 0
M  V30 4920 H 459.689 2.29673 1.92848 0
M  V30 4921 H 457.242 1.22077 0.97606 0
M  V30 4922 H 457.977 0.0853872 3.24188 0
M  V30 4923 H 457.762 1.84648 3.45901 0
M  V30 4924 H 459.252 1.04664 4.04271 0
M  V30 4925 N 459.689 -1.00246 1.21608 0
M  V30 4926 C 460.937 -1.73717 1.0328 0
M  V30 4927 C 461.258 -1.90102 -0.434318 0
M  V30 4928 O 460.528 -1.45376 -1.31311 0
M  V30 4929 H 459.108 -0.643613 0.379172 0
M  V30 4930 H 461.77 -1.20787 1.52959 0
M  V30 4931 H 460.866 -2.73535 1.50283 0
M  V30 4932 N 461.167 -1.02423 -1.1978 0
M  V30 4933 C 462.407 -0.726635 -1.91048 0
M  V30 4934 C 462.771 0.730947 -1.77542 0
M  V30 4935 O 463.972 1.14141 -2.43362 0
M  V30 4936 C 462.243 -1.15964 -3.38064 0
M  V30 4937 S 463.802 -0.985172 -4.27598 0
M  V30 4938 H 460.62 -0.264679 -0.659899 0
M  V30 4939 H 463.222 -1.31309 -1.44838 0
M  V30 4940 H 461.926 -2.21619 -3.45417 0
M  V30 4941 H 461.457 -0.566274 -3.89303 0
M  V30 4942 H 463.472 0.106946 -4.96085 0
M  V30 4943 N 462.645 1.35699 -0.801477 0
M  V30 4944 C 463.555 2.33661 -0.209691 0
M  V30 4945 C 464.571 1.6162 0.644591 0
M  V30 4946 O 465.747 1.93529 0.557545 0
M  V30 4947 C 462.812 3.40816 0.636033 0
M  V30 4948 C 461.873 4.28639 -0.238147 0
M  V30 4949 C 461.106 5.30676 0.567307 0
M  V30 4950 O 461.329 5.41174 1.8024 0
M  V30 4951 O 460.263 6.01887 -0.0391336 0
M  V30 4952 H 464.089 2.8606 -1.01996 0
M  V30 4953 H 461.674 1.38379 -0.563164 0
M  V30 4954 H 463.556 4.06301 1.11791 0
M  V30 4955 H 462.231 2.90696 1.42399 0
M  V30 4956 H 461.138 3.66152 -0.767044 0
M  V30 4957 H 462.471 4.82143 -0.989915 0
M  V30 4958 N 464.123 0.554532 1.47522 0
M  V30 4959 C 465.033 -0.197865 2.33764 0
M  V30 4960 C 466.049 -0.914576 1.48025 0
M  V30 4961 O 467.225 -0.884067 1.80959 0
M  V30 4962 C 464.29 -1.21628 3.24665 0
M  V30 4963 C 463.351 -0.507283 4.26292 0
M  V30 4964 C 462.584 -1.47718 5.1285 0
M  V30 4965 O 462.807 -2.7118 5.01814 0
M  V30 4966 O 461.741 -1.00313 5.93482 0
M  V30 4967 H 465.567 0.50949 2.99396 0
M  V30 4968 H 463.152 0.315176 1.46038 0
M  V30 4969 H 465.034 -1.80421 3.80823 0
M  V30 4970 H 463.709 -1.9056 2.61665 0
M  V30 4971 H 462.616 0.121778 3.73902 0
M  V30 4972 H 463.949 0.140544 4.91999 0
M  V30 4973 N 465.601 -1.54893 0.290851 0
M  V30 4974 C 466.564 -2.21824 -0.576784 0
M  V30 4975 C 467.564 -1.20104 -1.06919 0
M  V30 4976 O 468.754 -1.44906 -0.966843 0
M  V30 4977 C 465.886 -2.89662 -1.79747 0
M  V30 4978 H 467.079 -2.99899 0.00784051 0
M  V30 4979 H 464.632 -1.56245 0.0415934 0
M  V30 4980 H 465.367 -2.15639 -2.42219 0
M  V30 4981 H 465.152 -3.64219 -1.45214 0
M  V30 4982 H 466.642 -3.4075 -2.4141 0
M  V30 4983 N 467.08 -0.0183926 -1.57589 0
M  V30 4984 C 468.027 0.967022 -2.09565 0
M  V30 4985 C 468.997 1.32983 -0.995225 0
M  V30 4986 O 470.182 1.42501 -1.26878 0
M  V30 4987 C 467.322 2.24772 -2.61861 0
M  V30 4988 C 466.435 1.94232 -3.85873 0
M  V30 4989 C 465.57 3.16518 -4.26603 0
M  V30 4990 C 464.609 2.81748 -5.43401 0
M  V30 4991 N 463.746 3.96626 -5.79338 0
M  V30 4992 H 468.586 0.516874 -2.93483 0
M  V30 4993 H 466.123 0.243544 -1.4507 0
M  V30 4994 H 468.081 2.99667 -2.90268 0
M  V30 4995 H 466.711 2.67423 -1.8079 0
M  V30 4996 H 465.763 1.09625 -3.64262 0
M  V30 4997 H 467.075 1.64616 -4.70853 0
M  V30 4998 H 466.229 3.99743 -4.56389 0
M  V30 4999 H 464.968 3.49286 -3.40368 0
M  V30 5000 H 463.973 1.96933 -5.1332 0
M  V30 5001 H 465.198 2.50207 -6.31327 0
M  V30 5002 H 463.144 4.29257 -4.96059 0
M  V30 5003 H 463.061 3.70598 -6.58933 0
M  V30 5004 H 464.329 4.80586 -6.13724 0
M  V30 5005 N 468.558 1.5553 0.254621 0
M  V30 5006 C 469.488 1.9268 1.31897 0
M  V30 5007 C 470.469 0.790797 1.506 0
M  V30 5008 O 471.654 1.05045 1.63337 0
M  V30 5009 C 468.784 2.21477 2.67517 0
M  V30 5010 C 467.738 3.37256 2.63519 0
M  V30 5011 C 467.064 3.51576 4.02862 0
M  V30 5012 C 468.364 4.73157 2.21179 0
M  V30 5013 H 470.058 2.81832 1.01051 0
M  V30 5014 H 467.604 1.35599 0.484662 0
M  V30 5015 H 469.557 2.46055 3.42104 0
M  V30 5016 H 468.281 1.29144 2.99982 0
M  V30 5017 H 466.94 3.12675 1.9139 0
M  V30 5018 H 466.588 2.56676 4.32581 0
M  V30 5019 H 466.288 4.2943 4.01078 0
M  V30 5020 H 467.812 3.78467 4.79161 0
M  V30 5021 H 469.226 4.97158 2.85494 0
M  V30 5022 H 467.623 5.54058 2.30521 0
M  V30 5023 H 468.693 4.70739 1.16332 0
M  V30 5024 N 470.036 -0.519951 1.48776 0
M  V30 5025 C 470.946 -1.65025 1.66745 0
M  V30 5026 C 471.962 -1.6508 0.549954 0
M  V30 5027 O 473.138 -1.83848 0.822295 0
M  V30 5028 C 470.203 -3.0146 1.71238 0
M  V30 5029 C 469.264 -3.12182 2.94688 0
M  V30 5030 C 468.497 -4.42109 2.98958 0
M  V30 5031 O 468.72 -5.29799 2.1135 0
M  V30 5032 O 467.654 -4.57406 3.91233 0
M  V30 5033 H 471.48 -1.52801 2.62461 0
M  V30 5034 H 469.065 -0.694157 1.32294 0
M  V30 5035 H 470.947 -3.82584 1.76657 0
M  V30 5036 H 469.622 -3.13988 0.786975 0
M  V30 5037 H 468.529 -2.30316 2.94797 0
M  V30 5038 H 469.862 -3.04574 3.86646 0
M  V30 5039 N 471.514 -1.37532 -0.769588 0
M  V30 5040 C 472.763 -1.32183 -1.5235 0
M  V30 5041 C 473.076 0.0906555 -1.9539 0
M  V30 5042 O 474.282 0.266628 -2.70188 0
M  V30 5043 C 472.738 -2.32029 -2.75119 0
M  V30 5044 C 472.346 -3.78816 -2.3917 0
M  V30 5045 C 474.09 -2.35694 -3.53056 0
M  V30 5046 C 471.997 -4.70388 -3.58453 0
M  V30 5047 H 470.927 -0.491275 -0.571984 0
M  V30 5048 H 473.578 -1.63004 -0.842739 0
M  V30 5049 H 471.96 -1.94229 -3.45096 0
M  V30 5050 H 473.134 -4.25466 -1.76962 0
M  V30 5051 H 471.449 -3.78117 -1.74402 0
M  V30 5052 H 474.046 -3.01312 -4.41718 0
M  V30 5053 H 474.389 -1.37117 -3.93071 0
M  V30 5054 H 474.922 -2.72212 -2.90078 0
M  V30 5055 H 471.661 -5.70102 -3.23518 0
M  V30 5056 H 471.181 -4.28442 -4.19758 0
M  V30 5057 H 472.86 -4.87628 -4.25239 0
M  V30 5058 N 472.992 0.995999 -1.22138 0
M  V30 5059 C 473.925 2.08302 -0.931952 0
M  V30 5060 C 474.903 1.62127 0.123956 0
M  V30 5061 O 476.087 1.88499 -0.00696004 0
M  V30 5062 C 473.214 3.36317 -0.401068 0
M  V30 5063 C 472.26 4.01413 -1.44117 0
M  V30 5064 S 473.093 4.42664 -3.01345 0
M  V30 5065 C 474.249 5.73853 -2.49887 0
M  V30 5066 H 474.482 2.32532 -1.85246 0
M  V30 5067 H 472.015 1.13005 -1.0521 0
M  V30 5068 H 473.973 4.10375 -0.101352 0
M  V30 5069 H 472.634 3.10123 0.498272 0
M  V30 5070 H 471.827 4.9358 -1.01952 0
M  V30 5071 H 471.429 3.33668 -1.68943 0
M  V30 5072 H 473.721 6.50039 -1.90934 0
M  V30 5073 H 474.664 6.20841 -3.40532 0
M  V30 5074 H 475.072 5.31105 -1.9128 0
M  V30 5075 N 474.47 1.03057 1.19235 0
M  V30 5076 C 475.38 0.622922 2.26179 0
M  V30 5077 C 476.396 -0.346113 1.70523 0
M  V30 5078 O 477.572 -0.203572 2.00369 0
M  V30 5079 C 474.637 -0.0182063 3.46695 0
M  V30 5080 C 473.698 0.998546 4.17526 0
M  V30 5081 C 472.931 0.387917 5.32288 0
M  V30 5082 O 473.154 -0.808668 5.64639 0
M  V30 5083 O 472.088 1.1116 5.91546 0
M  V30 5084 H 475.914 1.51363 2.63292 0
M  V30 5085 H 473.499 0.800856 1.26122 0
M  V30 5086 H 475.381 -0.375606 4.19723 0
M  V30 5087 H 474.056 -0.882895 3.11427 0
M  V30 5088 H 472.963 1.40756 3.4661 0
M  V30 5089 H 474.296 1.83366 4.56769 0
M  V30 5090 N 475.948 -1.35272 0.808662 0
M  V30 5091 C 477.195 -1.98709 0.390003 0
M  V30 5092 C 477.523 -1.64148 -1.04335 0
M  V30 5093 O 476.778 -0.897797 -1.73891 0
M  V30 5094 C 477.077 -3.53556 0.522798 0
M  V30 5095 C 476.743 -4.0799 1.91977 0
M  V30 5096 C 475.405 -4.22568 2.30195 0
M  V30 5097 C 477.757 -4.37442 2.83361 0
M  V30 5098 C 475.085 -4.63918 3.59162 0
M  V30 5099 C 477.437 -4.80232 4.11776 0
M  V30 5100 C 476.101 -4.93016 4.49991 0
M  V30 5101 H 475.371 -0.727127 0.142712 0
M  V30 5102 H 478.018 -1.6145 1.02985 0
M  V30 5103 H 476.323 -3.91287 -0.200494 0
M  V30 5104 H 478.02 -4.00598 0.179608 0
M  V30 5105 H 474.61 -3.97096 1.61284 0
M  V30 5106 H 478.794 -4.25731 2.55083 0
M  V30 5107 H 474.05 -4.72005 3.88615 0
M  V30 5108 H 478.224 -5.01982 4.82687 0
M  V30 5109 H 475.851 -5.24814 5.49976 0
M  V30 5110 N 477.426 -0.562348 -1.47226 0
M  V30 5111 C 478.672 -0.0402761 -2.0276 0
M  V30 5112 C 479.005 1.30823 -1.43523 0
M  V30 5113 O 478.28 1.85249 -0.592705 0
M  V30 5114 C 478.563 0.047311 -3.60069 0
M  V30 5115 C 478.416 -1.32865 -4.29729 0
M  V30 5116 C 479.735 0.758182 -4.3352 0
M  V30 5117 H 476.854 -0.0161105 -0.736824 0
M  V30 5118 H 479.496 -0.725628 -1.75598 0
M  V30 5119 H 477.646 0.630986 -3.83342 0
M  V30 5120 H 479.318 -1.95593 -4.17781 0
M  V30 5121 H 477.561 -1.90195 -3.89882 0
M  V30 5122 H 478.232 -1.22004 -5.38349 0
M  V30 5123 H 480.708 0.262546 -4.15271 0
M  V30 5124 H 479.584 0.78844 -5.43208 0
M  V30 5125 H 479.845 1.81537 -4.03109 0
M  V30 5126 N 478.904 1.54736 -0.299062 0
M  V30 5127 C 479.852 2.24897 0.593658 0
M  V30 5128 C 480.846 1.25429 1.13859 0
M  V30 5129 O 482.052 1.43286 1.08945 0
M  V30 5130 H 478.427 0.72207 0.210046 0
M  V30 5131 H 480.398 2.98393 -0.0206421 0
M  V30 5132 C 479.147 3.00159 1.75499 0
M  V30 5133 H 478.47 3.76501 1.34489 0
M  V30 5134 H 479.91 3.52535 2.35574 0
M  V30 5135 C 478.369 2.07015 2.65794 0
M  V30 5136 O 478.899 1.63692 3.66835 0
M  V30 5137 N 477.105 1.73012 2.33485 0
M  V30 5138 H 476.652 2.08439 1.51364 0
M  V30 5139 H 476.61 1.10965 2.94167 0
M  V30 5140 N 480.382 0.0267497 1.57577 0
M  V30 5141 C 481.629 -0.652404 1.91703 0
M  V30 5142 C 481.957 -1.72271 0.902936 0
M  V30 5143 O 481.212 -1.955 -0.0884843 0
M  V30 5144 C 481.511 -1.30914 3.3256 0
M  V30 5145 C 481.177 -0.369441 4.49384 0
M  V30 5146 C 479.839 -0.110791 4.81072 0
M  V30 5147 C 482.191 0.275971 5.20469 0
M  V30 5148 C 479.519 0.801116 5.81205 0
M  V30 5149 C 481.871 1.17592 6.21575 0
M  V30 5150 C 480.535 1.44348 6.51705 0
M  V30 5151 H 479.805 -0.238732 0.70149 0
M  V30 5152 H 482.452 0.0880091 1.91298 0
M  V30 5153 H 480.757 -2.12425 3.29216 0
M  V30 5154 H 482.454 -1.84115 3.56234 0
M  V30 5155 H 479.044 -0.581211 4.24641 0
M  V30 5156 H 483.228 0.0892 4.9622 0
M  V30 5157 H 478.484 1.01614 6.02897 0
M  V30 5158 H 482.658 1.68223 6.75777 0
M  V30 5159 H 480.285 2.15176 7.29111 0
M  V30 5160 N 481.861 -1.55662 -0.24637 0
M  V30 5161 C 482.791 -1.93377 -1.30873 0
M  V30 5162 C 483.772 -0.798773 -1.50179 0
M  V30 5163 O 484.957 -1.0591 -1.62778 0
M  V30 5164 C 482.087 -2.22893 -2.66338 0
M  V30 5165 C 481.041 -3.38649 -2.61727 0
M  V30 5166 C 480.367 -3.53708 -4.00992 0
M  V30 5167 C 481.667 -4.74323 -2.18666 0
M  V30 5168 H 483.361 -2.82363 -0.995552 0
M  V30 5169 H 480.907 -1.35854 -0.477464 0
M  V30 5170 H 482.86 -2.47866 -3.40794 0
M  V30 5171 H 481.584 -1.30733 -2.99293 0
M  V30 5172 H 480.243 -3.13685 -1.89729 0
M  V30 5173 H 479.891 -2.58967 -4.31214 0
M  V30 5174 H 479.591 -4.31551 -3.98795 0
M  V30 5175 H 481.115 -3.81003 -4.77147 0
M  V30 5176 H 482.529 -4.98665 -2.82854 0
M  V30 5177 H 480.926 -5.55273 -2.27579 0
M  V30 5178 H 481.996 -4.71349 -1.13834 0
M  V30 5179 N 483.339 0.512053 -1.4905 0
M  V30 5180 C 484.286 1.6148 -1.64902 0
M  V30 5181 C 485.256 1.58687 -0.490673 0
M  V30 5182 O 486.441 1.76842 -0.71636 0
M  V30 5183 C 483.581 2.99676 -1.71139 0
M  V30 5184 C 482.694 3.12568 -2.98203 0
M  V30 5185 C 481.829 4.4143 -2.95487 0
M  V30 5186 C 480.868 4.47916 -4.17179 0
M  V30 5187 N 480.005 5.68191 -4.12437 0
M  V30 5188 H 484.845 1.47271 -2.59066 0
M  V30 5189 H 482.382 0.716713 -1.28459 0
M  V30 5190 H 484.34 3.79761 -1.72736 0
M  V30 5191 H 482.97 3.12614 -0.804508 0
M  V30 5192 H 482.022 2.25618 -3.06269 0
M  V30 5193 H 483.334 3.1322 -3.88194 0
M  V30 5194 H 482.488 5.29825 -2.95585 0
M  V30 5195 H 481.227 4.43326 -2.03256 0
M  V30 5196 H 480.232 3.57925 -4.17337 0
M  V30 5197 H 481.457 4.47744 -5.1059 0
M  V30 5198 H 479.403 5.7095 -3.23036 0
M  V30 5199 H 479.32 5.70413 -4.96151 0
M  V30 5200 H 480.588 6.58823 -4.16621 0
M  V30 5201 N 484.817 1.37938 0.762283 0
M  V30 5202 C 485.765 1.34569 1.89721 0
M  V30 5203 C 486.759 0.232929 1.67791 0
M  V30 5204 O 487.965 0.401485 1.75465 0
M  V30 5205 H 484.34 0.419594 0.624055 0
M  V30 5206 H 486.311 2.30357 1.8968 0
M  V30 5207 C 485.06 1.17898 3.27101 0
M  V30 5208 H 484.383 2.02781 3.44558 0
M  V30 5209 H 485.823 1.19593 4.06784 0
M  V30 5210 C 484.282 -0.114728 3.36705 0
M  V30 5211 O 484.812 -1.0949 3.8649 0
M  V30 5212 N 483.018 -0.16863 2.9011 0
M  V30 5213 H 482.565 0.62967 2.49786 0
M  V30 5214 H 482.523 -1.03383 2.96916 0
M  V30 5215 N 486.295 -0.989507 1.22664 0
M  V30 5216 C 487.706 -1.54406 1.04955 0
M  V30 5217 C 488.057 -1.92366 -0.385951 0
M  V30 5218 O 487.182 -1.75111 -1.27142 0
M  V30 5219 C 487.777 -2.80578 1.89899 0
M  V30 5220 C 486.336 -3.32464 1.76478 0
M  V30 5221 C 485.483 -2.05524 1.86159 0
M  V30 5222 H 488.434 -0.810211 1.3646 0
M  V30 5223 H 488.455 -3.53075 1.4184 0
M  V30 5224 H 487.967 -2.52918 2.94371 0
M  V30 5225 H 486.068 -3.65024 0.747528 0
M  V30 5226 H 486.181 -4.02838 2.59342 0
M  V30 5227 H 484.545 -2.19241 1.29636 0
M  V30 5228 H 485.328 -1.80258 2.92168 0
M  V30 5229 N 487.773 -1.03688 -1.18687 0
M  V30 5230 C 488.72 -0.624624 -2.22187 0
M  V30 5231 C 489.69 0.365636 -1.62026 0
M  V30 5232 O 490.875 0.260481 -1.89014 0
M  V30 5233 C 488.015 0.0101738 -3.45099 0
M  V30 5234 C 487.128 -1.02709 -4.19613 0
M  V30 5235 C 486.263 -0.361213 -5.2997 0
M  V30 5236 C 485.302 -1.38384 -5.96252 0
M  V30 5237 N 484.439 -0.743196 -6.98155 0
M  V30 5238 H 489.279 -1.51176 -2.56807 0
M  V30 5239 H 486.816 -0.75636 -1.26165 0
M  V30 5240 H 488.774 0.395528 -4.15321 0
M  V30 5241 H 487.404 0.860848 -3.1111 0
M  V30 5242 H 486.456 -1.53043 -3.48256 0
M  V30 5243 H 487.768 -1.80398 -4.65036 0
M  V30 5244 H 486.922 0.0785537 -6.06649 0
M  V30 5245 H 485.661 0.447799 -4.8564 0
M  V30 5246 H 484.666 -1.83378 -5.18317 0
M  V30 5247 H 485.891 -2.19448 -6.42666 0
M  V30 5248 H 483.837 0.0455789 -6.55984 0
M  V30 5249 H 483.754 -1.45784 -7.41811 0
M  V30 5250 H 485.022 -0.327698 -7.78811 0
M  V30 5251 N 489.251 1.34841 -0.815825 0
M  V30 5252 C 490.183 2.28409 -0.190265 0
M  V30 5253 C 491.196 1.50705 0.615771 0
M  V30 5254 O 492.385 1.72822 0.446616 0
M  V30 5255 C 489.485 3.30441 0.752446 0
M  V30 5256 C 488.658 4.37399 -0.00922152 0
M  V30 5257 C 487.717 5.19234 0.853351 0
M  V30 5258 O 486.743 5.68404 0.300919 0
M  V30 5259 N 487.945 5.38248 2.17416 0
M  V30 5260 H 490.71 2.82732 -0.994114 0
M  V30 5261 H 488.271 1.47289 -0.672129 0
M  V30 5262 H 490.263 3.82084 1.33394 0
M  V30 5263 H 488.833 2.76565 1.45707 0
M  V30 5264 H 488.053 3.86567 -0.771979 0
M  V30 5265 H 489.341 5.05992 -0.533807 0
M  V30 5266 H 488.739 4.99961 2.6468 0
M  V30 5267 H 487.296 5.93035 2.70467 0
M  V30 5268 N 490.729 0.570148 1.46925 0
M  V30 5269 C 491.959 0.0561151 2.06524 0
M  V30 5270 C 492.367 -1.24874 1.42137 0
M  V30 5271 O 491.71 -1.76292 0.516417 0
M  V30 5272 C 491.772 -0.197035 3.5896 0
M  V30 5273 C 491.436 1.02033 4.45464 0
M  V30 5274 C 492.433 1.92921 4.82781 0
M  V30 5275 C 490.118 1.23864 4.86788 0
M  V30 5276 C 492.112 3.03999 5.60235 0
M  V30 5277 C 489.799 2.35249 5.64004 0
M  V30 5278 C 490.797 3.25146 6.0064 0
M  V30 5279 O 490.485 4.34598 6.76299 0
M  V30 5280 H 490.217 0.0487409 0.674241 0
M  V30 5281 H 492.771 0.786915 1.89728 0
M  V30 5282 H 491.001 -0.982299 3.74016 0
M  V30 5283 H 492.69 -0.658032 4.00531 0
M  V30 5284 H 493.456 1.77265 4.51444 0
M  V30 5285 H 489.335 0.54805 4.57731 0
M  V30 5286 H 492.879 3.74192 5.8875 0
M  V30 5287 H 488.776 2.50873 5.94755 0
M  V30 5288 H 489.544 4.32808 6.94708 0
M  V30 5289 N 492.207 -1.54576 0.307264 0
M  V30 5290 C 493.139 -2.21212 -0.599807 0
M  V30 5291 C 494.152 -1.20685 -1.09266 0
M  V30 5292 O 495.341 -1.47244 -1.00903 0
M  V30 5293 C 492.441 -2.84994 -1.83389 0
M  V30 5294 C 491.614 -4.11511 -1.48248 0
M  V30 5295 C 490.673 -4.59038 -2.57237 0
M  V30 5296 O 489.699 -5.24095 -2.22065 0
M  V30 5297 N 490.901 -4.31884 -3.87887 0
M  V30 5298 H 493.666 -2.99686 -0.0293075 0
M  V30 5299 H 491.227 -1.61379 0.129738 0
M  V30 5300 H 493.219 -3.1372 -2.5566 0
M  V30 5301 H 491.789 -2.10324 -2.31263 0
M  V30 5302 H 491.009 -3.89728 -0.592122 0
M  V30 5303 H 492.297 -4.93879 -1.22316 0
M  V30 5304 H 491.695 -3.79778 -4.19268 0
M  V30 5305 H 490.252 -4.65304 -4.56438 0
M  V30 5306 N 493.685 -0.035106 -1.57561 0
M  V30 5307 C 494.962 0.681212 -1.83354 0
M  V30 5308 C 495.342 1.89986 -0.920252 0
M  V30 5309 O 494.69 2.28489 0.0226815 0
M  V30 5310 C 494.9 1.05376 -3.32712 0
M  V30 5311 C 496.248 1.44286 -3.99333 0
M  V30 5312 O 497.272 1.14656 -3.37242 0
M  V30 5313 O 496.131 1.99518 -5.08778 0
M  V30 5314 H 493.225 0.334741 -0.756226 0
M  V30 5315 H 495.771 -0.0632448 -1.69582 0
M  V30 5316 H 494.543 0.186668 -3.90854 0
M  V30 5317 H 494.166 1.85619 -3.51613 0
M  V30 5318 N 495.163 1.55791 0.238111 0
M  V30 5319 C 496.093 1.94068 1.29846 0
M  V30 5320 C 497.074 0.806726 1.49753 0
M  V30 5321 O 498.259 1.06772 1.62214 0
M  V30 5322 C 495.389 2.24302 2.65153 0
M  V30 5323 C 494.343 3.40032 2.59927 0
M  V30 5324 C 493.669 3.55829 3.99111 0
M  V30 5325 C 494.969 4.75476 2.16148 0
M  V30 5326 H 496.663 2.82887 0.980563 0
M  V30 5327 H 494.209 1.36105 0.470253 0
M  V30 5328 H 496.162 2.4967 3.39475 0
M  V30 5329 H 494.886 1.32318 2.98596 0
M  V30 5330 H 493.545 3.14687 1.88063 0
M  V30 5331 H 493.193 2.6125 4.29834 0
M  V30 5332 H 492.893 4.3366 3.96501 0
M  V30 5333 H 494.417 3.83528 4.7512 0
M  V30 5334 H 495.831 5.00158 2.80205 0
M  V30 5335 H 494.228 5.56472 2.24631 0
M  V30 5336 H 495.298 4.71946 1.11333 0
M  V30 5337 N 496.642 -0.504142 1.49319 0
M  V30 5338 C 497.89 -1.25598 1.58334 0
M  V30 5339 C 498.211 -1.93114 0.270538 0
M  V30 5340 O 497.481 -1.82585 -0.709891 0
M  V30 5341 H 496.061 -0.466571 0.58337 0
M  V30 5342 H 498.723 -0.584547 1.85928 0
M  V30 5343 H 497.819 -2.02159 2.37778 0
M  V30 5344 N 498.12 -1.38341 -0.754957 0
M  V30 5345 C 499.083 -1.35262 -1.85032 0
M  V30 5346 C 500.083 -0.253393 -1.58791 0
M  V30 5347 O 501.273 -0.510205 -1.66561 0
M  V30 5348 C 498.405 -1.10544 -3.22479 0
M  V30 5349 H 499.598 -2.32712 -1.8917 0
M  V30 5350 H 497.151 -1.23614 -0.956515 0
M  V30 5351 H 497.886 -0.136952 -3.24011 0
M  V30 5352 H 497.671 -1.90127 -3.4292 0
M  V30 5353 H 499.161 -1.11082 -4.02555 0
M  V30 5354 N 499.598 0.982988 -1.23187 0
M  V30 5355 C 500.545 2.07491 -1.01075 0
M  V30 5356 C 501.515 1.65949 0.070905 0
M  V30 5357 O 502.7 1.90629 -0.0806822 0
M  V30 5358 C 499.84 3.39751 -0.605261 0
M  V30 5359 C 498.953 3.94578 -1.75876 0
M  V30 5360 C 498.088 5.15039 -1.3003 0
M  V30 5361 C 497.127 5.62027 -2.42472 0
M  V30 5362 N 496.264 6.73719 -1.97602 0
M  V30 5363 H 501.104 2.25739 -1.9454 0
M  V30 5364 H 498.641 1.10659 -0.969179 0
M  V30 5365 H 500.599 4.15719 -0.351279 0
M  V30 5366 H 499.229 3.21473 0.292382 0
M  V30 5367 H 498.281 3.1539 -2.12681 0
M  V30 5368 H 499.593 4.25422 -2.60418 0
M  V30 5369 H 498.747 5.9833 -1.00429 0
M  V30 5370 H 497.486 4.85843 -0.425216 0
M  V30 5371 H 496.491 4.77318 -2.7285 0
M  V30 5372 H 497.716 5.93244 -3.30512 0
M  V30 5373 H 495.662 6.46287 -1.1247 0
M  V30 5374 H 495.579 7.03934 -2.75705 0
M  V30 5375 H 496.847 7.6049 -1.71098 0
M  V30 5376 N 501.076 1.04316 1.18135 0
M  V30 5377 C 502.325 0.74319 1.87509 0
M  V30 5378 C 502.638 -0.732136 1.81381 0
M  V30 5379 O 503.844 -1.14572 2.46141 0
M  V30 5380 C 502.3 1.27913 3.36402 0
M  V30 5381 C 501.908 2.78326 3.51053 0
M  V30 5382 C 503.652 1.0558 4.11161 0
M  V30 5383 C 501.559 3.25266 4.93919 0
M  V30 5384 H 500.489 0.274313 0.702331 0
M  V30 5385 H 503.14 1.25931 1.33467 0
M  V30 5386 H 501.522 0.690853 3.89927 0
M  V30 5387 H 502.696 3.42933 3.07788 0
M  V30 5388 H 501.011 2.991 2.89704 0
M  V30 5389 H 503.608 1.38161 5.16542 0
M  V30 5390 H 503.951 -0.00684729 4.16299 0
M  V30 5391 H 504.484 1.60882 3.63816 0
M  V30 5392 H 501.223 4.30922 4.9395 0
M  V30 5393 H 500.743 2.65396 5.3789 0
M  V30 5394 H 502.422 3.19433 5.62647 0
M  V30 5395 N 502.554 -1.34406 0.822964 0
M  V30 5396 C 503.965 -1.8069 0.469879 0
M  V30 5397 C 504.316 -1.68223 -1.00972 0
M  V30 5398 O 503.441 -1.22226 -1.78577 0
M  V30 5399 C 504.036 -3.28064 0.846118 0
M  V30 5400 C 502.595 -3.72428 0.545402 0
M  V30 5401 C 501.742 -2.56116 1.06301 0
M  V30 5402 H 504.693 -1.22153 1.01313 0
M  V30 5403 H 504.714 -3.80205 0.149922 0
M  V30 5404 H 504.226 -3.37107 1.92304 0
M  V30 5405 H 502.327 -3.68924 -0.522109 0
M  V30 5406 H 502.44 -4.66548 1.0895 0
M  V30 5407 H 500.804 -2.50048 0.484554 0
M  V30 5408 H 501.587 -2.67928 2.14638 0
M  V30 5409 N 504.032 -0.577932 -1.46621 0
M  V30 5410 C 504.979 0.158048 -2.30258 0
M  V30 5411 C 505.949 0.888669 -1.40328 0
M  V30 5412 O 507.134 0.880283 -1.6928 0
M  V30 5413 C 504.274 1.16884 -3.24703 0
M  V30 5414 C 503.387 0.442163 -4.29731 0
M  V30 5415 C 502.522 1.44007 -5.11308 0
M  V30 5416 C 501.561 0.69952 -6.0809 0
M  V30 5417 N 500.698 1.64525 -6.82551 0
M  V30 5418 H 505.538 -0.561242 -2.92667 0
M  V30 5419 H 503.075 -0.288591 -1.44241 0
M  V30 5420 H 505.033 1.7677 -3.779 0
M  V30 5421 H 503.663 1.85591 -2.64113 0
M  V30 5422 H 502.715 -0.271632 -3.79429 0
M  V30 5423 H 504.027 -0.136992 -4.98612 0
M  V30 5424 H 503.181 2.11186 -5.68758 0
M  V30 5425 H 501.92 2.05315 -4.42377 0
M  V30 5426 H 500.925 0.0139217 -5.49798 0
M  V30 5427 H 502.15 0.091894 -6.79038 0
M  V30 5428 H 500.096 2.24653 -6.16334 0
M  V30 5429 H 500.013 1.11878 -7.47676 0
M  V30 5430 H 501.281 2.30754 -7.44562 0
M  V30 5431 N 505.51 1.54411 -0.315457 0
M  V30 5432 C 506.758 2.00023 0.288971 0
M  V30 5433 C 507.079 1.20529 1.5329 0
M  V30 5434 O 506.349 0.304986 1.93511 0
M  V30 5435 H 504.929 0.738891 0.109766 0
M  V30 5436 H 507.591 1.90094 -0.430129 0
M  V30 5437 H 506.687 3.07198 0.550999 0
M  V30 5438 N 506.988 0.0434614 1.5754 0
M  V30 5439 C 507.951 -0.918696 2.09982 0
M  V30 5440 C 508.951 -1.24488 1.01781 0
M  V30 5441 O 510.141 -1.18284 1.27885 0
M  V30 5442 C 507.273 -2.23093 2.57764 0
M  V30 5443 H 508.466 -0.464229 2.96285 0
M  V30 5444 H 506.019 -0.204818 1.54952 0
M  V30 5445 H 506.754 -2.73137 1.74832 0
M  V30 5446 H 506.539 -2.00724 3.36827 0
M  V30 5447 H 508.029 -2.92028 2.98512 0
M  V30 5448 N 508.466 -1.55915 -0.229846 0
M  V30 5449 C 509.715 -1.77742 -0.953455 0
M  V30 5450 C 510.028 -0.610524 -1.85828 0
M  V30 5451 O 511.234 -0.712219 -2.61992 0
M  V30 5452 C 509.69 -3.14738 -1.74551 0
M  V30 5453 C 509.298 -4.39126 -0.887242 0
M  V30 5454 C 511.042 -3.45895 -2.46084 0
M  V30 5455 C 508.949 -5.67149 -1.67617 0
M  V30 5456 H 507.879 -0.662648 -0.359741 0
M  V30 5457 H 510.53 -1.82322 -0.207576 0
M  V30 5458 H 508.912 -3.04311 -2.53399 0
M  V30 5459 H 510.086 -4.60588 -0.139892 0
M  V30 5460 H 508.401 -4.15427 -0.284443 0
M  V30 5461 H 510.998 -4.38767 -3.05594 0
M  V30 5462 H 511.341 -2.68007 -3.18556 0
M  V30 5463 H 511.874 -3.57614 -1.74233 0
M  V30 5464 H 508.613 -6.47906 -0.994881 0
M  V30 5465 H 508.133 -5.49763 -2.39836 0
M  V30 5466 H 509.812 -6.07025 -2.23898 0
M  V30 5467 N 509.944 0.496216 -1.49584 0
M  V30 5468 C 510.874 1.60576 -1.69521 0
M  V30 5469 C 511.855 1.61169 -0.543933 0
M  V30 5470 O 513.04 1.77834 -0.78031 0
M  V30 5471 C 510.17 2.99038 -1.76616 0
M  V30 5472 C 509.124 3.13312 -2.91581 0
M  V30 5473 C 508.45 4.53172 -2.83794 0
M  V30 5474 C 509.75 2.92886 -4.32452 0
M  V30 5475 H 511.444 1.44146 -2.62416 0
M  V30 5476 H 508.99 0.692024 -1.26282 0
M  V30 5477 H 510.943 3.76564 -1.8915 0
M  V30 5478 H 509.667 3.16568 -0.80324 0
M  V30 5479 H 508.326 2.38213 -2.78658 0
M  V30 5480 H 507.974 4.67585 -1.854 0
M  V30 5481 H 507.674 4.63662 -3.60958 0
M  V30 5482 H 509.198 5.32752 -2.98342 0
M  V30 5483 H 510.612 3.60178 -4.46032 0
M  V30 5484 H 509.009 3.14844 -5.10875 0
M  V30 5485 H 510.079 1.88966 -4.46565 0
M  V30 5486 N 511.423 1.38739 0.74761 0
M  V30 5487 C 512.651 1.38521 1.53686 0
M  V30 5488 C 513.066 -0.0235129 1.88785 0
M  V30 5489 O 512.423 -0.991662 1.53207 0
M  V30 5490 C 512.474 2.24641 2.83229 0
M  V30 5491 O 512.195 3.60026 2.49625 0
M  V30 5492 C 513.696 2.32669 3.77333 0
M  V30 5493 H 510.916 0.473589 0.475347 0
M  V30 5494 H 513.46 1.82395 0.924786 0
M  V30 5495 H 511.615 1.84213 3.40799 0
M  V30 5496 H 512.029 4.05435 3.3275 0
M  V30 5497 H 513.503 2.97201 4.65162 0
M  V30 5498 H 513.98 1.3421 4.18192 0
M  V30 5499 H 514.586 2.73512 3.25685 0
M  V30 5500 N 512.901 -0.976442 1.23707 0
M  V30 5501 C 514.149 -1.71487 1.06942 0
M  V30 5502 C 514.47 -1.9098 -0.393897 0
M  V30 5503 O 513.74 -1.48128 -1.28198 0
M  V30 5504 H 512.32 -0.635425 0.392739 0
M  V30 5505 H 514.982 -1.17515 1.55487 0
M  V30 5506 H 514.078 -2.70286 1.56051 0
M  V30 5507 N 514.379 -1.04941 -1.1758 0
M  V30 5508 C 515.79 -0.784501 -1.69418 0
M  V30 5509 C 516.141 0.693625 -1.8353 0
M  V30 5510 O 515.266 1.53925 -1.52106 0
M  V30 5511 C 515.861 -1.41746 -3.07723 0
M  V30 5512 C 514.42 -1.20066 -3.56737 0
M  V30 5513 C 513.567 -1.5026 -2.33061 0
M  V30 5514 H 516.518 -1.21469 -1.02133 0
M  V30 5515 H 516.539 -0.825381 -3.7144 0
M  V30 5516 H 516.051 -2.49325 -2.9742 0
M  V30 5517 H 514.152 -0.144006 -3.72322 0
M  V30 5518 H 514.265 -1.90384 -4.39648 0
M  V30 5519 H 512.629 -0.922598 -2.37403 0
M  V30 5520 H 513.412 -2.58967 -2.25368 0
M  V30 5521 N 515.857 1.33968 -0.830081 0
M  V30 5522 C 517.268 1.80439 -0.479455 0
M  V30 5523 C 517.619 1.68756 1.00079 0
M  V30 5524 O 516.744 1.23171 1.77927 0
M  V30 5525 C 517.339 3.27611 -0.863505 0
M  V30 5526 C 515.898 3.72133 -0.565145 0
M  V30 5527 C 515.045 2.55549 -1.07657 0
M  V30 5528 H 517.996 1.21614 -1.0196 0
M  V30 5529 H 518.017 3.8012 -0.170083 0
M  V30 5530 H 517.529 3.36082 -1.94089 0
M  V30 5531 H 515.63 3.69196 0.502536 0
M  V30 5532 H 515.743 4.65963 -1.11422 0
M  V30 5533 H 514.107 2.49788 -0.497807 0
M  V30 5534 H 514.89 2.66786 -2.16055 0
M  V30 5535 N 517.335 0.585699 1.46312 0
M  V30 5536 C 518.583 0.072278 2.01971 0
M  V30 5537 C 518.904 -1.29345 1.45928 0
M  V30 5538 O 518.174 -1.84973 0.645109 0
M  V30 5539 H 516.754 0.023729 0.746623 0
M  V30 5540 H 519.416 0.762155 1.7938 0
M  V30 5541 H 518.512 0.00552767 3.121 0
M  V30 5542 N 518.813 -1.54241 0.323641 0
M  V30 5543 C 520.041 -2.04985 -0.280871 0
M  V30 5544 C 520.456 -1.19978 -1.45777 0
M  V30 5545 O 519.813 -0.230471 -1.81039 0
M  V30 5546 C 519.864 -3.54353 -0.715258 0
M  V30 5547 O 519.585 -4.36132 0.414817 0
M  V30 5548 C 521.086 -4.21189 -1.38257 0
M  V30 5549 H 518.306 -0.66851 -0.0577502 0
M  V30 5550 H 520.85 -1.99029 0.469852 0
M  V30 5551 H 519.005 -3.60596 -1.41596 0
M  V30 5552 H 519.419 -5.2445 0.0725227 0
M  V30 5553 H 520.893 -5.27154 -1.63745 0
M  V30 5554 H 521.37 -3.72307 -2.32989 0
M  V30 5555 H 521.976 -4.19085 -0.724447 0
M  V30 5556 N 520.291 -0.0518155 -1.57515 0
M  V30 5557 C 521.539 0.620595 -1.92336 0
M  V30 5558 C 521.86 1.71345 -0.930907 0
M  V30 5559 O 521.13 1.95885 0.0241341 0
M  V30 5560 H 519.71 0.232226 -0.709986 0
M  V30 5561 H 522.372 -0.104969 -1.94617 0
M  V30 5562 H 521.468 1.05879 -2.93592 0
M  V30 5563 N 521.769 1.56035 0.221574 0
M  V30 5564 C 522.716 1.92413 1.27459 0
M  V30 5565 C 523.686 0.781323 1.46576 0
M  V30 5566 O 524.871 1.03721 1.60145 0
M  V30 5567 C 522.011 2.24617 2.61995 0
M  V30 5568 C 521.124 3.51831 2.50677 0
M  V30 5569 C 520.259 3.73482 3.77736 0
M  V30 5570 C 519.298 4.94211 3.6114 0
M  V30 5571 N 518.435 5.12252 4.80148 0
M  V30 5572 H 523.275 2.82203 0.957355 0
M  V30 5573 H 520.812 1.39676 0.461415 0
M  V30 5574 H 522.77 2.41298 3.40339 0
M  V30 5575 H 521.4 1.38 2.91815 0
M  V30 5576 H 520.452 3.43343 1.63767 0
M  V30 5577 H 521.764 4.40328 2.34334 0
M  V30 5578 H 520.918 3.9026 4.64523 0
M  V30 5579 H 519.657 2.83266 3.97003 0
M  V30 5580 H 518.662 4.77384 2.72736 0
M  V30 5581 H 519.887 5.85912 3.43343 0
M  V30 5582 H 517.833 4.24978 4.99729 0
M  V30 5583 H 517.75 5.94881 4.66532 0
M  V30 5584 H 519.018 5.33465 5.68362 0
M  V30 5585 N 523.247 -0.488276 1.49845 0
M  V30 5586 C 524.475 -1.26527 1.63702 0
M  V30 5587 C 524.89 -1.8618 0.313447 0
M  V30 5588 O 524.247 -1.68432 -0.702624 0
M  V30 5589 C 524.298 -2.3864 2.71538 0
M  V30 5590 O 524.019 -1.81437 3.98763 0
M  V30 5591 C 525.52 -3.29805 2.96215 0
M  V30 5592 H 522.74 -0.383295 0.55075 0
M  V30 5593 H 525.284 -0.584779 1.95961 0
M  V30 5594 H 523.439 -3.02496 2.42023 0
M  V30 5595 H 523.853 -2.55135 4.58265 0
M  V30 5596 H 525.327 -4.04722 3.75372 0
M  V30 5597 H 525.804 -3.87563 2.06619 0
M  V30 5598 H 526.41 -2.71703 3.27196 0
M  V30 5599 N 524.725 -1.39134 -0.740242 0
M  V30 5600 C 525.655 -1.40165 -1.86751 0
M  V30 5601 C 526.636 -0.265708 -1.68012 0
M  V30 5602 O 527.821 -0.47076 -1.88408 0
M  V30 5603 C 524.951 -1.2392 -3.2444 0
M  V30 5604 C 523.905 -2.34858 -3.57807 0
M  V30 5605 C 523.231 -2.03707 -4.94376 0
M  V30 5606 C 524.531 -3.77159 -3.61315 0
M  V30 5607 H 526.225 -2.345 -1.86145 0
M  V30 5608 H 523.771 -1.12875 -0.89416 0
M  V30 5609 H 525.724 -1.23263 -4.02969 0
M  V30 5610 H 524.448 -0.26051 -3.25559 0
M  V30 5611 H 523.107 -2.34723 -2.81604 0
M  V30 5612 H 522.755 -1.04289 -4.9207 0
M  V30 5613 H 522.455 -2.78016 -5.17669 0
M  V30 5614 H 523.979 -2.04691 -5.75268 0
M  V30 5615 H 525.393 -3.79252 -4.29931 0
M  V30 5616 H 523.79 -4.50784 -3.96124 0
M  V30 5617 H 524.86 -4.08513 -2.61238 0
M  V30 5618 N 526.204 0.969867 -1.24223 0
M  V30 5619 C 527.134 2.08191 -1.05729 0
M  V30 5620 C 528.115 1.70075 0.0290765 0
M  V30 5621 O 529.3 1.93712 -0.137583 0
M  V30 5622 C 526.43 3.40991 -0.658995 0
M  V30 5623 C 525.384 3.93054 -1.69389 0
M  V30 5624 C 524.71 5.22171 -1.15072 0
M  V30 5625 C 526.01 4.21137 -3.08935 0
M  V30 5626 H 527.704 2.23921 -1.98746 0
M  V30 5627 H 525.25 1.07602 -0.956967 0
M  V30 5628 H 527.203 4.18221 -0.51662 0
M  V30 5629 H 525.927 3.25155 0.30686 0
M  V30 5630 H 524.586 3.17977 -1.82444 0
M  V30 5631 H 524.234 5.02694 -0.175539 0
M  V30 5632 H 523.934 5.57973 -1.84229 0
M  V30 5633 H 525.458 6.02013 -1.02042 0
M  V30 5634 H 526.872 4.8908 -2.99121 0
M  V30 5635 H 525.269 4.68163 -3.75425 0
M  V30 5636 H 526.339 3.27996 -3.57137 0
M  V30 5637 N 527.682 1.05563 1.17022 0
M  V30 5638 C 528.645 0.664098 2.19368 0
M  V30 5639 C 529.645 -0.286358 1.5823 0
M  V30 5640 O 530.835 -0.069728 1.7406 0
M  V30 5641 C 527.967 -0.0239932 3.40892 0
M  V30 5642 H 529.16 1.57 2.55521 0
M  V30 5643 H 526.713 0.849964 1.31169 0
M  V30 5644 H 527.448 -0.942988 3.10287 0
M  V30 5645 H 527.233 0.659351 3.86516 0
M  V30 5646 H 528.723 -0.283909 4.16634 0
M  V30 5647 N 529.16 -1.33526 0.837174 0
M  V30 5648 C 530.107 -2.29248 0.267169 0
M  V30 5649 C 531.077 -1.54252 -0.616071 0
M  V30 5650 O 532.262 -1.82559 -0.554699 0
M  V30 5651 C 529.402 -3.40638 -0.553152 0
M  V30 5652 C 528.515 -4.30548 0.353921 0
M  V30 5653 C 527.65 -5.29051 -0.477339 0
M  V30 5654 C 526.689 -6.106 0.42823 0
M  V30 5655 N 525.826 -7.01152 -0.364801 0
M  V30 5656 H 530.666 -2.77398 1.08877 0
M  V30 5657 H 528.203 -1.36496 0.54838 0
M  V30 5658 H 530.161 -4.03921 -1.04422 0
M  V30 5659 H 528.791 -2.93685 -1.33973 0
M  V30 5660 H 527.843 -3.68001 0.963289 0
M  V30 5661 H 529.155 -4.87631 1.04964 0
M  V30 5662 H 528.309 -5.97853 -1.0323 0
M  V30 5663 H 527.048 -4.72541 -1.2065 0
M  V30 5664 H 526.053 -5.40718 0.995219 0
M  V30 5665 H 527.278 -6.69193 1.15573 0
M  V30 5666 H 525.224 -6.47092 -1.07738 0
M  V30 5667 H 525.141 -7.5551 0.272238 0
M  V30 5668 H 526.409 -7.74263 -0.902054 0
M  V30 5669 N 530.638 -0.59345 -1.46 0
M  V30 5670 C 531.601 0.123538 -2.28867 0
M  V30 5671 C 532.601 0.808628 -1.38989 0
M  V30 5672 O 533.791 0.658945 -1.61256 0
M  V30 5673 C 530.923 1.1847 -3.19653 0
M  V30 5674 H 532.116 -0.604843 -2.93737 0
M  V30 5675 H 529.669 -0.351875 -1.52288 0
M  V30 5676 H 530.404 1.94431 -2.59552 0
M  V30 5677 H 530.189 0.69783 -3.8584 0
M  V30 5678 H 531.679 1.68726 -3.81997 0
M  V30 5679 N 532.116 1.54067 -0.331816 0
M  V30 5680 C 533.344 2.05131 0.269996 0
M  V30 5681 C 533.759 1.20749 1.45138 0
M  V30 5682 O 533.116 0.240069 1.80914 0
M  V30 5683 C 533.167 3.54728 0.696456 0
M  V30 5684 O 532.888 4.35906 -0.43794 0
M  V30 5685 C 534.389 4.21916 1.36021 0
M  V30 5686 H 531.609 0.668807 0.0542042 0
M  V30 5687 H 534.153 1.98777 -0.4804 0
M  V30 5688 H 532.308 3.61342 1.39681 0
M  V30 5689 H 532.722 5.24404 -0.100334 0
M  V30 5690 H 534.196 5.28015 1.60947 0
M  V30 5691 H 534.673 3.73538 2.31011 0
M  V30 5692 H 535.279 4.19463 0.702212 0
M  V30 5693 N 533.594 0.0601682 1.57485 0
M  V30 5694 C 534.557 -0.896373 2.10945 0
M  V30 5695 C 535.557 -1.23402 1.03095 0
M  V30 5696 O 536.747 -1.16921 1.29132 0
M  V30 5697 C 533.879 -2.20346 2.60116 0
M  V30 5698 H 535.072 -0.432778 2.96761 0
M  V30 5699 H 532.625 -0.188372 1.55161 0
M  V30 5700 H 533.36 -2.71268 1.7772 0
M  V30 5701 H 533.145 -1.9714 3.38937 0
M  V30 5702 H 534.635 -2.88846 3.01592 0
M  V30 5703 N 535.072 -1.5615 -0.213296 0
M  V30 5704 C 536.32 -1.79191 -0.934612 0
M  V30 5705 C 536.641 -0.630112 -1.84539 0
M  V30 5706 O 535.911 0.35257 -1.92701 0
M  V30 5707 H 534.491 -0.660937 -0.348097 0
M  V30 5708 H 537.153 -1.93618 -0.22317 0
M  V30 5709 H 536.249 -2.71656 -1.53654 0
M  V30 5710 N 536.55 0.480323 -1.50102 0
M  V30 5711 C 537.46 1.60547 -1.71061 0
M  V30 5712 C 538.476 1.63564 -0.593529 0
M  V30 5713 O 539.652 1.81604 -0.870751 0
M  V30 5714 C 536.717 2.96814 -1.79171 0
M  V30 5715 C 535.778 3.04259 -3.02861 0
M  V30 5716 C 535.011 4.34027 -3.10574 0
M  V30 5717 O 535.234 5.24009 -2.25323 0
M  V30 5718 O 534.168 4.46873 -4.03223 0
M  V30 5719 H 537.994 1.45788 -2.6642 0
M  V30 5720 H 535.579 0.658838 -1.34088 0
M  V30 5721 H 537.461 3.77765 -1.86738 0
M  V30 5722 H 536.136 3.11791 -0.869947 0
M  V30 5723 H 535.043 2.22419 -3.008 0
M  V30 5724 H 536.376 2.94216 -3.94586 0
M  V30 5725 N 538.028 1.39524 0.732853 0
M  V30 5726 C 538.991 1.38189 1.82857 0
M  V30 5727 C 539.991 0.278624 1.58368 0
M  V30 5728 O 541.181 0.536639 1.65728 0
M  V30 5729 C 538.313 1.15661 3.2068 0
M  V30 5730 H 539.506 2.35692 1.85444 0
M  V30 5731 H 537.059 1.2512 0.936728 0
M  V30 5732 H 537.794 0.188482 3.23752 0
M  V30 5733 H 537.579 1.95559 3.39852 0
M  V30 5734 H 539.069 1.17472 4.00737 0
M  V30 5735 N 539.506 -0.963266 1.24736 0
M  V30 5736 C 540.454 -2.07985 1.04139 0
M  V30 5737 C 541.448 -1.69381 -0.0250556 0
M  V30 5738 O 542.654 -1.79531 0.129863 0
M  V30 5739 H 539.029 -0.680627 0.319768 0
M  V30 5740 H 541 -2.22517 1.98818 0
M  V30 5741 C 539.749 -3.4123 0.667615 0
M  V30 5742 H 539.072 -3.71397 1.48 0
M  V30 5743 H 540.512 -4.20244 0.563136 0
M  V30 5744 C 538.971 -3.3104 -0.625647 0
M  V30 5745 O 539.501 -3.65334 -1.67016 0
M  V30 5746 N 537.707 -2.84168 -0.608033 0
M  V30 5747 H 537.254 -2.56458 0.242323 0
M  V30 5748 H 537.212 -2.77732 -1.47352 0
M  V30 5749 N 540.985 -1.06182 -1.16461 0
M  V30 5750 C 542.231 -0.779015 -1.87241 0
M  V30 5751 C 542.564 0.692715 -1.81425 0
M  V30 5752 O 541.839 1.5074 -1.22913 0
M  V30 5753 C 542.122 -1.2728 -3.36856 0
M  V30 5754 C 541.975 -2.80821 -3.51368 0
M  V30 5755 C 543.294 -0.879799 -4.31216 0
M  V30 5756 H 540.413 -0.284464 -0.679889 0
M  V30 5757 H 543.055 -1.31755 -1.36896 0
M  V30 5758 H 541.205 -0.814673 -3.79862 0
M  V30 5759 H 542.877 -3.34833 -3.17308 0
M  V30 5760 H 541.12 -3.19606 -2.93316 0
M  V30 5761 H 541.791 -3.10435 -4.56436 0
M  V30 5762 H 544.267 -1.27436 -3.96105 0
M  V30 5763 H 543.143 -1.25278 -5.34412 0
M  V30 5764 H 543.404 0.215372 -4.41575 0
M  V30 5765 N 542.463 1.3308 -0.844243 0
M  V30 5766 C 543.874 1.7992 -0.498566 0
M  V30 5767 C 544.225 1.69808 0.982834 0
M  V30 5768 O 543.35 1.25051 1.7661 0
M  V30 5769 C 543.945 3.26677 -0.898204 0
M  V30 5770 C 542.504 3.71513 -0.604583 0
M  V30 5771 C 541.651 2.54393 -1.10362 0
M  V30 5772 H 544.602 1.20526 -1.03244 0
M  V30 5773 H 544.623 3.79918 -0.21039 0
M  V30 5774 H 544.135 3.34004 -1.97643 0
M  V30 5775 H 542.236 3.69708 0.46335 0
M  V30 5776 H 542.349 4.64755 -1.16358 0
M  V30 5777 H 540.713 2.49246 -0.524273 0
M  V30 5778 H 541.496 2.6448 -2.18873 0
M  V30 5779 N 543.941 0.601185 1.45683 0
M  V30 5780 C 545.188 0.0938811 2.02282 0
M  V30 5781 C 545.516 -1.27315 1.47041 0
M  V30 5782 O 544.771 -1.85193 0.632623 0
M  V30 5783 C 545.07 -0.00222425 3.574 0
M  V30 5784 C 544.736 1.29963 4.31764 0
M  V30 5785 C 543.398 1.65625 4.51798 0
M  V30 5786 C 545.75 2.1603 4.74321 0
M  V30 5787 C 543.078 2.87119 5.11644 0
M  V30 5788 C 545.43 3.36766 5.3551 0
M  V30 5789 C 544.094 3.72689 5.53768 0
M  V30 5790 H 543.364 0.0343535 0.740203 0
M  V30 5791 H 546.011 0.781522 1.74827 0
M  V30 5792 H 544.316 -0.773096 3.84097 0
M  V30 5793 H 546.013 -0.410794 3.9889 0
M  V30 5794 H 542.603 1.01204 4.1648 0
M  V30 5795 H 546.787 1.89778 4.58582 0
M  V30 5796 H 542.043 3.15065 5.2397 0
M  V30 5797 H 546.217 4.03713 5.67441 0
M  V30 5798 H 543.844 4.66918 5.99909 0
M  V30 5799 N 545.419 -1.53889 0.339982 0
M  V30 5800 C 546.668 -2.00035 -0.258604 0
M  V30 5801 C 546.981 -1.23179 -1.51942 0
M  V30 5802 O 548.187 -1.59784 -2.19503 0
M  V30 5803 C 546.643 -3.56249 -0.511359 0
M  V30 5804 C 546.251 -4.41957 0.733349 0
M  V30 5805 C 547.995 -4.1082 -1.069 0
M  V30 5806 C 545.902 -5.89673 0.451591 0
M  V30 5807 H 544.832 -0.747284 -0.10041 0
M  V30 5808 H 547.483 -1.77776 0.454758 0
M  V30 5809 H 545.865 -3.7456 -1.28533 0
M  V30 5810 H 547.039 -4.35421 1.50815 0
M  V30 5811 H 545.354 -3.9836 1.21237 0
M  V30 5812 H 547.951 -5.18789 -1.2947 0
M  V30 5813 H 548.294 -3.63817 -2.02343 0
M  V30 5814 H 548.827 -3.96205 -0.355817 0
M  V30 5815 H 545.566 -6.40903 1.37565 0
M  V30 5816 H 545.086 -5.99122 -0.285193 0
M  V30 5817 H 546.765 -6.46965 0.0675067 0
M  V30 5818 N 546.897 -0.0685191 -1.57451 0
M  V30 5819 C 548.125 0.610462 -1.97689 0
M  V30 5820 C 548.54 1.63346 -0.946758 0
M  V30 5821 O 547.897 1.82377 0.0669868 0
M  V30 5822 C 547.948 1.28196 -3.38006 0
M  V30 5823 O 547.669 0.299906 -4.37072 0
M  V30 5824 C 549.17 2.04907 -3.931 0
M  V30 5825 H 546.39 0.165689 -0.650222 0
M  V30 5826 H 548.934 -0.139953 -2.04021 0
M  V30 5827 H 547.089 1.98348 -3.32771 0
M  V30 5828 H 547.503 0.78126 -5.18649 0
M  V30 5829 H 548.977 2.47287 -4.93511 0
M  V30 5830 H 549.454 2.9043 -3.29465 0
M  V30 5831 H 550.06 1.39629 -4.01726 0
M  V30 5832 N 548.375 1.56261 0.205012 0
M  V30 5833 C 549.621 1.80306 0.9283 0
M  V30 5834 C 549.954 0.640932 1.83319 0
M  V30 5835 O 549.229 -0.359032 1.91158 0
M  V30 5836 C 549.512 3.14547 1.75306 0
M  V30 5837 C 549.365 4.41236 0.873562 0
M  V30 5838 C 550.684 3.45382 2.72762 0
M  V30 5839 H 547.803 0.655929 0.336044 0
M  V30 5840 H 550.445 1.88984 0.196211 0
M  V30 5841 H 548.595 3.0728 2.37721 0
M  V30 5842 H 550.267 4.60539 0.264887 0
M  V30 5843 H 548.51 4.33427 0.179773 0
M  V30 5844 H 549.181 5.31639 1.48541 0
M  V30 5845 H 551.657 3.52884 2.20481 0
M  V30 5846 H 550.533 4.40449 3.2756 0
M  V30 5847 H 550.794 2.68377 3.51321 0
M  V30 5848 N 549.853 -0.472356 1.50355 0
M  V30 5849 C 551.078 -1.25251 1.65309 0
M  V30 5850 C 551.503 -1.85081 0.335643 0
M  V30 5851 O 550.861 -1.67227 -0.700335 0
M  V30 5852 C 550.909 -2.3379 2.74544 0
M  V30 5853 O 550.013 -3.38401 2.35709 0
M  V30 5854 H 549.354 -0.368539 0.552336 0
M  V30 5855 H 551.884 -0.562271 1.96722 0
M  V30 5856 H 551.894 -2.79121 2.97583 0
M  V30 5857 H 550.569 -1.89614 3.70161 0
M  V30 5858 H 549.146 -2.9879 2.23112 0
M  V30 5859 N 551.331 -1.39911 -0.725443 0
M  V30 5860 C 552.579 -1.37382 -1.48224 0
M  V30 5861 C 552.9 0.0264107 -1.94982 0
M  V30 5862 O 552.17 0.979408 -1.6966 0
M  V30 5863 H 550.75 -0.505596 -0.549892 0
M  V30 5864 H 553.412 -1.7487 -0.860608 0
M  V30 5865 H 552.508 -2.04254 -2.3598 0
M  V30 5866 N 552.809 0.956637 -1.25245 0
M  V30 5867 C 554.034 1.74104 -1.12706 0
M  V30 5868 C 554.459 1.85436 0.315429 0
M  V30 5869 O 553.817 1.33334 1.22848 0
M  V30 5870 C 553.865 3.1338 -1.78396 0
M  V30 5871 O 552.969 3.98485 -1.06224 0
M  V30 5872 H 552.31 0.53476 -0.393609 0
M  V30 5873 H 554.84 1.19924 -1.65769 0
M  V30 5874 H 554.85 3.6385 -1.846 0
M  V30 5875 H 553.525 3.04448 -2.83345 0
M  V30 5876 H 552.102 3.56952 -1.07886 0
M  V30 5877 N 554.287 1.06798 1.15896 0
M  V30 5878 C 555.197 0.694564 2.24083 0
M  V30 5879 C 556.213 -0.291687 1.71538 0
M  V30 5880 O 557.389 -0.139723 2.00915 0
M  V30 5881 C 554.454 0.0921014 3.46578 0
M  V30 5882 C 553.515 1.13087 4.14137 0
M  V30 5883 C 552.748 0.557064 5.30785 0
M  V30 5884 O 552.971 -0.628623 5.66925 0
M  V30 5885 O 551.905 1.29924 5.8771 0
M  V30 5886 H 555.731 1.59663 2.58344 0
M  V30 5887 H 553.316 0.840575 1.2351 0
M  V30 5888 H 555.198 -0.241884 4.20705 0
M  V30 5889 H 553.873 -0.78337 3.14078 0
M  V30 5890 H 552.78 1.51712 3.41957 0
M  V30 5891 H 554.113 1.97805 4.50704 0
M  V30 5892 N 555.766 -1.3263 0.851289 0
M  V30 5893 C 557.013 -1.97368 0.453023 0
M  V30 5894 C 557.341 -1.67384 -0.990596 0
M  V30 5895 O 556.596 -0.952665 -1.70947 0
M  V30 5896 C 556.895 -3.51713 0.635015 0
M  V30 5897 C 556.561 -4.01676 2.04859 0
M  V30 5898 C 555.223 -4.15031 2.43522 0
M  V30 5899 C 557.575 -4.28206 2.97135 0
M  V30 5900 C 554.903 -4.52257 3.73739 0
M  V30 5901 C 557.255 -4.66889 4.26846 0
M  V30 5902 C 555.919 -4.7845 4.65448 0
M  V30 5903 H 555.189 -0.722219 0.165773 0
M  V30 5904 H 557.836 -1.58092 1.0807 0
M  V30 5905 H 556.141 -3.91726 -0.0759081 0
M  V30 5906 H 557.838 -3.99823 0.306964 0
M  V30 5907 H 554.428 -3.91764 1.73836 0
M  V30 5908 H 558.612 -4.174 2.68498 0
M  V30 5909 H 553.868 -4.59402 4.03435 0
M  V30 5910 H 558.042 -4.86372 4.98413 0
M  V30 5911 H 555.669 -5.07052 5.66395 0
M  V30 5912 N 557.244 -0.608902 -1.45362 0
M  V30 5913 C 558.174 0.0964526 -2.33301 0
M  V30 5914 C 559.155 0.857444 -1.46908 0
M  V30 5915 O 560.34 0.827735 -1.75676 0
M  V30 5916 C 557.47 1.09354 -3.29635 0
M  V30 5917 C 556.424 0.445676 -4.25673 0
M  V30 5918 C 555.75 1.5511 -5.11708 0
M  V30 5919 C 557.05 -0.633972 -5.18438 0
M  V30 5920 H 558.744 -0.637829 -2.92527 0
M  V30 5921 H 556.29 -0.308178 -1.40664 0
M  V30 5922 H 558.243 1.59556 -3.90025 0
M  V30 5923 H 556.967 1.85843 -2.6857 0
M  V30 5924 H 555.626 -0.0354897 -3.66583 0
M  V30 5925 H 555.274 2.30631 -4.4701 0
M  V30 5926 H 554.974 1.12311 -5.76767 0
M  V30 5927 H 556.498 2.05537 -5.74967 0
M  V30 5928 H 557.912 -0.215974 -5.72893 0
M  V30 5929 H 556.309 -0.983789 -5.91981 0
M  V30 5930 H 557.379 -1.51005 -4.60788 0
M  V30 5931 N 558.722 1.53707 -0.348139 0
M  V30 5932 C 559.632 2.28881 0.514857 0
M  V30 5933 C 560.648 1.34168 1.10793 0
M  V30 5934 O 561.824 1.6721 1.12262 0
M  V30 5935 C 558.889 3.05042 1.64774 0
M  V30 5936 C 557.95 4.15389 1.08398 0
M  V30 5937 C 557.183 4.87909 2.16287 0
M  V30 5938 O 557.406 4.60137 3.3709 0
M  V30 5939 O 556.34 5.74254 1.80323 0
M  V30 5940 H 560.166 3.03547 -0.0963699 0
M  V30 5941 H 557.751 1.48972 -0.113043 0
M  V30 5942 H 559.633 3.52656 2.30677 0
M  V30 5943 H 558.308 2.33228 2.24469 0
M  V30 5944 H 557.215 3.72068 0.389341 0
M  V30 5945 H 558.548 4.89318 0.531829 0
M  V30 5946 N 560.2 0.0768682 1.57412 0
M  V30 5947 C 561.133 -0.924685 2.08626 0
M  V30 5948 C 562.111 -1.28792 0.992542 0
M  V30 5949 O 563.295 -1.39634 1.26628 0
M  V30 5950 C 560.422 -2.23131 2.54814 0
M  V30 5951 C 559.468 -2.01928 3.75669 0
M  V30 5952 S 560.301 -1.27397 5.20125 0
M  V30 5953 C 561.457 -2.59329 5.69648 0
M  V30 5954 H 561.69 -0.488928 2.93252 0
M  V30 5955 H 559.223 -0.136014 1.538 0
M  V30 5956 H 561.181 -2.98226 2.82084 0
M  V30 5957 H 559.842 -2.63831 1.70447 0
M  V30 5958 H 559.035 -2.98639 4.05993 0
M  V30 5959 H 558.637 -1.34967 3.48798 0
M  V30 5960 H 560.929 -3.55394 5.76803 0
M  V30 5961 H 561.872 -2.33608 6.68456 0
M  V30 5962 H 562.28 -2.66767 4.9749 0
M  V30 5963 N 561.678 -1.56367 -0.196722 0
M  V30 5964 C 562.925 -1.80529 -0.917366 0
M  V30 5965 C 563.253 -0.649817 -1.83324 0
M  V30 5966 O 562.508 0.36451 -1.92275 0
M  V30 5967 C 562.807 -3.10663 -1.767 0
M  V30 5968 C 562.473 -4.3962 -1.00225 0
M  V30 5969 C 561.135 -4.74653 -0.791095 0
M  V30 5970 C 563.487 -5.1913 -0.464035 0
M  V30 5971 C 560.815 -5.86692 -0.0302155 0
M  V30 5972 C 563.167 -6.31964 0.283625 0
M  V30 5973 C 561.831 -6.65581 0.505813 0
M  V30 5974 H 561.101 -0.660602 -0.335688 0
M  V30 5975 H 563.748 -1.90615 -0.183844 0
M  V30 5976 H 562.053 -2.95807 -2.56915 0
M  V30 5977 H 563.75 -3.26563 -2.32718 0
M  V30 5978 H 560.34 -4.12127 -1.17684 0
M  V30 5979 H 564.524 -4.9248 -0.614575 0
M  V30 5980 H 559.78 -6.11211 0.151917 0
M  V30 5981 H 563.954 -6.92791 0.708057 0
M  V30 5982 H 561.581 -7.52239 1.0973 0
M  V30 5983 N 563.156 0.464375 -1.50603 0
M  V30 5984 C 564.402 1.21776 -1.62168 0
M  V30 5985 C 564.735 1.91476 -0.324154 0
M  V30 5986 O 564.01 1.8242 0.674782 0
M  V30 5987 C 564.293 2.25614 -2.80661 0
M  V30 5988 C 564.146 1.60175 -4.20314 0
M  V30 5989 C 565.465 3.26862 -2.94702 0
M  V30 5990 H 562.584 0.44137 -0.590222 0
M  V30 5991 H 565.226 0.510623 -1.8301 0
M  V30 5992 H 563.376 2.85923 -2.63021 0
M  V30 5993 H 565.048 1.03411 -4.4956 0
M  V30 5994 H 563.291 0.904697 -4.24261 0
M  V30 5995 H 563.962 2.35665 -4.99165 0
M  V30 5996 H 566.438 2.76582 -3.10872 0
M  V30 5997 H 565.314 3.96839 -3.79223 0
M  V30 5998 H 565.575 3.91382 -2.05603 0
M  V30 5999 N 564.634 1.40294 0.718013 0
M  V30 6000 C 565.882 1.38167 1.47494 0
M  V30 6001 C 566.203 -0.01607 1.94993 0
M  V30 6002 O 565.473 -0.970396 1.70177 0
M  V30 6003 H 564.053 0.508505 0.547203 0
M  V30 6004 H 566.715 1.75324 0.851322 0
M  V30 6005 H 565.811 2.05503 2.34894 0
M  V30 6006 N 566.112 -0.949982 1.2575 0
M  V30 6007 C 567.358 -1.69766 1.10938 0
M  V30 6008 C 567.691 -1.91056 -0.348028 0
M  V30 6009 O 566.966 -1.48488 -1.25625 0
M  V30 6010 C 567.249 -3.07779 1.86933 0
M  V30 6011 C 567.102 -2.9387 3.4053 0
M  V30 6012 C 568.421 -4.07749 1.65616 0
M  V30 6013 H 565.54 -0.616144 0.404396 0
M  V30 6014 H 568.182 -1.10394 1.54639 0
M  V30 6015 H 566.332 -3.58462 1.4979 0
M  V30 6016 H 568.004 -2.50476 3.87375 0
M  V30 6017 H 566.247 -2.29686 3.68004 0
M  V30 6018 H 566.918 -3.91719 3.88922 0
M  V30 6019 H 569.394 -3.65994 1.97959 0
M  V30 6020 H 568.27 -5.02348 2.21218 0
M  V30 6021 H 568.531 -4.38029 0.598595 0
M  V30 6022 N 567.59 -1.07411 -1.15328 0
M  V30 6023 C 568.838 -0.796073 -1.85761 0
M  V30 6024 C 569.159 0.679864 -1.82764 0
M  V30 6025 O 568.429 1.49242 -1.269 0
M  V30 6026 H 567.009 -0.291495 -0.687779 0
M  V30 6027 H 569.671 -1.35799 -1.39802 0
M  V30 6028 H 568.767 -1.13114 -2.90881 0
M  V30 6029 N 569.068 1.32177 -0.85831 0
M  V30 6030 C 570.479 1.79381 -0.517621 0
M  V30 6031 C 570.83 1.70841 0.964769 0
M  V30 6032 O 569.955 1.26917 1.75274 0
M  V30 6033 C 570.55 3.25706 -0.932801 0
M  V30 6034 C 569.109 3.70851 -0.643953 0
M  V30 6035 C 568.256 2.53208 -1.13054 0
M  V30 6036 H 571.207 1.19424 -1.04516 0
M  V30 6037 H 571.228 3.79673 -0.250674 0
M  V30 6038 H 570.74 3.31889 -2.01174 0
M  V30 6039 H 568.841 3.70178 0.424112 0
M  V30 6040 H 568.954 4.63495 -1.21281 0
M  V30 6041 H 567.318 2.48676 -0.550679 0
M  V30 6042 H 568.101 2.62143 -2.21666 0
M  V30 6043 N 570.547 0.616602 1.45037 0
M  V30 6044 C 571.51 -0.0871112 2.29034 0
M  V30 6045 C 572.51 -0.786414 1.40258 0
M  V30 6046 O 573.7 -0.633207 1.62284 0
M  V30 6047 C 570.832 -1.13369 3.21497 0
M  V30 6048 H 572.025 0.651497 2.92738 0
M  V30 6049 H 569.578 0.376058 1.51709 0
M  V30 6050 H 570.313 -1.90277 2.62612 0
M  V30 6051 H 570.098 -0.636358 3.86902 0
M  V30 6052 H 571.588 -1.62627 3.84633 0
M  V30 6053 N 572.025 -1.5352 0.356285 0
M  V30 6054 C 573.441 -1.59599 0.00485267 0
M  V30 6055 C 573.641 -1.37179 -1.47595 0
M  V30 6056 O 572.697 -1.17234 -2.23635 0
M  V30 6057 C 574.01 -2.97277 0.452454 0
M  V30 6058 C 575.558 -3.10357 0.405881 0
M  V30 6059 C 576.033 -4.50432 0.829148 0
M  V30 6060 N 577.524 -4.5652 0.783838 0
M  V30 6061 C 578.259 -5.63077 1.08315 0
M  V30 6062 N 577.755 -6.77429 1.45126 0
M  V30 6063 N 579.548 -5.53014 1.00655 0
M  V30 6064 H 571.699 -1.66346 1.32071 0
M  V30 6065 H 573.962 -0.77971 0.539218 0
M  V30 6066 H 573.668 -3.18792 1.48542 0
M  V30 6067 H 573.542 -3.76836 -0.165762 0
M  V30 6068 H 575.929 -2.88558 -0.617934 0
M  V30 6069 H 576.01 -2.32828 1.05947 0
M  V30 6070 H 575.654 -4.72968 1.85103 0
M  V30 6071 H 575.584 -5.26378 0.152906 0
M  V30 6072 H 578.075 -3.74408 0.512513 0
M  V30 6073 H 578.388 -7.54669 1.66415 0
M  V30 6074 H 576.733 -6.78844 1.48983 0
M  V30 6075 H 579.924 -4.62557 0.718215 0
M  V30 6076 H 580.097 -6.35964 1.24315 0
M  V30 6077 N 573.503 -0.0852151 -1.57369 0
M  V30 6078 C 574.749 0.581666 -1.94279 0
M  V30 6079 C 575.082 1.68444 -0.966446 0
M  V30 6080 O 574.357 1.945 0.00215277 0
M  V30 6081 C 574.64 1.14609 -3.41375 0
M  V30 6082 C 574.493 0.0490414 -4.49773 0
M  V30 6083 C 575.812 2.04751 -3.8957 0
M  V30 6084 H 572.931 0.209972 -0.706456 0
M  V30 6085 H 575.573 -0.153915 -1.89376 0
M  V30 6086 H 573.723 1.77297 -3.45685 0
M  V30 6087 H 575.395 -0.584721 -4.57579 0
M  V30 6088 H 573.638 -0.618638 -4.29366 0
M  V30 6089 H 574.309 0.484601 -5.49869 0
M  V30 6090 H 576.785 1.51981 -3.87351 0
M  V30 6091 H 575.661 2.41173 -4.93079 0
M  V30 6092 H 575.922 2.96107 -3.28288 0
M  V30 6093 N 574.981 1.5647 0.188427 0
M  V30 6094 C 576.397 1.50204 0.539532 0
M  V30 6095 C 576.597 0.78644 1.85519 0
M  V30 6096 O 575.653 0.339714 2.50204 0
M  V30 6097 C 576.966 2.94893 0.588103 0
M  V30 6098 C 578.514 3.05602 0.67648 0
M  V30 6099 C 578.989 4.51716 0.756101 0
M  V30 6100 N 580.48 4.55894 0.819451 0
M  V30 6101 C 581.215 5.66272 0.90134 0
M  V30 6102 N 580.711 6.86323 0.945118 0
M  V30 6103 N 582.504 5.54201 0.939043 0
M  V30 6104 H 574.655 2.01406 -0.674493 0
M  V30 6105 H 576.918 0.916828 -0.241103 0
M  V30 6106 H 576.624 3.50334 -0.309633 0
M  V30 6107 H 576.498 3.4861 1.44051 0
M  V30 6108 H 578.885 2.50206 1.56465 0
M  V30 6109 H 578.966 2.54999 -0.202262 0
M  V30 6110 H 578.61 5.07739 -0.12774 0
M  V30 6111 H 578.54 5.00058 1.65074 0
M  V30 6112 H 581.031 3.69452 0.794594 0
M  V30 6113 H 581.344 7.66194 1.0083 0
M  V30 6114 H 579.689 6.88968 0.913683 0
M  V30 6115 H 582.88 4.59333 0.901725 0
M  V30 6116 H 583.053 6.40247 0.999402 0
M  V30 6117 N 576.459 -0.456382 1.50847 0
M  V30 6118 C 577.736 -1.21739 1.53098 0
M  V30 6119 C 578.116 -2.09179 0.284132 0
M  V30 6120 O 577.464 -2.16466 -0.731773 0
M  V30 6121 C 577.674 -2.03573 2.83477 0
M  V30 6122 C 579.022 -2.61264 3.34703 0
M  V30 6123 O 580.046 -2.13802 2.84898 0
M  V30 6124 O 578.905 -3.47779 4.21559 0
M  V30 6125 H 575.999 -0.553219 0.614718 0
M  V30 6126 H 578.545 -0.467003 1.63148 0
M  V30 6127 H 577.317 -1.39232 3.65691 0
M  V30 6128 H 576.94 -2.85716 2.76499 0
M  V30 6129 N 577.937 -1.40673 -0.710563 0
M  V30 6130 C 578.867 -1.44095 -1.83736 0
M  V30 6131 C 579.848 -0.301286 -1.67411 0
M  V30 6132 O 581.033 -0.510618 -1.87367 0
M  V30 6133 C 578.163 -1.30773 -3.21738 0
M  V30 6134 C 577.117 -2.42395 -3.52745 0
M  V30 6135 C 576.443 -2.14147 -4.89944 0
M  V30 6136 C 577.743 -3.84738 -3.53234 0
M  V30 6137 H 579.437 -2.38396 -1.81129 0
M  V30 6138 H 576.983 -1.14746 -0.870017 0
M  V30 6139 H 578.936 -1.31783 -4.00264 0
M  V30 6140 H 577.66 -0.329507 -3.24934 0
M  V30 6141 H 576.319 -2.40643 -2.76562 0
M  V30 6142 H 575.967 -1.14703 -4.89747 0
M  V30 6143 H 575.667 -2.88934 -5.11655 0
M  V30 6144 H 577.191 -2.16848 -5.70797 0
M  V30 6145 H 578.605 -3.88286 -4.2179 0
M  V30 6146 H 577.002 -4.59085 -3.86473 0
M  V30 6147 H 578.072 -4.13962 -2.52514 0
M  V30 6148 N 579.415 0.9433 -1.26252 0
M  V30 6149 C 580.662 1.68925 -1.11672 0
M  V30 6150 C 580.99 1.91499 0.340329 0
M  V30 6151 O 580.245 1.49189 1.26653 0
M  V30 6152 C 580.544 3.07073 -1.82868 0
M  V30 6153 C 580.21 3.04262 -3.32769 0
M  V30 6154 C 578.872 3.03203 -3.7366 0
M  V30 6155 C 581.224 2.96729 -4.28487 0
M  V30 6156 C 578.552 2.92373 -5.0866 0
M  V30 6157 C 580.904 2.87442 -5.63525 0
M  V30 6158 C 579.568 2.84724 -6.03729 0
M  V30 6159 H 578.838 0.618141 -0.408635 0
M  V30 6160 H 581.485 1.10124 -1.56668 0
M  V30 6161 H 579.79 3.69486 -1.30335 0
M  V30 6162 H 581.487 3.63635 -1.69029 0
M  V30 6163 H 578.077 3.05865 -3.00241 0
M  V30 6164 H 582.261 2.96658 -3.97879 0
M  V30 6165 H 577.517 2.88645 -5.38975 0
M  V30 6166 H 581.691 2.80576 -6.37377 0
M  V30 6167 H 579.318 2.76089 -7.08293 0
M  V30 6168 N 580.893 1.08022 1.14757 0
M  V30 6169 C 581.856 0.71048 2.1791 0
M  V30 6170 C 582.856 -0.252731 1.58801 0
M  V30 6171 O 584.046 -0.0327915 1.74169 0
M  V30 6172 C 581.178 0.0483203 3.40866 0
M  V30 6173 H 582.371 1.62384 2.52134 0
M  V30 6174 H 579.924 0.877595 1.29337 0
M  V30 6175 H 580.659 -0.876959 3.12218 0
M  V30 6176 H 580.444 0.741189 3.85031 0
M  V30 6177 H 581.934 -0.195471 4.17142 0
M  V30 6178 N 582.371 -1.3172 0.865308 0
M  V30 6179 C 583.301 -2.31109 0.333302 0
M  V30 6180 C 584.282 -1.60148 -0.573301 0
M  V30 6181 O 585.467 -1.87882 -0.491305 0
M  V30 6182 C 582.597 -3.44104 -0.470078 0
M  V30 6183 C 581.551 -4.26623 0.343021 0
M  V30 6184 C 580.877 -5.31482 -0.585756 0
M  V30 6185 C 582.177 -4.98001 1.57456 0
M  V30 6186 H 583.871 -2.75855 1.1638 0
M  V30 6187 H 581.417 -1.3262 0.561069 0
M  V30 6188 H 583.37 -4.12682 -0.852752 0
M  V30 6189 H 582.094 -2.98112 -1.33404 0
M  V30 6190 H 580.753 -3.59707 0.707583 0
M  V30 6191 H 580.401 -4.81741 -1.44686 0
M  V30 6192 H 580.101 -5.87582 -0.0456494 0
M  V30 6193 H 581.625 -6.0292 -0.965375 0
M  V30 6194 H 583.039 -5.59201 1.26359 0
M  V30 6195 H 581.436 -5.63876 2.05339 0
M  V30 6196 H 582.506 -4.25253 2.32997 0
M  V30 6197 N 583.85 -0.624285 -1.44708 0
M  V30 6198 C 584.812 0.0749638 -2.29077 0
M  V30 6199 C 585.812 0.778965 -1.40673 0
M  V30 6200 O 587.003 0.624591 -1.62618 0
M  V30 6201 C 584.135 1.11663 -3.22094 0
M  V30 6202 H 585.327 -0.667013 -2.92388 0
M  V30 6203 H 582.88 -0.384098 -1.51507 0
M  V30 6204 H 583.615 1.88881 -2.63618 0
M  V30 6205 H 583.401 0.61583 -3.87234 0
M  V30 6206 H 584.891 1.60585 -3.8549 0
M  V30 6207 N 585.328 1.53329 -0.364422 0
M  V30 6208 C 586.744 1.59594 -0.0133165 0
M  V30 6209 C 586.944 1.37959 1.46865 0
M  V30 6210 O 586 1.18418 2.2301 0
M  V30 6211 C 587.313 2.97032 -0.468213 0
M  V30 6212 C 588.861 3.10138 -0.422334 0
M  V30 6213 C 589.336 4.49986 -0.853024 0
M  V30 6214 N 590.827 4.56098 -0.808037 0
M  V30 6215 C 591.562 5.62495 -1.11299 0
M  V30 6216 N 591.058 6.7665 -1.48717 0
M  V30 6217 N 592.851 5.52473 -1.03586 0
M  V30 6218 H 585.002 1.65644 -1.32951 0
M  V30 6219 H 587.265 0.77684 -0.543345 0
M  V30 6220 H 586.971 3.18 -1.5023 0
M  V30 6221 H 586.845 3.76918 0.145775 0
M  V30 6222 H 589.232 2.88881 0.602622 0
M  V30 6223 H 589.313 2.32263 -1.0718 0
M  V30 6224 H 588.957 4.7198 -1.87609 0
M  V30 6225 H 588.887 5.26289 -0.180819 0
M  V30 6226 H 591.378 3.74131 -0.532361 0
M  V30 6227 H 591.691 7.53776 -1.70415 0
M  V30 6228 H 590.036 6.78044 -1.52581 0
M  V30 6229 H 593.227 4.6217 -0.742736 0
M  V30 6230 H 593.4 6.35295 -1.27686 0
M  V30 6231 N 586.806 0.0935595 1.57322 0
M  V30 6232 C 587.753 -0.865935 2.1394 0
M  V30 6233 C 588.723 -1.28083 1.05754 0
M  V30 6234 O 589.908 -1.36285 1.33533 0
M  V30 6235 C 587.048 -2.12023 2.72287 0
M  V30 6236 C 586.161 -1.756 3.94701 0
M  V30 6237 C 585.296 -2.95804 4.41218 0
M  V30 6238 C 584.335 -2.555 5.56225 0
M  V30 6239 N 583.472 -3.68534 5.97601 0
M  V30 6240 H 588.312 -0.376261 2.95615 0
M  V30 6241 H 585.849 -0.174052 1.46067 0
M  V30 6242 H 587.807 -2.85477 3.04235 0
M  V30 6243 H 586.437 -2.58492 1.93343 0
M  V30 6244 H 585.489 -0.921208 3.69077 0
M  V30 6245 H 586.801 -1.41964 4.78171 0
M  V30 6246 H 585.955 -3.77513 4.74941 0
M  V30 6247 H 584.694 -3.32649 3.56645 0
M  V30 6248 H 583.699 -1.72218 5.22131 0
M  V30 6249 H 584.924 -2.19801 6.42545 0
M  V30 6250 H 582.87 -4.051 5.15974 0
M  V30 6251 H 582.787 -3.38737 6.75865 0
M  V30 6252 H 584.055 -4.50757 6.35955 0
M  V30 6253 N 588.284 -1.56567 -0.180126 0
M  V30 6254 C 589.232 -1.96632 -1.24251 0
M  V30 6255 C 590.226 -0.853818 -1.46309 0
M  V30 6256 O 591.432 -1.0389 -1.46993 0
M  V30 6257 H 587.807 -0.625476 -0.417473 0
M  V30 6258 H 589.778 -2.85201 -0.877679 0
M  V30 6259 C 588.527 -2.33486 -2.57642 0
M  V30 6260 H 587.85 -3.18626 -2.4149 0
M  V30 6261 H 589.29 -2.65371 -3.30688 0
M  V30 6262 C 587.749 -1.17499 -3.15746 0
M  V30 6263 O 588.279 -0.457956 -3.99081 0
M  V30 6264 N 586.485 -0.94786 -2.74707 0
M  V30 6265 H 586.032 -1.53269 -2.07042 0
M  V30 6266 H 585.99 -0.173626 -3.1392 0
M  V30 6267 N 589.762 0.448376 -1.51087 0
M  V30 6268 C 590.725 1.52588 -1.71025 0
M  V30 6269 C 591.725 1.49958 -0.580442 0
M  V30 6270 O 592.915 1.52176 -0.847833 0
M  V30 6271 C 590.047 2.92163 -1.75652 0
M  V30 6272 H 591.24 1.36218 -2.67179 0
M  V30 6273 H 588.793 0.676313 -1.4091 0
M  V30 6274 H 589.528 3.13951 -0.812724 0
M  V30 6275 H 589.313 2.95478 -2.57751 0
M  V30 6276 H 590.803 3.70349 -1.92953 0
M  V30 6277 N 591.24 1.41047 0.703093 0
M  V30 6278 C 592.651 1.35657 1.28274 0
M  V30 6279 C 593.002 0.0360309 1.96167 0
M  V30 6280 O 592.127 -0.865833 1.98324 0
M  V30 6281 C 592.722 2.45707 2.33267 0
M  V30 6282 C 591.281 2.43738 2.86825 0
M  V30 6283 C 590.428 2.25941 1.60767 0
M  V30 6284 H 593.379 1.50672 0.49836 0
M  V30 6285 H 593.4 2.14333 3.14391 0
M  V30 6286 H 592.912 3.41805 1.83824 0
M  V30 6287 H 591.013 1.51375 3.40465 0
M  V30 6288 H 591.126 3.39779 3.37768 0
M  V30 6289 H 589.49 1.73681 1.86298 0
M  V30 6290 H 590.273 3.24054 1.1333 0
M  V30 6291 N 592.718 -0.936591 1.26751 0
M  V30 6292 C 593.958 -1.69796 1.13792 0
M  V30 6293 C 594.322 -1.89437 -0.312671 0
M  V30 6294 O 595.523 -2.62806 -0.564489 0
M  V30 6295 C 593.794 -3.03297 1.89065 0
M  V30 6296 S 595.353 -3.94461 1.92214 0
M  V30 6297 H 592.171 -0.583412 0.406389 0
M  V30 6298 H 594.773 -1.11575 1.60535 0
M  V30 6299 H 593.477 -2.86687 2.93665 0
M  V30 6300 H 593.008 -3.66575 1.42781 0
M  V30 6301 H 595.023 -4.85767 1.01215 0
M  V30 6302 N 594.196 -1.08629 -1.14182 0
M  V30 6303 C 595.445 -0.812271 -1.84621 0
M  V30 6304 C 595.758 0.664313 -1.83973 0
M  V30 6305 O 596.964 1.05357 -2.50224 0
M  V30 6306 C 595.42 -1.4031 -3.31423 0
M  V30 6307 C 595.028 -2.91164 -3.40481 0
M  V30 6308 C 596.772 -1.20767 -4.06959 0
M  V30 6309 C 594.679 -3.43373 -4.81507 0
M  V30 6310 H 593.609 -0.30019 -0.691666 0
M  V30 6311 H 596.26 -1.30798 -1.28701 0
M  V30 6312 H 594.642 -0.835096 -3.87094 0
M  V30 6313 H 595.816 -3.5412 -2.94848 0
M  V30 6314 H 594.131 -3.09646 -2.78403 0
M  V30 6315 H 596.728 -1.57237 -5.11058 0
M  V30 6316 H 597.071 -0.147664 -4.16038 0
M  V30 6317 H 597.604 -1.74274 -3.57594 0
M  V30 6318 H 594.343 -4.48958 -4.77616 0
M  V30 6319 H 593.863 -2.85176 -5.27669 0
M  V30 6320 H 595.542 -3.40095 -5.50404 0
M  V30 6321 N 595.674 1.31259 -0.872281 0
M  V30 6322 C 596.604 2.30929 -0.345554 0
M  V30 6323 C 597.585 1.60449 0.5648 0
M  V30 6324 O 598.77 1.8814 0.481335 0
M  V30 6325 C 595.9 3.44348 0.451823 0
M  V30 6326 C 594.854 4.26435 -0.365641 0
M  V30 6327 C 594.18 5.31785 0.557562 0
M  V30 6328 C 595.48 4.97159 -1.60095 0
M  V30 6329 H 597.174 2.75234 -1.17841 0
M  V30 6330 H 594.72 1.3232 -0.568094 0
M  V30 6331 H 596.673 4.13128 0.830854 0
M  V30 6332 H 595.397 2.98816 1.31821 0
M  V30 6333 H 594.056 3.59326 -0.726649 0
M  V30 6334 H 593.704 4.82502 1.4213 0
M  V30 6335 H 593.404 5.87598 0.0144878 0
M  V30 6336 H 594.928 6.03424 0.933387 0
M  V30 6337 H 596.342 5.58523 -1.29323 0
M  V30 6338 H 594.739 5.62779 -2.08327 0
M  V30 6339 H 595.809 4.24012 -2.35249 0
M  V30 6340 N 597.152 0.631951 1.44375 0
M  V30 6341 C 598.399 0.136767 2.02038 0
M  V30 6342 C 598.727 -1.24168 1.49709 0
M  V30 6343 O 597.982 -1.83809 0.671763 0
M  V30 6344 C 598.281 0.0735861 3.57324 0
M  V30 6345 C 597.947 1.39092 4.28911 0
M  V30 6346 C 596.609 1.75171 4.48184 0
M  V30 6347 C 598.961 2.26042 4.69632 0
M  V30 6348 C 596.289 2.97907 5.05439 0
M  V30 6349 C 598.641 3.4805 5.28246 0
M  V30 6350 C 597.305 3.84351 5.45738 0
M  V30 6351 H 596.575 0.0500466 0.739308 0
M  V30 6352 H 599.222 0.818429 1.7313 0
M  V30 6353 H 597.527 -0.691449 3.8565 0
M  V30 6354 H 599.224 -0.326091 3.99672 0
M  V30 6355 H 595.814 1.10015 4.1424 0
M  V30 6356 H 599.998 1.99463 4.54454 0
M  V30 6357 H 595.254 3.26108 5.17169 0
M  V30 6358 H 599.428 4.15658 5.5875 0
M  V30 6359 H 597.055 4.79538 5.8987 0
M  V30 6360 N 598.631 -1.53133 0.372548 0
M  V30 6361 C 599.88 -2.00539 -0.216115 0
M  V30 6362 C 600.193 -1.26374 -1.49295 0
M  V30 6363 O 601.399 -1.64404 -2.16064 0
M  V30 6364 C 599.855 -3.57253 -0.435678 0
M  V30 6365 C 599.463 -4.40302 0.82693 0
M  V30 6366 C 601.207 -4.12995 -0.981618 0
M  V30 6367 C 599.114 -5.88583 0.576567 0
M  V30 6368 H 598.044 -0.749246 -0.084536 0
M  V30 6369 H 600.695 -1.76771 0.492364 0
M  V30 6370 H 599.077 -3.77202 -1.20559 0
M  V30 6371 H 600.251 -4.32124 1.60017 0
M  V30 6372 H 598.566 -3.95699 1.29659 0
M  V30 6373 H 601.163 -5.21418 -1.18436 0
M  V30 6374 H 601.506 -3.68027 -1.94581 0
M  V30 6375 H 602.039 -3.96871 -0.271696 0
M  V30 6376 H 598.778 -6.37841 1.51128 0
M  V30 6377 H 598.298 -5.99592 -0.158047 0
M  V30 6378 H 599.977 -6.46676 0.204722 0
M  V30 6379 N 600.109 -0.101901 -1.5727 0
M  V30 6380 C 601.386 0.602832 -1.86079 0
M  V30 6381 C 601.766 1.85912 -1 0
M  V30 6382 O 601.114 2.28379 -0.0742488 0
M  V30 6383 C 601.324 0.911694 -3.36881 0
M  V30 6384 C 602.672 1.2722 -4.05093 0
M  V30 6385 O 603.696 1.0025 -3.41802 0
M  V30 6386 O 602.555 1.7776 -5.16782 0
M  V30 6387 H 599.649 0.302366 -0.769743 0
M  V30 6388 H 602.195 -0.135113 -1.69161 0
M  V30 6389 H 600.967 0.0207256 -3.91295 0
M  V30 6390 H 600.59 1.70538 -3.59169 0
M  V30 6391 N 601.587 1.56661 0.17182 0
M  V30 6392 C 602.497 1.99604 1.2327 0
M  V30 6393 C 603.513 0.907333 1.4847 0
M  V30 6394 O 604.689 1.21492 1.60629 0
M  V30 6395 C 601.754 2.34685 2.55194 0
M  V30 6396 C 600.815 3.57381 2.3786 0
M  V30 6397 C 600.048 3.90779 3.63494 0
M  V30 6398 O 600.271 3.25152 4.6865 0
M  V30 6399 O 599.205 4.84129 3.57634 0
M  V30 6400 H 603.031 2.90114 0.898192 0
M  V30 6401 H 600.616 1.44522 0.378647 0
M  V30 6402 H 602.498 2.5822 3.33017 0
M  V30 6403 H 601.173 1.47336 2.88225 0
M  V30 6404 H 600.08 3.39064 1.5807 0
M  V30 6405 H 601.413 4.45268 2.09754 0
M  V30 6406 N 603.065 -0.440357 1.51323 0
M  V30 6407 C 604.314 -1.18697 1.63076 0
M  V30 6408 C 604.627 -1.92418 0.35136 0
M  V30 6409 O 605.833 -2.69258 0.348221 0
M  V30 6410 C 604.289 -2.15849 2.87988 0
M  V30 6411 C 603.897 -1.47789 4.22921 0
M  V30 6412 C 605.641 -2.90962 3.09098 0
M  V30 6413 C 603.548 -2.43407 5.38987 0
M  V30 6414 H 602.478 -0.44676 0.607389 0
M  V30 6415 H 605.129 -0.454313 1.77787 0
M  V30 6416 H 603.511 -2.92537 2.66905 0
M  V30 6417 H 604.685 -0.7668 4.54375 0
M  V30 6418 H 603 -0.848404 4.07665 0
M  V30 6419 H 605.597 -3.62584 3.92985 0
M  V30 6420 H 605.94 -3.52133 2.22053 0
M  V30 6421 H 606.473 -2.21381 3.30507 0
M  V30 6422 H 603.212 -1.86929 6.28282 0
M  V30 6423 H 602.732 -3.12579 5.11913 0
M  V30 6424 H 604.411 -3.046 5.70813 0
M  V30 6425 N 604.543 -1.41418 -0.695603 0
M  V30 6426 C 605.82 -1.31264 -1.45014 0
M  V30 6427 C 606.2 0.0597994 -2.11015 0
M  V30 6428 O 605.548 1.07403 -2.01685 0
M  V30 6429 C 605.758 -2.466 -2.4696 0
M  V30 6430 C 607.106 -2.87763 -3.12214 0
M  V30 6431 O 608.13 -2.46339 -2.57285 0
M  V30 6432 O 606.989 -3.59395 -4.11701 0
M  V30 6433 H 604.083 -0.516576 -0.645816 0
M  V30 6434 H 606.629 -1.53382 -0.726084 0
M  V30 6435 H 605.401 -3.38183 -1.96845 0
M  V30 6436 H 605.024 -2.26358 -3.26876 0
M  V30 6437 N 606.021 0.929856 -1.27246 0
M  V30 6438 C 606.984 2.01172 -1.09829 0
M  V30 6439 C 607.984 1.60743 -0.0429687 0
M  V30 6440 O 609.174 1.71813 -0.287373 0
M  V30 6441 C 606.306 3.34191 -0.673003 0
M  V30 6442 H 607.499 2.18054 -2.05895 0
M  V30 6443 H 605.052 1.11036 -1.10003 0
M  V30 6444 H 605.787 3.23009 0.289134 0
M  V30 6445 H 605.572 3.64892 -1.43515 0
M  V30 6446 H 607.062 4.13646 -0.573323 0
M  V30 6447 N 607.499 1.09233 1.13605 0
M  V30 6448 C 608.745 0.828385 1.8511 0
M  V30 6449 C 609.078 -0.64437 1.83198 0
M  V30 6450 O 608.353 -1.47428 1.26867 0
M  V30 6451 C 608.636 1.36167 3.33363 0
M  V30 6452 C 608.489 2.90038 3.438 0
M  V30 6453 C 609.808 0.993819 4.28732 0
M  V30 6454 H 606.927 0.30239 0.672108 0
M  V30 6455 H 609.569 1.35339 1.33355 0
M  V30 6456 H 607.719 0.9151 3.77569 0
M  V30 6457 H 609.391 3.43128 3.08319 0
M  V30 6458 H 607.634 3.27271 2.84739 0
M  V30 6459 H 608.305 3.22428 4.48045 0
M  V30 6460 H 610.781 1.37893 3.92587 0
M  V30 6461 H 609.657 1.39403 5.30903 0
M  V30 6462 H 609.918 -0.0982206 4.41991 0
M  V30 6463 N 608.977 -1.30795 0.87923 0
M  V30 6464 C 610.225 -1.95974 0.493809 0
M  V30 6465 C 610.546 -1.69787 -0.959021 0
M  V30 6466 O 609.816 -1.01832 -1.67353 0
M  V30 6467 H 608.396 -0.725083 0.179622 0
M  V30 6468 H 611.058 -1.59432 1.12105 0
M  V30 6469 H 610.154 -3.05058 0.659263 0
M  V30 6470 N 610.455 -0.639598 -1.44038 0
M  V30 6471 C 611.871 -0.305953 -1.5664 0
M  V30 6472 C 612.071 1.19055 -1.62567 0
M  V30 6473 O 611.127 1.97492 -1.57331 0
M  V30 6474 C 612.44 -1.00533 -2.83397 0
M  V30 6475 C 613.988 -0.984278 -2.97121 0
M  V30 6476 C 614.463 -1.66428 -4.26691 0
M  V30 6477 N 615.954 -1.63127 -4.33525 0
M  V30 6478 C 616.689 -2.12629 -5.32519 0
M  V30 6479 N 616.185 -2.70359 -6.3787 0
M  V30 6480 N 617.978 -2.03208 -5.24083 0
M  V30 6481 H 610.129 -1.6109 -1.38434 0
M  V30 6482 H 612.392 -0.676672 -0.663942 0
M  V30 6483 H 612.098 -2.06034 -2.85032 0
M  V30 6484 H 611.972 -0.548362 -3.73193 0
M  V30 6485 H 614.359 0.0622792 -2.95034 0
M  V30 6486 H 614.44 -1.47981 -2.08651 0
M  V30 6487 H 614.084 -2.71034 -4.29538 0
M  V30 6488 H 614.014 -1.14351 -5.14034 0
M  V30 6489 H 616.505 -1.20987 -3.58009 0
M  V30 6490 H 616.818 -3.05842 -7.09704 0
M  V30 6491 H 615.163 -2.74414 -6.38531 0
M  V30 6492 H 618.354 -1.57823 -4.40692 0
M  V30 6493 H 618.527 -2.42097 -6.01077 0
M  V30 6494 N 611.933 1.52934 -0.380664 0
M  V30 6495 C 612.88 2.26197 0.458641 0
M  V30 6496 C 613.85 1.27462 1.06502 0
M  V30 6497 O 615.035 1.56274 1.09467 0
M  V30 6498 C 612.175 3.06571 1.58456 0
M  V30 6499 C 611.288 4.20222 1.00189 0
M  V30 6500 C 610.423 4.88007 2.09815 0
M  V30 6501 C 609.462 5.93665 1.49092 0
M  V30 6502 N 608.599 6.55081 2.52613 0
M  V30 6503 H 613.439 2.975 -0.172595 0
M  V30 6504 H 610.976 1.4678 -0.0969426 0
M  V30 6505 H 612.934 3.51455 2.24801 0
M  V30 6506 H 611.564 2.37494 2.18624 0
M  V30 6507 H 610.616 3.79714 0.228292 0
M  V30 6508 H 611.928 4.96102 0.518064 0
M  V30 6509 H 611.082 5.36151 2.83948 0
M  V30 6510 H 609.821 4.11632 2.61555 0
M  V30 6511 H 608.826 5.44868 0.7348 0
M  V30 6512 H 610.051 6.71969 0.981582 0
M  V30 6513 H 607.997 5.8155 3.03538 0
M  V30 6514 H 607.914 7.26548 2.08961 0
M  V30 6515 H 609.182 7.07871 3.26402 0
M  V30 6516 N 613.412 0.11024 1.57214 0
M  V30 6517 C 614.828 -0.24638 1.57687 0
M  V30 6518 C 615.028 -1.67344 1.12241 0
M  V30 6519 O 614.084 -2.39298 0.805783 0
M  V30 6520 C 615.397 -0.0210288 3.00693 0
M  V30 6521 C 616.945 -0.0876077 3.12877 0
M  V30 6522 C 617.42 0.10994 4.57868 0
M  V30 6523 N 618.911 0.0556135 4.63167 0
M  V30 6524 C 619.646 0.183495 5.73106 0
M  V30 6525 N 619.142 0.367058 6.91827 0
M  V30 6526 N 620.935 0.123689 5.61964 0
M  V30 6527 H 613.086 1.04246 1.85058 0
M  V30 6528 H 615.349 0.40979 0.854854 0
M  V30 6529 H 615.055 0.965203 3.38196 0
M  V30 6530 H 614.929 -0.756748 3.69531 0
M  V30 6531 H 617.316 -1.06436 2.75237 0
M  V30 6532 H 617.397 0.67985 2.466 0
M  V30 6533 H 617.041 1.08362 4.96206 0
M  V30 6534 H 616.971 -0.677397 5.22225 0
M  V30 6535 H 619.462 -0.0831062 3.77809 0
M  V30 6536 H 619.775 0.455739 7.71455 0
M  V30 6537 H 618.12 0.40292 6.93831 0
M  V30 6538 H 621.311 -0.0186928 4.68096 0
M  V30 6539 H 621.484 0.226797 6.47603 0
M  V30 6540 N 614.89 -1.56749 -0.16351 0
M  V30 6541 C 616.138 -1.82074 -0.87713 0
M  V30 6542 C 616.459 -0.688503 -1.82441 0
M  V30 6543 O 615.729 0.291085 -1.93725 0
M  V30 6544 H 614.309 -0.671677 -0.326893 0
M  V30 6545 H 616.971 -1.9423 -0.161459 0
M  V30 6546 H 616.067 -2.76407 -1.44934 0
M  V30 6547 N 616.368 0.432326 -1.51554 0
M  V30 6548 C 617.784 0.769195 -1.39841 0
M  V30 6549 C 617.984 1.95584 -0.484675 0
M  V30 6550 O 617.04 2.52433 0.0582829 0
M  V30 6551 C 618.353 1.04487 -2.81963 0
M  V30 6552 C 619.901 1.149 -2.91148 0
M  V30 6553 C 620.376 1.45758 -4.34187 0
M  V30 6554 N 621.867 1.52671 -4.37317 0
M  V30 6555 C 622.602 1.78129 -5.4503 0
M  V30 6556 N 622.098 2.01345 -6.62897 0
M  V30 6557 N 623.891 1.79953 -5.32516 0
M  V30 6558 H 616.042 -0.349122 -2.09511 0
M  V30 6559 H 618.305 -0.0938113 -0.943347 0
M  V30 6560 H 618.011 0.24557 -3.50842 0
M  V30 6561 H 617.885 1.97119 -3.21596 0
M  V30 6562 H 620.272 1.93891 -2.22464 0
M  V30 6563 H 620.353 0.201568 -2.55005 0
M  V30 6564 H 619.997 0.672917 -5.03423 0
M  V30 6565 H 619.927 2.41715 -4.67848 0
M  V30 6566 H 622.418 1.36612 -3.52343 0
M  V30 6567 H 622.731 2.20155 -7.40778 0
M  V30 6568 H 621.076 1.98657 -6.66003 0
M  V30 6569 H 624.267 1.61337 -4.39418 0
M  V30 6570 H 624.44 1.99455 -6.1654 0
M  V30 6571 N 617.846 1.41785 0.688094 0
M  V30 6572 C 619.094 1.41264 1.4453 0
M  V30 6573 C 619.415 0.0252946 1.94984 0
M  V30 6574 O 618.685 -0.934081 1.72197 0
M  V30 6575 H 617.265 0.519998 0.536294 0
M  V30 6576 H 619.927 1.7709 0.813941 0
M  V30 6577 H 619.023 2.10439 2.30482 0
M  V30 6578 N 619.324 -0.923095 1.27737 0
M  V30 6579 C 620.272 -2.04567 1.10703 0
M  V30 6580 C 621.266 -1.69375 0.0288445 0
M  V30 6581 O 622.472 -1.79027 0.186913 0
M  V30 6582 H 618.847 -0.670109 0.34126 0
M  V30 6583 H 620.818 -2.1608 2.05796 0
M  V30 6584 C 619.567 -3.38934 0.775837 0
M  V30 6585 H 618.89 -3.66501 1.59741 0
M  V30 6586 H 620.33 -4.18239 0.696548 0
M  V30 6587 C 618.789 -3.32863 -0.520012 0
M  V30 6588 O 619.319 -3.70462 -1.55308 0
M  V30 6589 N 617.525 -2.85958 -0.51732 0
M  V30 6590 H 617.072 -2.55557 0.32379 0
M  V30 6591 H 617.03 -2.82279 -1.38441 0
M  V30 6592 N 620.802 -1.09834 -1.13024 0
M  V30 6593 C 622.049 -0.83695 -1.84395 0
M  V30 6594 C 622.377 0.637463 -1.83757 0
M  V30 6595 O 621.632 1.48554 -1.27398 0
M  V30 6596 C 621.931 -1.32263 -3.32026 0
M  V30 6597 C 621.597 -2.80739 -3.52841 0
M  V30 6598 C 620.259 -3.21286 -3.5823 0
M  V30 6599 C 622.611 -3.76449 -3.60466 0
M  V30 6600 C 619.939 -4.56308 -3.68781 0
M  V30 6601 C 622.291 -5.11266 -3.72546 0
M  V30 6602 C 620.955 -5.51397 -3.76189 0
M  V30 6603 H 620.225 -0.306262 -0.674748 0
M  V30 6604 H 622.872 -1.37385 -1.33408 0
M  V30 6605 H 621.177 -0.705618 -3.85394 0
M  V30 6606 H 622.874 -1.09695 -3.85705 0
M  V30 6607 H 619.464 -2.48363 -3.49305 0
M  V30 6608 H 623.648 -3.46234 -3.55578 0
M  V30 6609 H 618.904 -4.86832 -3.69871 0
M  V30 6610 H 623.078 -5.85279 -3.77388 0
M  V30 6611 H 620.705 -6.56017 -3.84117 0
M  V30 6612 N 622.28 1.30327 -0.886154 0
M  V30 6613 C 623.528 1.9571 -0.504195 0
M  V30 6614 C 623.849 1.70294 0.950003 0
M  V30 6615 O 623.119 1.02718 1.66811 0
M  V30 6616 H 621.699 0.72412 -0.183465 0
M  V30 6617 H 624.361 1.58835 -1.12949 0
M  V30 6618 H 623.457 3.04704 -0.675431 0
M  V30 6619 N 623.758 0.647228 1.43697 0
M  V30 6620 C 625.006 0.157876 2.01482 0
M  V30 6621 C 625.327 -1.23039 1.51282 0
M  V30 6622 O 624.597 -1.82071 0.722982 0
M  V30 6623 H 623.177 0.0553745 0.744945 0
M  V30 6624 H 625.839 0.83755 1.75986 0
M  V30 6625 H 624.935 0.137895 3.11795 0
M  V30 6626 N 625.236 -1.5273 0.388769 0
M  V30 6627 C 626.168 -2.24081 -0.481704 0
M  V30 6628 C 627.181 -1.26307 -1.02715 0
M  V30 6629 O 628.37 -1.52386 -0.929565 0
M  V30 6630 C 625.47 -2.94315 -1.68024 0
M  V30 6631 C 624.643 -4.18791 -1.26226 0
M  V30 6632 C 623.702 -4.72028 -2.32542 0
M  V30 6633 O 622.728 -5.35129 -1.93972 0
M  V30 6634 N 623.93 -4.51838 -3.64448 0
M  V30 6635 H 626.695 -2.9942 0.129591 0
M  V30 6636 H 624.256 -1.60465 0.2151 0
M  V30 6637 H 626.248 -3.26831 -2.38671 0
M  V30 6638 H 624.818 -2.22287 -2.19789 0
M  V30 6639 H 624.038 -3.92318 -0.384703 0
M  V30 6640 H 625.326 -4.99668 -0.959647 0
M  V30 6641 H 624.724 -4.01468 -3.98547 0
M  V30 6642 H 623.281 -4.88845 -4.31131 0
M  V30 6643 N 626.714 -0.118576 -1.57153 0
M  V30 6644 C 627.939 0.550582 -1.99958 0
M  V30 6645 C 628.364 1.59458 -0.997736 0
M  V30 6646 O 627.722 1.81274 0.0306269 0
M  V30 6647 C 627.77 1.15379 -3.41643 0
M  V30 6648 O 626.874 2.26932 -3.44348 0
M  V30 6649 H 626.215 0.137567 -0.649593 0
M  V30 6650 H 628.745 -0.206926 -2.03551 0
M  V30 6651 H 628.755 1.48942 -3.79843 0
M  V30 6652 H 627.43 0.389087 -4.14076 0
M  V30 6653 H 626.007 1.94812 -3.17967 0
M  V30 6654 N 628.193 1.56834 0.155195 0
M  V30 6655 C 629.103 2.009 1.21146 0
M  V30 6656 C 630.119 0.923029 1.475 0
M  V30 6657 O 631.295 1.23189 1.59331 0
M  V30 6658 C 628.36 2.37378 2.52691 0
M  V30 6659 C 627.421 3.59883 2.34057 0
M  V30 6660 C 626.654 3.94612 3.59329 0
M  V30 6661 O 626.877 3.30104 4.65175 0
M  V30 6662 O 625.811 4.87895 3.52479 0
M  V30 6663 H 629.637 2.9105 0.867371 0
M  V30 6664 H 627.222 1.44916 0.363298 0
M  V30 6665 H 629.104 2.61737 3.3026 0
M  V30 6666 H 627.779 1.50385 2.86646 0
M  V30 6667 H 626.686 3.40722 1.54465 0
M  V30 6668 H 628.019 4.47468 2.0502 0
M  V30 6669 N 629.671 -0.424282 1.51781 0
M  V30 6670 C 630.603 -1.53457 1.70246 0
M  V30 6671 C 631.616 -1.52004 0.582967 0
M  V30 6672 O 632.805 -1.56544 0.857683 0
M  V30 6673 C 629.905 -2.92368 1.71389 0
M  V30 6674 C 629.078 -3.1818 3.00133 0
M  V30 6675 C 628.137 -4.36884 2.9329 0
M  V30 6676 O 627.163 -4.34901 3.67219 0
M  V30 6677 N 628.365 -5.4117 2.10036 0
M  V30 6678 H 631.13 -1.38017 2.66029 0
M  V30 6679 H 628.691 -0.613394 1.4983 0
M  V30 6680 H 630.683 -3.6982 1.64362 0
M  V30 6681 H 629.253 -3.0134 0.831449 0
M  V30 6682 H 628.473 -2.28908 3.20928 0
M  V30 6683 H 629.761 -3.32261 3.85331 0
M  V30 6684 H 629.159 -5.45623 1.49373 0
M  V30 6685 H 627.716 -6.17425 2.08878 0
M  V30 6686 N 631.149 -1.42148 -0.680565 0
M  V30 6687 C 632.059 -1.47565 -1.82378 0
M  V30 6688 C 633.075 -0.36489 -1.70131 0
M  V30 6689 O 634.251 -0.614916 -1.91783 0
M  V30 6690 C 631.316 -1.37013 -3.18478 0
M  V30 6691 C 630.377 -2.58532 -3.42724 0
M  V30 6692 C 629.61 -2.48473 -4.72331 0
M  V30 6693 O 629.833 -1.51745 -5.49845 0
M  V30 6694 O 628.767 -3.38503 -4.97694 0
M  V30 6695 H 632.593 -2.44045 -1.80764 0
M  V30 6696 H 630.178 -1.23849 -0.835569 0
M  V30 6697 H 632.06 -1.33468 -3.99705 0
M  V30 6698 H 630.735 -0.436552 -3.20743 0
M  V30 6699 H 629.642 -2.67652 -2.61368 0
M  V30 6700 H 630.975 -3.50769 -3.45286 0
M  V30 6701 N 632.627 0.916307 -1.28225 0
M  V30 6702 C 633.575 2.03977 -1.11786 0
M  V30 6703 C 634.569 1.69358 -0.0378265 0
M  V30 6704 O 635.775 1.78925 -0.196405 0
M  V30 6705 H 632.15 0.66829 -0.344809 0
M  V30 6706 H 634.121 2.14985 -2.06939 0
M  V30 6707 C 632.87 3.38518 -0.7938 0
M  V30 6708 H 632.193 3.65649 -1.61682 0
M  V30 6709 H 633.633 4.17864 -0.718719 0
M  V30 6710 C 632.092 3.33134 0.502353 0
M  V30 6711 O 632.622 3.71281 1.53341 0
M  V30 6712 N 630.828 2.86229 0.502147 0
M  V30 6713 H 630.375 2.55382 -0.337338 0
M  V30 6714 H 630.333 2.83009 1.36942 0
M  V30 6715 N 634.105 1.10431 1.1244 0
M  V30 6716 C 635.333 0.868872 1.87772 0
M  V30 6717 C 635.748 -0.580645 1.7965 0
M  V30 6718 O 635.105 -1.40031 1.17036 0
M  V30 6719 C 635.156 1.30855 3.36986 0
M  V30 6720 O 634.877 2.70123 3.44914 0
M  V30 6721 C 636.378 1.107 4.29256 0
M  V30 6722 H 633.598 0.311868 0.59412 0
M  V30 6723 H 636.142 1.46897 1.42273 0
M  V30 6724 H 634.297 0.752126 3.80029 0
M  V30 6725 H 634.711 2.88923 4.37748 0
M  V30 6726 H 636.185 1.46378 5.32238 0
M  V30 6727 H 636.662 0.0456228 4.39176 0
M  V30 6728 H 637.268 1.64988 3.91994 0
M  V30 6729 N 635.583 -1.29855 0.893053 0
M  V30 6730 C 636.513 -2.3035 0.382249 0
M  V30 6731 C 637.494 -1.61328 -0.539203 0
M  V30 6732 O 638.679 -1.88882 -0.451342 0
M  V30 6733 C 635.809 -3.45024 -0.396983 0
M  V30 6734 C 634.763 -4.258 0.433437 0
M  V30 6735 C 634.089 -5.32605 -0.472889 0
M  V30 6736 C 635.389 -4.94549 1.67984 0
M  V30 6737 H 637.083 -2.73325 1.22205 0
M  V30 6738 H 634.629 -1.314 0.589073 0
M  V30 6739 H 636.582 -4.14398 -0.765024 0
M  V30 6740 H 635.306 -3.00875 -1.2705 0
M  V30 6741 H 633.965 -3.58125 0.783723 0
M  V30 6742 H 633.613 -4.84702 -1.34435 0
M  V30 6743 H 633.313 -5.87547 0.0789958 0
M  V30 6744 H 634.837 -6.04832 -0.837269 0
M  V30 6745 H 636.251 -5.56395 1.38192 0
M  V30 6746 H 634.648 -5.59393 2.17254 0
M  V30 6747 H 635.718 -4.20215 2.41965 0
M  V30 6748 N 637.061 -0.65484 -1.43351 0
M  V30 6749 C 638.009 0.0476784 -2.32551 0
M  V30 6750 C 639.003 0.811403 -1.48703 0
M  V30 6751 O 640.209 0.721621 -1.64902 0
M  V30 6752 H 636.584 0.0342038 -0.751222 0
M  V30 6753 H 638.555 -0.722342 -2.89525 0
M  V30 6754 C 637.304 0.999251 -3.33032 0
M  V30 6755 H 636.627 0.421005 -3.97577 0
M  V30 6756 H 638.067 1.45986 -3.98076 0
M  V30 6757 C 636.526 2.09606 -2.63756 0
M  V30 6758 O 637.056 3.18004 -2.4543 0
M  V30 6759 N 635.262 1.86207 -2.23103 0
M  V30 6760 H 634.809 0.980555 -2.38208 0
M  V30 6761 H 634.767 2.59787 -1.77081 0
M  V30 6762 N 638.539 1.52521 -0.396863 0
M  V30 6763 C 639.471 2.24333 0.469814 0
M  V30 6764 C 640.484 1.2685 1.02043 0
M  V30 6765 O 641.673 1.52876 0.92147 0
M  V30 6766 C 638.773 2.95202 1.66461 0
M  V30 6767 C 637.946 4.19454 1.24003 0
M  V30 6768 C 637.005 4.73255 2.30036 0
M  V30 6769 O 636.031 5.36151 1.91131 0
M  V30 6770 N 637.233 4.53765 3.62047 0
M  V30 6771 H 639.998 2.99347 -0.145468 0
M  V30 6772 H 637.559 1.60348 -0.223606 0
M  V30 6773 H 639.551 3.28092 2.36934 0
M  V30 6774 H 638.121 2.2345 2.18607 0
M  V30 6775 H 637.341 3.92517 0.363892 0
M  V30 6776 H 638.629 5.0017 0.933135 0
M  V30 6777 H 638.027 4.03576 3.96412 0
M  V30 6778 H 636.584 4.91124 4.28533 0
M  V30 6779 N 640.017 0.126909 1.57088 0
M  V30 6780 C 640.947 -0.816847 2.18746 0
M  V30 6781 C 641.928 -1.27161 1.12979 0
M  V30 6782 O 643.113 -1.33279 1.41246 0
M  V30 6783 C 640.243 -2.06398 2.79315 0
M  V30 6784 C 639.197 -1.74673 3.90735 0
M  V30 6785 C 638.523 -3.06482 4.38147 0
M  V30 6786 C 639.823 -1.0089 5.12463 0
M  V30 6787 H 641.517 -0.303032 2.97863 0
M  V30 6788 H 639.063 -0.144314 1.43275 0
M  V30 6789 H 641.016 -2.72885 3.2111 0
M  V30 6790 H 639.74 -2.60118 1.975 0
M  V30 6791 H 638.399 -1.10572 3.49527 0
M  V30 6792 H 638.047 -3.58152 3.5318 0
M  V30 6793 H 637.747 -2.86025 5.13287 0
M  V30 6794 H 639.271 -3.74073 4.82599 0
M  V30 6795 H 640.685 -1.57546 5.51228 0
M  V30 6796 H 639.082 -0.905006 5.93237 0
M  V30 6797 H 640.152 0.00297335 4.849 0
M  V30 6798 N 641.495 -1.56914 -0.146875 0
M  V30 6799 C 642.425 -2.01308 -1.1831 0
M  V30 6800 C 643.406 -0.892664 -1.44795 0
M  V30 6801 O 644.591 -1.16048 -1.55713 0
M  V30 6802 C 641.721 -2.3938 -2.51624 0
M  V30 6803 C 640.675 -3.54608 -2.3966 0
M  V30 6804 C 640.001 -3.78493 -3.77686 0
M  V30 6805 C 641.301 -4.87269 -1.88058 0
M  V30 6806 H 642.995 -2.88123 -0.813964 0
M  V30 6807 H 640.541 -1.38615 -0.3901 0
M  V30 6808 H 642.494 -2.69037 -3.24341 0
M  V30 6809 H 641.218 -1.49502 -2.90373 0
M  V30 6810 H 639.877 -3.25116 -1.69396 0
M  V30 6811 H 639.525 -2.85866 -4.13871 0
M  V30 6812 H 639.225 -4.56039 -3.70543 0
M  V30 6813 H 640.749 -4.10576 -4.51951 0
M  V30 6814 H 642.163 -5.15644 -2.50568 0
M  V30 6815 H 640.56 -5.68622 -1.91805 0
M  V30 6816 H 641.63 -4.77634 -0.836277 0
M  V30 6817 N 642.974 0.416227 -1.52004 0
M  V30 6818 C 644.22 1.16555 -1.6596 0
M  V30 6819 C 644.553 1.90347 -0.384906 0
M  V30 6820 O 643.828 1.84474 0.616405 0
M  V30 6821 C 644.111 2.1657 -2.87696 0
M  V30 6822 C 643.964 1.46722 -4.25197 0
M  V30 6823 C 645.283 3.17321 -3.04951 0
M  V30 6824 H 642.402 0.422369 -0.603965 0
M  V30 6825 H 645.044 0.452141 -1.84542 0
M  V30 6826 H 643.194 2.77411 -2.71985 0
M  V30 6827 H 644.866 0.89056 -4.52622 0
M  V30 6828 H 643.109 0.769263 -4.26925 0
M  V30 6829 H 643.78 2.19665 -5.0641 0
M  V30 6830 H 646.256 2.66552 -3.19514 0
M  V30 6831 H 645.132 3.84573 -3.91656 0
M  V30 6832 H 645.393 3.84643 -2.17951 0
M  V30 6833 N 644.452 1.42507 0.673017 0
M  V30 6834 C 645.362 1.4853 1.81593 0
M  V30 6835 C 646.378 0.373907 1.69935 0
M  V30 6836 O 647.554 0.625078 1.91454 0
M  V30 6837 C 644.619 1.387 3.17747 0
M  V30 6838 C 643.68 2.60346 3.41348 0
M  V30 6839 C 642.913 2.50975 4.71007 0
M  V30 6840 O 643.136 1.54659 5.49033 0
M  V30 6841 O 642.07 3.41138 4.95892 0
M  V30 6842 H 645.896 2.45001 1.79467 0
M  V30 6843 H 643.481 1.2429 0.82899 0
M  V30 6844 H 645.363 1.35586 3.98992 0
M  V30 6845 H 644.038 0.453555 3.20507 0
M  V30 6846 H 642.945 2.69034 2.59945 0
M  V30 6847 H 644.278 3.52595 3.43421 0
M  V30 6848 N 645.93 -0.909495 1.28709 0
M  V30 6849 C 646.863 -2.01388 1.07323 0
M  V30 6850 C 647.841 -1.62596 -0.0119757 0
M  V30 6851 O 649.025 -1.88003 0.136796 0
M  V30 6852 C 646.152 -3.32755 0.631797 0
M  V30 6853 C 645.198 -3.90532 1.71428 0
M  V30 6854 S 646.031 -4.20853 3.31124 0
M  V30 6855 C 647.187 -5.55276 2.88825 0
M  V30 6856 H 647.42 -2.19219 2.00824 0
M  V30 6857 H 644.953 -1.05489 1.12745 0
M  V30 6858 H 646.911 -4.08702 0.38381 0
M  V30 6859 H 645.572 -3.12818 -0.283451 0
M  V30 6860 H 644.765 -4.85385 1.35712 0
M  V30 6861 H 644.367 -3.21237 1.91528 0
M  V30 6862 H 646.659 -6.35341 2.3526 0
M  V30 6863 H 647.602 -5.95907 3.82492 0
M  V30 6864 H 648.01 -5.16666 2.27412 0
M  V30 6865 N 647.408 -1.11026 -1.11852 0
M  V30 6866 C 648.685 -0.768347 -1.79877 0
M  V30 6867 C 649.065 0.744261 -1.97545 0
M  V30 6868 O 648.413 1.67271 -1.55669 0
M  V30 6869 C 648.623 -1.52648 -3.13846 0
M  V30 6870 C 649.971 -1.70297 -3.88953 0
M  V30 6871 O 650.995 -1.49037 -3.23522 0
M  V30 6872 O 649.854 -2.05593 -5.06353 0
M  V30 6873 H 646.948 -0.277891 -0.778913 0
M  V30 6874 H 649.494 -1.21343 -1.18633 0
M  V30 6875 H 648.266 -2.55564 -2.96315 0
M  V30 6876 H 647.889 -1.07466 -3.82801 0
M  V30 6877 N 648.886 1.2938 -0.899927 0
M  V30 6878 C 650.134 1.95164 -0.524924 0
M  V30 6879 C 650.455 1.71292 0.931888 0
M  V30 6880 O 649.725 1.04481 1.65712 0
M  V30 6881 H 648.305 0.722133 -0.191135 0
M  V30 6882 H 650.967 1.57628 -1.14627 0
M  V30 6883 H 650.063 3.0397 -0.707711 0
M  V30 6884 N 650.364 0.662433 1.43002 0
M  V30 6885 C 651.611 0.179591 2.01702 0
M  V30 6886 C 651.939 -1.20964 1.52309 0
M  V30 6887 O 651.194 -1.82343 0.7106 0
M  V30 6888 C 651.493 0.149363 3.57088 0
M  V30 6889 C 651.159 1.48158 4.25864 0
M  V30 6890 C 649.821 1.84638 4.44367 0
M  V30 6891 C 652.173 2.35953 4.64732 0
M  V30 6892 C 649.501 3.08561 4.99006 0
M  V30 6893 C 651.853 3.59176 5.20745 0
M  V30 6894 C 650.517 3.95841 5.37463 0
M  V30 6895 H 649.787 0.0657172 0.73808 0
M  V30 6896 H 652.434 0.854968 1.71355 0
M  V30 6897 H 650.739 -0.609491 3.8703 0
M  V30 6898 H 652.436 -0.241241 4.00274 0
M  V30 6899 H 649.026 1.18777 4.11813 0
M  V30 6900 H 653.21 2.09058 4.50121 0
M  V30 6901 H 648.466 3.37005 5.10135 0
M  V30 6902 H 652.64 4.27417 5.49807 0
M  V30 6903 H 650.267 4.91942 5.79566 0
M  V30 6904 N 651.842 -1.52309 0.404946 0
M  V30 6905 C 652.79 -2.28452 -0.437321 0
M  V30 6906 C 653.784 -1.32975 -1.04948 0
M  V30 6907 O 654.99 -1.50451 -0.988159 0
M  V30 6908 H 651.365 -0.734824 -0.159805 0
M  V30 6909 H 653.336 -2.97542 0.22615 0
M  V30 6910 C 652.085 -3.11536 -1.54404 0
M  V30 6911 H 651.408 -3.84871 -1.08233 0
M  V30 6912 H 652.848 -3.67926 -2.10729 0
M  V30 6913 C 651.307 -2.24833 -2.50902 0
M  V30 6914 O 651.837 -1.88574 -3.54687 0
M  V30 6915 N 650.043 -1.88685 -2.21012 0
M  V30 6916 H 649.59 -2.18371 -1.36646 0
M  V30 6917 H 649.548 -1.30966 -2.85824 0
M  V30 6918 N 653.32 -0.135238 -1.57019 0
M  V30 6919 C 654.548 0.526066 -2.001 0
M  V30 6920 C 654.963 1.59184 -1.01519 0
M  V30 6921 O 654.32 1.82497 -0.0104258 0
M  V30 6922 C 654.371 1.13744 -3.43139 0
M  V30 6923 O 654.092 0.114259 -4.37951 0
M  V30 6924 C 655.593 1.8805 -4.01438 0
M  V30 6925 H 652.813 0.137962 -0.656664 0
M  V30 6926 H 655.357 -0.226359 -2.03243 0
M  V30 6927 H 653.512 1.84056 -3.40885 0
M  V30 6928 H 653.926 0.56058 -5.21496 0
M  V30 6929 H 655.4 2.26133 -5.03555 0
M  V30 6930 H 655.877 2.76194 -3.41487 0
M  V30 6931 H 656.483 1.22464 -4.07287 0
M  V30 6932 N 654.798 1.5699 0.138552 0
M  V30 6933 C 656.026 1.87976 0.864437 0
M  V30 6934 C 656.441 0.724372 1.74351 0
M  V30 6935 O 655.798 -0.305575 1.79924 0
M  V30 6936 C 655.849 3.18276 1.71414 0
M  V30 6937 O 655.57 4.29365 0.870487 0
M  V30 6938 C 657.071 3.62834 2.54688 0
M  V30 6939 H 654.291 0.622878 0.249528 0
M  V30 6940 H 656.835 2.04094 0.128805 0
M  V30 6941 H 654.99 3.03886 2.40274 0
M  V30 6942 H 655.404 5.03924 1.45466 0
M  V30 6943 H 656.878 4.5682 3.0987 0
M  V30 6944 H 657.355 2.88533 3.31127 0
M  V30 6945 H 657.961 3.79946 1.91105 0
M  V30 6946 N 656.276 -0.40816 1.52223 0
M  V30 6947 C 657.504 -1.17672 1.70179 0
M  V30 6948 C 657.919 -1.84257 0.411696 0
M  V30 6949 O 657.276 -1.7192 -0.612354 0
M  V30 6950 C 657.327 -2.23911 2.83806 0
M  V30 6951 O 657.048 -1.60044 4.0782 0
M  V30 6952 C 658.549 -3.1364 3.13281 0
M  V30 6953 H 655.769 -0.353562 0.570293 0
M  V30 6954 H 658.313 -0.480083 1.98785 0
M  V30 6955 H 656.468 -2.89242 2.57717 0
M  V30 6956 H 656.882 -2.30484 4.71145 0
M  V30 6957 H 658.356 -3.84255 3.96298 0
M  V30 6958 H 658.833 -3.76066 2.26872 0
M  V30 6959 H 659.439 -2.53977 3.41139 0
M  V30 6960 N 657.755 -1.42862 -0.66545 0
M  V30 6961 C 658.703 -1.47319 -1.8 0
M  V30 6962 C 659.697 -0.347963 -1.65788 0
M  V30 6963 O 660.903 -0.521406 -1.72283 0
M  V30 6964 H 657.278 -0.461588 -0.593667 0
M  V30 6965 H 659.249 -2.42876 -1.7336 0
M  V30 6966 C 657.998 -1.40152 -3.18203 0
M  V30 6967 H 657.321 -2.26035 -3.2977 0
M  V30 6968 H 658.761 -1.47331 -3.9758 0
M  V30 6969 C 657.22 -0.117493 -3.36695 0
M  V30 6970 O 657.75 0.826058 -3.93115 0
M  V30 6971 N 655.956 -0.0316218 -2.90583 0
M  V30 6972 H 655.503 -0.800247 -2.44855 0
M  V30 6973 H 655.461 0.826835 -3.03333 0
M  V30 6974 N 659.233 0.902656 -1.29189 0
M  V30 6975 C 660.479 1.65532 -1.17163 0
M  V30 6976 C 660.812 1.92216 0.276879 0
M  V30 6977 O 660.087 1.53048 1.20027 0
M  V30 6978 C 660.37 3.00629 -1.98228 0
M  V30 6979 C 660.223 2.81029 -3.51202 0
M  V30 6980 C 661.542 4.01321 -1.80635 0
M  V30 6981 H 658.661 0.60071 -0.426985 0
M  V30 6982 H 661.303 1.04578 -1.5863 0
M  V30 6983 H 659.453 3.52656 -1.62991 0
M  V30 6984 H 661.125 2.35927 -3.96404 0
M  V30 6985 H 659.368 2.1587 -3.76275 0
M  V30 6986 H 660.039 3.77014 -4.03192 0
M  V30 6987 H 662.515 3.58394 -2.11406 0
M  V30 6988 H 661.391 4.93792 -2.3971 0
M  V30 6989 H 661.652 4.35505 -0.760754 0
M  V30 6990 N 660.711 1.11618 1.11262 0
M  V30 6991 C 661.957 0.867463 1.83311 0
M  V30 6992 C 662.29 -0.605366 1.84524 0
M  V30 6993 O 661.565 -1.44704 1.29965 0
M  V30 6994 C 661.848 1.43207 3.30399 0
M  V30 6995 C 661.701 2.97265 3.3757 0
M  V30 6996 C 663.02 1.08454 4.26528 0
M  V30 6997 H 660.139 0.316578 0.665543 0
M  V30 6998 H 662.781 1.38137 1.30454 0
M  V30 6999 H 660.931 0.994982 3.75543 0
M  V30 7000 H 662.603 3.49591 3.00971 0
M  V30 7001 H 660.846 3.33237 2.77733 0
M  V30 7002 H 661.517 3.31859 4.41105 0
M  V30 7003 H 663.993 1.4619 3.89574 0
M  V30 7004 H 662.869 1.50633 5.27826 0
M  V30 7005 H 663.13 -0.00444568 4.421 0
M  V30 7006 N 662.189 -1.289 0.906776 0
M  V30 7007 C 663.438 -1.9455 0.532262 0
M  V30 7008 C 663.751 -1.72219 -0.927353 0
M  V30 7009 O 664.957 -2.32033 -1.40971 0
M  V30 7010 C 663.413 -3.48438 0.901041 0
M  V30 7011 C 663.021 -3.79558 2.37991 0
M  V30 7012 C 664.765 -4.20284 0.596777 0
M  V30 7013 C 662.672 -5.26723 2.68918 0
M  V30 7014 H 661.602 -0.728259 0.195333 0
M  V30 7015 H 664.253 -1.46519 1.10474 0
M  V30 7016 H 662.635 -3.95162 0.257419 0
M  V30 7017 H 663.809 -3.43668 3.06967 0
M  V30 7018 H 662.124 -3.20868 2.65391 0
M  V30 7019 H 664.721 -5.28612 0.8046 0
M  V30 7020 H 665.064 -4.13694 -0.465072 0
M  V30 7021 H 665.597 -3.79315 1.19855 0
M  V30 7022 H 662.336 -5.38384 3.73928 0
M  V30 7023 H 661.856 -5.63836 2.04571 0
M  V30 7024 H 663.535 -5.94391 2.55555 0
M  V30 7025 N 663.667 -0.670007 -1.42649 0
M  V30 7026 C 664.597 -0.00258501 -2.335 0
M  V30 7027 C 665.578 0.794364 -1.50412 0
M  V30 7028 O 666.763 0.75248 -1.79029 0
M  V30 7029 C 663.893 0.952748 -3.33976 0
M  V30 7030 C 662.847 0.264733 -4.2718 0
M  V30 7031 C 662.173 1.33267 -5.17826 0
M  V30 7032 C 663.473 -0.853289 -5.15283 0
M  V30 7033 H 665.167 -0.761326 -2.89559 0
M  V30 7034 H 662.713 -0.367561 -1.3923 0
M  V30 7035 H 664.666 1.4287 -3.96442 0
M  V30 7036 H 663.39 1.74285 -2.7621 0
M  V30 7037 H 662.049 -0.190938 -3.66102 0
M  V30 7038 H 661.697 2.11464 -4.5639 0
M  V30 7039 H 661.397 0.877476 -5.81011 0
M  V30 7040 H 662.921 1.80965 -5.83167 0
M  V30 7041 H 664.335 -0.458763 -5.71462 0
M  V30 7042 H 662.732 -1.23398 -5.87276 0
M  V30 7043 H 663.802 -1.70412 -4.53969 0
M  V30 7044 N 665.145 1.52092 -0.413018 0
M  V30 7045 C 666.108 2.25706 0.398687 0
M  V30 7046 C 667.108 1.28221 0.970368 0
M  V30 7047 O 668.298 1.52131 0.848635 0
M  V30 7048 C 665.43 3.03029 1.5616 0
M  V30 7049 H 666.623 2.98888 -0.246131 0
M  V30 7050 H 664.176 1.5542 -0.165622 0
M  V30 7051 H 664.911 2.34205 2.24317 0
M  V30 7052 H 664.696 3.74606 1.15812 0
M  V30 7053 H 666.186 3.58857 2.13569 0
M  V30 7054 N 666.623 0.143563 1.56945 0
M  V30 7055 C 667.871 -0.507402 1.95627 0
M  V30 7056 C 668.192 -1.65626 1.02922 0
M  V30 7057 O 667.462 -1.95693 0.0901136 0
M  V30 7058 H 666.042 -0.190436 0.722318 0
M  V30 7059 H 668.704 0.218257 1.93674 0
M  V30 7060 H 667.8 -0.885816 2.99265 0
M  V30 7061 N 668.101 -1.57061 -0.130224 0
M  V30 7062 C 669.329 -1.88432 -0.854456 0
M  V30 7063 C 669.744 -0.733608 -1.73964 0
M  V30 7064 O 669.101 0.296029 -1.80083 0
M  V30 7065 C 669.152 -3.1918 -1.69724 0
M  V30 7066 O 668.873 -4.2982 -0.847705 0
M  V30 7067 C 670.374 -3.6418 -2.5276 0
M  V30 7068 H 667.594 -0.624193 -0.246221 0
M  V30 7069 H 670.138 -2.04159 -0.11798 0
M  V30 7070 H 668.293 -3.05156 -2.3866 0
M  V30 7071 H 668.707 -5.04689 -1.42792 0
M  V30 7072 H 670.181 -4.58457 -3.07443 0
M  V30 7073 H 670.658 -2.90285 -3.29592 0
M  V30 7074 H 671.264 -3.80954 -1.89087 0
M  V30 7075 N 669.579 0.400081 -1.52437 0
M  V30 7076 C 670.527 1.50851 -1.7705 0
M  V30 7077 C 671.521 1.56928 -0.637969 0
M  V30 7078 O 672.727 1.60226 -0.820212 0
M  V30 7079 H 669.102 0.50186 -0.560036 0
M  V30 7080 H 671.073 1.27281 -2.69893 0
M  V30 7081 C 669.822 2.88117 -1.94638 0
M  V30 7082 H 669.145 2.84187 -2.81208 0
M  V30 7083 H 670.585 3.64942 -2.15855 0
M  V30 7084 C 669.044 3.29206 -0.715899 0
M  V30 7085 O 669.574 4.01544 0.111944 0
M  V30 7086 N 667.78 2.85363 -0.549191 0
M  V30 7087 H 667.327 2.26664 -1.22397 0
M  V30 7088 H 667.285 3.13214 0.27278 0
M  V30 7089 N 671.057 1.43213 0.657864 0
M  V30 7090 C 672.473 1.26511 0.972992 0
M  V30 7091 C 672.673 0.181477 2.00681 0
M  V30 7092 O 671.729 -0.441649 2.48608 0
M  V30 7093 C 673.042 2.62784 1.46168 0
M  V30 7094 C 674.59 2.70278 1.57857 0
M  V30 7095 C 675.065 4.06958 2.10117 0
M  V30 7096 N 676.556 4.08999 2.17426 0
M  V30 7097 C 677.291 5.11585 2.58975 0
M  V30 7098 N 676.787 6.24548 2.99853 0
M  V30 7099 N 678.58 4.9894 2.58873 0
M  V30 7100 H 670.731 2.12384 -0.0263129 0
M  V30 7101 H 672.994 0.946638 0.0507992 0
M  V30 7102 H 672.7 3.43022 0.776474 0
M  V30 7103 H 672.574 2.87863 2.43751 0
M  V30 7104 H 674.961 1.90376 2.25479 0
M  V30 7105 H 675.042 2.4897 0.587179 0
M  V30 7106 H 674.686 4.87325 1.43098 0
M  V30 7107 H 674.616 4.25628 3.10078 0
M  V30 7108 H 677.107 3.27457 1.88627 0
M  V30 7109 H 677.42 6.98661 3.30292 0
M  V30 7110 H 675.765 6.28027 2.97669 0
M  V30 7111 H 678.956 4.09757 2.26311 0
M  V30 7112 H 679.129 5.79019 2.90932 0
M  V30 7113 N 672.536 -0.895792 1.29666 0
M  V30 7114 C 673.947 -1.46195 1.1612 0
M  V30 7115 C 674.298 -1.94699 -0.242195 0
M  V30 7116 O 673.423 -1.8406 -1.13802 0
M  V30 7117 C 674.018 -2.65718 2.10189 0
M  V30 7118 C 672.577 -3.18458 2.00653 0
M  V30 7119 C 671.724 -1.91149 2.00891 0
M  V30 7120 H 674.675 -0.706756 1.42094 0
M  V30 7121 H 674.696 -3.4158 1.6764 0
M  V30 7122 H 674.208 -2.30386 3.12321 0
M  V30 7123 H 672.309 -3.58474 1.01623 0
M  V30 7124 H 672.422 -3.82491 2.88509 0
M  V30 7125 H 670.786 -2.09021 1.45542 0
M  V30 7126 H 671.569 -1.58089 3.04734 0
M  V30 7127 N 674.014 -1.12206 -1.10668 0
M  V30 7128 C 675.291 -0.787382 -1.79052 0
M  V30 7129 C 675.671 0.723267 -1.98323 0
M  V30 7130 O 675.019 1.6561 -1.57434 0
M  V30 7131 C 675.229 -1.55968 -3.1221 0
M  V30 7132 C 676.577 -1.74413 -3.87125 0
M  V30 7133 O 677.601 -1.5246 -3.21923 0
M  V30 7134 O 676.46 -2.10952 -5.04144 0
M  V30 7135 H 673.554 -0.286137 -0.775922 0
M  V30 7136 H 676.1 -1.22595 -1.1734 0
M  V30 7137 H 674.872 -2.58692 -2.93588 0
M  V30 7138 H 674.495 -1.1152 -3.8164 0
M  V30 7139 N 675.492 1.28418 -0.913599 0
M  V30 7140 C 676.741 1.94265 -0.542572 0
M  V30 7141 C 677.054 1.72709 0.918207 0
M  V30 7142 O 678.26 2.32778 1.39738 0
M  V30 7143 C 676.716 3.47956 -0.919507 0
M  V30 7144 C 676.324 3.78291 -2.4 0
M  V30 7145 C 678.068 4.19962 -0.619057 0
M  V30 7146 C 675.975 5.2529 -2.71707 0
M  V30 7147 H 674.905 0.727213 -0.199192 0
M  V30 7148 H 677.556 1.45931 -1.11249 0
M  V30 7149 H 675.938 3.9502 -0.278372 0
M  V30 7150 H 677.112 3.42035 -3.08786 0
M  V30 7151 H 675.427 3.19456 -2.67089 0
M  V30 7152 H 678.024 5.28178 -0.832623 0
M  V30 7153 H 678.367 4.13935 0.443126 0
M  V30 7154 H 678.9 3.78674 -1.21865 0
M  V30 7155 H 675.639 5.36394 -3.76778 0
M  V30 7156 H 675.159 5.62743 -2.07559 0
M  V30 7157 H 676.838 5.93027 -2.58703 0
M  V30 7158 N 676.97 0.677563 1.42291 0
M  V30 7159 C 677.9 0.014968 2.33495 0
M  V30 7160 C 678.881 -0.786376 1.50831 0
M  V30 7161 O 680.066 -0.742975 1.79426 0
M  V30 7162 C 677.196 -0.935023 3.34477 0
M  V30 7163 C 676.15 -0.242074 4.27315 0
M  V30 7164 C 675.476 -1.30519 5.18526 0
M  V30 7165 C 676.776 0.880604 5.14823 0
M  V30 7166 H 678.47 0.776671 2.89151 0
M  V30 7167 H 676.016 0.37494 1.39033 0
M  V30 7168 H 677.969 -1.40766 3.97194 0
M  V30 7169 H 676.693 -1.72818 2.77131 0
M  V30 7170 H 675.352 0.210351 3.65996 0
M  V30 7171 H 675 -2.09041 4.57505 0
M  V30 7172 H 674.7 -0.846652 5.81468 0
M  V30 7173 H 676.224 -1.7787 5.84119 0
M  V30 7174 H 677.638 0.489062 5.7121 0
M  V30 7175 H 676.035 1.26511 5.86613 0
M  V30 7176 H 677.105 1.72818 4.53059 0
M  V30 7177 N 678.448 -1.51871 0.421078 0
M  V30 7178 C 679.725 -1.9447 -0.20993 0
M  V30 7179 C 680.105 -1.35875 -1.61558 0
M  V30 7180 O 679.453 -0.539294 -2.22045 0
M  V30 7181 C 679.663 -3.48402 -0.204165 0
M  V30 7182 C 681.011 -4.2254 -0.417696 0
M  V30 7183 O 682.035 -3.55074 -0.282999 0
M  V30 7184 O 680.894 -5.422 -0.684239 0
M  V30 7185 H 677.988 -0.815283 -0.138718 0
M  V30 7186 H 680.534 -1.62832 0.477884 0
M  V30 7187 H 679.306 -3.83464 0.779183 0
M  V30 7188 H 678.929 -3.86436 -0.935576 0
M  V30 7189 N 679.926 -0.151884 -1.56866 0
M  V30 7190 C 681.337 0.368128 -1.83035 0
M  V30 7191 C 681.688 1.64402 -1.07082 0
M  V30 7192 O 680.813 2.14056 -0.317647 0
M  V30 7193 C 681.408 0.674676 -3.32014 0
M  V30 7194 C 679.967 1.13919 -3.58747 0
M  V30 7195 C 679.114 0.164833 -2.7681 0
M  V30 7196 H 682.065 -0.376499 -1.54169 0
M  V30 7197 H 682.086 1.52883 -3.48435 0
M  V30 7198 H 681.598 -0.254113 -3.87267 0
M  V30 7199 H 679.699 2.08375 -3.08886 0
M  V30 7200 H 679.812 1.06179 -4.67186 0
M  V30 7201 H 678.176 0.658419 -2.46043 0
M  V30 7202 H 678.959 -0.757633 -3.34836 0
M  V30 7203 N 681.404 1.57128 0.121893 0
M  V30 7204 C 682.367 1.99197 1.13372 0
M  V30 7205 C 683.367 0.881728 1.3447 0
M  V30 7206 O 684.557 1.14783 1.31036 0
M  V30 7207 C 681.689 2.32963 2.4888 0
M  V30 7208 H 682.882 2.89788 0.772204 0
M  V30 7209 H 680.435 1.51952 0.366093 0
M  V30 7210 H 681.17 1.45243 2.89957 0
M  V30 7211 H 680.955 3.13934 2.34921 0
M  V30 7212 H 682.445 2.66261 3.21706 0
M  V30 7213 N 682.882 -0.391992 1.52647 0
M  V30 7214 C 683.812 -1.48517 1.8018 0
M  V30 7215 C 684.793 -1.57039 0.653667 0
M  V30 7216 O 685.978 -1.72036 0.900962 0
M  V30 7217 C 683.108 -2.86161 1.96797 0
M  V30 7218 C 682.062 -2.92481 3.12472 0
M  V30 7219 C 681.388 -4.32546 3.14338 0
M  V30 7220 C 682.688 -2.624 4.51601 0
M  V30 7221 H 684.382 -1.25726 2.71723 0
M  V30 7222 H 681.928 -0.603387 1.30749 0
M  V30 7223 H 683.881 -3.62639 2.14641 0
M  V30 7224 H 682.605 -3.10283 1.01941 0
M  V30 7225 H 681.264 -2.18451 2.94406 0
M  V30 7226 H 680.912 -4.53703 2.1717 0
M  V30 7227 H 680.612 -4.37695 3.92042 0
M  V30 7228 H 682.136 -5.10934 3.34333 0
M  V30 7229 H 683.55 -3.28596 4.69785 0
M  V30 7230 H 681.947 -2.78903 5.3135 0
M  V30 7231 H 683.017 -1.57754 4.58521 0
M  V30 7232 N 684.36 -1.4356 -0.65026 0
M  V30 7233 C 685.29 -1.51758 -1.77459 0
M  V30 7234 C 686.271 -0.372019 -1.65982 0
M  V30 7235 O 687.456 -0.589627 -1.85033 0
M  V30 7236 C 684.586 -1.44302 -3.15902 0
M  V30 7237 C 683.54 -2.57138 -3.42146 0
M  V30 7238 C 682.866 -2.34735 -4.8042 0
M  V30 7239 C 684.166 -3.99373 -3.36598 0
M  V30 7240 H 685.86 -2.45863 -1.70855 0
M  V30 7241 H 683.406 -1.18333 -0.820566 0
M  V30 7242 H 685.359 -1.48641 -3.94314 0
M  V30 7243 H 684.083 -0.467026 -3.23244 0
M  V30 7244 H 682.742 -2.52157 -2.66106 0
M  V30 7245 H 682.39 -1.35372 -4.84441 0
M  V30 7246 H 682.09 -3.10375 -4.9894 0
M  V30 7247 H 683.614 -2.40862 -5.61086 0
M  V30 7248 H 685.028 -4.05826 -4.04942 0
M  V30 7249 H 683.425 -4.75063 -3.66654 0
M  V30 7250 H 684.495 -4.243 -2.34729 0
M  V30 7251 N 685.838 0.888903 -1.30139 0
M  V30 7252 C 687.254 1.17153 -1.08385 0
M  V30 7253 C 687.454 2.0088 0.157925 0
M  V30 7254 O 686.51 2.37668 0.852652 0
M  V30 7255 C 687.823 1.882 -2.34523 0
M  V30 7256 C 689.371 2.00981 -2.39949 0
M  V30 7257 C 689.846 2.75441 -3.65918 0
M  V30 7258 N 691.337 2.82989 -3.66704 0
M  V30 7259 C 692.072 3.41167 -4.60861 0
M  V30 7260 N 691.568 4.00425 -5.6536 0
M  V30 7261 N 693.361 3.38944 -4.48412 0
M  V30 7262 H 685.512 0.33053 -2.09812 0
M  V30 7263 H 687.775 0.208964 -0.924683 0
M  V30 7264 H 687.481 1.34119 -3.25123 0
M  V30 7265 H 687.355 2.88609 -2.42868 0
M  V30 7266 H 689.742 2.54234 -1.4983 0
M  V30 7267 H 689.823 0.996725 -2.35582 0
M  V30 7268 H 689.467 2.22861 -4.56394 0
M  V30 7269 H 689.397 3.77118 -3.67546 0
M  V30 7270 H 691.888 2.40912 -2.91153 0
M  V30 7271 H 692.201 4.42871 -6.33313 0
M  V30 7272 H 690.546 3.98856 -5.69157 0
M  V30 7273 H 693.737 2.91875 -3.6596 0
M  V30 7274 H 693.91 3.83989 -5.21974 0
M  V30 7275 N 687.317 1.12792 1.10072 0
M  V30 7276 C 688.728 0.899346 1.63611 0
M  V30 7277 C 689.079 -0.565547 1.87872 0
M  V30 7278 O 688.204 -1.43081 1.62348 0
M  V30 7279 C 688.799 1.62608 2.97227 0
M  V30 7280 C 687.358 1.44356 3.47618 0
M  V30 7281 C 686.505 1.65958 2.22156 0
M  V30 7282 H 689.456 1.28216 0.935223 0
M  V30 7283 H 689.477 1.0793 3.64872 0
M  V30 7284 H 688.989 2.69221 2.79538 0
M  V30 7285 H 687.09 0.400148 3.70445 0
M  V30 7286 H 687.203 2.20218 4.25489 0
M  V30 7287 H 685.567 1.08395 2.30484 0
M  V30 7288 H 686.35 2.73877 2.06993 0
M  V30 7289 N 688.795 -1.27931 0.920396 0
M  V30 7290 C 690.043 -1.94304 0.555906 0
M  V30 7291 C 690.364 -1.72753 -0.904519 0
M  V30 7292 O 689.634 -1.07104 -1.64029 0
M  V30 7293 H 688.214 -0.719001 0.202599 0
M  V30 7294 H 690.876 -1.55785 1.1712 0
M  V30 7295 H 689.972 -3.02806 0.755981 0
M  V30 7296 N 690.273 -0.685099 -1.4193 0
M  V30 7297 C 691.689 -0.355632 -1.55587 0
M  V30 7298 C 691.889 1.13823 -1.66273 0
M  V30 7299 O 690.945 1.92387 -1.63534 0
M  V30 7300 C 692.258 -1.09498 -2.80055 0
M  V30 7301 C 693.806 -1.07831 -2.93839 0
M  V30 7302 C 694.281 -1.79919 -4.21181 0
M  V30 7303 N 695.772 -1.76837 -4.28115 0
M  V30 7304 C 696.507 -2.29463 -5.25485 0
M  V30 7305 N 696.003 -2.90516 -6.28945 0
M  V30 7306 N 697.796 -2.19779 -5.17353 0
M  V30 7307 H 689.947 -1.65412 -1.33239 0
M  V30 7308 H 692.21 -0.697453 -0.642078 0
M  V30 7309 H 691.916 -2.14997 -2.78333 0
M  V30 7310 H 691.79 -0.666813 -3.71259 0
M  V30 7311 H 694.177 -0.0316152 -2.95083 0
M  V30 7312 H 694.258 -1.54545 -2.03837 0
M  V30 7313 H 693.902 -2.84562 -4.20698 0
M  V30 7314 H 693.832 -1.30647 -5.10136 0
M  V30 7315 H 696.323 -1.32315 -3.53979 0
M  V30 7316 H 696.636 -3.28266 -6.99615 0
M  V30 7317 H 694.981 -2.94589 -6.29478 0
M  V30 7318 H 698.172 -1.71763 -4.35448 0
M  V30 7319 H 698.345 -2.61097 -5.9307 0
M  V30 7320 N 691.751 1.51645 -0.429126 0
M  V30 7321 C 692.998 2.02015 0.140079 0
M  V30 7322 C 693.326 1.31374 1.43427 0
M  V30 7323 O 692.581 0.414779 1.91254 0
M  V30 7324 C 692.88 3.54989 0.414472 0
M  V30 7325 C 692.546 4.43874 -0.792911 0
M  V30 7326 C 691.208 4.67887 -1.12404 0
M  V30 7327 C 693.56 4.96074 -1.59875 0
M  V30 7328 C 690.888 5.41348 -2.26184 0
M  V30 7329 C 693.24 5.70782 -2.72747 0
M  V30 7330 C 691.904 5.93062 -3.06324 0
M  V30 7331 H 691.174 0.739225 0.0512585 0
M  V30 7332 H 693.821 1.82675 -0.574641 0
M  V30 7333 H 692.126 3.72615 1.21099 0
M  V30 7334 H 693.823 3.91489 0.868173 0
M  V30 7335 H 690.413 4.25374 -0.524871 0
M  V30 7336 H 694.597 4.77412 -1.35614 0
M  V30 7337 H 689.853 5.56815 -2.52522 0
M  V30 7338 H 694.027 6.10221 -3.35564 0
M  V30 7339 H 691.654 6.49764 -3.94602 0
M  V30 7340 N 693.229 0.160201 1.56784 0
M  V30 7341 C 694.506 -0.533355 1.88188 0
M  V30 7342 C 694.886 -1.82072 1.06831 0
M  V30 7343 O 694.234 -2.27946 0.158959 0
M  V30 7344 C 694.444 -0.786034 3.40033 0
M  V30 7345 C 695.792 -1.12097 4.09536 0
M  V30 7346 O 696.816 -0.874949 3.45287 0
M  V30 7347 O 695.675 -1.58457 5.23023 0
M  V30 7348 H 692.769 -0.273589 0.780434 0
M  V30 7349 H 695.315 0.197803 1.68543 0
M  V30 7350 H 694.087 0.124515 3.91102 0
M  V30 7351 H 693.71 -1.57091 3.65251 0
M  V30 7352 N 694.707 -1.5719 -0.113559 0
M  V30 7353 C 696.123 -1.52607 -0.467253 0
M  V30 7354 C 696.323 -0.874058 -1.81556 0
M  V30 7355 O 695.379 -0.458703 -2.48299 0
M  V30 7356 C 696.692 -2.97363 -0.446736 0
M  V30 7357 C 698.24 -3.08482 -0.529903 0
M  V30 7358 C 698.715 -4.54809 -0.539721 0
M  V30 7359 N 700.206 -4.59284 -0.601005 0
M  V30 7360 C 700.941 -5.69927 -0.630138 0
M  V30 7361 N 700.437 -6.90051 -0.616589 0
M  V30 7362 N 702.23 -5.5805 -0.673558 0
M  V30 7363 H 694.381 -1.97958 0.769819 0
M  V30 7364 H 696.644 -0.90428 0.284572 0
M  V30 7365 H 696.35 -3.48458 0.47643 0
M  V30 7366 H 696.224 -3.55086 -1.27254 0
M  V30 7367 H 698.611 -2.57386 -1.44349 0
M  V30 7368 H 698.692 -2.53744 0.323695 0
M  V30 7369 H 698.336 -5.06552 0.369843 0
M  V30 7370 H 698.266 -5.07364 -1.41028 0
M  V30 7371 H 700.757 -3.72822 -0.617419 0
M  V30 7372 H 701.07 -7.70132 -0.641592 0
M  V30 7373 H 699.415 -6.92543 -0.583927 0
M  V30 7374 H 702.606 -4.63112 -0.681544 0
M  V30 7375 H 702.779 -6.44286 -0.692794 0
M  V30 7376 N 696.185 0.383891 -1.52853 0
M  V30 7377 C 697.117 1.48889 -1.74255 0
M  V30 7378 C 698.13 1.50405 -0.623063 0
M  V30 7379 O 699.319 1.54215 -0.898887 0
M  V30 7380 C 696.419 2.87721 -1.79081 0
M  V30 7381 C 695.592 3.10111 -3.08464 0
M  V30 7382 C 694.651 4.28954 -3.0477 0
M  V30 7383 O 693.677 4.25012 -3.78621 0
M  V30 7384 N 694.879 5.35411 -2.24311 0
M  V30 7385 H 697.644 1.30915 -2.69595 0
M  V30 7386 H 695.205 0.573454 -1.51404 0
M  V30 7387 H 697.197 3.65333 -1.7411 0
M  V30 7388 H 695.767 2.99029 -0.911052 0
M  V30 7389 H 694.987 2.20319 -3.26884 0
M  V30 7390 H 696.275 3.21928 -3.94005 0
M  V30 7391 H 695.673 5.41471 -1.63787 0
M  V30 7392 H 694.23 6.1167 -2.25175 0
M  V30 7393 N 697.663 1.43903 0.642637 0
M  V30 7394 C 698.912 1.45362 1.39831 0
M  V30 7395 C 699.225 0.0856289 1.95412 0
M  V30 7396 O 700.431 -0.0222856 2.71491 0
M  V30 7397 C 698.887 2.55857 2.53111 0
M  V30 7398 C 698.495 3.98811 2.04092 0
M  V30 7399 C 700.239 2.66524 3.30402 0
M  V30 7400 C 698.146 5.00751 3.14647 0
M  V30 7401 H 697.076 0.540777 0.52543 0
M  V30 7402 H 699.727 1.69929 0.692559 0
M  V30 7403 H 698.109 2.2451 3.26207 0
M  V30 7404 H 699.283 4.3967 1.37938 0
M  V30 7405 H 697.598 3.92284 1.39651 0
M  V30 7406 H 700.195 3.39858 4.12796 0
M  V30 7407 H 700.538 1.71949 3.79129 0
M  V30 7408 H 701.071 2.97224 2.64392 0
M  V30 7409 H 697.81 5.96914 2.70876 0
M  V30 7410 H 697.33 4.64495 3.79479 0
M  V30 7411 H 699.009 5.23933 3.79609 0
M  V30 7412 N 699.141 -0.881989 1.30609 0
M  V30 7413 C 700.388 -1.63405 1.19604 0
M  V30 7414 C 700.716 -1.92905 -0.248574 0
M  V30 7415 O 699.971 -1.55062 -1.19391 0
M  V30 7416 C 700.27 -2.97999 1.97311 0
M  V30 7417 C 699.936 -2.88039 3.46907 0
M  V30 7418 C 698.598 -2.85029 3.877 0
M  V30 7419 C 700.95 -2.75948 4.42156 0
M  V30 7420 C 698.278 -2.67772 5.2203 0
M  V30 7421 C 700.63 -2.60228 5.76597 0
M  V30 7422 C 699.294 -2.55595 6.16626 0
M  V30 7423 H 698.564 -0.597941 0.437662 0
M  V30 7424 H 701.211 -1.02524 1.61744 0
M  V30 7425 H 699.516 -3.62847 1.47815 0
M  V30 7426 H 701.213 -3.55156 1.86186 0
M  V30 7427 H 697.803 -2.91192 3.14492 0
M  V30 7428 H 701.987 -2.77337 4.1158 0
M  V30 7429 H 697.243 -2.62601 5.52133 0
M  V30 7430 H 701.417 -2.49847 6.50038 0
M  V30 7431 H 699.044 -2.41981 7.20659 0
M  V30 7432 N 700.619 -1.13374 -1.09472 0
M  V30 7433 C 701.868 -0.889844 -1.8101 0
M  V30 7434 C 702.181 0.585686 -1.86625 0
M  V30 7435 O 703.387 0.946497 -2.54467 0
M  V30 7436 C 701.843 -1.54241 -3.25174 0
M  V30 7437 C 701.451 -3.05343 -3.27826 0
M  V30 7438 C 703.195 -1.37919 -4.0147 0
M  V30 7439 C 701.102 -3.63486 -4.6651 0
M  V30 7440 H 700.032 -0.329256 -0.678311 0
M  V30 7441 H 702.683 -1.36139 -1.23038 0
M  V30 7442 H 701.065 -0.998525 -3.83204 0
M  V30 7443 H 702.239 -3.66307 -2.79563 0
M  V30 7444 H 700.554 -3.21175 -2.65019 0
M  V30 7445 H 703.151 -1.78771 -5.03929 0
M  V30 7446 H 703.494 -0.323987 -4.15037 0
M  V30 7447 H 704.027 -1.89284 -3.49881 0
M  V30 7448 H 700.766 -4.68811 -4.58145 0
M  V30 7449 H 700.286 -3.073 -5.15099 0
M  V30 7450 H 701.965 -3.63134 -5.35484 0
M  V30 7451 N 702.098 1.27442 -0.927168 0
M  V30 7452 C 703.346 1.94007 -0.566203 0
M  V30 7453 C 703.667 1.7323 0.895345 0
M  V30 7454 O 702.937 1.07973 1.63459 0
M  V30 7455 H 701.517 0.717917 -0.206409 0
M  V30 7456 H 704.179 1.55161 -1.17945 0
M  V30 7457 H 703.275 3.02401 -0.772028 0
M  V30 7458 N 703.576 0.692616 1.41565 0
M  V30 7459 C 704.987 0.297478 1.84315 0
M  V30 7460 C 705.338 -1.16379 1.57957 0
M  V30 7461 O 704.463 -1.89303 1.0485 0
M  V30 7462 C 705.058 0.533136 3.34579 0
M  V30 7463 C 703.617 0.191944 3.7591 0
M  V30 7464 C 702.764 0.816873 2.64995 0
M  V30 7465 H 705.715 0.893488 1.31158 0
M  V30 7466 H 705.736 -0.209105 3.79925 0
M  V30 7467 H 705.248 1.59674 3.53731 0
M  V30 7468 H 703.349 -0.867512 3.6236 0
M  V30 7469 H 703.462 0.644902 4.7474 0
M  V30 7470 H 701.826 0.246715 2.53502 0
M  V30 7471 H 702.609 1.88429 2.86966 0
M  V30 7472 N 705.054 -1.51416 0.437162 0
M  V30 7473 C 706.465 -1.86682 -0.0260005 0
M  V30 7474 C 706.816 -1.35432 -1.4196 0
M  V30 7475 O 705.941 -0.705055 -2.04592 0
M  V30 7476 C 706.536 -3.38757 -0.0539577 0
M  V30 7477 C 705.095 -3.7356 -0.461532 0
M  V30 7478 C 704.242 -2.75134 0.345924 0
M  V30 7479 H 707.193 -1.44642 0.653013 0
M  V30 7480 H 707.214 -3.70573 -0.863478 0
M  V30 7481 H 706.726 -3.76028 0.96045 0
M  V30 7482 H 704.827 -3.41878 -1.48155 0
M  V30 7483 H 704.94 -4.78737 -0.186451 0
M  V30 7484 H 703.304 -2.53947 -0.195739 0
M  V30 7485 H 704.087 -3.15247 1.35921 0
M  V30 7486 N 706.532 -0.168513 -1.56696 0
M  V30 7487 C 707.809 0.523367 -1.88468 0
M  V30 7488 C 708.189 1.81503 -1.07796 0
M  V30 7489 O 707.537 2.27859 -0.171045 0
M  V30 7490 C 707.747 0.767991 -3.40445 0
M  V30 7491 C 709.095 1.09924 -4.10124 0
M  V30 7492 O 710.119 0.856625 -3.45746 0
M  V30 7493 O 708.978 1.55681 -5.23856 0
M  V30 7494 H 706.072 0.269447 -0.781874 0
M  V30 7495 H 708.618 -0.206739 -1.68436 0
M  V30 7496 H 707.39 -0.145254 -3.9103 0
M  V30 7497 H 707.013 1.55151 -3.66079 0
M  V30 7498 N 708.01 1.57248 0.105221 0
M  V30 7499 C 709.259 1.84756 0.809198 0
M  V30 7500 C 709.572 0.756262 1.80389 0
M  V30 7501 O 710.778 0.918158 2.55504 0
M  V30 7502 C 709.234 3.27613 1.48989 0
M  V30 7503 C 708.842 4.44788 0.535484 0
M  V30 7504 C 710.586 3.64356 2.17819 0
M  V30 7505 C 708.493 5.78676 1.22019 0
M  V30 7506 H 707.423 0.689139 0.305946 0
M  V30 7507 H 710.074 1.83395 0.0620371 0
M  V30 7508 H 708.456 3.23485 2.28415 0
M  V30 7509 H 709.63 4.60243 -0.226557 0
M  V30 7510 H 707.945 4.16374 -0.0465769 0
M  V30 7511 H 710.542 4.61663 2.69761 0
M  V30 7512 H 710.885 2.92474 2.96251 0
M  V30 7513 H 711.418 3.70328 1.45264 0
M  V30 7514 H 708.157 6.53763 0.476875 0
M  V30 7515 H 707.677 5.67083 1.9539 0
M  V30 7516 H 709.356 6.22897 1.74952 0
M  V30 7517 N 709.488 -0.375779 1.53054 0
M  V30 7518 C 710.435 -1.45978 1.78771 0
M  V30 7519 C 711.405 -1.53625 0.631552 0
M  V30 7520 O 712.59 -1.69674 0.872667 0
M  V30 7521 C 709.73 -2.8305 1.97425 0
M  V30 7522 C 708.843 -2.84451 3.25134 0
M  V30 7523 C 707.978 -4.13034 3.34031 0
M  V30 7524 C 707.017 -4.08536 4.55812 0
M  V30 7525 N 706.154 -5.2875 4.61918 0
M  V30 7526 H 710.994 -1.23349 2.71273 0
M  V30 7527 H 708.531 -0.598147 1.3439 0
M  V30 7528 H 710.489 -3.62666 2.06225 0
M  V30 7529 H 709.119 -3.04101 1.0827 0
M  V30 7530 H 708.171 -1.97127 3.25338 0
M  V30 7531 H 709.483 -2.76998 4.14818 0
M  V30 7532 H 708.637 -5.0106 3.42087 0
M  V30 7533 H 707.376 -4.23226 2.42345 0
M  V30 7534 H 706.381 -3.18897 4.47867 0
M  V30 7535 H 707.606 -3.99955 5.48828 0
M  V30 7536 H 705.552 -5.39547 3.73129 0
M  V30 7537 H 705.469 -5.23426 5.45492 0
M  V30 7538 H 706.737 -6.18637 4.74245 0
M  V30 7539 N 710.966 -1.44241 -0.634997 0
M  V30 7540 C 712.214 -1.46531 -1.39187 0
M  V30 7541 C 712.535 -0.0976441 -1.94755 0
M  V30 7542 O 711.805 0.869528 -1.75545 0
M  V30 7543 H 710.385 -0.539544 -0.516625 0
M  V30 7544 H 713.047 -1.79989 -0.747655 0
M  V30 7545 H 712.143 -2.18848 -2.22513 0
M  V30 7546 N 712.444 0.87505 -1.31075 0
M  V30 7547 C 713.86 1.15997 -1.09622 0
M  V30 7548 C 714.06 2.01036 0.136611 0
M  V30 7549 O 713.116 2.38559 0.827397 0
M  V30 7550 C 714.429 1.85702 -2.36506 0
M  V30 7551 C 715.977 1.98425 -2.42067 0
M  V30 7552 C 716.452 2.71544 -3.68819 0
M  V30 7553 N 717.943 2.79084 -3.69684 0
M  V30 7554 C 718.678 3.36259 -4.64454 0
M  V30 7555 N 718.174 3.94406 -5.69575 0
M  V30 7556 N 719.967 3.34169 -4.51982 0
M  V30 7557 H 712.118 0.308258 -2.10151 0
M  V30 7558 H 714.381 0.199145 -0.926847 0
M  V30 7559 H 714.087 1.30663 -3.26527 0
M  V30 7560 H 713.961 2.86017 -2.45915 0
M  V30 7561 H 716.348 2.5263 -1.52518 0
M  V30 7562 H 716.429 0.971682 -2.36626 0
M  V30 7563 H 716.073 2.18008 -4.58732 0
M  V30 7564 H 716.003 3.73198 -3.71525 0
M  V30 7565 H 718.494 2.3781 -2.93691 0
M  V30 7566 H 718.807 4.36129 -6.37974 0
M  V30 7567 H 717.152 3.92797 -5.73355 0
M  V30 7568 H 720.343 2.87977 -3.69035 0
M  V30 7569 H 720.516 3.78431 -5.26017 0
M  V30 7570 N 713.922 1.13953 1.08869 0
M  V30 7571 C 714.885 0.824991 2.13838 0
M  V30 7572 C 715.885 -0.168198 1.59918 0
M  V30 7573 O 717.075 0.0595778 1.74098 0
M  V30 7574 C 714.207 0.228938 3.4013 0
M  V30 7575 H 715.4 1.75521 2.43171 0
M  V30 7576 H 712.953 0.94492 1.24503 0
M  V30 7577 H 713.688 -0.710227 3.16427 0
M  V30 7578 H 713.473 0.944243 3.80561 0
M  V30 7579 H 714.963 0.0259223 4.17592 0
M  V30 7580 N 715.4 -1.26948 0.933913 0
M  V30 7581 C 716.625 -1.98724 0.593589 0
M  V30 7582 C 717.05 -1.6915 -0.822801 0
M  V30 7583 O 716.408 -0.93533 -1.5531 0
M  V30 7584 C 716.456 -3.50834 0.833542 0
M  V30 7585 O 715.56 -4.12284 -0.0978788 0
M  V30 7586 H 714.901 -0.623683 0.227849 0
M  V30 7587 H 717.431 -1.61599 1.25486 0
M  V30 7588 H 717.441 -4.01018 0.75156 0
M  V30 7589 H 716.116 -3.71691 1.86597 0
M  V30 7590 H 714.693 -3.72884 0.0345443 0
M  V30 7591 N 716.879 -0.700114 -1.41195 0
M  V30 7592 C 718.128 -0.230082 -2.00383 0
M  V30 7593 C 718.441 1.17857 -1.56106 0
M  V30 7594 O 719.647 1.74631 -2.07885 0
M  V30 7595 C 718.103 -0.360447 -3.5809 0
M  V30 7596 C 717.711 -1.77475 -4.11347 0
M  V30 7597 C 719.455 0.0495799 -4.24471 0
M  V30 7598 C 717.362 -1.85653 -5.61504 0
M  V30 7599 H 716.292 -0.0822633 -0.749499 0
M  V30 7600 H 718.943 -0.868969 -1.6162 0
M  V30 7601 H 717.325 0.346768 -3.94479 0
M  V30 7602 H 718.499 -2.51109 -3.86369 0
M  V30 7603 H 716.814 -2.13486 -3.57509 0
M  V30 7604 H 719.411 0.00898219 -5.34699 0
M  V30 7605 H 719.754 1.08904 -4.01803 0
M  V30 7606 H 720.287 -0.607521 -3.93134 0
M  V30 7607 H 717.026 -2.87667 -5.89006 0
M  V30 7608 H 716.546 -1.1641 -5.88395 0
M  V30 7609 H 718.225 -1.62151 -6.26351 0
M  V30 7610 N 718.357 1.51182 -0.445186 0
M  V30 7611 C 719.604 2.02152 0.118645 0
M  V30 7612 C 719.932 1.32888 1.42025 0
M  V30 7613 O 719.187 0.435041 1.90803 0
M  V30 7614 C 719.486 3.55408 0.376797 0
M  V30 7615 C 719.152 4.43008 -0.839945 0
M  V30 7616 C 717.814 4.66669 -1.17361 0
M  V30 7617 C 720.166 4.9435 -1.65127 0
M  V30 7618 C 717.494 5.38919 -2.31913 0
M  V30 7619 C 719.846 5.67857 -2.78786 0
M  V30 7620 C 718.51 5.89779 -3.12597 0
M  V30 7621 H 717.78 0.739727 0.0434152 0
M  V30 7622 H 720.427 1.82055 -0.593984 0
M  V30 7623 H 718.732 3.73879 1.1714 0
M  V30 7624 H 720.429 3.92388 0.826602 0
M  V30 7625 H 717.019 4.24793 -0.569958 0
M  V30 7626 H 721.203 4.75947 -1.4067 0
M  V30 7627 H 716.459 5.54105 -2.58413 0
M  V30 7628 H 720.633 6.06628 -3.42017 0
M  V30 7629 H 718.26 6.45542 -4.01471 0
M  V30 7630 N 719.835 0.176821 1.56605 0
M  V30 7631 C 720.782 -0.751312 2.18229 0
M  V30 7632 C 721.752 -1.22297 1.12395 0
M  V30 7633 O 722.937 -1.29015 1.40569 0
M  V30 7634 C 720.077 -1.97291 2.83143 0
M  V30 7635 C 719.19 -1.54431 4.03454 0
M  V30 7636 C 718.325 -2.72 4.56278 0
M  V30 7637 C 717.364 -2.25657 5.68986 0
M  V30 7638 N 716.501 -3.36338 6.16296 0
M  V30 7639 H 721.341 -0.219033 2.97194 0
M  V30 7640 H 718.878 -0.0963803 1.46784 0
M  V30 7641 H 720.836 -2.68949 3.1894 0
M  V30 7642 H 719.466 -2.4788 2.06773 0
M  V30 7643 H 718.518 -0.724273 3.73441 0
M  V30 7644 H 719.83 -1.16417 4.85024 0
M  V30 7645 H 718.984 -3.51806 4.94285 0
M  V30 7646 H 717.723 -3.13277 3.73777 0
M  V30 7647 H 716.728 -1.44299 5.30526 0
M  V30 7648 H 717.953 -1.85432 6.53293 0
M  V30 7649 H 715.899 -3.7718 5.36723 0
M  V30 7650 H 715.816 -3.02435 6.9287 0
M  V30 7651 H 717.084 -4.16413 6.58954 0
M  V30 7652 N 721.313 -1.57302 -0.09688 0
M  V30 7653 C 722.559 -1.86273 -0.801885 0
M  V30 7654 C 722.892 -0.765694 -1.78468 0
M  V30 7655 O 722.167 0.226495 -1.93177 0
M  V30 7656 C 722.45 -3.25876 -1.53221 0
M  V30 7657 C 722.303 -4.46205 -0.567529 0
M  V30 7658 C 723.622 -3.63352 -2.48321 0
M  V30 7659 H 720.741 -0.67752 -0.29006 0
M  V30 7660 H 723.383 -1.89887 -0.0655577 0
M  V30 7661 H 721.533 -3.22926 -2.15988 0
M  V30 7662 H 723.205 -4.6127 0.0529982 0
M  V30 7663 H 721.448 -4.33636 0.119233 0
M  V30 7664 H 722.119 -5.40608 -1.11564 0
M  V30 7665 H 724.595 -3.67234 -1.95648 0
M  V30 7666 H 723.471 -4.61968 -2.9644 0
M  V30 7667 H 723.732 -2.91941 -3.31998 0
M  V30 7668 N 722.791 0.367657 -1.53252 0
M  V30 7669 C 723.741 1.45035 -1.75923 0
M  V30 7670 C 724.725 1.48736 -0.613719 0
M  V30 7671 O 725.917 1.54012 -0.872313 0
M  V30 7672 C 723.046 2.82493 -1.9507 0
M  V30 7673 C 722.132 2.83279 -3.15617 0
M  V30 7674 N 722.523 2.53712 -4.37566 0
M  V30 7675 C 720.821 3.1444 -3.16297 0
M  V30 7676 C 721.522 2.62123 -5.19294 0
M  V30 7677 N 720.498 2.96747 -4.55458 0
M  V30 7678 H 724.3 1.21035 -2.6782 0
M  V30 7679 H 721.814 0.575822 -1.51849 0
M  V30 7680 H 723.811 3.60473 -2.0944 0
M  V30 7681 H 722.471 3.07459 -1.044 0
M  V30 7682 H 723.482 2.27344 -4.65333 0
M  V30 7683 H 720.159 3.44733 -2.35511 0
M  V30 7684 H 721.549 2.42628 -6.26563 0
M  V30 7685 N 724.269 1.44576 0.627338 0
M  V30 7686 C 725.199 1.54562 1.75022 0
M  V30 7687 C 726.18 0.398378 1.65369 0
M  V30 7688 O 727.365 0.61899 1.84071 0
M  V30 7689 C 724.495 1.49309 3.13567 0
M  V30 7690 C 723.449 2.62549 3.38012 0
M  V30 7691 C 722.775 2.42348 4.76625 0
M  V30 7692 C 724.075 4.04678 3.30202 0
M  V30 7693 H 725.769 2.4855 1.66922 0
M  V30 7694 H 723.315 1.19624 0.801636 0
M  V30 7695 H 725.268 1.54895 3.919 0
M  V30 7696 H 723.992 0.518392 3.2246 0
M  V30 7697 H 722.651 2.56358 2.62061 0
M  V30 7698 H 722.299 1.43062 4.82226 0
M  V30 7699 H 721.999 3.18273 4.93939 0
M  V30 7700 H 723.523 2.49758 5.57183 0
M  V30 7701 H 724.937 4.12217 3.98435 0
M  V30 7702 H 723.334 4.80836 3.5905 0
M  V30 7703 H 724.404 4.2798 2.27949 0
M  V30 7704 N 725.747 -0.868086 1.31537 0
M  V30 7705 C 727.163 -1.15414 1.10235 0
M  V30 7706 C 727.363 -2.01106 -0.125947 0
M  V30 7707 O 726.419 -2.38994 -0.814734 0
M  V30 7708 C 727.732 -1.84445 2.37488 0
M  V30 7709 C 729.28 -1.97139 2.43116 0
M  V30 7710 C 729.755 -2.69585 3.70254 0
M  V30 7711 N 731.246 -2.77119 3.71159 0
M  V30 7712 C 731.981 -3.33791 4.6623 0
M  V30 7713 N 731.477 -3.9138 5.71659 0
M  V30 7714 N 733.27 -3.31767 4.53747 0
M  V30 7715 H 725.421 -0.297109 2.10312 0
M  V30 7716 H 727.684 -0.194227 0.92789 0
M  V30 7717 H 727.39 -1.2893 3.27215 0
M  V30 7718 H 727.264 -2.84709 2.47428 0
M  V30 7719 H 729.651 -2.51818 1.53856 0
M  V30 7720 H 729.732 -0.95912 2.37138 0
M  V30 7721 H 729.376 -2.15572 4.59881 0
M  V30 7722 H 729.306 -3.71223 3.73499 0
M  V30 7723 H 731.797 -2.3625 2.94948 0
M  V30 7724 H 732.11 -4.3274 6.40278 0
M  V30 7725 H 730.455 -3.8975 5.7543 0
M  V30 7726 H 733.646 -2.86016 3.70557 0
M  V30 7727 H 733.819 -3.75636 5.28017 0
M  V30 7728 N 727.225 -1.14528 -1.08264 0
M  V30 7729 C 728.636 -0.925261 -1.6216 0
M  V30 7730 C 728.987 0.535587 -1.88748 0
M  V30 7731 O 728.112 1.4048 -1.64604 0
M  V30 7732 C 728.707 -1.67316 -2.94603 0
M  V30 7733 C 727.266 -1.49868 -3.45278 0
M  V30 7734 C 726.413 -1.69471 -2.19487 0
M  V30 7735 H 729.364 -1.29687 -0.914707 0
M  V30 7736 H 729.385 -1.13721 -3.63109 0
M  V30 7737 H 728.897 -2.73635 -2.75219 0
M  V30 7738 H 726.998 -0.459032 -3.69762 0
M  V30 7739 H 727.111 -2.2696 -4.21931 0
M  V30 7740 H 725.475 -1.12048 -2.2873 0
M  V30 7741 H 726.258 -2.77136 -2.0261 0
M  V30 7742 N 728.703 1.26451 -0.940633 0
M  V30 7743 C 729.633 2.28773 -0.467479 0
M  V30 7744 C 730.614 1.63218 0.478955 0
M  V30 7745 O 731.799 1.90427 0.380929 0
M  V30 7746 C 728.929 3.46259 0.268656 0
M  V30 7747 C 727.883 4.23898 -0.591171 0
M  V30 7748 C 727.209 5.33993 0.274891 0
M  V30 7749 C 728.509 4.87974 -1.86223 0
M  V30 7750 H 730.203 2.68601 -1.32265 0
M  V30 7751 H 727.749 1.29123 -0.637436 0
M  V30 7752 H 729.702 4.16951 0.610696 0
M  V30 7753 H 728.426 3.05383 1.15796 0
M  V30 7754 H 727.085 3.54969 -0.916098 0
M  V30 7755 H 726.733 4.89358 1.16353 0
M  V30 7756 H 726.433 5.86849 -0.297006 0
M  V30 7757 H 727.957 6.07523 0.612213 0
M  V30 7758 H 729.371 5.50883 -1.58747 0
M  V30 7759 H 727.768 5.50945 -2.37866 0
M  V30 7760 H 728.838 4.10945 -2.57394 0
M  V30 7761 N 730.181 0.707592 1.40822 0
M  V30 7762 C 731.128 0.0499029 2.30746 0
M  V30 7763 C 732.098 -0.758718 1.47759 0
M  V30 7764 O 733.283 -0.724299 1.76518 0
M  V30 7765 C 730.423 -0.871756 3.33908 0
M  V30 7766 C 729.536 -0.0534655 4.31967 0
M  V30 7767 C 728.671 -0.973869 5.22197 0
M  V30 7768 C 727.71 -0.149194 6.11918 0
M  V30 7769 N 726.847 -1.02404 6.94592 0
M  V30 7770 H 731.687 0.822461 2.86426 0
M  V30 7771 H 729.224 0.417285 1.41057 0
M  V30 7772 H 731.182 -1.42028 3.9228 0
M  V30 7773 H 729.812 -1.61058 2.7975 0
M  V30 7774 H 728.864 0.612142 3.75442 0
M  V30 7775 H 730.176 0.585354 4.95353 0
M  V30 7776 H 729.33 -1.59121 5.85462 0
M  V30 7777 H 728.069 -1.64652 4.59065 0
M  V30 7778 H 727.074 0.481137 5.47691 0
M  V30 7779 H 728.299 0.519841 6.77107 0
M  V30 7780 H 726.245 -1.6825 6.34057 0
M  V30 7781 H 726.162 -0.441076 7.54712 0
M  V30 7782 H 727.43 -1.62782 7.62314 0
M  V30 7783 N 731.66 -1.50943 0.453197 0
M  V30 7784 C 732.59 -2.31005 -0.34044 0
M  V30 7785 C 733.571 -1.37112 -1.00669 0
M  V30 7786 O 734.756 -1.66033 -1.0073 0
M  V30 7787 C 731.886 -3.16358 -1.433 0
M  V30 7788 C 730.84 -4.18658 -0.889363 0
M  V30 7789 C 730.166 -4.92633 -2.07887 0
M  V30 7790 C 731.466 -5.22227 0.0871142 0
M  V30 7791 H 733.16 -2.97601 0.327723 0
M  V30 7792 H 730.706 -1.43119 0.159054 0
M  V30 7793 H 732.659 -3.71155 -1.99555 0
M  V30 7794 H 731.383 -2.47613 -2.12968 0
M  V30 7795 H 730.042 -3.64936 -0.348915 0
M  V30 7796 H 729.69 -4.20376 -2.76211 0
M  V30 7797 H 729.39 -5.61819 -1.72143 0
M  V30 7798 H 730.914 -5.50258 -2.64666 0
M  V30 7799 H 732.328 -5.72001 -0.385656 0
M  V30 7800 H 730.725 -5.99032 0.357926 0
M  V30 7801 H 731.795 -4.74077 1.01879 0
M  V30 7802 N 733.138 -0.185124 -1.56509 0
M  V30 7803 C 734.415 0.503348 -1.89013 0
M  V30 7804 C 734.795 1.80349 -1.09715 0
M  V30 7805 O 734.143 2.27665 -0.195203 0
M  V30 7806 C 734.353 0.731839 -3.41241 0
M  V30 7807 C 735.701 1.05568 -4.11267 0
M  V30 7808 O 736.725 0.819906 -3.46635 0
M  V30 7809 O 735.584 1.50116 -5.25478 0
M  V30 7810 H 732.678 0.261139 -0.784688 0
M  V30 7811 H 735.224 -0.224592 -1.68207 0
M  V30 7812 H 733.996 -0.18672 -3.90854 0
M  V30 7813 H 733.619 1.5126 -3.67704 0
M  V30 7814 N 734.616 1.57351 0.0885366 0
M  V30 7815 C 735.841 1.91011 0.80805 0
M  V30 7816 C 736.266 0.780009 1.71165 0
M  V30 7817 O 735.624 -0.268083 1.79307 0
M  V30 7818 C 735.672 3.23562 1.59185 0
M  V30 7819 O 734.776 3.11615 2.7013 0
M  V30 7820 H 734.117 0.625943 0.221565 0
M  V30 7821 H 736.647 2.04507 0.0617954 0
M  V30 7822 H 736.657 3.5703 1.97468 0
M  V30 7823 H 735.332 4.05398 0.928741 0
M  V30 7824 H 733.909 2.89673 2.34827 0
M  V30 7825 N 736.094 -0.359525 1.53444 0
M  V30 7826 C 737.322 -1.12198 1.73837 0
M  V30 7827 C 737.737 -1.82854 0.470107 0
M  V30 7828 O 737.094 -1.73781 -0.557349 0
M  V30 7829 C 737.145 -2.14769 2.90786 0
M  V30 7830 O 736.866 -1.46989 4.12706 0
M  V30 7831 C 738.367 -3.03514 3.231 0
M  V30 7832 H 735.587 -0.33524 0.581253 0
M  V30 7833 H 738.131 -0.416598 2.00212 0
M  V30 7834 H 736.286 -2.80896 2.66788 0
M  V30 7835 H 736.7 -2.15378 4.78239 0
M  V30 7836 H 738.174 -3.71453 4.08322 0
M  V30 7837 H 738.651 -3.68658 2.38721 0
M  V30 7838 H 739.257 -2.42996 3.49046 0
M  V30 7839 N 737.572 -1.44907 -0.619662 0
M  V30 7840 C 738.502 -1.55488 -1.742 0
M  V30 7841 C 739.483 -0.407143 -1.65156 0
M  V30 7842 O 740.668 -0.628743 -1.8374 0
M  V30 7843 C 737.798 -1.5097 -3.1277 0
M  V30 7844 C 736.752 -2.64337 -3.36615 0
M  V30 7845 C 736.078 -2.44872 -4.75333 0
M  V30 7846 C 737.378 -4.06423 -3.28051 0
M  V30 7847 H 739.072 -2.49432 -1.65602 0
M  V30 7848 H 736.618 -1.20047 -0.795281 0
M  V30 7849 H 738.571 -1.56971 -3.91073 0
M  V30 7850 H 737.295 -0.535486 -3.2218 0
M  V30 7851 H 735.954 -2.57744 -2.60698 0
M  V30 7852 H 735.602 -1.45617 -4.81461 0
M  V30 7853 H 735.302 -3.20888 -4.92244 0
M  V30 7854 H 736.826 -2.52709 -5.55851 0
M  V30 7855 H 738.24 -4.14324 -3.96243 0
M  V30 7856 H 736.637 -4.82733 -3.56495 0
M  V30 7857 H 737.707 -4.29183 -2.25676 0
M  V30 7858 N 739.05 0.861098 -1.31996 0
M  V30 7859 C 739.96 2.00154 -1.22374 0
M  V30 7860 C 740.976 1.73447 -0.138631 0
M  V30 7861 O 742.152 1.98191 -0.358104 0
M  V30 7862 C 739.217 3.33696 -0.940645 0
M  V30 7863 C 738.278 3.73668 -2.11355 0
M  V30 7864 C 737.511 5.00837 -1.84386 0
M  V30 7865 O 737.734 5.64996 -0.783287 0
M  V30 7866 O 736.668 5.37787 -2.70313 0
M  V30 7867 H 740.494 2.11207 -2.18233 0
M  V30 7868 H 738.079 0.990768 -1.11822 0
M  V30 7869 H 739.961 4.13756 -0.798987 0
M  V30 7870 H 738.636 3.23698 -0.0121636 0
M  V30 7871 H 737.543 2.94211 -2.31065 0
M  V30 7872 H 738.876 3.88303 -3.02459 0
M  V30 7873 N 740.528 1.15101 1.07655 0
M  V30 7874 C 741.475 0.844958 2.14777 0
M  V30 7875 C 742.445 -0.200798 1.64882 0
M  V30 7876 O 743.63 -0.0690278 1.90675 0
M  V30 7877 C 740.77 0.337018 3.4345 0
M  V30 7878 C 739.883 1.44398 4.07153 0
M  V30 7879 C 739.018 0.892487 5.23649 0
M  V30 7880 C 738.057 1.9766 5.79307 0
M  V30 7881 N 737.194 1.44171 6.87138 0
M  V30 7882 H 742.034 1.76242 2.40297 0
M  V30 7883 H 739.571 0.879435 1.17917 0
M  V30 7884 H 741.529 0.024256 4.17193 0
M  V30 7885 H 740.159 -0.543531 3.18191 0
M  V30 7886 H 739.211 1.87299 3.31094 0
M  V30 7887 H 740.523 2.26262 4.4453 0
M  V30 7888 H 739.677 0.532083 6.04362 0
M  V30 7889 H 738.416 0.0429854 4.87681 0
M  V30 7890 H 737.421 2.34586 4.97242 0
M  V30 7891 H 738.646 2.82982 6.17331 0
M  V30 7892 H 736.592 0.614518 6.53115 0
M  V30 7893 H 736.509 2.19665 7.23383 0
M  V30 7894 H 737.777 1.10945 7.71564 0
M  V30 7895 N 742.006 -1.2595 0.947325 0
M  V30 7896 C 743.283 -1.88676 0.515824 0
M  V30 7897 C 743.663 -1.85547 -1.00675 0
M  V30 7898 O 743.011 -1.31399 -1.8694 0
M  V30 7899 C 743.221 -3.31734 1.08415 0
M  V30 7900 C 744.569 -4.08545 1.15654 0
M  V30 7901 O 745.593 -3.40826 1.03517 0
M  V30 7902 O 744.452 -5.29663 1.34608 0
M  V30 7903 H 741.546 -0.809537 0.169055 0
M  V30 7904 H 744.092 -1.34075 1.04029 0
M  V30 7905 H 742.864 -3.28404 2.1276 0
M  V30 7906 H 742.487 -3.93882 0.542499 0
M  V30 7907 N 743.484 -0.715051 -1.40445 0
M  V30 7908 C 744.431 -0.0621393 -2.30716 0
M  V30 7909 C 745.401 0.750871 -1.48159 0
M  V30 7910 O 746.586 0.714928 -1.76899 0
M  V30 7911 C 743.726 0.854036 -3.34365 0
M  V30 7912 C 742.839 0.0305565 -4.31989 0
M  V30 7913 C 741.974 0.946162 -5.22706 0
M  V30 7914 C 741.013 0.116741 -6.11989 0
M  V30 7915 N 740.15 0.987194 -6.95125 0
M  V30 7916 H 744.99 -0.83764 -2.85985 0
M  V30 7917 H 742.527 -0.424759 -1.40834 0
M  V30 7918 H 744.485 1.39946 -3.93028 0
M  V30 7919 H 743.115 1.59572 -2.806 0
M  V30 7920 H 742.167 -0.632044 -3.75112 0
M  V30 7921 H 743.479 -0.611615 -4.95036 0
M  V30 7922 H 742.633 1.56014 -5.86297 0
M  V30 7923 H 741.372 1.62216 -4.59932 0
M  V30 7924 H 740.377 -0.510176 -5.47428 0
M  V30 7925 H 741.602 -0.555742 -6.76822 0
M  V30 7926 H 739.548 1.64885 -6.3494 0
M  V30 7927 H 739.465 0.401046 -7.54936 0
M  V30 7928 H 740.733 1.58737 -7.63166 0
M  V30 7929 N 744.962 1.50701 -0.461195 0
M  V30 7930 C 745.892 2.31182 0.328184 0
M  V30 7931 C 746.873 1.37644 0.999408 0
M  V30 7932 O 748.058 1.66565 0.99848 0
M  V30 7933 C 745.188 3.17113 1.41621 0
M  V30 7934 C 744.142 4.19124 0.867148 0
M  V30 7935 C 743.468 4.93728 2.05272 0
M  V30 7936 C 744.768 5.22174 -0.114808 0
M  V30 7937 H 746.462 2.97423 -0.343501 0
M  V30 7938 H 744.008 1.43033 -0.166641 0
M  V30 7939 H 745.961 3.72208 1.97584 0
M  V30 7940 H 744.685 2.48739 2.11652 0
M  V30 7941 H 743.344 3.65116 0.329557 0
M  V30 7942 H 742.992 4.21835 2.73978 0
M  V30 7943 H 742.692 5.62724 1.69161 0
M  V30 7944 H 744.216 5.51654 2.61744 0
M  V30 7945 H 745.63 5.72198 0.355316 0
M  V30 7946 H 744.027 5.98833 -0.389689 0
M  V30 7947 H 745.097 4.7353 -1.04391 0
M  V30 7948 N 746.441 0.193421 1.56409 0
M  V30 7949 C 747.404 -0.714371 2.17783 0
M  V30 7950 C 748.404 -1.1422 1.13183 0
M  V30 7951 O 749.594 -1.05557 1.38576 0
M  V30 7952 C 746.726 -1.97509 2.77855 0
M  V30 7953 H 747.919 -0.179714 2.99361 0
M  V30 7954 H 745.472 -0.0561944 1.56199 0
M  V30 7955 H 746.207 -2.5523 2.0007 0
M  V30 7956 H 745.992 -1.67706 3.54425 0
M  V30 7957 H 747.482 -2.62246 3.24987 0
M  V30 7958 N 747.919 -1.57396 -0.0801906 0
M  V30 7959 C 749.335 -1.53564 -0.434778 0
M  V30 7960 C 749.535 -0.912372 -1.79661 0
M  V30 7961 O 748.591 -0.511268 -2.4727 0
M  V30 7962 C 749.904 -2.98244 -0.383561 0
M  V30 7963 C 751.452 -3.09536 -0.46435 0
M  V30 7964 C 751.927 -4.55851 -0.443128 0
M  V30 7965 N 753.418 -4.60456 -0.503448 0
M  V30 7966 C 754.153 -5.71135 -0.509106 0
M  V30 7967 N 753.649 -6.91203 -0.47008 0
M  V30 7968 N 755.442 -5.59353 -0.555035 0
M  V30 7969 H 747.593 -1.96281 0.811635 0
M  V30 7970 H 749.856 -0.898041 0.303689 0
M  V30 7971 H 749.562 -3.47369 0.550236 0
M  V30 7972 H 749.436 -3.57705 -1.19694 0
M  V30 7973 H 751.823 -2.6039 -1.38857 0
M  V30 7974 H 751.904 -2.53 0.377445 0
M  V30 7975 H 751.548 -5.05653 0.477207 0
M  V30 7976 H 751.478 -5.10242 -1.30234 0
M  V30 7977 H 753.969 -3.74048 -0.538199 0
M  V30 7978 H 754.282 -7.7132 -0.478091 0
M  V30 7979 H 752.627 -6.93625 -0.436897 0
M  V30 7980 H 755.818 -4.64453 -0.583158 0
M  V30 7981 H 755.991 -6.4561 -0.555976 0
M  V30 7982 N 749.397 0.351382 -1.53633 0
M  V30 7983 C 750.344 1.43115 -1.81071 0
M  V30 7984 C 751.314 1.52601 -0.655913 0
M  V30 7985 O 752.499 1.68264 -0.89955 0
M  V30 7986 C 749.639 2.79874 -2.01903 0
M  V30 7987 C 748.752 2.79242 -3.29618 0
M  V30 7988 C 747.887 4.07667 -3.40559 0
M  V30 7989 C 746.926 4.01233 -4.62254 0
M  V30 7990 N 746.063 5.21334 -4.70271 0
M  V30 7991 H 750.903 1.19017 -2.73201 0
M  V30 7992 H 748.44 0.576691 -1.35324 0
M  V30 7993 H 750.398 3.5934 -2.11969 0
M  V30 7994 H 749.028 3.0234 -1.13094 0
M  V30 7995 H 748.08 1.91927 -3.28433 0
M  V30 7996 H 749.392 2.70363 -4.19172 0
M  V30 7997 H 748.546 4.95555 -3.50015 0
M  V30 7998 H 747.285 4.19317 -2.49047 0
M  V30 7999 H 746.29 3.11732 -4.52884 0
M  V30 8000 H 747.515 3.91173 -5.55122 0
M  V30 8001 H 745.461 5.33543 -3.81665 0
M  V30 8002 H 745.378 5.14681 -5.5375 0
M  V30 8003 H 746.646 6.11014 -4.84027 0
M  V30 8004 N 750.875 1.45233 0.611969 0
M  V30 8005 C 751.805 1.5641 1.73373 0
M  V30 8006 C 752.786 0.415896 1.64937 0
M  V30 8007 O 753.971 0.638478 1.83404 0
M  V30 8008 C 751.101 1.52627 3.11965 0
M  V30 8009 C 750.055 2.66119 3.35208 0
M  V30 8010 C 749.381 2.4739 4.74028 0
M  V30 8011 C 750.681 4.08157 3.25891 0
M  V30 8012 H 752.375 2.50307 1.64277 0
M  V30 8013 H 749.921 1.20467 0.788904 0
M  V30 8014 H 751.874 1.59043 3.90235 0
M  V30 8015 H 750.598 0.552564 3.21892 0
M  V30 8016 H 749.257 2.59123 2.59327 0
M  V30 8017 H 748.905 1.48168 4.80682 0
M  V30 8018 H 748.605 3.23494 4.90536 0
M  V30 8019 H 750.129 2.55653 5.54503 0
M  V30 8020 H 751.543 4.1642 3.9404 0
M  V30 8021 H 749.94 4.84617 3.5393 0
M  V30 8022 H 751.01 4.30374 2.23397 0
M  V30 8023 N 752.353 -0.854086 1.3245 0
M  V30 8024 C 753.316 -1.94427 1.21371 0
M  V30 8025 C 754.316 -1.60219 0.136613 0
M  V30 8026 O 755.506 -1.69846 0.387057 0
M  V30 8027 C 752.638 -3.29698 0.866701 0
M  V30 8028 H 753.831 -2.05679 2.18257 0
M  V30 8029 H 751.384 -1.04434 1.1629 0
M  V30 8030 H 752.119 -3.24145 -0.100319 0
M  V30 8031 H 751.904 -3.55903 1.64545 0
M  V30 8032 H 753.394 -4.09599 0.813515 0
M  V30 8033 N 753.831 -1.1567 -1.07043 0
M  V30 8034 C 755.056 -0.957946 -1.83952 0
M  V30 8035 C 755.481 0.488807 -1.81638 0
M  V30 8036 O 754.839 1.34869 -1.21162 0
M  V30 8037 C 754.887 -1.48064 -3.288 0
M  V30 8038 O 753.991 -0.681921 -4.06723 0
M  V30 8039 H 753.332 -0.341453 -0.569479 0
M  V30 8040 H 755.862 -1.53728 -1.35015 0
M  V30 8041 H 755.872 -1.49484 -3.7963 0
M  V30 8042 H 754.547 -2.53388 -3.29799 0
M  V30 8043 H 753.124 -0.737612 -3.65532 0
M  V30 8044 N 755.309 1.25446 -0.953992 0
M  V30 8045 C 756.239 2.28264 -0.491717 0
M  V30 8046 C 757.22 1.63717 0.461617 0
M  V30 8047 O 758.405 1.90821 0.36071 0
M  V30 8048 C 755.535 3.46525 0.231915 0
M  V30 8049 C 754.489 4.23247 -0.636098 0
M  V30 8050 C 753.815 5.34254 0.218238 0
M  V30 8051 C 755.115 4.85971 -1.91389 0
M  V30 8052 H 756.809 2.67183 -1.35106 0
M  V30 8053 H 754.355 1.2844 -0.651095 0
M  V30 8054 H 756.308 4.17576 0.566439 0
M  V30 8055 H 755.032 3.06594 1.12551 0
M  V30 8056 H 753.691 3.53978 -0.953696 0
M  V30 8057 H 753.339 4.90564 1.11156 0
M  V30 8058 H 753.039 5.86501 -0.359232 0
M  V30 8059 H 754.563 6.08138 0.547743 0
M  V30 8060 H 755.977 5.49168 -1.64581 0
M  V30 8061 H 754.374 5.48391 -2.43696 0
M  V30 8062 H 755.444 4.08192 -2.61738 0
M  V30 8063 N 756.787 0.722489 1.40064 0
M  V30 8064 C 758.015 0.274838 2.05066 0
M  V30 8065 C 758.43 -1.08586 1.54449 0
M  V30 8066 O 757.787 -1.68375 0.704003 0
M  V30 8067 C 757.838 0.253673 3.60609 0
M  V30 8068 O 757.559 1.56064 4.0936 0
M  V30 8069 C 759.06 -0.211684 4.42794 0
M  V30 8070 H 756.28 0.12226 0.659768 0
M  V30 8071 H 758.824 0.982632 1.79345 0
M  V30 8072 H 756.979 -0.405137 3.85276 0
M  V30 8073 H 757.393 1.46576 5.03603 0
M  V30 8074 H 758.867 -0.175341 5.51721 0
M  V30 8075 H 759.344 -1.25493 4.2089 0
M  V30 8076 H 759.95 0.4171 4.2325 0
M  V30 8077 N 758.265 -1.50454 0.469181 0
M  V30 8078 C 759.676 -1.86695 0.0136034 0
M  V30 8079 C 760.027 -1.38413 -1.39055 0
M  V30 8080 O 759.152 -0.748294 -2.03051 0
M  V30 8081 C 759.747 -3.38795 0.0179098 0
M  V30 8082 C 758.306 -3.74455 -0.382191 0
M  V30 8083 C 757.453 -2.74338 0.404207 0
M  V30 8084 H 760.404 -1.43225 0.683547 0
M  V30 8085 H 760.425 -3.72321 -0.78468 0
M  V30 8086 H 759.937 -3.73906 1.04 0
M  V30 8087 H 758.038 -3.44944 -1.4087 0
M  V30 8088 H 758.151 -4.79025 -0.084862 0
M  V30 8089 H 756.515 -2.54305 -0.141829 0
M  V30 8090 H 757.298 -3.12293 1.42577 0
M  V30 8091 N 759.743 -0.201713 -1.56304 0
M  V30 8092 C 760.991 0.434447 -1.97375 0
M  V30 8093 C 761.312 1.61692 -1.08998 0
M  V30 8094 O 760.582 1.95223 -0.162682 0
M  V30 8095 H 759.162 0.163497 -0.728888 0
M  V30 8096 H 761.824 -0.289988 -1.92731 0
M  V30 8097 H 760.92 0.774136 -3.02347 0
M  V30 8098 N 761.222 1.57436 0.0718424 0
M  V30 8099 C 762.469 1.87248 0.771007 0
M  V30 8100 C 762.797 0.793441 1.7758 0
M  V30 8101 O 762.052 -0.210565 1.94564 0
M  V30 8102 C 762.351 3.23723 1.51455 0
M  V30 8103 C 762.017 4.46194 0.649736 0
M  V30 8104 C 760.679 4.79438 0.411409 0
M  V30 8105 C 763.031 5.21176 0.05004 0
M  V30 8106 C 760.359 5.85077 -0.436096 0
M  V30 8107 C 762.711 6.27712 -0.784919 0
M  V30 8108 C 761.375 6.59457 -1.03312 0
M  V30 8109 H 760.645 0.685188 0.282132 0
M  V30 8110 H 763.292 1.91474 0.0317896 0
M  V30 8111 H 761.597 3.15287 2.32597 0
M  V30 8112 H 763.294 3.44023 2.06031 0
M  V30 8113 H 759.884 4.20175 0.84562 0
M  V30 8114 H 764.068 4.95806 0.221282 0
M  V30 8115 H 759.324 6.08071 -0.637136 0
M  V30 8116 H 763.498 6.84974 -1.25635 0
M  V30 8117 H 761.125 7.4114 -1.6916 0
M  V30 8118 N 762.7 -0.34323 1.53817 0
M  V30 8119 C 763.925 -1.1079 1.75329 0
M  V30 8120 C 764.35 -1.81571 0.491293 0
M  V30 8121 O 763.708 -1.72561 -0.556089 0
M  V30 8122 C 763.756 -2.09681 2.9337 0
M  V30 8123 O 762.86 -3.17207 2.63541 0
M  V30 8124 H 762.201 -0.320402 0.581583 0
M  V30 8125 H 764.731 -0.393525 2.0078 0
M  V30 8126 H 764.741 -2.52897 3.20168 0
M  V30 8127 H 763.416 -1.5756 3.84899 0
M  V30 8128 H 761.993 -2.78806 2.47632 0
M  V30 8129 N 764.178 -1.45556 -0.604258 0
M  V30 8130 C 765.426 -1.4945 -1.36048 0
M  V30 8131 C 765.747 -0.138933 -1.94504 0
M  V30 8132 O 765.017 0.832097 -1.7735 0
M  V30 8133 H 763.597 -0.550381 -0.505064 0
M  V30 8134 H 766.259 -1.81535 -0.709308 0
M  V30 8135 H 765.355 -2.23519 -2.17821 0
M  V30 8136 N 765.656 0.84705 -1.32902 0
M  V30 8137 C 766.619 1.9378 -1.224 0
M  V30 8138 C 767.619 1.60144 -0.145108 0
M  V30 8139 O 768.809 1.69638 -0.396058 0
M  V30 8140 C 765.941 3.29234 -0.884174 0
M  V30 8141 H 767.134 2.04518 -2.19345 0
M  V30 8142 H 764.687 1.03816 -1.16842 0
M  V30 8143 H 765.422 3.24193 0.0831277 0
M  V30 8144 H 765.207 3.55026 -1.6643 0
M  V30 8145 H 766.697 4.09162 -0.835226 0
M  V30 8146 N 767.134 1.16236 1.06428 0
M  V30 8147 C 768.411 0.853294 1.76006 0
M  V30 8148 C 768.791 -0.649162 2.00871 0
M  V30 8149 O 768.139 -1.59653 1.63472 0
M  V30 8150 C 768.349 1.67448 3.06206 0
M  V30 8151 C 769.697 1.8866 3.80385 0
M  V30 8152 O 770.721 1.64303 3.16043 0
M  V30 8153 O 769.58 2.29518 4.95968 0
M  V30 8154 H 766.674 0.314737 0.764767 0
M  V30 8155 H 769.22 1.26865 1.12709 0
M  V30 8156 H 767.992 2.69411 2.83784 0
M  V30 8157 H 767.615 1.25608 3.77238 0
M  V30 8158 N 768.612 -1.24939 0.960631 0
M  V30 8159 C 769.858 -1.93104 0.61958 0
M  V30 8160 C 770.191 -1.74991 -0.84212 0
M  V30 8161 O 769.466 -1.09867 -1.60498 0
M  V30 8162 C 769.749 -3.46326 0.986422 0
M  V30 8163 C 769.602 -3.73638 2.50429 0
M  V30 8164 C 770.921 -4.37067 0.515827 0
M  V30 8165 H 768.04 -0.701311 0.226566 0
M  V30 8166 H 770.682 -1.47442 1.19836 0
M  V30 8167 H 768.832 -3.85348 0.493907 0
M  V30 8168 H 770.504 -3.44217 3.07103 0
M  V30 8169 H 768.747 -3.19035 2.93937 0
M  V30 8170 H 769.418 -4.80815 2.71147 0
M  V30 8171 H 771.894 -4.05381 0.938389 0
M  V30 8172 H 770.77 -5.43022 0.80114 0
M  V30 8173 H 771.031 -4.38224 -0.584171 0
M  V30 8174 N 770.09 -0.729906 -1.39679 0
M  V30 8175 C 771.053 -0.0951668 -2.29002 0
M  V30 8176 C 772.053 0.672471 -1.46063 0
M  V30 8177 O 773.243 0.502245 -1.66803 0
M  V30 8178 C 770.375 0.874631 -3.29489 0
M  V30 8179 H 771.568 -0.882062 -2.86635 0
M  V30 8180 H 769.121 -0.495424 -1.4824 0
M  V30 8181 H 769.856 1.68807 -2.76902 0
M  V30 8182 H 769.641 0.326893 -3.90735 0
M  V30 8183 H 771.131 1.31548 -3.96339 0
M  V30 8184 N 771.568 1.50203 -0.477153 0
M  V30 8185 C 772.516 2.30278 0.327826 0
M  V30 8186 C 773.51 1.37831 0.984839 0
M  V30 8187 O 774.716 1.54994 0.915251 0
M  V30 8188 H 771.091 0.741612 0.124564 0
M  V30 8189 H 773.062 2.96124 -0.367853 0
M  V30 8190 C 771.811 3.18548 1.39365 0
M  V30 8191 H 771.134 3.89596 0.897475 0
M  V30 8192 H 772.574 3.77561 1.92934 0
M  V30 8193 C 771.033 2.36548 2.39889 0
M  V30 8194 O 771.563 2.05282 3.45286 0
M  V30 8195 N 769.769 1.99015 2.11758 0
M  V30 8196 H 769.316 2.24641 1.26071 0
M  V30 8197 H 769.274 1.44454 2.7925 0
M  V30 8198 N 773.046 0.209999 1.56195 0
M  V30 8199 C 774.292 -0.425442 1.98287 0
M  V30 8200 C 774.625 -1.60232 1.09724 0
M  V30 8201 O 773.9 -1.93902 0.152414 0
M  V30 8202 C 774.183 -0.871189 3.49403 0
M  V30 8203 C 774.036 0.308527 4.48741 0
M  V30 8204 C 775.355 -1.73146 4.04609 0
M  V30 8205 H 772.474 -0.153169 0.720908 0
M  V30 8206 H 775.116 0.303916 1.87554 0
M  V30 8207 H 773.266 -1.49266 3.58681 0
M  V30 8208 H 774.938 0.946487 4.51486 0
M  V30 8209 H 773.181 0.957878 4.23092 0
M  V30 8210 H 773.852 -0.0461143 5.51981 0
M  V30 8211 H 776.328 -1.2072 3.98203 0
M  V30 8212 H 775.204 -2.01228 5.10684 0
M  V30 8213 H 775.465 -2.69083 3.5078 0
M  V30 8214 N 774.524 -1.57472 -0.0634922 0
M  V30 8215 C 775.764 -1.89491 -0.766312 0
M  V30 8216 C 776.128 -0.80475 -1.74321 0
M  V30 8217 O 777.329 -1.00825 -2.49174 0
M  V30 8218 C 775.6 -3.26731 -1.44851 0
M  V30 8219 S 777.159 -3.80516 -2.18525 0
M  V30 8220 H 773.977 -0.663832 -0.254653 0
M  V30 8221 H 776.579 -1.95488 -0.0220867 0
M  V30 8222 H 775.283 -4.03967 -0.723824 0
M  V30 8223 H 774.814 -3.23953 -2.232 0
M  V30 8224 H 776.829 -3.5647 -3.45172 0
M  V30 8225 N 776.003 0.335068 -1.53997 0
M  V30 8226 C 776.951 1.43206 -1.83289 0
M  V30 8227 C 777.945 1.54081 -0.703953 0
M  V30 8228 O 779.151 1.56603 -0.887432 0
M  V30 8229 H 775.526 0.477655 -0.580818 0
M  V30 8230 H 777.497 1.15719 -2.75049 0
M  V30 8231 C 776.246 2.79602 -2.06683 0
M  V30 8232 H 775.569 2.72004 -2.93008 0
M  V30 8233 H 777.009 3.55459 -2.31139 0
M  V30 8234 C 775.468 3.25873 -0.854883 0
M  V30 8235 O 775.998 4.01657 -0.0584648 0
M  V30 8236 N 774.204 2.82777 -0.669729 0
M  V30 8237 H 773.751 2.21269 -1.31901 0
M  V30 8238 H 773.709 3.1409 0.13969 0
M  V30 8239 N 777.481 1.45874 0.596531 0
M  V30 8240 C 778.391 1.57947 1.73464 0
M  V30 8241 C 779.407 0.463461 1.67714 0
M  V30 8242 O 780.583 0.725685 1.87872 0
M  V30 8243 C 777.648 1.55348 3.09948 0
M  V30 8244 C 776.709 2.78074 3.27068 0
M  V30 8245 C 775.942 2.75589 4.57041 0
M  V30 8246 O 776.165 1.83545 5.40063 0
M  V30 8247 O 775.099 3.66945 4.77111 0
M  V30 8248 H 778.925 2.54169 1.66228 0
M  V30 8249 H 776.51 1.2851 0.76194 0
M  V30 8250 H 778.392 1.56545 3.91244 0
M  V30 8251 H 777.067 0.622811 3.17652 0
M  V30 8252 H 775.974 2.82435 2.45319 0
M  V30 8253 H 777.307 3.70303 3.24248 0
M  V30 8254 N 778.959 -0.83999 1.33349 0
M  V30 8255 C 779.922 -1.93128 1.23426 0
M  V30 8256 C 780.922 -1.60065 0.153599 0
M  V30 8257 O 782.112 -1.69425 0.405049 0
M  V30 8258 C 779.244 -3.28761 0.901622 0
M  V30 8259 H 780.437 -2.03352 2.20427 0
M  V30 8260 H 777.99 -1.03194 1.17391 0
M  V30 8261 H 778.725 -3.24233 -0.0659337 0
M  V30 8262 H 778.51 -3.54138 1.68311 0
M  V30 8263 H 780 -4.08714 0.856913 0
M  V30 8264 N 780.437 -1.16799 -1.0581 0
M  V30 8265 C 781.4 -0.881396 -2.11575 0
M  V30 8266 C 782.4 0.12574 -1.60308 0
M  V30 8267 O 783.59 -0.105716 -1.73879 0
M  V30 8268 C 780.722 -0.319037 -3.39404 0
M  V30 8269 H 781.915 -1.81907 -2.38432 0
M  V30 8270 H 779.468 -0.977597 -1.21954 0
M  V30 8271 H 780.203 0.626082 -3.18199 0
M  V30 8272 H 779.988 -1.04481 -3.77923 0
M  V30 8273 H 781.478 -0.13663 -4.17376 0
M  V30 8274 N 781.915 1.24427 -0.967243 0
M  V30 8275 C 782.845 2.2773 -0.515899 0
M  V30 8276 C 783.826 1.64197 0.444227 0
M  V30 8277 O 785.011 1.91193 0.340451 0
M  V30 8278 C 782.141 3.46751 0.195149 0
M  V30 8279 C 781.095 4.22548 -0.680953 0
M  V30 8280 C 780.421 5.34456 0.161561 0
M  V30 8281 C 781.721 4.83914 -1.96532 0
M  V30 8282 H 783.415 2.65735 -1.37933 0
M  V30 8283 H 780.961 1.27742 -0.664681 0
M  V30 8284 H 782.914 4.18153 0.522117 0
M  V30 8285 H 781.638 3.07771 1.09292 0
M  V30 8286 H 780.297 3.52946 -0.991186 0
M  V30 8287 H 779.945 4.91716 1.05947 0
M  V30 8288 H 779.645 5.86087 -0.421418 0
M  V30 8289 H 781.169 6.08685 0.483211 0
M  V30 8290 H 782.583 5.47392 -1.70396 0
M  V30 8291 H 780.98 5.45775 -2.49499 0
M  V30 8292 H 782.05 4.05393 -2.66053 0
M  V30 8293 N 783.393 0.737304 1.3929 0
M  V30 8294 C 784.642 0.283129 1.99703 0
M  V30 8295 C 784.955 -1.13677 1.59176 0
M  V30 8296 O 786.161 -1.69058 2.12442 0
M  V30 8297 C 784.617 0.455262 3.57009 0
M  V30 8298 C 784.225 1.88319 4.06497 0
M  V30 8299 C 785.969 0.0629786 4.24453 0
M  V30 8300 C 783.876 2.00475 5.56385 0
M  V30 8301 H 782.806 0.102106 0.747054 0
M  V30 8302 H 785.457 0.911515 1.5926 0
M  V30 8303 H 783.839 -0.242057 3.9526 0
M  V30 8304 H 785.013 2.61265 3.79575 0
M  V30 8305 H 783.328 2.2289 3.51723 0
M  V30 8306 H 785.925 0.132787 5.34535 0
M  V30 8307 H 786.268 -0.982128 4.04549 0
M  V30 8308 H 786.801 0.71154 3.91385 0
M  V30 8309 H 783.54 3.03182 5.81172 0
M  V30 8310 H 783.06 1.31969 5.85102 0
M  V30 8311 H 784.739 1.787 6.21832 0
M  V30 8312 N 784.871 -1.49948 0.485112 0
M  V30 8313 C 785.834 -2.27351 -0.290546 0
M  V30 8314 C 786.834 -1.32704 -0.908087 0
M  V30 8315 O 788.024 -1.56007 -0.775085 0
M  V30 8316 C 785.156 -3.10135 -1.41524 0
M  V30 8317 H 786.349 -2.97374 0.388454 0
M  V30 8318 H 783.902 -1.54453 0.239586 0
M  V30 8319 H 784.637 -2.44641 -2.12888 0
M  V30 8320 H 784.422 -3.79705 -0.978074 0
M  V30 8321 H 785.912 -3.68638 -1.96204 0
M  V30 8322 N 786.349 -0.21828 -1.56081 0
M  V30 8323 C 787.312 0.679633 -2.18892 0
M  V30 8324 C 788.312 1.12405 -1.14986 0
M  V30 8325 O 789.502 1.03339 -1.40238 0
M  V30 8326 C 786.634 1.93063 -2.80962 0
M  V30 8327 H 787.827 0.132066 -2.99609 0
M  V30 8328 H 785.38 0.0313374 -1.56269 0
M  V30 8329 H 786.115 2.52015 -2.04106 0
M  V30 8330 H 785.9 1.62046 -3.57048 0
M  V30 8331 H 787.39 2.57043 -3.29118 0
M  V30 8332 N 787.827 1.57504 0.0551401 0
M  V30 8333 C 789.243 1.54236 0.410292 0
M  V30 8334 C 789.443 0.940839 1.78187 0
M  V30 8335 O 788.499 0.550541 2.46425 0
M  V30 8336 C 789.812 2.98816 0.336064 0
M  V30 8337 C 791.36 3.10236 0.415047 0
M  V30 8338 C 791.835 4.56499 0.37055 0
M  V30 8339 N 793.326 4.61199 0.43013 0
M  V30 8340 C 794.061 5.71873 0.418179 0
M  V30 8341 N 793.557 6.91864 0.360056 0
M  V30 8342 N 795.35 5.60165 0.465977 0
M  V30 8343 H 787.501 1.94965 -0.842759 0
M  V30 8344 H 789.764 0.893096 -0.317937 0
M  V30 8345 H 789.47 3.4645 -0.605429 0
M  V30 8346 H 789.344 3.59564 1.13988 0
M  V30 8347 H 791.731 2.62566 1.34697 0
M  V30 8348 H 791.812 2.52367 -0.417648 0
M  V30 8349 H 791.456 5.0483 -0.557592 0
M  V30 8350 H 791.386 5.12249 1.221 0
M  V30 8351 H 793.877 3.74857 0.478623 0
M  V30 8352 H 794.19 7.71983 0.35532 0
M  V30 8353 H 792.535 6.94233 0.326492 0
M  V30 8354 H 795.726 4.65322 0.509194 0
M  V30 8355 H 795.899 6.46413 0.453194 0
M  V30 8356 N 789.305 -0.326896 1.54172 0
M  V30 8357 C 790.255 -1.40319 1.79707 0
M  V30 8358 C 791.239 -1.47056 0.652938 0
M  V30 8359 O 792.431 -1.51645 0.91284 0
M  V30 8360 C 789.56 -2.77222 2.02491 0
M  V30 8361 C 788.646 -2.74811 3.23016 0
M  V30 8362 N 789.037 -2.42022 4.44138 0
M  V30 8363 C 787.335 -3.05943 3.24522 0
M  V30 8364 C 788.036 -2.48263 5.26061 0
M  V30 8365 N 787.012 -2.84567 4.63166 0
M  V30 8366 H 790.814 -1.13892 2.70935 0
M  V30 8367 H 788.328 -0.53536 1.53322 0
M  V30 8368 H 790.325 -3.54793 2.18923 0
M  V30 8369 H 788.985 -3.04582 1.12515 0
M  V30 8370 H 789.996 -2.14926 4.71197 0
M  V30 8371 H 786.673 -3.38367 2.44569 0
M  V30 8372 H 788.063 -2.2593 6.32776 0
M  V30 8373 N 790.784 -1.46188 -0.588786 0
M  V30 8374 C 791.714 -1.59148 -1.70863 0
M  V30 8375 C 792.695 -0.442083 -1.64255 0
M  V30 8376 O 793.88 -0.667575 -1.82365 0
M  V30 8377 C 791.01 -1.5757 -3.09498 0
M  V30 8378 C 789.964 -2.71418 -3.30932 0
M  V30 8379 C 789.29 -2.549 -4.70032 0
M  V30 8380 C 790.59 -4.1329 -3.19356 0
M  V30 8381 H 792.284 -2.52889 -1.60274 0
M  V30 8382 H 789.83 -1.21707 -0.769638 0
M  V30 8383 H 791.783 -1.65231 -3.87655 0
M  V30 8384 H 790.507 -0.603705 -3.20972 0
M  V30 8385 H 789.166 -2.63216 -2.55172 0
M  V30 8386 H 788.814 -1.55797 -4.78264 0
M  V30 8387 H 788.514 -3.31257 -4.85327 0
M  V30 8388 H 790.038 -2.64443 -5.50366 0
M  V30 8389 H 791.452 -4.22636 -3.87365 0
M  V30 8390 H 789.849 -4.90187 -3.46175 0
M  V30 8391 H 790.919 -4.33874 -2.16522 0
M  V30 8392 N 792.262 0.832906 -1.33792 0
M  V30 8393 C 793.487 1.62568 -1.28788 0
M  V30 8394 C 793.912 1.87599 0.137246 0
M  V30 8395 O 793.27 1.44436 1.0958 0
M  V30 8396 C 793.318 2.9495 -2.07453 0
M  V30 8397 O 792.422 3.86546 -1.43722 0
M  V30 8398 H 791.763 0.494809 -0.442787 0
M  V30 8399 H 794.293 1.03578 -1.76445 0
M  V30 8400 H 794.303 3.44599 -2.1844 0
M  V30 8401 H 792.978 2.76055 -3.11073 0
M  V30 8402 H 791.555 3.45044 -1.41417 0
M  V30 8403 N 793.74 1.17359 1.05189 0
M  V30 8404 C 795.017 0.871914 1.75091 0
M  V30 8405 C 795.397 -0.627821 2.01548 0
M  V30 8406 O 794.745 -1.5791 1.65156 0
M  V30 8407 C 794.955 1.70687 3.04413 0
M  V30 8408 C 796.303 1.92684 3.78362 0
M  V30 8409 O 797.327 1.67645 3.14282 0
M  V30 8410 O 796.186 2.34765 4.93505 0
M  V30 8411 H 793.28 0.322831 0.761386 0
M  V30 8412 H 795.826 1.28054 1.11357 0
M  V30 8413 H 794.598 2.72405 2.80911 0
M  V30 8414 H 794.221 1.29602 3.75884 0
M  V30 8415 N 795.218 -1.23913 0.973828 0
M  V30 8416 C 796.443 -1.96735 0.656511 0
M  V30 8417 C 796.868 -1.71682 -0.768571 0
M  V30 8418 O 796.226 -0.984267 -1.52256 0
M  V30 8419 C 796.274 -3.48004 0.944735 0
M  V30 8420 O 795.378 -4.12387 0.0333357 0
M  V30 8421 H 794.719 -0.616119 0.247575 0
M  V30 8422 H 797.249 -1.57525 1.30564 0
M  V30 8423 H 797.259 -3.98424 0.87876 0
M  V30 8424 H 795.934 -3.65567 1.98328 0
M  V30 8425 H 794.511 -3.72585 0.153157 0
M  V30 8426 N 796.696 -0.74468 -1.38897 0
M  V30 8427 C 797.945 -0.293716 -1.9955 0
M  V30 8428 C 798.258 1.12831 -1.59777 0
M  V30 8429 O 799.464 1.67929 -2.13336 0
M  V30 8430 C 797.92 -0.474188 -3.56762 0
M  V30 8431 C 797.528 -1.90472 -4.05493 0
M  V30 8432 C 799.272 -0.0854875 -4.24414 0
M  V30 8433 C 797.179 -2.03423 -5.55314 0
M  V30 8434 H 796.109 -0.106066 -0.746502 0
M  V30 8435 H 798.76 -0.919948 -1.58774 0
M  V30 8436 H 797.142 0.221092 -3.95382 0
M  V30 8437 H 798.316 -2.63274 -3.78184 0
M  V30 8438 H 796.631 -2.24752 -3.50536 0
M  V30 8439 H 799.228 -0.161133 -5.34457 0
M  V30 8440 H 799.571 0.96066 -4.05064 0
M  V30 8441 H 800.104 -0.732286 -3.91002 0
M  V30 8442 H 796.843 -3.0626 -5.79556 0
M  V30 8443 H 796.363 -1.3507 -5.84394 0
M  V30 8444 H 798.042 -1.81996 -6.20876 0
M  V30 8445 N 798.174 1.49689 -0.493057 0
M  V30 8446 C 799.122 2.30613 0.303383 0
M  V30 8447 C 800.116 1.38867 0.970165 0
M  V30 8448 O 801.322 1.55956 0.898761 0
M  V30 8449 H 797.697 0.742891 0.116691 0
M  V30 8450 H 799.668 2.95717 -0.39924 0
M  V30 8451 C 798.417 3.20008 1.35978 0
M  V30 8452 H 797.74 3.90526 0.856103 0
M  V30 8453 H 799.18 3.79586 1.88919 0
M  V30 8454 C 797.639 2.39079 2.37367 0
M  V30 8455 O 798.169 2.08933 3.43089 0
M  V30 8456 N 796.375 2.0125 2.09635 0
M  V30 8457 H 795.922 2.25966 1.23682 0
M  V30 8458 H 795.88 1.47408 2.77702 0
M  V30 8459 N 799.652 0.226554 1.55963 0
M  V30 8460 C 800.584 -0.713907 2.17798 0
M  V30 8461 C 801.597 -1.15387 1.14846 0
M  V30 8462 O 802.786 -1.08416 1.41804 0
M  V30 8463 C 799.886 -1.97945 2.75084 0
M  V30 8464 C 799.059 -1.69424 4.03255 0
M  V30 8465 C 798.118 -2.80734 4.45056 0
M  V30 8466 O 797.144 -2.4899 5.11852 0
M  V30 8467 N 798.346 -4.09797 4.11152 0
M  V30 8468 H 801.111 -0.18494 2.99129 0
M  V30 8469 H 798.672 0.0457346 1.61835 0
M  V30 8470 H 800.664 -2.71611 3.00016 0
M  V30 8471 H 799.234 -2.41876 1.98027 0
M  V30 8472 H 798.454 -0.793767 3.86126 0
M  V30 8473 H 799.742 -1.47806 4.86858 0
M  V30 8474 H 799.14 -4.38429 3.57486 0
M  V30 8475 H 797.697 -4.79992 4.40966 0
M  V30 8476 N 801.13 -1.57531 -0.0467866 0
M  V30 8477 C 802.077 -2.05387 -1.05285 0
M  V30 8478 C 803.047 -0.939385 -1.36985 0
M  V30 8479 O 804.232 -1.20877 -1.47626 0
M  V30 8480 C 801.372 -2.52343 -2.35408 0
M  V30 8481 C 800.485 -3.77512 -2.10022 0
M  V30 8482 C 799.62 -4.1315 -3.33887 0
M  V30 8483 C 798.659 -5.31286 -3.03976 0
M  V30 8484 N 797.796 -5.62441 -4.20243 0
M  V30 8485 H 802.636 -2.91095 -0.637788 0
M  V30 8486 H 800.173 -1.43939 -0.303322 0
M  V30 8487 H 802.131 -2.77628 -3.11413 0
M  V30 8488 H 800.761 -1.69577 -2.7467 0
M  V30 8489 H 799.813 -3.59417 -1.24594 0
M  V30 8490 H 801.125 -4.63644 -1.83945 0
M  V30 8491 H 800.279 -4.39469 -4.18273 0
M  V30 8492 H 799.018 -3.25634 -3.63062 0
M  V30 8493 H 798.023 -5.04738 -2.17991 0
M  V30 8494 H 799.248 -6.20441 -2.76098 0
M  V30 8495 H 797.194 -4.77885 -4.49402 0
M  V30 8496 H 797.111 -6.43046 -3.97528 0
M  V30 8497 H 798.379 -5.93327 -5.05553 0
M  V30 8498 N 802.608 0.318715 -1.54344 0
M  V30 8499 C 803.558 1.39364 -1.80448 0
M  V30 8500 C 804.542 1.46708 -0.660728 0
M  V30 8501 O 805.734 1.51159 -0.920869 0
M  V30 8502 C 802.863 2.76144 -2.03959 0
M  V30 8503 C 801.949 2.73094 -3.24469 0
M  V30 8504 N 802.34 2.39663 -4.45416 0
M  V30 8505 C 800.638 3.04218 -3.2614 0
M  V30 8506 C 801.339 2.45469 -5.27371 0
M  V30 8507 N 800.315 2.82107 -4.64668 0
M  V30 8508 H 804.117 1.12453 -2.71535 0
M  V30 8509 H 801.631 0.527221 -1.53604 0
M  V30 8510 H 803.628 3.53627 -2.20802 0
M  V30 8511 H 802.288 3.03982 -1.14129 0
M  V30 8512 H 803.299 2.12424 -4.72331 0
M  V30 8513 H 799.976 3.37066 -2.4636 0
M  V30 8514 H 801.366 2.22571 -6.33965 0
M  V30 8515 N 804.086 1.46499 0.581025 0
M  V30 8516 C 805.333 1.51896 1.33918 0
M  V30 8517 C 805.661 0.171361 1.93744 0
M  V30 8518 O 804.916 -0.833178 1.77078 0
M  V30 8519 C 805.215 2.56686 2.48691 0
M  V30 8520 C 804.881 4.00656 2.06847 0
M  V30 8521 C 803.543 4.39852 1.9515 0
M  V30 8522 C 805.895 4.91089 1.74589 0
M  V30 8523 C 803.223 5.67345 1.49456 0
M  V30 8524 C 805.575 6.1902 1.30373 0
M  V30 8525 C 804.239 6.57121 1.17255 0
M  V30 8526 H 803.509 0.555826 0.490039 0
M  V30 8527 H 806.156 1.79983 0.654092 0
M  V30 8528 H 804.461 2.22266 3.22653 0
M  V30 8529 H 806.158 2.58091 3.06904 0
M  V30 8530 H 802.748 3.69674 2.16886 0
M  V30 8531 H 806.932 4.61523 1.8251 0
M  V30 8532 H 802.188 5.95635 1.37944 0
M  V30 8533 H 806.362 6.8852 1.04467 0
M  V30 8534 H 803.989 7.55805 0.816236 0
M  V30 8535 N 805.565 -0.825799 1.34232 0
M  V30 8536 C 806.475 -1.9684 1.27638 0
M  V30 8537 C 807.491 -1.73018 0.184569 0
M  V30 8538 O 808.667 -1.97172 0.410525 0
M  V30 8539 C 805.732 -3.31084 1.02879 0
M  V30 8540 C 804.793 -3.67933 2.21188 0
M  V30 8541 C 804.026 -4.95772 1.976 0
M  V30 8542 O 804.249 -5.62721 0.93281 0
M  V30 8543 O 803.183 -5.30431 2.84477 0
M  V30 8544 H 807.009 -2.05346 2.23756 0
M  V30 8545 H 804.594 -0.960772 1.1441 0
M  V30 8546 H 806.476 -4.11492 0.908406 0
M  V30 8547 H 805.151 -3.23552 0.0979821 0
M  V30 8548 H 804.058 -2.87981 2.38784 0
M  V30 8549 H 805.391 -3.80147 3.12648 0
M  V30 8550 N 807.043 -1.17915 -1.04565 0
M  V30 8551 C 807.975 -0.859359 -2.1248 0
M  V30 8552 C 808.988 0.140922 -1.62189 0
M  V30 8553 O 810.177 -0.0862361 -1.78292 0
M  V30 8554 C 807.277 -0.261811 -3.37887 0
M  V30 8555 C 806.45 -1.30651 -4.17431 0
M  V30 8556 C 805.509 -0.725575 -5.21174 0
M  V30 8557 O 804.535 -1.39901 -5.51739 0
M  V30 8558 N 805.737 0.479351 -5.78517 0
M  V30 8559 H 808.502 -1.78818 -2.40508 0
M  V30 8560 H 806.063 -1.07885 -1.20716 0
M  V30 8561 H 808.055 0.14028 -4.04457 0
M  V30 8562 H 806.625 0.570929 -3.07342 0
M  V30 8563 H 805.845 -1.88412 -3.46258 0
M  V30 8564 H 807.133 -2.01099 -4.67372 0
M  V30 8565 H 806.531 1.04431 -5.55977 0
M  V30 8566 H 805.088 0.823427 -6.46578 0
M  V30 8567 N 808.521 1.23394 -0.980386 0
M  V30 8568 C 809.484 2.23092 -0.525619 0
M  V30 8569 C 810.484 1.56129 0.384745 0
M  V30 8570 O 811.674 1.73284 0.178439 0
M  V30 8571 C 808.806 3.40074 0.23712 0
M  V30 8572 H 809.999 2.64839 -1.40714 0
M  V30 8573 H 807.552 1.36227 -0.766275 0
M  V30 8574 H 808.287 3.03783 1.13518 0
M  V30 8575 H 808.072 3.89883 -0.416356 0
M  V30 8576 H 809.562 4.14043 0.543892 0
M  V30 8577 N 809.999 0.752036 1.385 0
M  V30 8578 C 811.248 0.304294 1.99391 0
M  V30 8579 C 811.561 -1.11982 1.60373 0
M  V30 8580 O 812.767 -1.66795 2.14223 0
M  V30 8581 C 811.223 0.493101 3.56506 0
M  V30 8582 C 810.831 1.9262 4.04477 0
M  V30 8583 C 812.575 0.107994 4.24363 0
M  V30 8584 C 810.482 2.06365 5.54227 0
M  V30 8585 H 809.412 0.110024 0.745929 0
M  V30 8586 H 812.063 0.928355 1.58284 0
M  V30 8587 H 810.445 -0.20012 3.95494 0
M  V30 8588 H 811.619 2.65276 3.76783 0
M  V30 8589 H 809.934 2.26608 3.49339 0
M  V30 8590 H 812.531 0.189474 5.34364 0
M  V30 8591 H 812.874 -0.939165 4.05568 0
M  V30 8592 H 813.407 0.753011 3.90608 0
M  V30 8593 H 810.146 3.0933 5.77923 0
M  V30 8594 H 809.666 1.38167 5.83669 0
M  V30 8595 H 811.345 1.85286 6.19902 0
M  V30 8596 N 811.477 -1.49425 0.500989 0
M  V30 8597 C 812.387 -2.32899 -0.282011 0
M  V30 8598 C 813.403 -1.44632 -0.967346 0
M  V30 8599 O 814.579 -1.77654 -0.94873 0
M  V30 8600 C 811.644 -3.20069 -1.33253 0
M  V30 8601 C 810.705 -4.24186 -0.660636 0
M  V30 8602 C 809.938 -5.07191 -1.6611 0
M  V30 8603 O 810.161 -4.91712 -2.89094 0
M  V30 8604 O 809.095 -5.8948 -1.21643 0
M  V30 8605 H 812.921 -3.01038 0.401224 0
M  V30 8606 H 810.506 -1.47079 0.262323 0
M  V30 8607 H 812.388 -3.74071 -1.94033 0
M  V30 8608 H 811.063 -2.54625 -1.9987 0
M  V30 8609 H 809.97 -3.74098 -0.0130959 0
M  V30 8610 H 811.303 -4.92186 -0.0369179 0
M  V30 8611 N 812.955 -0.234822 -1.55841 0
M  V30 8612 C 814.371 0.120295 -1.59146 0
M  V30 8613 C 814.571 1.57896 -1.25184 0
M  V30 8614 O 813.627 2.32138 -0.993393 0
M  V30 8615 C 814.94 -0.217984 -2.99909 0
M  V30 8616 C 816.488 -0.161298 -3.12584 0
M  V30 8617 C 816.963 -0.473438 -4.55546 0
M  V30 8618 N 818.454 -0.423494 -4.6126 0
M  V30 8619 C 819.189 -0.638334 -5.69836 0
M  V30 8620 N 818.685 -0.915659 -6.86722 0
M  V30 8621 N 820.478 -0.569864 -5.59204 0
M  V30 8622 H 812.629 -1.18622 -1.76189 0
M  V30 8623 H 814.892 -0.476426 -0.819587 0
M  V30 8624 H 814.598 -1.2309 -3.29457 0
M  V30 8625 H 814.472 0.460707 -3.74376 0
M  V30 8626 H 816.859 0.842274 -2.82825 0
M  V30 8627 H 816.94 -0.873661 -2.40418 0
M  V30 8628 H 816.584 -1.47451 -4.86025 0
M  V30 8629 H 816.514 0.260268 -5.25956 0
M  V30 8630 H 819.005 -0.217383 -3.77274 0
M  V30 8631 H 819.318 -1.06734 -7.65394 0
M  V30 8632 H 817.663 -0.953 -6.88435 0
M  V30 8633 H 820.854 -0.35334 -4.66765 0
M  V30 8634 H 821.027 -0.740698 -6.43753 0
M  V30 8635 N 814.433 1.57553 0.0384317 0
M  V30 8636 C 815.679 1.89121 0.732199 0
M  V30 8637 C 816.012 0.831404 1.75503 0
M  V30 8638 O 815.287 -0.154642 1.93884 0
M  V30 8639 C 815.57 3.31338 1.41021 0
M  V30 8640 C 815.423 4.48004 0.401532 0
M  V30 8641 C 816.742 3.72318 2.34665 0
M  V30 8642 H 813.861 0.687819 0.264715 0
M  V30 8643 H 816.503 1.89999 -0.00496279 0
M  V30 8644 H 814.653 3.3072 2.03854 0
M  V30 8645 H 816.325 4.60755 -0.224159 0
M  V30 8646 H 814.568 4.32895 -0.280092 0
M  V30 8647 H 815.239 5.44377 0.91423 0
M  V30 8648 H 817.715 3.74243 1.81883 0
M  V30 8649 H 816.591 4.72652 2.7909 0
M  V30 8650 H 816.852 3.04062 3.20934 0
M  V30 8651 N 815.911 -0.310526 1.54511 0
M  V30 8652 C 817.16 -1.0445 1.72549 0
M  V30 8653 C 817.473 -1.88748 0.513172 0
M  V30 8654 O 818.679 -2.65338 0.575165 0
M  V30 8655 C 817.135 -1.90665 3.05246 0
M  V30 8656 C 816.743 -1.11415 4.33925 0
M  V30 8657 C 818.487 -2.63719 3.32645 0
M  V30 8658 C 816.394 -1.96852 5.57677 0
M  V30 8659 H 815.324 -0.393676 0.643067 0
M  V30 8660 H 817.975 -0.302003 1.80998 0
M  V30 8661 H 816.357 -2.68864 2.90737 0
M  V30 8662 H 817.531 -0.378956 4.59239 0
M  V30 8663 H 815.846 -0.499853 4.13389 0
M  V30 8664 H 818.443 -3.27974 4.223 0
M  V30 8665 H 818.786 -3.32047 2.51098 0
M  V30 8666 H 819.319 -1.92574 3.48081 0
M  V30 8667 H 816.058 -1.33009 6.41864 0
M  V30 8668 H 815.578 -2.68069 5.36562 0
M  V30 8669 H 817.257 -2.55127 5.94575 0
M  V30 8670 N 817.389 -1.46805 -0.573248 0
M  V30 8671 C 818.637 -1.52302 -1.32847 0
M  V30 8672 C 818.958 -0.180159 -1.94166 0
M  V30 8673 O 818.228 0.794291 -1.79075 0
M  V30 8674 H 816.808 -0.56097 -0.493276 0
M  V30 8675 H 819.47 -1.82998 -0.670642 0
M  V30 8676 H 818.566 -2.28089 -2.13031 0
M  V30 8677 N 818.867 0.818669 -1.34668 0
M  V30 8678 C 820.115 1.57201 -1.27013 0
M  V30 8679 C 820.436 1.94354 0.158599 0
M  V30 8680 O 819.706 1.62626 1.09223 0
M  V30 8681 H 818.286 0.582919 -0.467135 0
M  V30 8682 H 820.948 0.977234 -1.6863 0
M  V30 8683 H 820.044 2.49291 -1.87778 0
M  V30 8684 N 820.346 1.18468 1.03938 0
M  V30 8685 C 821.276 0.936389 2.13902 0
M  V30 8686 C 822.257 -0.126381 1.6963 0
M  V30 8687 O 823.442 0.0264757 1.94182 0
M  V30 8688 C 820.572 0.462729 3.44204 0
M  V30 8689 C 819.526 1.46613 4.02105 0
M  V30 8690 C 818.852 0.84994 5.27902 0
M  V30 8691 C 820.152 2.84323 4.3813 0
M  V30 8692 H 821.846 1.85602 2.3493 0
M  V30 8693 H 819.392 0.893806 1.12903 0
M  V30 8694 H 821.345 0.276382 4.20493 0
M  V30 8695 H 820.069 -0.492477 3.22866 0
M  V30 8696 H 818.728 1.63944 3.27899 0
M  V30 8697 H 818.376 -0.112493 5.02874 0
M  V30 8698 H 818.076 1.51988 5.67603 0
M  V30 8699 H 819.6 0.674152 6.06867 0
M  V30 8700 H 821.014 2.70636 5.054 0
M  V30 8701 H 819.411 3.48012 4.88884 0
M  V30 8702 H 820.481 3.37776 3.47901 0
M  V30 8703 N 821.824 -1.22873 0.986916 0
M  V30 8704 C 822.734 -2.28277 0.540978 0
M  V30 8705 C 823.75 -1.69164 -0.407363 0
M  V30 8706 O 824.926 -1.99504 -0.275674 0
M  V30 8707 C 821.991 -3.46404 -0.143181 0
M  V30 8708 C 821.052 -4.20854 0.847375 0
M  V30 8709 C 820.285 -5.33341 0.19577 0
M  V30 8710 O 820.508 -5.61356 -1.0117 0
M  V30 8711 O 819.442 -5.95169 0.897623 0
M  V30 8712 H 823.268 -2.68578 1.41773 0
M  V30 8713 H 820.853 -1.28927 0.754867 0
M  V30 8714 H 822.735 -4.18096 -0.526676 0
M  V30 8715 H 821.41 -3.08041 -0.994593 0
M  V30 8716 H 820.317 -3.51459 1.28169 0
M  V30 8717 H 821.65 -4.63082 1.6678 0
M  V30 8718 N 823.302 -0.75937 -1.38099 0
M  V30 8719 C 824.249 -0.135508 -2.30402 0
M  V30 8720 C 825.219 0.703356 -1.50473 0
M  V30 8721 O 826.404 0.658287 -1.79084 0
M  V30 8722 C 823.544 0.747228 -3.36913 0
M  V30 8723 C 822.657 -0.106893 -4.31868 0
M  V30 8724 C 821.792 0.779388 -5.25451 0
M  V30 8725 C 820.831 -0.0780179 -6.1205 0
M  V30 8726 N 819.968 0.765545 -6.97914 0
M  V30 8727 H 824.808 -0.9282 -2.83176 0
M  V30 8728 H 822.345 -0.46935 -1.39411 0
M  V30 8729 H 824.303 1.27371 -3.97281 0
M  V30 8730 H 822.933 1.50565 -2.85535 0
M  V30 8731 H 821.985 -0.751063 -3.72912 0
M  V30 8732 H 823.297 -0.768798 -4.9284 0
M  V30 8733 H 822.451 1.37282 -5.90964 0
M  V30 8734 H 821.19 1.47501 -4.6486 0
M  V30 8735 H 820.195 -0.684078 -5.45528 0
M  V30 8736 H 821.42 -0.770786 -6.74712 0
M  V30 8737 H 819.366 1.44601 -6.39864 0
M  V30 8738 H 819.283 0.160666 -7.55829 0
M  V30 8739 H 820.551 1.34377 -7.6783 0
M  V30 8740 N 824.78 1.49157 -0.508906 0
M  V30 8741 C 825.727 2.2927 0.265288 0
M  V30 8742 C 826.697 1.3603 0.953162 0
M  V30 8743 O 827.882 1.64989 0.958291 0
M  V30 8744 C 825.022 3.18897 1.31904 0
M  V30 8745 C 824.135 4.27201 0.642144 0
M  V30 8746 C 823.27 5.04033 1.67701 0
M  V30 8747 C 822.309 6.04165 0.982422 0
M  V30 8748 N 821.446 6.74133 1.96186 0
M  V30 8749 H 826.286 2.94967 -0.424107 0
M  V30 8750 H 823.823 1.45431 -0.220991 0
M  V30 8751 H 825.781 3.69242 1.94206 0
M  V30 8752 H 824.411 2.55168 1.97709 0
M  V30 8753 H 823.463 3.80283 -0.0943395 0
M  V30 8754 H 824.775 4.98708 0.0957507 0
M  V30 8755 H 823.929 5.58287 2.37487 0
M  V30 8756 H 822.668 4.32317 2.25728 0
M  V30 8757 H 821.673 5.49135 0.270378 0
M  V30 8758 H 822.898 6.7787 0.408554 0
M  V30 8759 H 820.844 6.05183 2.53159 0
M  V30 8760 H 820.761 7.41643 1.46634 0
M  V30 8761 H 822.029 7.32987 2.65236 0
M  V30 8762 N 826.258 0.243083 1.55714 0
M  V30 8763 C 827.486 -0.386971 2.03249 0
M  V30 8764 C 827.901 -1.51812 1.12243 0
M  V30 8765 O 827.258 -1.81992 0.136119 0
M  V30 8766 C 827.309 -0.898361 3.5016 0
M  V30 8767 O 827.03 0.187708 4.37698 0
M  V30 8768 C 828.531 -1.59949 4.13438 0
M  V30 8769 H 825.751 -0.0923981 0.664608 0
M  V30 8770 H 828.295 0.365832 2.01201 0
M  V30 8771 H 826.45 -1.60136 3.52754 0
M  V30 8772 H 826.864 -0.200001 5.24119 0
M  V30 8773 H 828.338 -1.90907 5.17937 0
M  V30 8774 H 828.815 -2.52014 3.59702 0
M  V30 8775 H 829.421 -0.941163 4.14756 0
M  V30 8776 N 827.736 -1.57571 -0.0300757 0
M  V30 8777 C 828.668 -2.0329 -1.05857 0
M  V30 8778 C 829.681 -0.945543 -1.32527 0
M  V30 8779 O 830.87 -1.22287 -1.30032 0
M  V30 8780 C 827.97 -2.39234 -2.40042 0
M  V30 8781 C 827.143 -3.70337 -2.32743 0
M  V30 8782 C 826.202 -3.93482 -3.49369 0
M  V30 8783 O 825.228 -4.64551 -3.28909 0
M  V30 8784 N 826.43 -3.39042 -4.71201 0
M  V30 8785 H 829.195 -2.9214 -0.668897 0
M  V30 8786 H 826.756 -1.60425 -0.218038 0
M  V30 8787 H 828.748 -2.51856 -3.16782 0
M  V30 8788 H 827.318 -1.5606 -2.70858 0
M  V30 8789 H 826.538 -3.68079 -1.41109 0
M  V30 8790 H 827.826 -4.56343 -2.25007 0
M  V30 8791 H 827.224 -2.81434 -4.90725 0
M  V30 8792 H 825.781 -3.57045 -5.45309 0
M  V30 8793 N 829.214 0.302327 -1.54673 0
M  V30 8794 C 830.46 1.03924 -1.74149 0
M  V30 8795 C 830.793 1.86968 -0.525041 0
M  V30 8796 O 830.068 1.88538 0.477868 0
M  V30 8797 C 830.351 1.94633 -3.02969 0
M  V30 8798 C 830.204 1.14778 -4.34909 0
M  V30 8799 C 831.523 2.93826 -3.27649 0
M  V30 8800 H 828.642 0.376405 -0.633631 0
M  V30 8801 H 831.284 0.314007 -1.87387 0
M  V30 8802 H 829.434 2.56471 -2.91813 0
M  V30 8803 H 831.106 0.552363 -4.57981 0
M  V30 8804 H 829.349 0.450462 -4.31455 0
M  V30 8805 H 830.02 1.81495 -5.21309 0
M  V30 8806 H 832.496 2.42117 -3.38406 0
M  V30 8807 H 831.372 3.54462 -4.19104 0
M  V30 8808 H 831.633 3.67416 -2.45882 0
M  V30 8809 N 830.692 1.47107 0.565454 0
M  V30 8810 C 831.622 1.61846 1.68309 0
M  V30 8811 C 832.603 0.468159 1.63531 0
M  V30 8812 O 833.788 0.696504 1.8128 0
M  V30 8813 C 830.918 1.62474 3.06952 0
M  V30 8814 C 829.872 2.76649 3.26572 0
M  V30 8815 C 829.198 2.62345 4.65917 0
M  V30 8816 C 830.498 4.18319 3.12741 0
M  V30 8817 H 832.192 2.55407 1.5623 0
M  V30 8818 H 829.738 1.22916 0.750179 0
M  V30 8819 H 831.691 1.71378 3.84977 0
M  V30 8820 H 830.415 0.654692 3.19971 0
M  V30 8821 H 829.074 2.67242 2.50952 0
M  V30 8822 H 828.722 1.63386 4.75725 0
M  V30 8823 H 828.422 3.38936 4.79996 0
M  V30 8824 H 829.946 2.73165 5.46089 0
M  V30 8825 H 831.36 4.28745 3.80593 0
M  V30 8826 H 829.757 4.95632 3.38333 0
M  V30 8827 H 830.827 4.37263 2.09592 0
M  V30 8828 N 832.17 -0.811516 1.35101 0
M  V30 8829 C 833.102 -1.93102 1.23468 0
M  V30 8830 C 834.115 -1.62021 0.159095 0
M  V30 8831 O 835.304 -1.73682 0.411945 0
M  V30 8832 C 832.404 -3.27345 0.877404 0
M  V30 8833 C 831.577 -3.86368 2.05033 0
M  V30 8834 C 830.636 -4.99009 1.66963 0
M  V30 8835 O 829.662 -5.16698 2.38772 0
M  V30 8836 N 830.864 -5.7749 0.590394 0
M  V30 8837 H 833.629 -2.0361 2.19916 0
M  V30 8838 H 831.19 -0.988687 1.28205 0
M  V30 8839 H 833.182 -4.00163 0.604298 0
M  V30 8840 H 831.752 -3.126 0.00275267 0
M  V30 8841 H 830.972 -3.05804 2.48752 0
M  V30 8842 H 832.26 -4.22533 2.83449 0
M  V30 8843 H 831.658 -5.657 -0.00633259 0
M  V30 8844 H 830.215 -6.50708 0.377055 0
M  V30 8845 N 833.648 -1.19017 -1.03309 0
M  V30 8846 C 835.059 -0.993206 -1.5809 0
M  V30 8847 C 835.41 0.45505 -1.9085 0
M  V30 8848 O 834.535 1.33372 -1.70414 0
M  V30 8849 C 835.13 -1.79661 -2.87241 0
M  V30 8850 C 833.689 -1.64377 -3.38611 0
M  V30 8851 C 832.836 -1.78628 -2.12102 0
M  V30 8852 H 835.787 -1.3345 -0.858879 0
M  V30 8853 H 835.808 -1.29019 -3.57958 0
M  V30 8854 H 835.32 -2.85061 -2.63366 0
M  V30 8855 H 833.421 -0.615447 -3.67482 0
M  V30 8856 H 833.534 -2.44651 -4.11926 0
M  V30 8857 H 831.898 -1.21648 -2.23772 0
M  V30 8858 H 832.681 -2.8548 -1.90673 0
M  V30 8859 N 835.127 1.22348 -0.993418 0
M  V30 8860 C 836.037 2.27987 -0.553076 0
M  V30 8861 C 837.053 1.69378 0.398386 0
M  V30 8862 O 838.229 1.99648 0.26509 0
M  V30 8863 C 835.294 3.46475 0.124809 0
M  V30 8864 C 834.355 4.20399 -0.869682 0
M  V30 8865 C 833.588 5.33229 -0.224052 0
M  V30 8866 O 833.811 5.61885 0.981915 0
M  V30 8867 O 832.745 5.94685 -0.929174 0
M  V30 8868 H 836.571 2.67822 -1.43195 0
M  V30 8869 H 834.156 1.28525 -0.761694 0
M  V30 8870 H 836.038 4.18369 0.504496 0
M  V30 8871 H 834.713 3.08565 0.978243 0
M  V30 8872 H 833.62 3.50774 -1.30031 0
M  V30 8873 H 834.953 4.62191 -1.69233 0
M  V30 8874 N 836.605 0.766683 1.37694 0
M  V30 8875 C 837.515 0.150158 2.34119 0
M  V30 8876 C 838.531 -0.685513 1.59927 0
M  V30 8877 O 839.707 -0.606616 1.92047 0
M  V30 8878 C 836.772 -0.722562 3.39087 0
M  V30 8879 C 835.833 0.128983 4.29106 0
M  V30 8880 C 835.066 -0.702178 5.29061 0
M  V30 8881 O 835.289 -1.93954 5.36412 0
M  V30 8882 O 834.223 -0.114056 6.01792 0
M  V30 8883 H 838.049 0.946829 2.88563 0
M  V30 8884 H 835.634 0.527765 1.39768 0
M  V30 8885 H 837.516 -1.22095 4.03325 0
M  V30 8886 H 836.191 -1.49751 2.86978 0
M  V30 8887 H 835.098 0.673612 3.67985 0
M  V30 8888 H 836.431 0.866892 4.84506 0
M  V30 8889 N 838.083 -1.48885 0.516809 0
M  V30 8890 C 839.03 -2.29408 -0.253125 0
M  V30 8891 C 840 -1.36533 -0.945935 0
M  V30 8892 O 841.185 -1.65495 -0.949527 0
M  V30 8893 C 838.325 -3.19592 -1.30211 0
M  V30 8894 C 837.438 -4.27535 -0.61948 0
M  V30 8895 C 836.573 -5.04916 -1.65026 0
M  V30 8896 C 835.612 -6.04677 -0.950368 0
M  V30 8897 N 834.749 -6.75164 -1.92608 0
M  V30 8898 H 839.589 -2.94738 0.439744 0
M  V30 8899 H 837.126 -1.45311 0.2287 0
M  V30 8900 H 839.084 -3.70267 -1.92245 0
M  V30 8901 H 837.714 -2.56213 -1.96353 0
M  V30 8902 H 836.766 -3.80228 0.114505 0
M  V30 8903 H 838.078 -4.98752 -0.0693016 0
M  V30 8904 H 837.232 -5.59539 -2.34523 0
M  V30 8905 H 835.971 -4.33508 -2.23432 0
M  V30 8906 H 834.976 -5.4927 -0.241252 0
M  V30 8907 H 836.201 -6.78077 -0.372599 0
M  V30 8908 H 834.147 -6.06517 -2.49946 0
M  V30 8909 H 834.064 -7.4241 -1.42699 0
M  V30 8910 H 835.332 -7.34384 -2.61345 0
M  V30 8911 N 839.561 -0.251338 -1.55583 0
M  V30 8912 C 840.508 0.646337 -2.21565 0
M  V30 8913 C 841.478 1.16796 -1.18102 0
M  V30 8914 O 842.663 1.22162 -1.46564 0
M  V30 8915 C 839.803 1.83557 -2.92234 0
M  V30 8916 C 838.916 1.35006 -4.10363 0
M  V30 8917 C 838.051 2.4992 -4.68736 0
M  V30 8918 C 837.09 1.98253 -5.79105 0
M  V30 8919 N 836.227 3.06551 -6.31642 0
M  V30 8920 H 841.067 0.0769881 -2.97901 0
M  V30 8921 H 838.604 0.026238 -1.47077 0
M  V30 8922 H 840.562 2.53425 -3.31408 0
M  V30 8923 H 839.192 2.37733 -2.18364 0
M  V30 8924 H 838.244 0.545274 -3.76472 0
M  V30 8925 H 839.556 0.931435 -4.90026 0
M  V30 8926 H 838.71 3.27823 -5.10507 0
M  V30 8927 H 837.449 2.95086 -3.88298 0
M  V30 8928 H 836.454 1.18822 -5.36807 0
M  V30 8929 H 837.679 1.54051 -6.61396 0
M  V30 8930 H 835.625 3.51143 -5.54107 0
M  V30 8931 H 835.542 2.69033 -7.06511 0
M  V30 8932 H 836.81 3.84499 -6.78071 0
M  V30 8933 N 841.039 1.57585 0.0217189 0
M  V30 8934 C 842.267 1.93871 0.722619 0
M  V30 8935 C 842.682 0.851706 1.68498 0
M  V30 8936 O 842.039 -0.17127 1.81695 0
M  V30 8937 C 842.09 3.30114 1.47333 0
M  V30 8938 O 841.811 4.34639 0.549597 0
M  V30 8939 C 843.312 3.80727 2.27072 0
M  V30 8940 H 840.532 0.639671 0.202637 0
M  V30 8941 H 843.076 2.04487 -0.0229414 0
M  V30 8942 H 841.231 3.20872 2.17071 0
M  V30 8943 H 841.645 5.13326 1.07686 0
M  V30 8944 H 843.119 4.78547 2.75131 0
M  V30 8945 H 843.596 3.12301 3.08812 0
M  V30 8946 H 844.202 3.93075 1.62395 0
M  V30 8947 N 842.517 -0.29412 1.54831 0
M  V30 8948 C 843.763 -1.02999 1.74697 0
M  V30 8949 C 844.096 -1.86687 0.534949 0
M  V30 8950 O 843.371 -1.88789 -0.467863 0
M  V30 8951 C 843.654 -1.93024 3.03996 0
M  V30 8952 C 843.507 -1.1247 4.35512 0
M  V30 8953 C 844.826 -2.92085 3.29203 0
M  V30 8954 H 841.945 -0.373039 0.635618 0
M  V30 8955 H 844.587 -0.304065 1.87551 0
M  V30 8956 H 842.737 -2.5492 2.93169 0
M  V30 8957 H 844.409 -0.528067 4.58268 0
M  V30 8958 H 842.652 -0.427574 4.31688 0
M  V30 8959 H 843.323 -1.78728 5.22265 0
M  V30 8960 H 845.799 -2.40319 3.39685 0
M  V30 8961 H 844.675 -3.52234 4.20978 0
M  V30 8962 H 844.936 -3.66107 2.47827 0
M  V30 8963 N 843.995 -1.47404 -0.557645 0
M  V30 8964 C 844.958 -1.59411 -1.64684 0
M  V30 8965 C 845.958 -0.469244 -1.53801 0
M  V30 8966 O 847.148 -0.734298 -1.57967 0
M  V30 8967 C 844.28 -1.5382 -3.04224 0
M  V30 8968 H 845.473 -2.56504 -1.55389 0
M  V30 8969 H 843.026 -1.35588 -0.777531 0
M  V30 8970 H 843.761 -0.581 -3.19053 0
M  V30 8971 H 843.546 -2.35456 -3.13533 0
M  V30 8972 H 845.036 -1.65358 -3.83466 0
M  V30 8973 N 845.473 0.80434 -1.35529 0
M  V30 8974 C 846.703 1.59052 -1.31856 0
M  V30 8975 C 847.111 1.88905 0.105549 0
M  V30 8976 O 846.454 1.49422 1.06858 0
M  V30 8977 C 846.516 2.94626 -2.06 0
M  V30 8978 C 846.18 2.87576 -3.55175 0
M  V30 8979 C 847.177 2.60856 -4.49722 0
M  V30 8980 C 844.862 3.06623 -3.97854 0
M  V30 8981 C 846.856 2.53262 -5.84925 0
M  V30 8982 C 844.543 2.98652 -5.33151 0
M  V30 8983 C 845.541 2.72007 -6.26499 0
M  V30 8984 O 845.229 2.64003 -7.59314 0
M  V30 8985 H 844.961 0.500486 -0.454411 0
M  V30 8986 H 847.515 1.0074 -1.78999 0
M  V30 8987 H 845.745 3.5493 -1.53498 0
M  V30 8988 H 847.434 3.55785 -1.95376 0
M  V30 8989 H 848.2 2.45858 -4.18066 0
M  V30 8990 H 844.079 3.26372 -3.2558 0
M  V30 8991 H 847.623 2.32386 -6.57756 0
M  V30 8992 H 843.52 3.13208 -5.64421 0
M  V30 8993 H 844.288 2.79595 -7.69265 0
M  V30 8994 N 846.951 1.19563 1.02676 0
M  V30 8995 C 847.901 0.903055 2.09354 0
M  V30 8996 C 848.885 -0.133009 1.60349 0
M  V30 8997 O 850.077 0.0729744 1.7685 0
M  V30 8998 C 847.206 0.445852 3.40392 0
M  V30 8999 C 846.292 1.51477 3.96126 0
M  V30 9000 N 846.683 2.73474 4.25495 0
M  V30 9001 C 844.981 1.37856 4.2416 0
M  V30 9002 C 845.682 3.42348 4.7029 0
M  V30 9003 N 844.658 2.69746 4.71952 0
M  V30 9004 H 848.46 1.83023 2.29956 0
M  V30 9005 H 845.974 1.08812 1.20556 0
M  V30 9006 H 847.971 0.21769 4.16331 0
M  V30 9007 H 846.631 -0.47482 3.2121 0
M  V30 9008 H 847.642 3.10217 4.14711 0
M  V30 9009 H 844.319 0.521512 4.1423 0
M  V30 9010 H 845.709 4.46686 5.01917 0
M  V30 9011 N 848.429 -1.21819 0.999893 0
M  V30 9012 C 849.339 -2.27691 0.565159 0
M  V30 9013 C 850.355 -1.69587 -0.389398 0
M  V30 9014 O 851.531 -1.99786 -0.254499 0
M  V30 9015 C 848.596 -3.46537 -0.106432 0
M  V30 9016 C 847.657 -4.19932 0.891964 0
M  V30 9017 C 846.89 -5.33103 0.252327 0
M  V30 9018 O 847.113 -5.62398 -0.952103 0
M  V30 9019 O 846.047 -5.94184 0.960698 0
M  V30 9020 H 849.873 -2.67059 1.44613 0
M  V30 9021 H 847.458 -1.28119 0.768499 0
M  V30 9022 H 849.34 -4.18631 -0.482301 0
M  V30 9023 H 848.015 -3.09079 -0.961865 0
M  V30 9024 H 846.922 -3.5008 1.3189 0
M  V30 9025 H 848.255 -4.61287 1.71682 0
M  V30 9026 N 849.908 -0.773975 -1.37286 0
M  V30 9027 C 850.871 -0.167974 -2.28584 0
M  V30 9028 C 851.871 0.625662 -1.48129 0
M  V30 9029 O 853.061 0.448924 -1.68316 0
M  V30 9030 C 850.193 0.769364 -3.32105 0
M  V30 9031 H 851.386 -0.972806 -2.83684 0
M  V30 9032 H 848.939 -0.542335 -1.46589 0
M  V30 9033 H 849.674 1.59912 -2.82132 0
M  V30 9034 H 849.459 0.202419 -3.91577 0
M  V30 9035 H 850.949 1.18872 -4.00324 0
M  V30 9036 N 851.386 1.48609 -0.524698 0
M  V30 9037 C 852.634 2.02097 0.0112991 0
M  V30 9038 C 852.955 1.40455 1.35268 0
M  V30 9039 O 852.225 0.56807 1.87483 0
M  V30 9040 H 850.805 0.746966 0.00716426 0
M  V30 9041 H 853.467 1.82378 -0.687329 0
M  V30 9042 H 852.563 3.11855 0.123531 0
M  V30 9043 N 852.864 0.259585 1.55447 0
M  V30 9044 C 853.814 -0.648769 2.18575 0
M  V30 9045 C 854.798 -1.1299 1.14552 0
M  V30 9046 O 855.99 -1.07756 1.4042 0
M  V30 9047 C 853.119 -1.83963 2.89849 0
M  V30 9048 C 852.205 -1.37641 4.01143 0
M  V30 9049 N 852.596 -0.628269 5.01883 0
M  V30 9050 C 850.894 -1.66066 4.1393 0
M  V30 9051 C 851.595 -0.386746 5.80413 0
M  V30 9052 N 850.571 -0.954665 5.35151 0
M  V30 9053 H 854.373 -0.0691616 2.93819 0
M  V30 9054 H 851.887 0.0624525 1.6228 0
M  V30 9055 H 853.884 -2.50151 3.33512 0
M  V30 9056 H 852.544 -2.42334 2.16112 0
M  V30 9057 H 853.555 -0.277123 5.17158 0
M  V30 9058 H 850.232 -2.25484 3.51373 0
M  V30 9059 H 851.622 0.211382 6.71567 0
M  V30 9060 N 854.342 -1.57594 -0.0133615 0
M  V30 9061 C 855.305 -2.06534 -0.993799 0
M  V30 9062 C 856.305 -0.972267 -1.28077 0
M  V30 9063 O 857.495 -1.23537 -1.22818 0
M  V30 9064 C 854.627 -2.49554 -2.3224 0
M  V30 9065 H 855.82 -2.94419 -0.570741 0
M  V30 9066 H 853.373 -1.54113 -0.260546 0
M  V30 9067 H 854.108 -1.64872 -2.79263 0
M  V30 9068 H 853.893 -3.29371 -2.12737 0
M  V30 9069 H 855.383 -2.8779 -3.026 0
M  V30 9070 N 855.82 0.285905 -1.54985 0
M  V30 9071 C 857.066 1.02071 -1.75241 0
M  V30 9072 C 857.399 1.864 -0.544842 0
M  V30 9073 O 856.674 1.89034 0.457844 0
M  V30 9074 C 856.957 1.91409 -3.05016 0
M  V30 9075 C 856.81 1.10158 -4.36102 0
M  V30 9076 C 858.129 2.90335 -3.30747 0
M  V30 9077 H 855.248 0.369663 -0.637588 0
M  V30 9078 H 857.89 0.294114 -1.8771 0
M  V30 9079 H 856.04 2.53362 -2.94517 0
M  V30 9080 H 857.712 0.503756 -4.58541 0
M  V30 9081 H 855.955 0.404675 -4.31908 0
M  V30 9082 H 856.626 1.75956 -5.23205 0
M  V30 9083 H 859.102 2.38514 -3.40955 0
M  V30 9084 H 857.978 3.49997 -4.2284 0
M  V30 9085 H 858.239 3.64787 -2.49765 0
M  V30 9086 N 857.298 1.47698 0.54982 0
M  V30 9087 C 858.261 1.60282 1.63837 0
M  V30 9088 C 859.261 0.477394 1.5355 0
M  V30 9089 O 860.451 0.742665 1.57576 0
M  V30 9090 C 857.583 1.55431 3.03404 0
M  V30 9091 H 858.776 2.57325 1.54026 0
M  V30 9092 H 856.329 1.35999 0.770329 0
M  V30 9093 H 857.064 0.597912 3.1874 0
M  V30 9094 H 856.849 2.37116 3.12279 0
M  V30 9095 H 858.339 1.6739 3.82584 0
M  V30 9096 N 858.776 -0.797141 1.35954 0
M  V30 9097 C 860.024 -1.55161 1.29497 0
M  V30 9098 C 860.345 -1.94582 -0.127659 0
M  V30 9099 O 859.615 -1.64343 -1.06622 0
M  V30 9100 H 858.195 -0.575413 0.47635 0
M  V30 9101 H 860.857 -0.950282 1.70164 0
M  V30 9102 H 859.953 -2.46272 1.9172 0
M  V30 9103 N 860.254 -1.20106 -1.0204 0
M  V30 9104 C 861.5 -1.02042 -1.75951 0
M  V30 9105 C 861.855 0.443229 -1.87225 0
M  V30 9106 O 861.148 1.32477 -1.38421 0
M  V30 9107 C 861.342 -1.63308 -3.17908 0
M  V30 9108 C 861.171 -3.15478 -3.20474 0
M  V30 9109 C 859.941 -3.84432 -3.27933 0
M  V30 9110 C 862.139 -4.12747 -3.06829 0
M  V30 9111 N 860.121 -5.23925 -3.19963 0
M  V30 9112 C 861.492 -5.38892 -3.06586 0
M  V30 9113 C 863.547 -4.03996 -2.91018 0
M  V30 9114 C 862.25 -6.57296 -2.92154 0
M  V30 9115 C 864.276 -5.22019 -2.77938 0
M  V30 9116 C 863.638 -6.47067 -2.78358 0
M  V30 9117 H 859.737 -0.427602 -0.654737 0
M  V30 9118 H 862.321 -1.52216 -1.21402 0
M  V30 9119 H 860.492 -1.15723 -3.7076 0
M  V30 9120 H 862.224 -1.38597 -3.80227 0
M  V30 9121 H 858.979 -3.35269 -3.34502 0
M  V30 9122 H 859.403 -5.9694 -3.19362 0
M  V30 9123 H 864.045 -3.0813 -2.8951 0
M  V30 9124 H 861.763 -7.5334 -2.92412 0
M  V30 9125 H 865.349 -5.17057 -2.66728 0
M  V30 9126 H 864.229 -7.36857 -2.6835 0
M  V30 9127 N 861.732 1.21287 -1.00634 0
M  V30 9128 C 862.962 1.94103 -0.70765 0
M  V30 9129 C 863.37 1.74382 0.733991 0
M  V30 9130 O 862.713 1.04843 1.50843 0
M  V30 9131 C 862.775 3.46705 -0.950581 0
M  V30 9132 C 862.439 3.90176 -2.37932 0
M  V30 9133 C 863.436 3.96769 -3.35961 0
M  V30 9134 C 861.121 4.22453 -2.71733 0
M  V30 9135 C 863.115 4.35034 -4.65858 0
M  V30 9136 C 860.802 4.60394 -4.01846 0
M  V30 9137 C 861.8 4.66656 -4.9872 0
M  V30 9138 O 861.488 5.03732 -6.26505 0
M  V30 9139 H 861.22 0.62405 -0.259881 0
M  V30 9140 H 863.774 1.55015 -1.34757 0
M  V30 9141 H 862.004 3.85868 -0.253492 0
M  V30 9142 H 863.693 4.00741 -0.645069 0
M  V30 9143 H 864.459 3.72009 -3.11182 0
M  V30 9144 H 860.338 4.16776 -1.97025 0
M  V30 9145 H 863.882 4.39836 -5.4147 0
M  V30 9146 H 859.779 4.84609 -4.26409 0
M  V30 9147 H 860.547 5.21761 -6.30641 0
M  V30 9148 N 863.21 0.781244 1.36873 0
M  V30 9149 C 864.14 0.188128 2.32741 0
M  V30 9150 C 865.121 -0.672326 1.56249 0
M  V30 9151 O 866.306 -0.607835 1.84442 0
M  V30 9152 C 863.436 -0.684341 3.40491 0
M  V30 9153 C 862.39 0.0755641 4.27933 0
M  V30 9154 C 861.716 -0.916968 5.26779 0
M  V30 9155 C 863.016 1.26006 5.06873 0
M  V30 9156 H 864.71 0.989016 2.82593 0
M  V30 9157 H 862.256 0.477038 1.35869 0
M  V30 9158 H 864.209 -1.10915 4.06541 0
M  V30 9159 H 862.933 -1.51785 2.89187 0
M  V30 9160 H 861.592 0.481258 3.63427 0
M  V30 9161 H 861.24 -1.74528 4.71751 0
M  V30 9162 H 860.94 -0.413 5.86147 0
M  V30 9163 H 862.464 -1.34052 5.95703 0
M  V30 9164 H 863.878 0.911425 5.66009 0
M  V30 9165 H 862.275 1.69676 5.75613 0
M  V30 9166 H 863.345 2.05948 4.38991 0
M  V30 9167 N 864.689 -1.48329 0.532571 0
M  V30 9168 C 865.599 -2.33445 -0.232546 0
M  V30 9169 C 866.615 -1.46651 -0.93645 0
M  V30 9170 O 867.791 -1.79627 -0.910834 0
M  V30 9171 C 864.856 -3.22824 -1.26434 0
M  V30 9172 C 863.917 -4.25492 -0.570511 0
M  V30 9173 C 863.15 -5.10601 -1.55315 0
M  V30 9174 O 863.373 -4.97733 -2.78599 0
M  V30 9175 O 862.307 -5.91927 -1.09112 0
M  V30 9176 H 866.133 -3.00119 0.464988 0
M  V30 9177 H 863.718 -1.46489 0.293462 0
M  V30 9178 H 865.6 -3.78103 -1.86055 0
M  V30 9179 H 864.275 -2.58807 -1.94424 0
M  V30 9180 H 863.182 -3.74041 0.0662587 0
M  V30 9181 H 864.515 -4.92154 0.0674904 0
M  V30 9182 N 866.167 -0.267825 -1.55308 0
M  V30 9183 C 867.117 0.637168 -2.18916 0
M  V30 9184 C 868.101 1.12381 -1.15149 0
M  V30 9185 O 869.293 1.0701 -1.40989 0
M  V30 9186 C 866.422 1.82423 -2.90821 0
M  V30 9187 C 865.508 1.35512 -4.01867 0
M  V30 9188 N 865.899 0.601644 -5.02209 0
M  V30 9189 C 864.197 1.63868 -4.14805 0
M  V30 9190 C 864.898 0.35596 -5.8061 0
M  V30 9191 N 863.874 0.926271 -5.3565 0
M  V30 9192 H 867.676 0.0535787 -2.93851 0
M  V30 9193 H 865.19 -0.0710577 -1.62244 0
M  V30 9194 H 867.187 2.48379 -3.34834 0
M  V30 9195 H 865.847 2.41185 -2.17394 0
M  V30 9196 H 866.858 0.249693 -5.17298 0
M  V30 9197 H 863.535 2.23618 -3.52564 0
M  V30 9198 H 864.925 -0.246994 -6.71446 0
M  V30 9199 N 867.645 1.57599 0.00500368 0
M  V30 9200 C 868.608 2.07058 0.982832 0
M  V30 9201 C 869.608 0.979045 1.27559 0
M  V30 9202 O 870.798 1.24187 1.22161 0
M  V30 9203 C 867.93 2.50782 2.30914 0
M  V30 9204 H 869.123 2.94718 0.555119 0
M  V30 9205 H 866.676 1.54249 0.25237 0
M  V30 9206 H 867.411 1.66351 2.78385 0
M  V30 9207 H 867.196 3.30495 2.10987 0
M  V30 9208 H 868.686 2.89391 3.0107 0
M  V30 9209 N 869.123 -0.277682 1.55134 0
M  V30 9210 C 870.4 -1.0309 1.66228 0
M  V30 9211 C 870.78 -2.0445 0.525701 0
M  V30 9212 O 870.128 -2.23512 -0.474816 0
M  V30 9213 C 870.338 -1.6919 3.05247 0
M  V30 9214 C 871.686 -2.20526 3.62841 0
M  V30 9215 O 872.71 -1.79185 3.07849 0
M  V30 9216 O 871.569 -2.96342 4.59177 0
M  V30 9217 H 868.663 -0.4779 0.674937 0
M  V30 9218 H 871.209 -0.273912 1.67475 0
M  V30 9219 H 869.981 -0.957163 3.79413 0
M  V30 9220 H 869.604 -2.51587 3.07879 0
M  V30 9221 N 870.601 -1.47988 -0.541979 0
M  V30 9222 C 872.012 -1.49073 -1.12402 0
M  V30 9223 C 872.363 -0.253825 -1.94551 0
M  V30 9224 O 871.488 0.640056 -2.06718 0
M  V30 9225 C 872.083 -2.7011 -2.04514 0
M  V30 9226 C 870.642 -2.74105 -2.5796 0
M  V30 9227 C 869.789 -2.42409 -1.3466 0
M  V30 9228 H 872.74 -1.55277 -0.327818 0
M  V30 9229 H 872.761 -2.47946 -2.88623 0
M  V30 9230 H 872.273 -3.60117 -1.44697 0
M  V30 9231 H 870.374 -1.88276 -3.21532 0
M  V30 9232 H 870.487 -3.75213 -2.97913 0
M  V30 9233 H 868.851 -1.9331 -1.65841 0
M  V30 9234 H 869.634 -3.34642 -0.766133 0
M  V30 9235 N 872.079 0.78992 -1.36375 0
M  V30 9236 C 873.009 1.91683 -1.33341 0
M  V30 9237 C 873.99 1.68861 -0.204965 0
M  V30 9238 O 875.175 1.89982 -0.402531 0
M  V30 9239 C 872.305 3.28696 -1.12143 0
M  V30 9240 C 871.259 3.66041 -2.21806 0
M  V30 9241 C 870.585 5.01399 -1.85751 0
M  V30 9242 C 871.885 3.74677 -3.63888 0
M  V30 9243 H 873.579 1.94478 -2.27637 0
M  V30 9244 H 871.125 0.934271 -1.09578 0
M  V30 9245 H 873.078 4.07151 -1.08656 0
M  V30 9246 H 871.802 3.26287 -0.142974 0
M  V30 9247 H 870.461 2.89883 -2.24418 0
M  V30 9248 H 870.109 4.9551 -0.864817 0
M  V30 9249 H 869.809 5.27355 -2.59173 0
M  V30 9250 H 871.333 5.82274 -1.83819 0
M  V30 9251 H 872.747 4.43324 -3.63506 0
M  V30 9252 H 871.144 4.12118 -4.3621 0
M  V30 9253 H 872.214 2.75795 -3.9883 0
M  V30 9254 N 873.557 1.20646 1.01402 0
M  V30 9255 C 874.487 0.98155 2.11867 0
M  V30 9256 C 875.468 -0.0903712 1.6986 0
M  V30 9257 O 876.653 0.0676586 1.94082 0
M  V30 9258 C 873.783 0.535636 3.43145 0
M  V30 9259 C 872.737 1.55109 3.98905 0
M  V30 9260 C 872.063 0.961725 5.2598 0
M  V30 9261 C 873.363 2.93552 4.32001 0
M  V30 9262 H 875.057 1.90544 2.3094 0
M  V30 9263 H 872.603 0.917554 1.10982 0
M  V30 9264 H 874.556 0.365512 4.19812 0
M  V30 9265 H 873.28 -0.423882 3.23838 0
M  V30 9266 H 871.939 1.70862 3.24348 0
M  V30 9267 H 871.587 -0.00580108 5.03 0
M  V30 9268 H 871.287 1.63993 5.64252 0
M  V30 9269 H 872.811 0.802726 6.053 0
M  V30 9270 H 874.225 2.81295 4.99546 0
M  V30 9271 H 872.622 3.58303 4.81393 0
M  V30 9272 H 873.692 3.4508 3.40658 0
M  V30 9273 N 875.035 -1.20752 1.01276 0
M  V30 9274 C 875.982 -2.234 0.579732 0
M  V30 9275 C 876.952 -1.61256 -0.398206 0
M  V30 9276 O 878.137 -1.8845 -0.29851 0
M  V30 9277 C 875.277 -3.45008 -0.0797006 0
M  V30 9278 C 874.39 -4.21597 0.942343 0
M  V30 9279 C 873.525 -5.30591 0.254364 0
M  V30 9280 C 872.564 -5.98919 1.26343 0
M  V30 9281 N 871.701 -6.99511 0.602384 0
M  V30 9282 H 876.541 -2.59801 1.45971 0
M  V30 9283 H 874.078 -1.27663 0.730787 0
M  V30 9284 H 876.036 -4.1444 -0.479125 0
M  V30 9285 H 874.666 -3.09312 -0.923354 0
M  V30 9286 H 873.718 -3.51268 1.45996 0
M  V30 9287 H 875.03 -4.68576 1.70992 0
M  V30 9288 H 874.184 -6.06368 -0.200763 0
M  V30 9289 H 872.923 -4.84639 -0.545553 0
M  V30 9290 H 871.928 -5.21906 1.72898 0
M  V30 9291 H 873.153 -6.46957 2.06456 0
M  V30 9292 H 871.099 -6.55759 -0.177734 0
M  V30 9293 H 871.016 -7.44597 1.30809 0
M  V30 9294 H 872.284 -7.79313 0.17072 0
M  V30 9295 N 876.513 -0.788492 -1.36457 0
M  V30 9296 C 877.759 -0.360995 -1.99561 0
M  V30 9297 C 878.092 1.06433 -1.62437 0
M  V30 9298 O 877.367 1.7352 -0.878705 0
M  V30 9299 C 877.65 -0.523735 -3.56271 0
M  V30 9300 C 877.503 -1.99268 -4.03252 0
M  V30 9301 C 878.822 0.0617908 -4.40057 0
M  V30 9302 H 875.941 -0.13264 -0.724966 0
M  V30 9303 H 878.583 -0.994659 -1.61884 0
M  V30 9304 H 876.733 0.0156979 -3.88497 0
M  V30 9305 H 878.405 -2.59311 -3.81518 0
M  V30 9306 H 876.648 -2.49561 -3.54826 0
M  V30 9307 H 877.319 -2.05752 -5.12221 0
M  V30 9308 H 879.795 -0.398674 -4.14186 0
M  V30 9309 H 878.671 -0.0821089 -5.48839 0
M  V30 9310 H 878.932 1.15381 -4.26778 0
M  V30 9311 N 877.991 1.48044 -0.54043 0
M  V30 9312 C 879.216 2.07396 -0.0124765 0
M  V30 9313 C 879.641 1.39288 1.26414 0
M  V30 9314 O 878.999 0.462252 1.75308 0
M  V30 9315 C 879.047 3.60131 0.18377 0
M  V30 9316 O 878.151 3.92995 1.25014 0
M  V30 9317 H 877.492 0.662554 -0.0438026 0
M  V30 9318 H 880.022 1.90306 -0.751327 0
M  V30 9319 H 880.032 4.06003 0.403197 0
M  V30 9320 H 878.707 4.09105 -0.74874 0
M  V30 9321 H 877.284 3.5889 1.01254 0
M  V30 9322 N 879.47 0.276058 1.55163 0
M  V30 9323 C 880.719 -0.341098 1.98795 0
M  V30 9324 C 881.032 -1.56905 1.16791 0
M  V30 9325 O 882.238 -2.25922 1.50571 0
M  V30 9326 C 880.694 -0.658231 3.5383 0
M  V30 9327 C 880.302 0.549972 4.44611 0
M  V30 9328 C 882.046 -1.23796 4.06048 0
M  V30 9329 C 879.953 0.207373 5.91036 0
M  V30 9330 H 878.883 -0.131224 0.742493 0
M  V30 9331 H 881.534 0.380858 1.79504 0
M  V30 9332 H 879.916 -1.43911 3.68925 0
M  V30 9333 H 881.09 1.32681 4.41285 0
M  V30 9334 H 879.405 1.04661 4.03032 0
M  V30 9335 H 882.002 -1.50811 5.12991 0
M  V30 9336 H 882.345 -2.17214 3.55139 0
M  V30 9337 H 882.878 -0.519345 3.94395 0
M  V30 9338 H 879.617 1.10946 6.46043 0
M  V30 9339 H 879.137 -0.532687 5.9743 0
M  V30 9340 H 880.816 -0.200072 6.46691 0
M  V30 9341 N 880.948 -1.576 0.00335426 0
M  V30 9342 C 882.197 -1.89892 -0.680001 0
M  V30 9343 C 882.51 -0.878731 -1.7475 0
M  V30 9344 O 883.716 -1.09199 -2.48572 0
M  V30 9345 C 882.172 -3.37098 -1.26066 0
M  V30 9346 C 881.78 -4.4742 -0.227807 0
M  V30 9347 C 883.524 -3.78495 -1.92202 0
M  V30 9348 C 881.431 -5.85706 -0.81865 0
M  V30 9349 H 880.361 -0.708578 -0.257746 0
M  V30 9350 H 883.012 -1.83387 0.0644472 0
M  V30 9351 H 881.394 -3.38451 -2.05589 0
M  V30 9352 H 882.568 -4.57589 0.54307 0
M  V30 9353 H 880.883 -4.15064 0.333297 0
M  V30 9354 H 883.48 -4.7915 -2.37318 0
M  V30 9355 H 883.823 -3.12187 -2.75399 0
M  V30 9356 H 884.356 -3.79456 -1.19408 0
M  V30 9357 H 881.095 -6.55495 -0.0253787 0
M  V30 9358 H 880.615 -5.79196 -1.55861 0
M  V30 9359 H 882.294 -6.33469 -1.31627 0
M  V30 9360 N 882.426 0.269451 -1.5528 0
M  V30 9361 C 883.837 0.840233 -1.66724 0
M  V30 9362 C 884.188 1.86909 -0.596621 0
M  V30 9363 O 883.313 2.14817 0.261246 0
M  V30 9364 C 883.908 1.5308 -3.02245 0
M  V30 9365 C 882.467 2.04957 -3.15705 0
M  V30 9366 C 881.614 0.892838 -2.62533 0
M  V30 9367 H 884.565 0.0457236 -1.58634 0
M  V30 9368 H 884.586 2.39792 -2.95432 0
M  V30 9369 H 884.098 0.781741 -3.80145 0
M  V30 9370 H 882.199 2.82813 -2.42585 0
M  V30 9371 H 882.312 2.26244 -4.22316 0
M  V30 9372 H 880.676 1.28719 -2.19781 0
M  V30 9373 H 881.459 0.157229 -3.4294 0
M  V30 9374 N 883.904 1.48273 0.534124 0
M  V30 9375 C 885.32 1.34302 0.862272 0
M  V30 9376 C 885.52 0.350902 1.98421 0
M  V30 9377 O 884.576 -0.229364 2.51456 0
M  V30 9378 C 885.889 2.74227 1.23371 0
M  V30 9379 C 887.437 2.82684 1.34383 0
M  V30 9380 C 887.912 4.23301 1.74871 0
M  V30 9381 N 889.403 4.25954 1.81981 0
M  V30 9382 C 890.138 5.31693 2.14686 0
M  V30 9383 N 889.634 6.47714 2.45844 0
M  V30 9384 N 891.427 5.19084 2.15657 0
M  V30 9385 H 883.578 2.11397 -0.206215 0
M  V30 9386 H 885.841 0.947537 -0.0296116 0
M  V30 9387 H 885.547 3.48368 0.482967 0
M  V30 9388 H 885.421 3.07485 2.18478 0
M  V30 9389 H 887.808 2.08801 2.08534 0
M  V30 9390 H 887.889 2.5305 0.374063 0
M  V30 9391 H 887.533 4.97699 1.01282 0
M  V30 9392 H 887.463 4.50376 2.7289 0
M  V30 9393 H 889.954 3.42266 1.60196 0
M  V30 9394 H 890.267 7.2414 2.69892 0
M  V30 9395 H 888.612 6.50995 2.43372 0
M  V30 9396 H 891.803 4.27463 1.9077 0
M  V30 9397 H 891.976 6.01592 2.40813 0
M  V30 9398 N 885.382 -0.782676 1.36792 0
M  V30 9399 C 886.63 -1.53778 1.31136 0
M  V30 9400 C 886.951 -1.94706 -0.107014 0
M  V30 9401 O 886.221 -1.65465 -1.04872 0
M  V30 9402 H 884.801 -0.570328 0.482426 0
M  V30 9403 H 887.463 -0.932181 1.71162 0
M  V30 9404 H 886.559 -2.44224 1.94321 0
M  V30 9405 N 886.86 -1.21182 -1.00761 0
M  V30 9406 C 887.807 -0.968741 -2.09485 0
M  V30 9407 C 888.777 0.104325 -1.65772 0
M  V30 9408 O 889.962 -0.0422587 -1.90753 0
M  V30 9409 C 887.102 -0.536686 -3.40901 0
M  V30 9410 C 886.215 -1.6789 -3.98041 0
M  V30 9411 C 885.35 -1.19627 -5.17555 0
M  V30 9412 C 884.389 -2.31099 -5.66798 0
M  V30 9413 N 883.526 -1.83988 -6.77564 0
M  V30 9414 H 888.366 -1.89952 -2.29613 0
M  V30 9415 H 885.903 -0.946688 -1.12589 0
M  V30 9416 H 887.861 -0.26745 -4.16342 0
M  V30 9417 H 886.491 0.357092 -3.20819 0
M  V30 9418 H 885.543 -2.06284 -3.19611 0
M  V30 9419 H 886.855 -2.51794 -4.30582 0
M  V30 9420 H 886.009 -0.883539 -6.00232 0
M  V30 9421 H 884.748 -0.327244 -4.86601 0
M  V30 9422 H 883.753 -2.63178 -4.82719 0
M  V30 9423 H 884.978 -3.18493 -5.99782 0
M  V30 9424 H 882.924 -0.994257 -6.48422 0
M  V30 9425 H 882.841 -2.61466 -7.09346 0
M  V30 9426 H 884.109 -1.55741 -7.63783 0
M  V30 9427 N 888.338 1.20213 -1.01915 0
M  V30 9428 C 889.586 1.89272 -0.708552 0
M  V30 9429 C 889.907 1.79394 0.76438 0
M  V30 9430 O 889.177 1.198 1.54999 0
M  V30 9431 H 887.757 0.700628 -0.259094 0
M  V30 9432 H 890.419 1.45985 -1.29129 0
M  V30 9433 H 889.515 2.95841 -0.994215 0
M  V30 9434 N 889.816 0.795718 1.36037 0
M  V30 9435 C 890.746 0.212803 2.32528 0
M  V30 9436 C 891.727 -0.655716 1.56953 0
M  V30 9437 O 892.912 -0.588238 1.85077 0
M  V30 9438 C 890.042 -0.648189 3.41198 0
M  V30 9439 C 888.996 0.120948 4.27829 0
M  V30 9440 C 888.322 -0.861044 5.27722 0
M  V30 9441 C 889.622 1.31375 5.05508 0
M  V30 9442 H 891.316 1.01893 2.81528 0
M  V30 9443 H 888.862 0.491422 1.35355 0
M  V30 9444 H 890.815 -1.06597 4.07695 0
M  V30 9445 H 889.539 -1.48709 2.9078 0
M  V30 9446 H 888.198 0.519777 3.62897 0
M  V30 9447 H 887.846 -1.69515 4.73575 0
M  V30 9448 H 887.546 -0.350808 5.86552 0
M  V30 9449 H 889.07 -1.27726 5.97092 0
M  V30 9450 H 890.484 0.971406 5.6501 0
M  V30 9451 H 888.881 1.75772 5.73781 0
M  V30 9452 H 889.951 2.10593 4.36782 0
M  V30 9453 N 891.294 -1.47756 0.548274 0
M  V30 9454 C 892.542 -2.02089 0.0208542 0
M  V30 9455 C 892.863 -1.42589 -1.33017 0
M  V30 9456 O 892.133 -0.597825 -1.86555 0
M  V30 9457 H 890.713 -0.746985 0.00472023 0
M  V30 9458 H 893.375 -1.81262 0.716257 0
M  V30 9459 H 892.471 -3.12012 -0.0739016 0
M  V30 9460 N 892.772 -0.284283 -1.55015 0
M  V30 9461 C 894.002 0.332465 -2.03907 0
M  V30 9462 C 894.41 1.49331 -1.16177 0
M  V30 9463 O 893.753 1.82851 -0.176395 0
M  V30 9464 C 893.815 0.867193 -3.48884 0
M  V30 9465 C 893.479 -0.166198 -4.56698 0
M  V30 9466 C 894.476 -0.988898 -5.10408 0
M  V30 9467 C 892.161 -0.303081 -5.01385 0
M  V30 9468 C 894.155 -1.93458 -6.07333 0
M  V30 9469 C 891.842 -1.25223 -5.98133 0
M  V30 9470 C 892.84 -2.06647 -6.50988 0
M  V30 9471 O 892.528 -2.99955 -7.45843 0
M  V30 9472 H 892.26 0.0786597 -0.671408 0
M  V30 9473 H 894.814 -0.416871 -2.01125 0
M  V30 9474 H 893.044 1.66676 -3.48935 0
M  V30 9475 H 894.733 1.39802 -3.81065 0
M  V30 9476 H 895.499 -0.89393 -4.76691 0
M  V30 9477 H 891.378 0.320711 -4.59883 0
M  V30 9478 H 894.922 -2.57053 -6.48513 0
M  V30 9479 H 890.819 -1.34798 -6.31268 0
M  V30 9480 H 891.587 -2.94742 -7.6359 0
M  V30 9481 N 894.251 1.57596 -0.0117121 0
M  V30 9482 C 895.214 2.08089 0.960816 0
M  V30 9483 C 896.214 0.992519 1.26514 0
M  V30 9484 O 897.404 1.25475 1.20837 0
M  V30 9485 C 894.536 2.53217 2.28241 0
M  V30 9486 H 895.729 2.9529 0.523829 0
M  V30 9487 H 893.282 1.54508 0.235995 0
M  V30 9488 H 894.017 1.69294 2.76604 0
M  V30 9489 H 893.802 3.32714 2.0747 0
M  V30 9490 H 895.292 2.92568 2.97983 0
M  V30 9491 N 895.729 -0.261212 1.5542 0
M  V30 9492 C 896.661 -1.34571 1.85535 0
M  V30 9493 C 897.674 -1.44979 0.740612 0
M  V30 9494 O 898.863 -1.46584 1.01859 0
M  V30 9495 C 895.963 -2.7258 2.01378 0
M  V30 9496 C 895.136 -2.84618 3.32131 0
M  V30 9497 C 894.195 -4.03379 3.37893 0
M  V30 9498 O 893.221 -3.93581 4.11197 0
M  V30 9499 N 894.423 -5.15893 2.66148 0
M  V30 9500 H 897.188 -1.09078 2.79145 0
M  V30 9501 H 894.749 -0.451327 1.55482 0
M  V30 9502 H 896.741 -3.50342 2.0259 0
M  V30 9503 H 895.311 -2.90844 1.14579 0
M  V30 9504 H 894.531 -1.93647 3.43358 0
M  V30 9505 H 895.819 -2.896 4.18341 0
M  V30 9506 H 895.217 -5.26743 2.06297 0
M  V30 9507 H 893.774 -5.91842 2.73069 0
M  V30 9508 N 897.207 -1.48554 -0.526253 0
M  V30 9509 C 898.437 -1.60197 -1.30463 0
M  V30 9510 C 898.845 -0.26278 -1.87366 0
M  V30 9511 O 898.188 0.758537 -1.67308 0
M  V30 9512 C 898.25 -2.59223 -2.49085 0
M  V30 9513 C 897.914 -4.04199 -2.13241 0
M  V30 9514 C 898.911 -4.91771 -1.68694 0
M  V30 9515 C 896.596 -4.49762 -2.2365 0
M  V30 9516 C 898.59 -6.22934 -1.35026 0
M  V30 9517 C 896.277 -5.80945 -1.89594 0
M  V30 9518 C 897.275 -6.67354 -1.45353 0
M  V30 9519 O 896.963 -7.96096 -1.11745 0
M  V30 9520 H 896.695 -0.54284 -0.402866 0
M  V30 9521 H 899.249 -1.95137 -0.641157 0
M  V30 9522 H 897.479 -2.19412 -3.18426 0
M  V30 9523 H 899.168 -2.60661 -3.11144 0
M  V30 9524 H 899.934 -4.57806 -1.6012 0
M  V30 9525 H 895.813 -3.8269 -2.5704 0
M  V30 9526 H 899.357 -6.90334 -1.00422 0
M  V30 9527 H 895.254 -6.14444 -1.9781 0
M  V30 9528 H 896.022 -8.08882 -1.25111 0
M  V30 9529 N 898.685 0.775411 -1.37205 0
M  V30 9530 C 899.615 1.90258 -1.35367 0
M  V30 9531 C 900.596 1.68634 -0.222864 0
M  V30 9532 O 901.781 1.89545 -0.422659 0
M  V30 9533 C 898.911 3.27488 -1.15623 0
M  V30 9534 C 897.865 3.63668 -2.25676 0
M  V30 9535 C 897.191 4.994 -1.91059 0
M  V30 9536 C 898.491 3.70797 -3.67841 0
M  V30 9537 H 900.185 1.92053 -2.29687 0
M  V30 9538 H 897.731 0.922597 -1.10563 0
M  V30 9539 H 899.684 4.05976 -1.12968 0
M  V30 9540 H 898.408 3.26117 -0.177573 0
M  V30 9541 H 897.067 2.87486 -2.2748 0
M  V30 9542 H 896.715 4.94565 -0.917324 0
M  V30 9543 H 896.415 5.24576 -2.64751 0
M  V30 9544 H 897.939 5.80291 -1.89985 0
M  V30 9545 H 899.353 4.39444 -3.68187 0
M  V30 9546 H 897.75 4.07468 -4.40556 0
M  V30 9547 H 898.82 2.71549 -4.01732 0
M  V30 9548 N 900.163 1.21714 1.00117 0
M  V30 9549 C 901.574 1.03477 1.55401 0
M  V30 9550 C 901.925 -0.40429 1.91989 0
M  V30 9551 O 901.05 -1.28807 1.7389 0
M  V30 9552 C 901.645 1.87213 2.82377 0
M  V30 9553 C 900.204 1.73297 3.34133 0
M  V30 9554 C 899.351 1.84189 2.07291 0
M  V30 9555 H 902.302 1.3568 0.823195 0
M  V30 9556 H 902.323 1.38465 3.54412 0
M  V30 9557 H 901.835 2.91944 2.55715 0
M  V30 9558 H 899.936 0.712662 3.65721 0
M  V30 9559 H 900.049 2.55486 4.05294 0
M  V30 9560 H 898.413 1.27538 2.20468 0
M  V30 9561 H 899.196 2.90435 1.83037 0
M  V30 9562 N 901.641 -1.19671 1.02551 0
M  V30 9563 C 902.588 -2.22773 0.603394 0
M  V30 9564 C 903.558 -1.61669 -0.381081 0
M  V30 9565 O 904.743 -1.88756 -0.278505 0
M  V30 9566 C 901.883 -3.45073 -0.0431034 0
M  V30 9567 C 900.996 -4.20574 0.987006 0
M  V30 9568 C 900.131 -5.30291 0.310626 0
M  V30 9569 C 899.17 -5.97545 1.32688 0
M  V30 9570 N 898.307 -6.98833 0.676542 0
M  V30 9571 H 903.147 -2.58238 1.48719 0
M  V30 9572 H 900.684 -1.26881 0.744286 0
M  V30 9573 H 902.642 -4.14925 -0.435141 0
M  V30 9574 H 901.272 -3.10274 -0.890495 0
M  V30 9575 H 900.324 -3.497 1.49713 0
M  V30 9576 H 901.636 -4.66736 1.75952 0
M  V30 9577 H 900.79 -6.06547 -0.136438 0
M  V30 9578 H 899.529 -4.8519 -0.49412 0
M  V30 9579 H 898.534 -5.20043 1.78424 0
M  V30 9580 H 899.759 -6.4473 2.13306 0
M  V30 9581 H 897.705 -6.55911 -0.108172 0
M  V30 9582 H 897.622 -7.43168 1.38699 0
M  V30 9583 H 898.89 -7.79088 0.253367 0
M  V30 9584 N 903.119 -0.802921 -1.35613 0
M  V30 9585 C 904.029 -0.212177 -2.33639 0
M  V30 9586 C 905.045 0.642871 -1.61689 0
M  V30 9587 O 906.221 0.555485 -1.93588 0
M  V30 9588 C 903.286 0.632406 -3.40883 0
M  V30 9589 C 902.347 -0.242708 -4.28613 0
M  V30 9590 C 901.58 0.56166 -5.30736 0
M  V30 9591 O 901.803 1.79664 -5.41366 0
M  V30 9592 O 900.737 -0.0455387 -6.01883 0
M  V30 9593 H 904.563 -1.023 -2.85952 0
M  V30 9594 H 902.148 -0.564636 -1.38319 0
M  V30 9595 H 904.03 1.11358 -4.0642 0
M  V30 9596 H 902.705 1.42089 -2.90848 0
M  V30 9597 H 901.612 -0.77094 -3.6607 0
M  V30 9598 H 902.945 -0.995046 -4.82037 0
M  V30 9599 N 904.597 1.47463 -0.556102 0
M  V30 9600 C 905.529 2.28046 0.22968 0
M  V30 9601 C 906.542 1.3694 0.880409 0
M  V30 9602 O 907.731 1.61773 0.754447 0
M  V30 9603 C 904.831 3.11165 1.34273 0
M  V30 9604 C 904.004 4.30225 0.789004 0
M  V30 9605 C 903.063 4.94948 1.78641 0
M  V30 9606 O 902.089 5.53372 1.33297 0
M  V30 9607 N 903.291 4.89543 3.11974 0
M  V30 9608 H 906.056 2.96125 -0.461558 0
M  V30 9609 H 903.617 1.5708 -0.392105 0
M  V30 9610 H 905.609 3.51331 2.00869 0
M  V30 9611 H 904.179 2.45337 1.93722 0
M  V30 9612 H 903.399 3.94163 -0.0536971 0
M  V30 9613 H 904.687 5.07238 0.398378 0
M  V30 9614 H 904.085 4.43275 3.51459 0
M  V30 9615 H 902.642 5.33732 3.74131 0
M  V30 9616 N 906.075 0.2925 1.54862 0
M  V30 9617 C 907.305 -0.321646 2.04081 0
M  V30 9618 C 907.713 -1.48712 1.16967 0
M  V30 9619 O 907.056 -1.82755 0.18609 0
M  V30 9620 C 907.118 -0.848678 3.49339 0
M  V30 9621 C 906.782 0.190416 4.56603 0
M  V30 9622 C 907.779 1.01595 5.09877 0
M  V30 9623 C 905.464 0.329666 5.01217 0
M  V30 9624 C 907.458 1.96676 6.06298 0
M  V30 9625 C 905.145 1.28393 5.9746 0
M  V30 9626 C 906.143 2.10097 6.49883 0
M  V30 9627 O 905.831 3.03907 7.44242 0
M  V30 9628 H 905.563 -0.075098 0.671816 0
M  V30 9629 H 908.117 0.427531 2.00901 0
M  V30 9630 H 906.347 -1.64823 3.49815 0
M  V30 9631 H 908.036 -1.37779 3.81801 0
M  V30 9632 H 908.802 0.919197 4.7621 0
M  V30 9633 H 904.681 -0.296317 4.60047 0
M  V30 9634 H 908.225 2.60488 6.47141 0
M  V30 9635 H 904.122 1.38144 6.30545 0
M  V30 9636 H 904.89 2.98787 7.62016 0
M  V30 9637 N 907.553 -1.57587 0.0200696 0
M  V30 9638 C 908.483 -2.12702 -0.963333 0
M  V30 9639 C 909.464 -1.04094 -1.34531 0
M  V30 9640 O 910.649 -1.31881 -1.42552 0
M  V30 9641 C 907.779 -2.64673 -2.24868 0
M  V30 9642 C 906.733 -3.77987 -2.00772 0
M  V30 9643 C 906.059 -4.16351 -3.35494 0
M  V30 9644 C 907.359 -5.0444 -1.35416 0
M  V30 9645 H 909.053 -2.95121 -0.504363 0
M  V30 9646 H 906.599 -1.41966 -0.24116 0
M  V30 9647 H 908.552 -3.01862 -2.94036 0
M  V30 9648 H 907.276 -1.79403 -2.72914 0
M  V30 9649 H 905.935 -3.41223 -1.34025 0
M  V30 9650 H 905.583 -3.28075 -3.81282 0
M  V30 9651 H 905.283 -4.92705 -3.20181 0
M  V30 9652 H 906.807 -4.56115 -4.05945 0
M  V30 9653 H 908.221 -5.39273 -1.94571 0
M  V30 9654 H 906.618 -5.85732 -1.30529 0
M  V30 9655 H 907.688 -4.83803 -0.325923 0
M  V30 9656 N 909.032 0.252966 -1.55557 0
M  V30 9657 C 910.262 0.998115 -1.8089 0
M  V30 9658 C 910.67 1.79679 -0.592623 0
M  V30 9659 O 910.013 1.78151 0.448093 0
M  V30 9660 C 910.075 1.98878 -2.99479 0
M  V30 9661 C 909.739 1.37761 -4.35742 0
M  V30 9662 C 910.736 0.783142 -5.13968 0
M  V30 9663 C 908.421 1.39879 -4.8243 0
M  V30 9664 C 910.415 0.218004 -6.37027 0
M  V30 9665 C 908.102 0.829801 -6.0544 0
M  V30 9666 C 909.1 0.240426 -6.82577 0
M  V30 9667 O 908.788 -0.319797 -8.03264 0
M  V30 9668 H 908.52 0.29963 -0.605969 0
M  V30 9669 H 911.074 0.282978 -2.03441 0
M  V30 9670 H 909.304 2.74206 -2.72669 0
M  V30 9671 H 910.993 2.59686 -3.11959 0
M  V30 9672 H 911.759 0.759326 -4.79019 0
M  V30 9673 H 907.638 1.84692 -4.22386 0
M  V30 9674 H 911.182 -0.242654 -6.97178 0
M  V30 9675 H 907.079 0.850924 -6.39867 0
M  V30 9676 H 907.847 -0.211078 -8.18228 0
M  V30 9677 N 910.51 1.48831 0.518367 0
M  V30 9678 C 911.738 1.6112 1.298 0
M  V30 9679 C 912.153 0.275872 1.86774 0
M  V30 9680 O 911.51 -0.736416 1.66983 0
M  V30 9681 C 911.561 2.66675 2.44063 0
M  V30 9682 O 911.282 3.95027 1.89434 0
M  V30 9683 C 912.783 2.8951 3.35706 0
M  V30 9684 H 910.003 0.542916 0.394314 0
M  V30 9685 H 912.547 1.94743 0.624142 0
M  V30 9686 H 910.702 2.35879 3.07311 0
M  V30 9687 H 911.116 4.53031 2.64316 0
M  V30 9688 H 912.59 3.67142 4.12202 0
M  V30 9689 H 913.067 1.98768 3.91648 0
M  V30 9690 H 913.673 3.21656 2.7824 0
M  V30 9691 N 911.988 -0.768124 1.37614 0
M  V30 9692 C 912.935 -1.88151 1.33671 0
M  V30 9693 C 913.905 -1.64871 0.201645 0
M  V30 9694 O 915.09 -1.86739 0.391582 0
M  V30 9695 C 912.23 -3.25264 1.15314 0
M  V30 9696 C 911.343 -3.60473 2.38082 0
M  V30 9697 C 910.478 -4.86814 2.12569 0
M  V30 9698 C 909.517 -5.14765 3.31184 0
M  V30 9699 N 908.654 -6.32295 3.052 0
M  V30 9700 H 913.494 -1.90857 2.28862 0
M  V30 9701 H 911.031 -0.933048 1.13722 0
M  V30 9702 H 912.989 -4.04364 1.02691 0
M  V30 9703 H 911.619 -3.21924 0.237689 0
M  V30 9704 H 910.671 -2.7633 2.61431 0
M  V30 9705 H 911.983 -3.77065 3.26532 0
M  V30 9706 H 911.137 -5.73826 1.96999 0
M  V30 9707 H 909.876 -4.72333 1.21462 0
M  V30 9708 H 908.881 -4.26227 3.4729 0
M  V30 9709 H 910.106 -5.31153 4.23147 0
M  V30 9710 H 908.052 -6.19166 2.16726 0
M  V30 9711 H 907.969 -6.4932 3.87195 0
M  V30 9712 H 909.237 -7.22234 2.93254 0
M  V30 9713 N 913.466 -1.22244 -0.994698 0
M  V30 9714 C 914.376 -1.00722 -2.11878 0
M  V30 9715 C 915.392 0.043919 -1.73945 0
M  V30 9716 O 916.568 -0.148411 -2.00852 0
M  V30 9717 C 913.633 -0.585723 -3.41717 0
M  V30 9718 C 912.694 -1.71027 -3.93762 0
M  V30 9719 C 911.927 -1.30879 -5.17403 0
M  V30 9720 O 912.15 -0.18681 -5.70094 0
M  V30 9721 O 911.084 -2.1246 -5.63156 0
M  V30 9722 H 914.91 -1.94894 -2.32916 0
M  V30 9723 H 912.495 -1.00822 -1.10251 0
M  V30 9724 H 914.377 -0.360935 -4.19851 0
M  V30 9725 H 913.052 0.327166 -3.22042 0
M  V30 9726 H 911.959 -1.98956 -3.16808 0
M  V30 9727 H 913.292 -2.60096 -4.17865 0
M  V30 9728 N 914.944 1.19125 -1.03184 0
M  V30 9729 C 915.876 2.21914 -0.573294 0
M  V30 9730 C 916.889 1.5894 0.352397 0
M  V30 9731 O 918.078 1.77883 0.148318 0
M  V30 9732 C 915.178 3.38403 0.18355 0
M  V30 9733 C 914.351 4.3096 -0.747817 0
M  V30 9734 C 913.41 5.26188 -0.0358489 0
M  V30 9735 O 912.436 5.65321 -0.663388 0
M  V30 9736 N 913.638 5.67235 1.23387 0
M  V30 9737 H 916.403 2.61881 -1.45734 0
M  V30 9738 H 913.964 1.33821 -0.911231 0
M  V30 9739 H 915.956 3.99124 0.669468 0
M  V30 9740 H 914.526 2.97201 0.969043 0
M  V30 9741 H 913.746 3.67976 -1.41377 0
M  V30 9742 H 915.034 4.89708 -1.38071 0
M  V30 9743 H 914.432 5.37481 1.76439 0
M  V30 9744 H 912.989 6.30196 1.66423 0
M  V30 9745 N 916.422 0.810101 1.35185 0
M  V30 9746 C 917.352 0.237453 2.32289 0
M  V30 9747 C 918.333 -0.639032 1.5764 0
M  V30 9748 O 919.518 -0.568575 1.8569 0
M  V30 9749 C 916.648 -0.611964 3.41866 0
M  V30 9750 C 915.602 0.166318 4.27677 0
M  V30 9751 C 914.928 -0.805024 5.28605 0
M  V30 9752 C 916.228 1.36729 5.04086 0
M  V30 9753 H 917.922 1.04874 2.80432 0
M  V30 9754 H 915.468 0.505751 1.34826 0
M  V30 9755 H 917.421 -1.02267 4.08802 0
M  V30 9756 H 916.145 -1.45617 2.92341 0
M  V30 9757 H 914.804 0.558238 3.62325 0
M  V30 9758 H 914.452 -1.64483 4.75347 0
M  V30 9759 H 914.152 -0.288577 5.86891 0
M  V30 9760 H 915.676 -1.21386 5.98413 0
M  V30 9761 H 917.09 1.03128 5.63948 0
M  V30 9762 H 915.487 1.81848 5.71884 0
M  V30 9763 H 916.557 2.15214 4.34524 0
M  V30 9764 N 917.9 -1.47166 0.563914 0
M  V30 9765 C 918.83 -2.32894 -0.168148 0
M  V30 9766 C 919.811 -1.44202 -0.902214 0
M  V30 9767 O 920.996 -1.73048 -0.881365 0
M  V30 9768 C 918.126 -3.26116 -1.19439 0
M  V30 9769 C 917.08 -4.24101 -0.576363 0
M  V30 9770 C 916.406 -5.06696 -1.70772 0
M  V30 9771 C 917.706 -5.20142 0.47425 0
M  V30 9772 H 919.4 -2.9435 0.547573 0
M  V30 9773 H 916.946 -1.41545 0.264778 0
M  V30 9774 H 918.899 -3.84935 -1.71474 0
M  V30 9775 H 917.623 -2.62728 -1.94014 0
M  V30 9776 H 916.282 -3.66519 -0.0772534 0
M  V30 9777 H 915.93 -4.39707 -2.44268 0
M  V30 9778 H 915.63 -5.7304 -1.29994 0
M  V30 9779 H 917.154 -5.68375 -2.2312 0
M  V30 9780 H 918.568 -5.73286 0.0397035 0
M  V30 9781 H 916.965 -5.94726 0.801287 0
M  V30 9782 H 918.035 -4.65214 1.36764 0
M  V30 9783 N 919.378 -0.300708 -1.54705 0
M  V30 9784 C 920.655 0.361757 -1.92226 0
M  V30 9785 C 921.035 1.71714 -1.2279 0
M  V30 9786 O 920.383 2.2559 -0.363542 0
M  V30 9787 C 920.593 0.476699 -3.45729 0
M  V30 9788 C 921.941 0.7477 -4.17965 0
M  V30 9789 O 922.965 0.560521 -3.51762 0
M  V30 9790 O 921.824 1.10724 -5.35166 0
M  V30 9791 H 918.918 0.202213 -0.801897 0
M  V30 9792 H 921.464 -0.348746 -1.66078 0
M  V30 9793 H 920.236 -0.476132 -3.88392 0
M  V30 9794 H 919.859 1.23568 -3.77911 0
M  V30 9795 N 920.856 1.57574 -0.0284266 0
M  V30 9796 C 922.272 1.56194 0.327958 0
M  V30 9797 C 922.472 1.03397 1.72949 0
M  V30 9798 O 921.528 0.680392 2.4316 0
M  V30 9799 C 922.841 3.00177 0.177196 0
M  V30 9800 C 924.389 3.12 0.250014 0
M  V30 9801 C 924.864 4.57821 0.128049 0
M  V30 9802 N 926.355 4.6283 0.185054 0
M  V30 9803 C 927.09 5.73286 0.114454 0
M  V30 9804 N 926.586 6.928 -0.00719225 0
M  V30 9805 N 928.379 5.61848 0.16839 0
M  V30 9806 H 920.53 1.90224 -0.944921 0
M  V30 9807 H 922.793 0.874987 -0.364832 0
M  V30 9808 H 922.499 3.42753 -0.788224 0
M  V30 9809 H 922.373 3.65101 0.94768 0
M  V30 9810 H 924.76 2.69337 1.20589 0
M  V30 9811 H 924.841 2.49799 -0.550835 0
M  V30 9812 H 924.485 5.01165 -0.824407 0
M  V30 9813 H 924.415 5.18001 0.947753 0
M  V30 9814 H 926.906 3.76867 0.279247 0
M  V30 9815 H 927.219 7.72781 -0.0543903 0
M  V30 9816 H 925.564 6.94987 -0.0419648 0
M  V30 9817 H 928.755 4.67367 0.261821 0
M  V30 9818 H 928.928 6.47907 0.109908 0
M  V30 9819 N 922.334 -0.244713 1.55689 0
M  V30 9820 C 923.267 -1.32946 1.85474 0
M  V30 9821 C 924.245 -1.46279 0.710021 0
M  V30 9822 O 925.429 -1.62459 0.956004 0
M  V30 9823 C 922.556 -2.7027 2.04137 0
M  V30 9824 C 921.602 -2.74075 3.2678 0
M  V30 9825 S 922.435 -2.30465 4.8337 0
M  V30 9826 C 923.591 -3.69709 5.05041 0
M  V30 9827 H 923.824 -1.07482 2.77191 0
M  V30 9828 H 921.357 -0.445807 1.47824 0
M  V30 9829 H 923.315 -3.4934 2.15574 0
M  V30 9830 H 921.976 -2.9297 1.13259 0
M  V30 9831 H 921.169 -3.74932 3.36812 0
M  V30 9832 H 920.771 -2.03051 3.1408 0
M  V30 9833 H 923.063 -4.65222 4.92518 0
M  V30 9834 H 924.006 -3.6461 6.07014 0
M  V30 9835 H 924.414 -3.62323 4.32877 0
M  V30 9836 N 923.813 -1.49104 -0.510467 0
M  V30 9837 C 925.053 -1.59723 -1.27545 0
M  V30 9838 C 925.417 -0.273525 -1.90042 0
M  V30 9839 O 926.618 -0.254835 -2.67589 0
M  V30 9840 C 924.889 -2.71771 -2.3211 0
M  V30 9841 S 926.448 -3.02282 -3.18074 0
M  V30 9842 H 923.266 -0.563489 -0.433591 0
M  V30 9843 H 925.868 -1.86719 -0.579328 0
M  V30 9844 H 924.572 -3.66483 -1.84711 0
M  V30 9845 H 924.103 -2.46739 -3.06404 0
M  V30 9846 H 926.118 -2.43076 -4.32583 0
M  V30 9847 N 925.291 0.760815 -1.38019 0
M  V30 9848 C 926.224 1.88212 -1.2904 0
M  V30 9849 C 927.202 1.61721 -0.168805 0
M  V30 9850 O 928.386 1.85318 -0.344893 0
M  V30 9851 C 925.513 3.23672 -0.997702 0
M  V30 9852 C 924.559 3.6906 -2.13769 0
M  V30 9853 S 925.392 3.81445 -3.75845 0
M  V30 9854 C 926.548 5.19736 -3.48748 0
M  V30 9855 H 926.781 1.95541 -2.23944 0
M  V30 9856 H 924.314 0.923051 -1.2377 0
M  V30 9857 H 926.272 4.01904 -0.835657 0
M  V30 9858 H 924.933 3.14031 -0.065967 0
M  V30 9859 H 924.126 4.67295 -1.88816 0
M  V30 9860 H 923.728 2.97961 -2.26043 0
M  V30 9861 H 926.02 6.05259 -3.04414 0
M  V30 9862 H 926.963 5.49706 -4.46351 0
M  V30 9863 H 927.371 4.88191 -2.83425 0
M  V30 9864 N 926.769 1.22769 0.988202 0
M  V30 9865 C 927.997 1.08155 1.76381 0
M  V30 9866 C 928.412 -0.367573 1.85187 0
M  V30 9867 O 927.769 -1.25455 1.32541 0
M  V30 9868 C 927.82 1.69193 3.19462 0
M  V30 9869 O 927.541 3.08437 3.11125 0
M  V30 9870 C 929.042 1.59915 4.13451 0
M  V30 9871 H 926.262 0.378908 0.553778 0
M  V30 9872 H 928.806 1.6246 1.24206 0
M  V30 9873 H 926.961 1.18939 3.6869 0
M  V30 9874 H 927.375 3.37916 4.0114 0
M  V30 9875 H 928.849 2.07339 5.1158 0
M  V30 9876 H 929.326 0.556546 4.3566 0
M  V30 9877 H 929.932 2.09497 3.70123 0
M  V30 9878 N 928.247 -1.18576 1.03814 0
M  V30 9879 C 929.177 -2.24334 0.647795 0
M  V30 9880 C 930.158 -1.66508 -0.34774 0
M  V30 9881 O 931.343 -1.92852 -0.228401 0
M  V30 9882 C 928.473 -3.47299 0.00734922 0
M  V30 9883 C 927.427 -4.17859 0.926152 0
M  V30 9884 C 926.753 -5.34489 0.150317 0
M  V30 9885 C 928.053 -4.71632 2.24411 0
M  V30 9886 H 929.747 -2.57241 1.53191 0
M  V30 9887 H 927.293 -1.23649 0.738028 0
M  V30 9888 H 929.246 -4.20486 -0.277434 0
M  V30 9889 H 927.97 -3.13619 -0.911626 0
M  V30 9890 H 926.629 -3.46567 1.19528 0
M  V30 9891 H 926.277 -4.97056 -0.770985 0
M  V30 9892 H 925.977 -5.82633 0.762407 0
M  V30 9893 H 927.501 -6.10467 -0.127508 0
M  V30 9894 H 928.915 -5.36526 2.02021 0
M  V30 9895 H 927.312 -5.303 2.80894 0
M  V30 9896 H 928.382 -3.89192 2.89236 0
M  V30 9897 N 929.725 -0.817259 -1.34754 0
M  V30 9898 C 930.973 -0.401852 -1.98065 0
M  V30 9899 C 931.294 1.03718 -1.65129 0
M  V30 9900 O 930.564 1.71921 -0.939141 0
M  V30 9901 H 929.144 -0.145603 -0.732672 0
M  V30 9902 H 931.806 -1.04545 -1.64488 0
M  V30 9903 H 930.902 -0.516241 -3.07801 0
M  V30 9904 N 931.203 1.46865 -0.571711 0
M  V30 9905 C 932.451 2.0203 -0.0530022 0
M  V30 9906 C 932.772 1.44687 1.30731 0
M  V30 9907 O 932.042 0.627429 1.85581 0
M  V30 9908 H 930.622 0.746815 -0.0166035 0
M  V30 9909 H 933.284 1.80099 -0.745003 0
M  V30 9910 H 932.38 3.12091 0.0242538 0
M  V30 9911 N 932.681 0.308908 1.54543 0
M  V30 9912 C 934.097 -0.0442273 1.59539 0
M  V30 9913 C 934.297 -1.51743 1.32575 0
M  V30 9914 O 933.353 -2.27134 1.10302 0
M  V30 9915 C 934.666 0.360826 2.98527 0
M  V30 9916 C 936.214 0.310252 3.11459 0
M  V30 9917 C 936.689 0.690246 4.52769 0
M  V30 9918 N 938.18 0.643084 4.58714 0
M  V30 9919 C 938.915 0.909483 5.66141 0
M  V30 9920 N 938.411 1.24226 6.81572 0
M  V30 9921 N 940.204 0.836018 5.55848 0
M  V30 9922 H 932.355 1.26893 1.70329 0
M  V30 9923 H 934.618 0.514986 0.795923 0
M  V30 9924 H 934.324 1.38669 3.23209 0
M  V30 9925 H 934.198 -0.281563 3.76148 0
M  V30 9926 H 936.585 -0.706375 2.86521 0
M  V30 9927 H 936.666 0.987373 2.35976 0
M  V30 9928 H 936.31 1.70472 4.78437 0
M  V30 9929 H 936.24 -0.00903075 5.26599 0
M  V30 9930 H 938.731 0.397138 3.75807 0
M  V30 9931 H 939.044 1.4313 7.5943 0
M  V30 9932 H 937.389 1.28038 6.83104 0
M  V30 9933 H 940.58 0.575637 4.64547 0
M  V30 9934 H 940.753 1.047 6.39486 0
M  V30 9935 N 934.159 -1.57557 0.0367827 0
M  V30 9936 C 935.405 -1.92399 -0.641133 0
M  V30 9937 C 935.738 -0.914191 -1.71336 0
M  V30 9938 O 935.013 0.0619616 -1.94401 0
M  V30 9939 C 935.296 -3.37689 -1.25052 0
M  V30 9940 C 935.149 -4.4941 -0.187326 0
M  V30 9941 C 936.468 -3.8309 -2.16634 0
M  V30 9942 H 933.587 -0.699666 -0.231597 0
M  V30 9943 H 936.229 -1.89759 0.0956083 0
M  V30 9944 H 934.379 -3.40069 -1.87843 0
M  V30 9945 H 936.051 -4.59161 0.443736 0
M  V30 9946 H 934.294 -4.31065 0.486313 0
M  V30 9947 H 934.965 -5.48119 -0.653459 0
M  V30 9948 H 937.441 -3.82494 -1.63821 0
M  V30 9949 H 936.317 -4.85429 -2.56222 0
M  V30 9950 H 936.578 -3.19028 -3.06062 0
M  V30 9951 N 935.637 0.236453 -1.55816 0
M  V30 9952 C 936.862 0.98449 -1.82545 0
M  V30 9953 C 937.287 1.77755 -0.615206 0
M  V30 9954 O 936.645 1.75982 0.435895 0
M  V30 9955 C 936.693 1.88973 -3.07118 0
M  V30 9956 O 935.797 2.98298 -2.84766 0
M  V30 9957 H 935.138 0.279577 -0.602273 0
M  V30 9958 H 937.668 0.254277 -2.03014 0
M  V30 9959 H 937.678 2.3024 -3.36829 0
M  V30 9960 H 936.353 1.30671 -3.94839 0
M  V30 9961 H 934.93 2.61085 -2.6625 0
M  V30 9962 N 937.115 1.49373 0.502552 0
M  V30 9963 C 938.025 1.68659 1.63068 0
M  V30 9964 C 939.041 0.569182 1.64427 0
M  V30 9965 O 940.217 0.843695 1.82876 0
M  V30 9966 C 937.282 1.74745 2.99441 0
M  V30 9967 C 936.343 2.98311 3.08721 0
M  V30 9968 C 935.576 3.04097 4.38589 0
M  V30 9969 O 935.799 2.17519 5.27297 0
M  V30 9970 O 934.733 3.96544 4.52809 0
M  V30 9971 H 938.559 2.64226 1.49727 0
M  V30 9972 H 936.144 1.33096 0.67867 0
M  V30 9973 H 938.026 1.8111 3.80496 0
M  V30 9974 H 936.701 0.823565 3.13048 0
M  V30 9975 H 935.608 2.97465 2.2686 0
M  V30 9976 H 936.941 3.90174 3.00041 0
M  V30 9977 N 938.594 -0.753485 1.38421 0
M  V30 9978 C 939.504 -1.89797 1.37892 0
M  V30 9979 C 940.52 -1.71797 0.276023 0
M  V30 9980 O 941.696 -1.94718 0.514464 0
M  V30 9981 C 938.761 -3.25166 1.20284 0
M  V30 9982 C 937.822 -3.55691 2.4038 0
M  V30 9983 C 937.055 -4.84601 2.23602 0
M  V30 9984 O 937.278 -5.56985 1.22979 0
M  V30 9985 O 936.212 -5.14605 3.12194 0
M  V30 9986 H 940.038 -1.93197 2.34326 0
M  V30 9987 H 937.623 -0.898775 1.19342 0
M  V30 9988 H 939.505 -4.06099 1.12525 0
M  V30 9989 H 938.18 -3.22577 0.269352 0
M  V30 9990 H 937.087 -2.74919 2.53714 0
M  V30 9991 H 938.42 -3.6304 3.32359 0
M  V30 9992 N 940.072 -1.23292 -0.981677 0
M  V30 9993 C 941.321 -1.05832 -1.71705 0
M  V30 9994 C 941.634 0.40514 -1.91358 0
M  V30 9995 O 942.84 0.699645 -2.6233 0
M  V30 9996 C 941.296 -1.84532 -3.08992 0
M  V30 9997 C 940.904 -3.35199 -2.9723 0
M  V30 9998 C 942.648 -1.75557 -3.86497 0
M  V30 9999 C 940.555 -4.06296 -4.29741 0
M  V30 10000 H 939.485 -0.39241 -0.64384 0
M  V30 10001 H 942.136 -1.47247 -1.09502 0
M  V30 10002 H 940.518 -1.35923 -3.71942 0
M  V30 10003 H 941.692 -3.91286 -2.43377 0
M  V30 10004 H 940.007 -3.44973 -2.332 0
M  V30 10005 H 942.604 -2.25989 -4.84596 0
M  V30 10006 H 942.947 -0.718101 -4.1006 0
M  V30 10007 H 943.48 -2.21771 -3.30246 0
M  V30 10008 H 940.219 -5.10344 -4.11375 0
M  V30 10009 H 939.739 -3.54997 -4.83464 0
M  V30 10010 H 941.418 -4.12519 -4.98434 0
M  V30 10011 N 941.55 1.18024 -1.04442 0
M  V30 10012 C 942.797 1.88098 -0.750022 0
M  V30 10013 C 943.125 1.80583 0.722489 0
M  V30 10014 O 942.38 1.20329 1.54335 0
M  V30 10015 C 942.679 3.37834 -1.16631 0
M  V30 10016 C 942.345 3.65553 -2.63974 0
M  V30 10017 C 941.007 3.72827 -3.04226 0
M  V30 10018 C 943.359 3.77634 -3.59224 0
M  V30 10019 C 940.687 3.89666 -4.38608 0
M  V30 10020 C 943.039 3.9599 -4.9333 0
M  V30 10021 C 941.703 4.01501 -5.33248 0
M  V30 10022 H 940.973 0.6883 -0.274452 0
M  V30 10023 H 943.62 1.39671 -1.31012 0
M  V30 10024 H 941.925 3.88266 -0.525071 0
M  V30 10025 H 943.622 3.90402 -0.915827 0
M  V30 10026 H 940.212 3.6051 -2.31798 0
M  V30 10027 H 944.396 3.71342 -3.2927 0
M  V30 10028 H 939.652 3.92178 -4.69048 0
M  V30 10029 H 943.826 4.0428 -5.67037 0
M  V30 10030 H 941.453 4.14301 -6.37384 0
M  V30 10031 N 943.028 0.824394 1.34319 0
M  V30 10032 C 944.275 0.413167 1.9824 0
M  V30 10033 C 944.603 -1.02412 1.65354 0
M  V30 10034 O 943.858 -1.72831 0.91803 0
M  V30 10035 C 944.157 0.564024 3.52921 0
M  V30 10036 C 943.823 1.96725 4.05722 0
M  V30 10037 C 942.485 2.35111 4.19853 0
M  V30 10038 C 944.837 2.88447 4.34106 0
M  V30 10039 C 942.165 3.64551 4.59695 0
M  V30 10040 C 944.517 4.17353 4.75394 0
M  V30 10041 C 943.181 4.55714 4.8773 0
M  V30 10042 H 942.451 0.151188 0.725412 0
M  V30 10043 H 945.098 1.04863 1.60238 0
M  V30 10044 H 943.403 -0.154816 3.91494 0
M  V30 10045 H 945.1 0.226347 4.00361 0
M  V30 10046 H 941.69 1.65908 3.95187 0
M  V30 10047 H 945.874 2.60034 4.22725 0
M  V30 10048 H 941.13 3.94097 4.67437 0
M  V30 10049 H 945.304 4.88512 4.96315 0
M  V30 10050 H 942.931 5.56064 5.1836 0
M  V30 10051 N 944.506 -1.46559 0.579492 0
M  V30 10052 C 945.754 -2.02 0.0637157 0
M  V30 10053 C 946.075 -1.45378 -1.29962 0
M  V30 10054 O 945.345 -0.637262 -1.85245 0
M  V30 10055 H 943.925 -0.746717 0.0205638 0
M  V30 10056 H 946.587 -1.79702 0.754544 0
M  V30 10057 H 945.683 -3.12099 -0.00770254 0
M  V30 10058 N 945.984 -0.3171 -1.54377 0
M  V30 10059 C 947.4 0.035766 -1.5956 0
M  V30 10060 C 947.6 1.51038 -1.33378 0
M  V30 10061 O 946.656 2.26546 -1.11505 0
M  V30 10062 C 947.969 -0.376652 -2.98332 0
M  V30 10063 C 949.517 -0.326765 -3.1129 0
M  V30 10064 C 949.992 -0.714247 -4.52396 0
M  V30 10065 N 951.483 -0.667402 -4.58367 0
M  V30 10066 C 952.218 -0.939494 -5.65651 0
M  V30 10067 N 951.714 -1.27839 -6.80903 0
M  V30 10068 N 953.507 -0.865484 -5.55397 0
M  V30 10069 H 945.658 -1.27794 -1.69654 0
M  V30 10070 H 947.921 -0.5192 -0.79318 0
M  V30 10071 H 947.627 -1.40381 -3.22469 0
M  V30 10072 H 947.501 0.261611 -3.76292 0
M  V30 10073 H 949.888 0.69117 -2.86892 0
M  V30 10074 H 949.969 -0.999873 -2.35449 0
M  V30 10075 H 949.613 -1.73007 -4.77526 0
M  V30 10076 H 949.543 -0.0188962 -5.26597 0
M  V30 10077 H 952.034 -0.417062 -3.75592 0
M  V30 10078 H 952.347 -1.47155 -7.5866 0
M  V30 10079 H 950.692 -1.31658 -6.82416 0
M  V30 10080 H 953.883 -0.600265 -4.64235 0
M  V30 10081 H 954.056 -1.0809 -6.38921 0
M  V30 10082 N 947.462 1.57535 -0.0451378 0
M  V30 10083 C 948.711 1.91628 0.629415 0
M  V30 10084 C 949.024 0.924754 1.72359 0
M  V30 10085 O 950.23 1.15751 2.45589 0
M  V30 10086 C 948.686 3.40322 1.17084 0
M  V30 10087 C 948.294 4.47867 0.109101 0
M  V30 10088 C 950.038 3.83458 1.82099 0
M  V30 10089 C 947.945 5.87671 0.663072 0
M  V30 10090 H 946.875 0.715163 0.238868 0
M  V30 10091 H 949.526 1.83151 -0.113046 0
M  V30 10092 H 947.908 3.43783 1.96543 0
M  V30 10093 H 949.082 4.55988 -0.664201 0
M  V30 10094 H 947.397 4.14034 -0.443227 0
M  V30 10095 H 949.994 4.85273 2.2453 0
M  V30 10096 H 950.337 3.19379 2.67026 0
M  V30 10097 H 950.87 3.82488 1.09305 0
M  V30 10098 H 947.609 6.55332 -0.148423 0
M  V30 10099 H 947.129 5.83124 1.4045 0
M  V30 10100 H 948.808 6.36737 1.14785 0
M  V30 10101 N 948.94 -0.228186 1.55939 0
M  V30 10102 C 950.168 -0.970618 1.8272 0
M  V30 10103 C 950.583 -1.78212 0.623385 0
M  V30 10104 O 949.94 -1.77879 -0.408063 0
M  V30 10105 C 949.991 -1.89352 3.07942 0
M  V30 10106 O 949.712 -1.11483 4.23678 0
M  V30 10107 C 951.213 -2.75039 3.47661 0
M  V30 10108 H 948.433 -0.284772 0.607574 0
M  V30 10109 H 950.977 -0.245419 2.03022 0
M  V30 10110 H 949.132 -2.57275 2.89635 0
M  V30 10111 H 949.546 -1.74073 4.94772 0
M  V30 10112 H 951.02 -3.35511 4.38334 0
M  V30 10113 H 951.497 -3.471 2.69106 0
M  V30 10114 H 952.103 -2.1254 3.68384 0
M  V30 10115 N 950.418 -1.49637 -0.494624 0
M  V30 10116 C 951.646 -1.63164 -1.2722 0
M  V30 10117 C 952.061 -0.305552 -1.86311 0
M  V30 10118 O 951.418 0.709758 -1.68133 0
M  V30 10119 C 951.469 -2.70524 -2.39789 0
M  V30 10120 O 951.19 -3.97991 -1.83126 0
M  V30 10121 C 952.691 -2.94814 -3.31058 0
M  V30 10122 H 949.911 -0.54912 -0.385627 0
M  V30 10123 H 952.455 -1.95711 -0.593081 0
M  V30 10124 H 950.61 -2.40738 -3.03519 0
M  V30 10125 H 951.024 -4.57179 -2.57075 0
M  V30 10126 H 952.498 -3.73653 -4.06309 0
M  V30 10127 H 952.975 -2.04974 -3.88436 0
M  V30 10128 H 953.581 -3.26042 -2.73088 0
M  V30 10129 N 951.896 0.746133 -1.38819 0
M  V30 10130 C 953.144 1.50247 -1.35167 0
M  V30 10131 C 953.465 1.94921 0.0553531 0
M  V30 10132 O 952.735 1.68187 1.00449 0
M  V30 10133 H 951.315 0.557337 -0.497377 0
M  V30 10134 H 953.977 0.886472 -1.73573 0
M  V30 10135 H 953.073 2.38986 -2.00728 0
M  V30 10136 N 953.375 1.23811 0.975125 0
M  V30 10137 C 954.338 1.02505 2.05001 0
M  V30 10138 C 955.338 -0.0150084 1.60793 0
M  V30 10139 O 956.528 0.225246 1.72738 0
M  V30 10140 C 953.66 0.552087 3.364 0
M  V30 10141 H 954.853 1.979 2.25335 0
M  V30 10142 H 952.406 1.05929 1.1493 0
M  V30 10143 H 953.141 -0.405394 3.21756 0
M  V30 10144 H 952.926 1.30267 3.69828 0
M  V30 10145 H 954.416 0.423828 4.15444 0
M  V30 10146 N 954.853 -1.17469 1.05066 0
M  V30 10147 C 955.785 -2.20974 0.608526 0
M  V30 10148 C 956.798 -1.59481 -0.327066 0
M  V30 10149 O 957.987 -1.78096 -0.12 0
M  V30 10150 C 955.087 -3.38652 -0.12969 0
M  V30 10151 C 954.26 -4.29716 0.816285 0
M  V30 10152 C 953.319 -5.26064 0.119556 0
M  V30 10153 O 952.345 -5.64194 0.753241 0
M  V30 10154 N 953.547 -5.69126 -1.14347 0
M  V30 10155 H 956.312 -2.59529 1.49882 0
M  V30 10156 H 953.873 -1.32355 0.932406 0
M  V30 10157 H 955.865 -4.00139 -0.605886 0
M  V30 10158 H 954.435 -2.98705 -0.921638 0
M  V30 10159 H 953.655 -3.6568 1.47213 0
M  V30 10160 H 954.943 -4.87449 1.45845 0
M  V30 10161 H 954.341 -5.4022 -1.67866 0
M  V30 10162 H 952.898 -6.32764 -1.56376 0
M  V30 10163 N 956.331 -0.831506 -1.3388 0
M  V30 10164 C 957.608 -0.345907 -1.92517 0
M  V30 10165 C 957.988 1.16784 -1.75854 0
M  V30 10166 O 957.336 1.97889 -1.14245 0
M  V30 10167 C 957.546 -0.784692 -3.40064 0
M  V30 10168 C 958.894 -0.78846 -4.17215 0
M  V30 10169 O 959.918 -0.727823 -3.48685 0
M  V30 10170 O 958.777 -0.869481 -5.39539 0
M  V30 10171 H 955.871 -0.0963568 -0.821367 0
M  V30 10172 H 958.417 -0.916868 -1.42799 0
M  V30 10173 H 957.189 -1.82697 -3.46031 0
M  V30 10174 H 956.812 -0.189897 -3.97146 0
M  V30 10175 N 957.809 1.4625 -0.587256 0
M  V30 10176 C 959.086 1.95599 -0.00750181 0
M  V30 10177 C 959.466 1.52989 1.45457 0
M  V30 10178 O 958.814 0.782731 2.14676 0
M  V30 10179 C 959.024 3.48513 -0.184309 0
M  V30 10180 C 960.372 4.24565 -0.0544972 0
M  V30 10181 O 961.396 3.5602 -0.113378 0
M  V30 10182 O 960.255 5.46445 0.0774075 0
M  V30 10183 H 957.349 0.825649 0.0472495 0
M  V30 10184 H 959.895 1.56512 -0.655893 0
M  V30 10185 H 958.667 3.72428 -1.20053 0
M  V30 10186 H 958.29 3.9444 0.500301 0
M  V30 10187 N 959.287 0.325282 1.54207 0
M  V30 10188 C 960.217 -0.532574 2.27345 0
M  V30 10189 C 961.198 -1.11791 1.28206 0
M  V30 10190 O 962.383 -1.14272 1.57021 0
M  V30 10191 C 959.513 -1.69274 3.03255 0
M  V30 10192 C 958.467 -1.23662 4.09746 0
M  V30 10193 C 957.793 -2.48386 4.73506 0
M  V30 10194 C 959.093 -0.350244 5.21124 0
M  V30 10195 H 960.787 0.0775108 2.993 0
M  V30 10196 H 958.333 0.0387193 1.43948 0
M  V30 10197 H 960.286 -2.29917 3.53152 0
M  V30 10198 H 959.01 -2.32944 2.28921 0
M  V30 10199 H 957.669 -0.653106 3.60735 0
M  V30 10200 H 957.317 -3.10424 3.95786 0
M  V30 10201 H 957.017 -2.18558 5.45441 0
M  V30 10202 H 958.541 -3.09789 5.26178 0
M  V30 10203 H 959.955 -0.863011 5.66767 0
M  V30 10204 H 958.352 -0.14466 5.99926 0
M  V30 10205 H 959.422 0.618457 4.8094 0
M  V30 10206 N 960.765 -1.57509 0.0534917 0
M  V30 10207 C 962.181 -1.56696 -0.303067 0
M  V30 10208 C 962.381 -1.06135 -1.71282 0
M  V30 10209 O 961.437 -0.71899 -2.42047 0
M  V30 10210 C 962.75 -3.00421 -0.129418 0
M  V30 10211 C 964.298 -3.12358 -0.200346 0
M  V30 10212 C 964.773 -4.57967 -0.0551971 0
M  V30 10213 N 966.264 -4.63066 -0.111398 0
M  V30 10214 C 966.999 -5.73395 -0.0232344 0
M  V30 10215 N 966.495 -6.92701 0.11741 0
M  V30 10216 N 968.288 -5.62045 -0.078984 0
M  V30 10217 H 960.439 -1.88696 0.975064 0
M  V30 10218 H 962.702 -0.869072 0.378706 0
M  V30 10219 H 962.408 -3.41456 0.842653 0
M  V30 10220 H 962.282 -3.66563 -0.889476 0
M  V30 10221 H 964.669 -2.71221 -1.16289 0
M  V30 10222 H 964.75 -2.48891 0.590506 0
M  V30 10223 H 964.394 -4.9979 0.904034 0
M  V30 10224 H 964.324 -5.19443 -0.865223 0
M  V30 10225 H 966.815 -3.77263 -0.219256 0
M  V30 10226 H 967.128 -7.72597 0.177326 0
M  V30 10227 H 965.473 -6.94833 0.152526 0
M  V30 10228 H 968.664 -4.67725 -0.187434 0
M  V30 10229 H 968.837 -6.48 -0.00681731 0
M  V30 10230 N 962.243 0.219913 -1.56058 0
M  V30 10231 C 963.19 1.27254 -1.92549 0
M  V30 10232 C 964.16 1.46493 -0.782883 0
M  V30 10233 O 965.345 1.60035 -1.03892 0
M  V30 10234 C 962.485 2.61756 -2.24896 0
M  V30 10235 C 961.598 2.50302 -3.52098 0
M  V30 10236 C 960.733 3.77338 -3.73884 0
M  V30 10237 C 959.772 3.60613 -4.94595 0
M  V30 10238 N 958.909 4.79603 -5.12763 0
M  V30 10239 H 963.749 0.954352 -2.82305 0
M  V30 10240 H 961.286 0.459928 -1.39725 0
M  V30 10241 H 963.244 3.40082 -2.4166 0
M  V30 10242 H 961.874 2.91668 -1.38311 0
M  V30 10243 H 960.926 1.63401 -3.43517 0
M  V30 10244 H 962.238 2.33866 -4.40577 0
M  V30 10245 H 961.392 4.64108 -3.90754 0
M  V30 10246 H 960.131 3.96702 -2.83689 0
M  V30 10247 H 959.136 2.72228 -4.77674 0
M  V30 10248 H 960.361 3.42719 -5.86277 0
M  V30 10249 H 958.307 4.99277 -4.2551 0
M  V30 10250 H 958.224 4.65899 -5.95377 0
M  V30 10251 H 959.492 5.67794 -5.34069 0
M  V30 10252 N 963.721 1.49897 0.486681 0
M  V30 10253 C 964.967 1.60342 1.2417 0
M  V30 10254 C 965.3 0.295694 1.91936 0
M  V30 10255 O 964.575 -0.701788 1.81398 0
M  V30 10256 C 964.858 2.77281 2.29755 0
M  V30 10257 C 964.711 4.1789 1.66397 0
M  V30 10258 C 966.03 2.89817 3.31201 0
M  V30 10259 H 963.149 0.583605 0.450083 0
M  V30 10260 H 965.791 1.82232 0.537734 0
M  V30 10261 H 963.941 2.58748 2.89796 0
M  V30 10262 H 965.613 4.47975 1.10073 0
M  V30 10263 H 963.856 4.22872 0.967579 0
M  V30 10264 H 964.527 4.95612 2.43049 0
M  V30 10265 H 967.003 3.06732 2.81167 0
M  V30 10266 H 965.879 3.7329 4.02425 0
M  V30 10267 H 966.14 1.9977 3.94391 0
M  V30 10268 N 965.199 -0.738761 1.39212 0
M  V30 10269 C 966.427 -1.52801 1.39497 0
M  V30 10270 C 966.842 -1.88797 -0.0114917 0
M  V30 10271 O 966.199 -1.53835 -0.981887 0
M  V30 10272 C 966.25 -2.81793 2.2644 0
M  V30 10273 O 965.971 -2.47328 3.61608 0
M  V30 10274 C 967.472 -3.75844 2.35067 0
M  V30 10275 H 964.692 -0.472322 0.476606 0
M  V30 10276 H 967.236 -0.913153 1.8298 0
M  V30 10277 H 965.391 -3.3962 1.8638 0
M  V30 10278 H 965.805 -3.30162 4.07545 0
M  V30 10279 H 967.279 -4.6326 3.00157 0
M  V30 10280 H 967.756 -4.17329 1.3687 0
M  V30 10281 H 968.362 -3.23937 2.75581 0
M  V30 10282 N 966.677 -1.24326 -0.968545 0
M  V30 10283 C 967.609 -0.992749 -2.06584 0
M  V30 10284 C 968.622 0.0374902 -1.62757 0
M  V30 10285 O 969.811 -0.199448 -1.77382 0
M  V30 10286 C 966.911 -0.476165 -3.35538 0
M  V30 10287 C 966.084 -1.56934 -4.08277 0
M  V30 10288 C 965.143 -1.05555 -5.15504 0
M  V30 10289 O 964.169 -1.74707 -5.41725 0
M  V30 10290 N 965.371 0.110465 -5.80395 0
M  V30 10291 H 968.136 -1.93752 -2.28649 0
M  V30 10292 H 965.697 -1.15344 -1.13611 0
M  V30 10293 H 967.689 -0.117223 -4.0453 0
M  V30 10294 H 966.259 0.374315 -3.10351 0
M  V30 10295 H 965.479 -2.10051 -3.33575 0
M  V30 10296 H 966.767 -2.30415 -4.53637 0
M  V30 10297 H 966.165 0.688614 -5.61493 0
M  V30 10298 H 964.722 0.41056 -6.50506 0
M  V30 10299 N 968.156 1.1691 -1.05688 0
M  V30 10300 C 969.381 1.91745 -0.790478 0
M  V30 10301 C 969.806 1.76568 0.648478 0
M  V30 10302 O 969.164 1.08682 1.45114 0
M  V30 10303 C 969.212 3.4067 -1.18222 0
M  V30 10304 O 968.316 4.11177 -0.317341 0
M  V30 10305 H 967.657 0.5976 -0.28943 0
M  V30 10306 H 970.187 1.48157 -1.41105 0
M  V30 10307 H 970.197 3.91424 -1.15114 0
M  V30 10308 H 968.872 3.51036 -2.2304 0
M  V30 10309 H 967.449 3.70645 -0.409459 0
M  V30 10310 N 969.634 0.838594 1.33437 0
M  V30 10311 C 970.597 0.276843 2.27522 0
M  V30 10312 C 971.597 -0.554275 1.50945 0
M  V30 10313 O 972.787 -0.368107 1.70266 0
M  V30 10314 C 969.919 -0.610036 3.35397 0
M  V30 10315 H 971.112 1.10705 2.78719 0
M  V30 10316 H 968.665 0.611657 1.43835 0
M  V30 10317 H 969.4 -1.46269 2.89441 0
M  V30 10318 H 969.185 -0.0153615 3.92097 0
M  V30 10319 H 970.675 -0.996368 4.05539 0
M  V30 10320 N 971.112 -1.45937 0.595003 0
M  V30 10321 C 972.342 -2.06399 0.0911607 0
M  V30 10322 C 972.75 -1.44236 -1.22444 0
M  V30 10323 O 972.093 -0.546265 -1.7539 0
M  V30 10324 C 972.155 -3.59242 -0.136079 0
M  V30 10325 C 971.819 -4.43668 1.09579 0
M  V30 10326 C 972.816 -4.79437 2.01088 0
M  V30 10327 C 970.501 -4.84616 1.32109 0
M  V30 10328 C 972.495 -5.54995 3.13464 0
M  V30 10329 C 970.182 -5.5993 2.44788 0
M  V30 10330 C 971.18 -5.95035 3.35294 0
M  V30 10331 O 970.868 -6.68825 4.46014 0
M  V30 10332 H 970.6 -0.673316 0.0601779 0
M  V30 10333 H 973.154 -1.88365 0.819005 0
M  V30 10334 H 971.384 -3.75629 -0.918676 0
M  V30 10335 H 973.073 -4.0159 -0.589954 0
M  V30 10336 H 973.839 -4.48371 1.84902 0
M  V30 10337 H 969.718 -4.56735 0.625662 0
M  V30 10338 H 973.262 -5.82314 3.84131 0
M  V30 10339 H 969.159 -5.90411 2.60931 0
M  V30 10340 H 969.927 -6.87262 4.44537 0
M  V30 10341 N 972.59 -0.333456 -1.54032 0
M  V30 10342 C 973.553 0.515392 -2.2333 0
M  V30 10343 C 974.553 1.03566 -1.23007 0
M  V30 10344 O 975.743 0.926514 -1.47517 0
M  V30 10345 C 972.875 1.7169 -2.94508 0
M  V30 10346 H 974.068 -0.0905407 -2.99763 0
M  V30 10347 H 971.621 -0.0846651 -1.56071 0
M  V30 10348 H 972.356 2.3618 -2.22237 0
M  V30 10349 H 972.141 1.35115 -3.68085 0
M  V30 10350 H 973.631 2.31922 -3.47278 0
M  V30 10351 N 974.068 1.57479 -0.061844 0
M  V30 10352 C 975 2.09116 0.938245 0
M  V30 10353 C 976.013 1.0212 1.26788 0
M  V30 10354 O 977.202 1.2966 1.22681 0
M  V30 10355 C 974.302 2.52822 2.25686 0
M  V30 10356 C 973.475 3.83277 2.10755 0
M  V30 10357 C 972.534 4.13182 3.25833 0
M  V30 10358 O 971.56 4.82937 3.01265 0
M  V30 10359 N 972.762 3.65938 4.50633 0
M  V30 10360 H 975.527 2.95543 0.497433 0
M  V30 10361 H 973.088 1.61423 0.124134 0
M  V30 10362 H 975.08 2.69896 3.01559 0
M  V30 10363 H 973.65 1.71586 2.61299 0
M  V30 10364 H 972.87 3.7568 1.19409 0
M  V30 10365 H 974.158 4.68686 1.98018 0
M  V30 10366 H 973.556 3.09566 4.73482 0
M  V30 10367 H 972.113 3.8823 5.23565 0
M  V30 10368 N 975.546 -0.211634 1.56173 0
M  V30 10369 C 976.795 -0.932647 1.78842 0
M  V30 10370 C 977.108 -1.85103 0.63217 0
M  V30 10371 O 978.314 -2.61143 0.742746 0
M  V30 10372 C 976.77 -1.70866 3.16753 0
M  V30 10373 C 976.378 -0.835934 4.40132 0
M  V30 10374 C 978.122 -2.4203 3.48743 0
M  V30 10375 C 976.029 -1.60987 5.69067 0
M  V30 10376 H 974.959 -0.351983 0.666801 0
M  V30 10377 H 977.61 -0.186284 1.82552 0
M  V30 10378 H 975.992 -2.4983 3.07247 0
M  V30 10379 H 977.166 -0.0861298 4.60719 0
M  V30 10380 H 975.481 -0.235941 4.15731 0
M  V30 10381 H 978.078 -3.00453 4.42303 0
M  V30 10382 H 978.421 -3.15406 2.71707 0
M  V30 10383 H 978.954 -1.70048 3.59623 0
M  V30 10384 H 975.693 -0.9192 6.49023 0
M  V30 10385 H 975.213 -2.33403 5.52524 0
M  V30 10386 H 976.892 -2.16798 6.09596 0
M  V30 10387 N 977.024 -1.50153 -0.478725 0
M  V30 10388 C 978.27 -1.60998 -1.23318 0
M  V30 10389 C 978.603 -0.305868 -1.91776 0
M  V30 10390 O 977.878 0.692158 -1.81767 0
M  V30 10391 C 978.161 -2.78495 -2.28282 0
M  V30 10392 C 978.014 -4.18767 -1.64178 0
M  V30 10393 C 979.333 -2.91569 -3.2966 0
M  V30 10394 H 976.452 -0.585983 -0.446982 0
M  V30 10395 H 979.094 -1.82514 -0.528063 0
M  V30 10396 H 977.244 -2.60281 -2.8842 0
M  V30 10397 H 978.916 -4.48552 -1.07696 0
M  V30 10398 H 977.159 -4.23379 -0.94514 0
M  V30 10399 H 977.83 -4.96894 -2.40417 0
M  V30 10400 H 980.306 -3.08219 -2.79536 0
M  V30 10401 H 979.182 -3.75419 -4.0044 0
M  V30 10402 H 979.443 -2.01859 -3.93326 0
M  V30 10403 N 978.502 0.731368 -1.39602 0
M  V30 10404 C 979.434 1.85575 -1.34516 0
M  V30 10405 C 980.447 1.60818 -0.253287 0
M  V30 10406 O 981.636 1.70984 -0.512505 0
M  V30 10407 C 978.736 3.21673 -1.06676 0
M  V30 10408 C 977.909 3.73757 -2.27211 0
M  V30 10409 C 976.968 4.88426 -1.95773 0
M  V30 10410 O 975.994 5.01898 -2.68491 0
M  V30 10411 N 977.196 5.73065 -0.926083 0
M  V30 10412 H 979.961 1.90442 -2.31413 0
M  V30 10413 H 977.522 0.912258 -1.33752 0
M  V30 10414 H 979.514 3.95959 -0.836577 0
M  V30 10415 H 978.084 3.12052 -0.185003 0
M  V30 10416 H 977.304 2.90781 -2.66158 0
M  V30 10417 H 978.592 4.05289 -3.07601 0
M  V30 10418 H 977.99 5.64774 -0.323497 0
M  V30 10419 H 976.547 6.47403 -0.755795 0
M  V30 10420 N 979.98 1.24838 0.961938 0
M  V30 10421 C 981.227 1.09151 1.70564 0
M  V30 10422 C 981.555 -0.368719 1.90973 0
M  V30 10423 O 980.81 -1.28854 1.47293 0
M  V30 10424 C 981.109 1.78289 3.09754 0
M  V30 10425 C 980.775 3.28216 3.09169 0
M  V30 10426 C 979.437 3.69118 3.08716 0
M  V30 10427 C 981.789 4.24035 3.03058 0
M  V30 10428 C 979.117 5.04263 2.99892 0
M  V30 10429 C 981.469 5.59195 2.95776 0
M  V30 10430 C 980.133 5.99436 2.93655 0
M  V30 10431 H 979.403 0.399414 0.624139 0
M  V30 10432 H 982.05 1.55016 1.12438 0
M  V30 10433 H 980.355 1.24835 3.7138 0
M  V30 10434 H 982.052 1.63612 3.66104 0
M  V30 10435 H 978.642 2.95667 3.10289 0
M  V30 10436 H 982.826 3.93431 3.02532 0
M  V30 10437 H 978.082 5.3463 2.96615 0
M  V30 10438 H 982.256 6.33142 2.90007 0
M  V30 10439 H 979.883 7.04116 2.86573 0
M  V30 10440 N 981.458 -1.16348 1.06306 0
M  V30 10441 C 982.706 -1.86512 0.778311 0
M  V30 10442 C 983.027 -1.82107 -0.697273 0
M  V30 10443 O 982.297 -1.2547 -1.50446 0
M  V30 10444 H 980.877 -0.690529 0.284919 0
M  V30 10445 H 983.539 -1.41092 1.34458 0
M  V30 10446 H 982.635 -2.91947 1.10333 0
M  V30 10447 N 982.937 -0.845659 -1.3299 0
M  V30 10448 C 983.87 -0.228695 -2.27051 0
M  V30 10449 C 984.848 0.62812 -1.49978 0
M  V30 10450 O 986.032 0.586897 -1.79131 0
M  V30 10451 C 983.159 0.678251 -3.31839 0
M  V30 10452 C 982.205 -0.103994 -4.26373 0
M  V30 10453 S 983.038 -1.46642 -5.1503 0
M  V30 10454 C 984.194 -0.564953 -6.23345 0
M  V30 10455 H 984.427 -1.02609 -2.79032 0
M  V30 10456 H 981.96 -0.642786 -1.40384 0
M  V30 10457 H 983.918 1.1959 -3.92694 0
M  V30 10458 H 982.579 1.44937 -2.78661 0
M  V30 10459 H 981.772 0.586406 -5.00577 0
M  V30 10460 H 981.374 -0.552927 -3.6989 0
M  V30 10461 H 983.666 0.234466 -6.77094 0
M  V30 10462 H 984.609 -1.27736 -6.96483 0
M  V30 10463 H 985.017 -0.143286 -5.64318 0
M  V30 10464 N 984.415 1.45619 -0.602734 0
M  V30 10465 C 985.363 2.32228 0.131484 0
M  V30 10466 C 986.357 1.45681 0.864484 0
M  V30 10467 O 987.563 1.62193 0.7806 0
M  V30 10468 H 983.938 0.7495 0.0612638 0
M  V30 10469 H 985.909 2.91941 -0.617496 0
M  V30 10470 C 984.658 3.29213 1.11866 0
M  V30 10471 H 983.981 3.95801 0.564061 0
M  V30 10472 H 985.421 3.92554 1.60242 0
M  V30 10473 C 983.88 2.56028 2.18978 0
M  V30 10474 O 984.41 2.33806 3.26646 0
M  V30 10475 N 982.616 2.16245 1.94129 0
M  V30 10476 H 982.163 2.34518 1.06579 0
M  V30 10477 H 982.121 1.67601 2.66003 0
M  V30 10478 N 985.893 0.34162 1.53853 0
M  V30 10479 C 986.803 -0.524555 2.2866 0
M  V30 10480 C 987.819 -1.1136 1.33697 0
M  V30 10481 O 988.995 -1.1297 1.66732 0
M  V30 10482 C 986.06 -1.66065 3.04341 0
M  V30 10483 C 985.121 -1.10158 4.14926 0
M  V30 10484 C 984.354 -2.18353 4.86988 0
M  V30 10485 O 984.577 -3.39038 4.58704 0
M  V30 10486 O 983.511 -1.82756 5.73484 0
M  V30 10487 H 987.337 0.0835014 3.03585 0
M  V30 10488 H 984.922 0.106727 1.49018 0
M  V30 10489 H 986.804 -2.3217 3.51674 0
M  V30 10490 H 985.479 -2.25456 2.32275 0
M  V30 10491 H 984.386 -0.405109 3.719 0
M  V30 10492 H 985.719 -0.552567 4.89088 0
M  V30 10493 N 987.371 -1.57444 0.0701946 0
M  V30 10494 C 988.318 -2.12631 -0.897599 0
M  V30 10495 C 989.288 -1.03841 -1.29639 0
M  V30 10496 O 990.473 -1.31495 -1.38253 0
M  V30 10497 C 987.613 -2.6911 -2.16041 0
M  V30 10498 C 986.726 -3.9205 -1.8144 0
M  V30 10499 C 985.861 -4.36778 -3.02321 0
M  V30 10500 C 984.9 -5.52371 -2.63729 0
M  V30 10501 N 984.037 -5.92065 -3.77364 0
M  V30 10502 H 988.877 -2.95024 -0.420104 0
M  V30 10503 H 986.414 -1.45792 -0.195716 0
M  V30 10504 H 988.372 -2.99963 -2.89962 0
M  V30 10505 H 987.002 -1.89484 -2.61334 0
M  V30 10506 H 986.054 -3.67669 -0.975896 0
M  V30 10507 H 987.366 -4.76011 -1.49046 0
M  V30 10508 H 986.52 -4.69285 -3.84521 0
M  V30 10509 H 985.259 -3.51668 -3.37907 0
M  V30 10510 H 984.264 -5.19517 -1.7995 0
M  V30 10511 H 985.489 -6.39212 -2.29315 0
M  V30 10512 H 983.435 -5.09904 -4.12715 0
M  V30 10513 H 983.352 -6.70762 -3.48733 0
M  V30 10514 H 984.62 -6.29193 -4.60148 0
M  V30 10515 N 988.849 0.203349 -1.56283 0
M  V30 10516 C 990.095 0.926381 -1.80405 0
M  V30 10517 C 990.428 1.8325 -0.642883 0
M  V30 10518 O 989.703 1.91196 0.356998 0
M  V30 10519 C 989.986 1.74972 -3.14733 0
M  V30 10520 C 989.839 0.868866 -4.41328 0
M  V30 10521 C 991.158 2.72394 -3.45672 0
M  V30 10522 H 988.277 0.335346 -0.656286 0
M  V30 10523 H 990.919 0.1942 -1.89005 0
M  V30 10524 H 989.069 2.37394 -3.07533 0
M  V30 10525 H 990.741 0.259986 -4.60567 0
M  V30 10526 H 988.984 0.175161 -4.33446 0
M  V30 10527 H 989.655 1.47975 -5.31796 0
M  V30 10528 H 992.131 2.20105 -3.53119 0
M  V30 10529 H 991.007 3.27091 -4.40798 0
M  V30 10530 H 991.268 3.51035 -2.6875 0
M  V30 10531 N 990.327 1.50405 0.470755 0
M  V30 10532 C 991.575 1.61092 1.2204 0
M  V30 10533 C 991.896 0.313487 1.92464 0
M  V30 10534 O 991.166 -0.669043 1.84121 0
M  V30 10535 H 989.746 0.593618 0.45346 0
M  V30 10536 H 992.408 1.87184 0.542985 0
M  V30 10537 H 991.504 2.42222 1.96812 0
M  V30 10538 N 991.805 -0.723954 1.39988 0
M  V30 10539 C 992.737 -1.84859 1.35498 0
M  V30 10540 C 993.75 -1.60681 0.261812 0
M  V30 10541 O 994.939 -1.7071 0.521566 0
M  V30 10542 C 992.039 -3.21103 1.08381 0
M  V30 10543 C 991.212 -3.72546 2.2919 0
M  V30 10544 C 990.271 -4.8738 1.9836 0
M  V30 10545 O 989.297 -5.00467 2.71149 0
M  V30 10546 N 990.499 -5.72566 0.956461 0
M  V30 10547 H 993.264 -1.89212 2.3242 0
M  V30 10548 H 990.825 -0.905152 1.34233 0
M  V30 10549 H 992.817 -3.9551 0.857564 0
M  V30 10550 H 991.387 -3.1195 0.201549 0
M  V30 10551 H 990.607 -2.89365 2.67697 0
M  V30 10552 H 991.895 -4.03652 3.09746 0
M  V30 10553 H 991.293 -5.64595 0.353444 0
M  V30 10554 H 989.85 -6.46993 0.790118 0
M  V30 10555 N 993.283 -1.25346 -0.955304 0
M  V30 10556 C 994.532 -1.0945 -1.69421 0
M  V30 10557 C 994.845 0.364459 -1.92175 0
M  V30 10558 O 996.051 0.643843 -2.63755 0
M  V30 10559 C 994.507 -1.91045 -3.05008 0
M  V30 10560 C 994.115 -3.41428 -2.90053 0
M  V30 10561 C 995.859 -1.83716 -3.82686 0
M  V30 10562 C 993.766 -4.1532 -4.21026 0
M  V30 10563 H 992.696 -0.405978 -0.635372 0
M  V30 10564 H 995.347 -1.49536 -1.06354 0
M  V30 10565 H 993.729 -1.43781 -3.68975 0
M  V30 10566 H 994.903 -3.9636 -2.35022 0
M  V30 10567 H 993.218 -3.49842 -2.25831 0
M  V30 10568 H 995.815 -2.36217 -4.79693 0
M  V30 10569 H 996.158 -0.804919 -4.08444 0
M  V30 10570 H 996.691 -2.28726 -3.25468 0
M  V30 10571 H 993.43 -5.18955 -4.00457 0
M  V30 10572 H 992.95 -3.65172 -4.75825 0
M  V30 10573 H 994.629 -4.22999 -4.89572 0
M  V30 10574 N 994.761 1.15782 -1.06922 0
M  V30 10575 C 995.986 1.90896 -0.810771 0
M  V30 10576 C 996.411 1.77246 0.629714 0
M  V30 10577 O 995.769 1.10215 1.43953 0
M  V30 10578 C 995.817 3.39397 -1.21829 0
M  V30 10579 O 994.921 4.10818 -0.360934 0
M  V30 10580 H 994.262 0.594497 -0.295752 0
M  V30 10581 H 996.792 1.46652 -1.42669 0
M  V30 10582 H 996.802 3.90181 -1.19259 0
M  V30 10583 H 995.477 3.4865 -2.2675 0
M  V30 10584 H 994.054 3.7019 -0.448748 0
M  V30 10585 N 996.239 0.8527 1.3254 0
M  V30 10586 C 997.486 0.455123 1.97319 0
M  V30 10587 C 997.814 -0.988814 1.67489 0
M  V30 10588 O 997.069 -1.70845 0.954483 0
M  V30 10589 C 997.368 0.638757 3.51646 0
M  V30 10590 C 997.034 2.05287 4.01458 0
M  V30 10591 C 995.696 2.43963 4.14771 0
M  V30 10592 C 998.048 2.9759 4.27889 0
M  V30 10593 C 995.376 3.7422 4.51859 0
M  V30 10594 C 997.728 4.27343 4.66434 0
M  V30 10595 C 996.392 4.65957 4.77954 0
M  V30 10596 H 995.662 0.166541 0.722042 0
M  V30 10597 H 998.309 1.08238 1.57977 0
M  V30 10598 H 996.614 -0.0717394 3.91734 0
M  V30 10599 H 998.311 0.311219 3.9979 0
M  V30 10600 H 994.901 1.74253 3.91579 0
M  V30 10601 H 999.085 2.68942 4.17114 0
M  V30 10602 H 994.341 4.03923 4.58973 0
M  V30 10603 H 998.515 4.9893 4.85841 0
M  V30 10604 H 996.142 5.66934 5.06449 0
M  V30 10605 N 997.718 -1.45297 0.610449 0
M  V30 10606 C 998.995 -1.95562 0.0386189 0
M  V30 10607 C 999.375 -1.55284 -1.43004 0
M  V30 10608 O 998.723 -0.816785 -2.13403 0
M  V30 10609 C 998.933 -3.48176 0.239731 0
M  V30 10610 C 1000.28 -4.24425 0.122035 0
M  V30 10611 O 1001.3 -3.55794 0.170003 0
M  V30 10612 O 1000.16 -5.46499 0.00953695 0
M  V30 10613 H 997.258 -0.826296 -0.0341081 0
M  V30 10614 H 999.804 -1.55449 0.68071 0
M  V30 10615 H 998.576 -3.70471 1.25963 0
M  V30 10616 H 998.199 -3.95186 -0.437486 0
M  V30 10617 N 999.196 -0.349774 -1.5367 0
M  V30 10618 C 1000.13 0.496338 -2.28164 0
M  V30 10619 C 1001.11 1.09737 -1.29968 0
M  V30 10620 O 1002.29 1.11759 -1.58819 0
M  V30 10621 C 999.422 1.64428 -3.0591 0
M  V30 10622 C 998.376 1.17127 -4.11661 0
M  V30 10623 C 997.702 2.40822 -4.77398 0
M  V30 10624 C 999.002 0.267293 -5.21616 0
M  V30 10625 H 1000.7 -0.125117 -2.99138 0
M  V30 10626 H 998.242 -0.0616152 -1.43868 0
M  V30 10627 H 1000.19 2.2427 -3.56765 0
M  V30 10628 H 998.919 2.29272 -2.32598 0
M  V30 10629 H 997.578 0.595634 -3.61729 0
M  V30 10630 H 997.226 3.04088 -4.00674 0
M  V30 10631 H 996.926 2.09852 -5.48849 0
M  V30 10632 H 998.45 3.01378 -5.3104 0
M  V30 10633 H 999.864 0.772734 -5.68068 0
M  V30 10634 H 998.261 0.0491991 -6.0008 0
M  V30 10635 H 999.331 -0.694892 -4.79895 0
M  V30 10636 N 1000.67 1.57404 -0.0785433 0
M  V30 10637 C 1002.08 1.81118 0.45311 0
M  V30 10638 C 1002.44 0.992963 1.69218 0
M  V30 10639 O 1001.56 0.217448 2.15305 0
M  V30 10640 C 1002.16 3.28506 0.82882 0
M  V30 10641 C 1000.71 3.53042 1.3053 0
M  V30 10642 C 999.862 2.75739 0.29378 0
M  V30 10643 H 1002.81 1.55758 -0.304171 0
M  V30 10644 H 1002.83 3.40924 1.68971 0
M  V30 10645 H 1002.35 3.88031 -0.0731826 0
M  V30 10646 H 1000.45 2.98829 2.22558 0
M  V30 10647 H 1000.56 4.61724 1.27857 0
M  V30 10648 H 998.924 2.42703 0.772477 0
M  V30 10649 H 999.707 3.38005 -0.600613 0
M  V30 10650 N 1002.15 -0.195058 1.56388 0
M  V30 10651 C 1003.57 -0.545894 1.49974 0
M  V30 10652 C 1003.77 -1.85851 0.778568 0
M  V30 10653 O 1002.82 -2.50346 0.329105 0
M  V30 10654 C 1004.14 -0.600599 2.94641 0
M  V30 10655 C 1005.68 -0.689429 3.05313 0
M  V30 10656 C 1006.16 -0.775243 4.51391 0
M  V30 10657 N 1007.65 -0.838769 4.55542 0
M  V30 10658 C 1008.39 -0.925337 5.65884 0
M  V30 10659 N 1007.88 -0.974204 6.85916 0
M  V30 10660 N 1009.67 -0.962528 5.53798 0
M  V30 10661 H 1001.83 0.66595 2.0169 0
M  V30 10662 H 1004.09 0.237215 0.917842 0
M  V30 10663 H 1003.79 0.29478 3.50462 0
M  V30 10664 H 1003.67 -1.45528 3.47996 0
M  V30 10665 H 1006.06 -1.57524 2.4954 0
M  V30 10666 H 1006.14 0.191451 2.55083 0
M  V30 10667 H 1005.78 0.106215 5.07789 0
M  V30 10668 H 1005.71 -1.67193 4.99354 0
M  V30 10669 H 1008.2 -0.810249 3.69112 0
M  V30 10670 H 1008.51 -1.04077 7.6576 0
M  V30 10671 H 1006.86 -0.942881 6.88574 0
M  V30 10672 H 1010.05 -0.921188 4.58946 0
M  V30 10673 H 1010.22 -1.02653 6.39817 0
M  V30 10674 N 1003.63 -1.50653 -0.462772 0
M  V30 10675 C 1004.56 -1.66286 -1.5774 0
M  V30 10676 C 1005.57 -0.544094 -1.53439 0
M  V30 10677 O 1006.76 -0.817566 -1.58676 0
M  V30 10678 C 1003.86 -1.63893 -2.96635 0
M  V30 10679 C 1003.04 -2.91939 -3.25716 0
M  V30 10680 C 1002.1 -2.82076 -4.44206 0
M  V30 10681 O 1001.12 -3.56032 -4.44106 0
M  V30 10682 N 1002.32 -1.96196 -5.4634 0
M  V30 10683 H 1005.09 -2.6243 -1.44742 0
M  V30 10684 H 1002.65 -1.48221 -0.651326 0
M  V30 10685 H 1004.64 -1.54897 -3.73884 0
M  V30 10686 H 1003.21 -0.75449 -3.03358 0
M  V30 10687 H 1002.43 -3.14998 -2.37002 0
M  V30 10688 H 1003.72 -3.7675 -3.4196 0
M  V30 10689 H 1003.12 -1.35439 -5.49247 0
M  V30 10690 H 1001.67 -1.93097 -6.2254 0
M  V30 10691 N 1005.11 0.71652 -1.4037 0
M  V30 10692 C 1006.36 1.47347 -1.38324 0
M  V30 10693 C 1006.68 1.94995 0.0139949 0
M  V30 10694 O 1005.95 1.7028 0.968585 0
M  V30 10695 H 1004.53 0.546662 -0.509087 0
M  V30 10696 H 1007.19 0.849455 -1.75415 0
M  V30 10697 H 1006.29 2.34675 -2.05752 0
M  V30 10698 N 1006.59 1.25851 0.948643 0
M  V30 10699 C 1007.86 1.01717 1.67072 0
M  V30 10700 C 1008.24 -0.454749 2.06144 0
M  V30 10701 O 1007.59 -1.43345 1.77945 0
M  V30 10702 C 1007.8 1.95872 2.88852 0
M  V30 10703 C 1009.15 2.24057 3.60671 0
M  V30 10704 O 1010.17 1.93678 2.98944 0
M  V30 10705 O 1009.03 2.75745 4.71833 0
M  V30 10706 H 1006.13 0.386198 0.731287 0
M  V30 10707 H 1008.67 1.37031 1.00104 0
M  V30 10708 H 1007.44 2.95233 2.56814 0
M  V30 10709 H 1007.07 1.60992 3.63548 0
M  V30 10710 N 1008.06 -1.15214 1.07534 0
M  V30 10711 C 1009 -2.18999 0.641461 0
M  V30 10712 C 1009.98 -1.58958 -0.342238 0
M  V30 10713 O 1011.16 -1.86859 -0.248218 0
M  V30 10714 C 1008.29 -3.38651 -0.0577939 0
M  V30 10715 C 1007.33 -4.17225 0.884641 0
M  V30 10716 S 1008.17 -4.79375 2.38663 0
M  V30 10717 C 1009.32 -6.02393 1.69923 0
M  V30 10718 H 1009.55 -2.55464 1.52071 0
M  V30 10719 H 1007.09 -1.26205 0.889481 0
M  V30 10720 H 1009.05 -4.07971 -0.454982 0
M  V30 10721 H 1007.71 -3.00526 -0.913407 0
M  V30 10722 H 1006.9 -5.02837 0.342133 0
M  V30 10723 H 1006.5 -3.53463 1.2223 0
M  V30 10724 H 1008.79 -6.69899 1.01201 0
M  V30 10725 H 1009.74 -6.61216 2.53375 0
M  V30 10726 H 1010.14 -5.52106 1.1764 0
M  V30 10727 N 1009.54 -0.859717 -1.32086 0
M  V30 10728 C 1010.79 -0.466271 -1.97367 0
M  V30 10729 C 1011.12 0.976728 -1.6785 0
M  V30 10730 O 1010.4 1.68618 -0.969449 0
M  V30 10731 C 1010.68 -0.711851 -3.52994 0
M  V30 10732 C 1010.53 -2.20364 -3.92122 0
M  V30 10733 C 1011.85 -0.17156 -4.39765 0
M  V30 10734 H 1008.97 -0.170883 -0.716916 0
M  V30 10735 H 1011.61 -1.07907 -1.56384 0
M  V30 10736 H 1009.76 -0.190258 -3.88034 0
M  V30 10737 H 1011.43 -2.7917 -3.67236 0
M  V30 10738 H 1009.68 -2.68019 -3.41099 0
M  V30 10739 H 1010.35 -2.32615 -5.00594 0
M  V30 10740 H 1012.82 -0.617665 -4.1149 0
M  V30 10741 H 1011.7 -0.372921 -5.47632 0
M  V30 10742 H 1011.96 0.925959 -4.32294 0
M  V30 10743 N 1011.02 1.44971 -0.618145 0
M  V30 10744 C 1011.95 2.33357 0.0815955 0
M  V30 10745 C 1012.93 1.47451 0.848072 0
M  V30 10746 O 1014.12 1.762 0.816532 0
M  V30 10747 C 1011.25 3.30324 1.07253 0
M  V30 10748 C 1010.2 4.25948 0.418563 0
M  V30 10749 C 1009.53 5.12685 1.51849 0
M  V30 10750 C 1010.83 5.18024 -0.66697 0
M  V30 10751 H 1012.52 2.92115 -0.656442 0
M  V30 10752 H 1010.07 1.40465 -0.317129 0
M  V30 10753 H 1012.02 3.91033 1.57069 0
M  V30 10754 H 1010.74 2.69748 1.8413 0
M  V30 10755 H 1009.4 3.66553 -0.0588308 0
M  V30 10756 H 1009.05 4.4847 2.2778 0
M  V30 10757 H 1008.75 5.7747 1.08637 0
M  V30 10758 H 1010.27 5.76264 2.01871 0
M  V30 10759 H 1011.69 5.72744 -0.252448 0
M  V30 10760 H 1010.09 5.91343 -1.02146 0
M  V30 10761 H 1011.16 4.59817 -1.53936 0
M  V30 10762 N 1012.5 0.357919 1.53482 0
M  V30 10763 C 1013.41 -0.500273 2.29204 0
M  V30 10764 C 1014.42 -1.09936 1.3487 0
M  V30 10765 O 1015.6 -1.11195 1.67921 0
M  V30 10766 C 1012.67 -1.62828 3.06085 0
M  V30 10767 C 1011.73 -1.05751 4.16071 0
M  V30 10768 C 1010.96 -2.13176 4.89277 0
M  V30 10769 O 1011.18 -3.34153 4.62274 0
M  V30 10770 O 1010.12 -1.76663 5.7539 0
M  V30 10771 H 1013.94 0.115696 3.0348 0
M  V30 10772 H 1011.53 0.122527 1.48897 0
M  V30 10773 H 1013.41 -2.28427 3.54117 0
M  V30 10774 H 1012.08 -2.22979 2.34653 0
M  V30 10775 H 1010.99 -0.365642 3.72309 0
M  V30 10776 H 1012.32 -0.500661 4.89647 0
M  V30 10777 N 1013.98 -1.5736 0.0868897 0
M  V30 10778 C 1014.92 -2.13571 -0.874996 0
M  V30 10779 C 1015.89 -1.0521 -1.2853 0
M  V30 10780 O 1017.08 -1.32954 -1.3685 0
M  V30 10781 C 1014.22 -2.71386 -2.13175 0
M  V30 10782 C 1013.33 -3.93953 -1.77272 0
M  V30 10783 C 1012.47 -4.3996 -2.97671 0
M  V30 10784 C 1011.51 -5.55137 -2.57856 0
M  V30 10785 N 1010.64 -5.96034 -3.71064 0
M  V30 10786 H 1015.48 -2.95453 -0.388789 0
M  V30 10787 H 1013.02 -1.45992 -0.180242 0
M  V30 10788 H 1014.98 -3.03022 -2.86764 0
M  V30 10789 H 1013.61 -1.92245 -2.5931 0
M  V30 10790 H 1012.66 -3.68683 -0.936845 0
M  V30 10791 H 1013.97 -4.77565 -1.43989 0
M  V30 10792 H 1013.13 -4.73337 -3.79522 0
M  V30 10793 H 1011.86 -3.55232 -3.34158 0
M  V30 10794 H 1010.87 -5.21397 -1.7443 0
M  V30 10795 H 1012.09 -6.41608 -2.22522 0
M  V30 10796 H 1010.04 -5.14253 -4.07284 0
M  V30 10797 H 1009.96 -6.74423 -3.41599 0
M  V30 10798 H 1011.23 -6.34038 -4.53449 0
M  V30 10799 N 1015.45 0.186762 -1.56489 0
M  V30 10800 C 1016.87 0.750675 -1.70944 0
M  V30 10801 C 1017.22 1.83483 -0.694858 0
M  V30 10802 O 1016.34 2.159 0.147009 0
M  V30 10803 C 1016.94 1.36843 -3.09934 0
M  V30 10804 C 1015.5 1.87934 -3.26125 0
M  V30 10805 C 1014.64 0.75242 -2.66897 0
M  V30 10806 H 1017.59 -0.0384292 -1.58653 0
M  V30 10807 H 1017.61 2.23795 -3.07727 0
M  V30 10808 H 1017.13 0.579135 -3.83755 0
M  V30 10809 H 1015.23 2.69556 -2.57235 0
M  V30 10810 H 1015.34 2.0354 -4.33715 0
M  V30 10811 H 1013.7 1.16888 -2.26295 0
M  V30 10812 H 1014.49 -0.0247769 -3.43291 0
M  V30 10813 N 1016.93 1.50896 0.454776 0
M  V30 10814 C 1018.16 1.66239 1.22671 0
M  V30 10815 C 1018.57 0.351876 1.85899 0
M  V30 10816 O 1017.91 -0.677848 1.70736 0
M  V30 10817 C 1017.98 2.70812 2.36434 0
M  V30 10818 C 1017.64 4.13913 1.93714 0
M  V30 10819 C 1018.64 4.99259 1.45039 0
M  V30 10820 C 1016.32 4.59921 2.01937 0
M  V30 10821 C 1018.32 6.28667 1.05151 0
M  V30 10822 C 1016 5.89329 1.6166 0
M  V30 10823 C 1017 6.73529 1.13347 0
M  V30 10824 O 1016.69 8.0052 0.736354 0
M  V30 10825 H 1016.42 0.561443 0.376508 0
M  V30 10826 H 1018.97 1.97974 0.547325 0
M  V30 10827 H 1017.2 2.34355 3.07595 0
M  V30 10828 H 1018.89 2.7521 2.98353 0
M  V30 10829 H 1019.66 4.64925 1.38095 0
M  V30 10830 H 1015.54 3.94518 2.38488 0
M  V30 10831 H 1019.08 6.94339 0.673711 0
M  V30 10832 H 1014.98 6.23182 1.68269 0
M  V30 10833 H 1015.75 8.1393 0.863759 0
M  V30 10834 N 1018.41 -0.709066 1.40748 0
M  V30 10835 C 1019.64 -1.50313 1.42901 0
M  V30 10836 C 1020.06 -1.88072 0.032213 0
M  V30 10837 O 1019.42 -1.53716 -0.96131 0
M  V30 10838 C 1019.47 -2.75074 2.33166 0
M  V30 10839 O 1018.57 -3.72036 1.7794 0
M  V30 10840 H 1017.91 -0.452934 0.485538 0
M  V30 10841 H 1020.44 -0.872712 1.85054 0
M  V30 10842 H 1020.45 -3.23532 2.48578 0
M  V30 10843 H 1019.13 -2.46927 3.34664 0
M  V30 10844 H 1017.7 -3.30911 1.71908 0
M  V30 10845 N 1019.89 -1.26353 -0.941956 0
M  V30 10846 C 1020.8 -1.09618 -2.07415 0
M  V30 10847 C 1021.82 -0.0298963 -1.73974 0
M  V30 10848 O 1022.99 -0.233466 -2.00042 0
M  V30 10849 C 1020.06 -0.73013 -3.38925 0
M  V30 10850 C 1019.12 -1.87574 -3.86153 0
M  V30 10851 C 1018.35 -1.52706 -5.11387 0
M  V30 10852 O 1018.57 -0.428438 -5.68789 0
M  V30 10853 O 1017.51 -2.36154 -5.53638 0
M  V30 10854 H 1021.33 -2.04598 -2.2444 0
M  V30 10855 H 1018.92 -1.05407 -1.05876 0
M  V30 10856 H 1020.8 -0.538684 -4.17943 0
M  V30 10857 H 1019.48 0.190282 -3.2314 0
M  V30 10858 H 1018.38 -2.12214 -3.08084 0
M  V30 10859 H 1019.72 -2.77585 -4.06457 0
M  V30 10860 N 1021.37 1.14642 -1.08144 0
M  V30 10861 C 1022.33 2.17834 -0.712799 0
M  V30 10862 C 1023.33 1.58828 0.251041 0
M  V30 10863 O 1024.52 1.74173 0.0309381 0
M  V30 10864 C 1021.65 3.4086 -0.0519477 0
M  V30 10865 H 1022.85 2.51961 -1.62653 0
M  V30 10866 H 1020.4 1.29243 -0.878971 0
M  V30 10867 H 1021.13 3.12311 0.873636 0
M  V30 10868 H 1020.92 3.84952 -0.745286 0
M  V30 10869 H 1022.41 4.17163 0.191031 0
M  V30 10870 N 1022.85 0.866709 1.31628 0
M  V30 10871 C 1024.07 0.49039 2.01004 0
M  V30 10872 C 1024.49 -0.916244 1.65077 0
M  V30 10873 O 1023.85 -1.59975 0.8783 0
M  V30 10874 C 1023.9 0.634011 3.55897 0
M  V30 10875 O 1023.62 1.98525 3.90537 0
M  V30 10876 C 1025.12 0.258277 4.42547 0
M  V30 10877 H 1022.34 0.191421 0.643117 0
M  V30 10878 H 1024.88 1.16698 1.67934 0
M  V30 10879 H 1023.04 0.00501801 3.874 0
M  V30 10880 H 1023.45 1.99067 4.85255 0
M  V30 10881 H 1024.93 0.409733 5.50477 0
M  V30 10882 H 1025.4 -0.802301 4.3181 0
M  V30 10883 H 1026.01 0.862837 4.16456 0
M  V30 10884 N 1024.32 -1.44642 0.625825 0
M  V30 10885 C 1025.29 -2.29085 -0.072526 0
M  V30 10886 C 1026.29 -1.40755 -0.777467 0
M  V30 10887 O 1027.48 -1.62684 -0.622861 0
M  V30 10888 C 1024.61 -3.22212 -1.1132 0
M  V30 10889 H 1025.8 -2.92317 0.670124 0
M  V30 10890 H 1023.35 -1.51466 0.38571 0
M  V30 10891 H 1024.09 -2.63819 -1.88601 0
M  V30 10892 H 1023.87 -3.87299 -0.611709 0
M  V30 10893 H 1025.36 -3.8566 -1.60175 0
M  V30 10894 N 1025.8 -0.366053 -1.5329 0
M  V30 10895 C 1027.22 -0.0150149 -1.59593 0
M  V30 10896 C 1027.42 1.46719 -1.38116 0
M  V30 10897 O 1026.47 2.22884 -1.18656 0
M  V30 10898 C 1027.79 -0.471374 -2.96982 0
M  V30 10899 C 1029.33 -0.425634 -3.10092 0
M  V30 10900 C 1029.81 -0.857812 -4.49895 0
M  V30 10901 N 1031.3 -0.81289 -4.56011 0
M  V30 10902 C 1032.04 -1.11898 -5.62376 0
M  V30 10903 N 1031.53 -1.49436 -6.76491 0
M  V30 10904 N 1033.32 -1.04174 -5.52362 0
M  V30 10905 H 1025.48 -1.33127 -1.65502 0
M  V30 10906 H 1027.74 -0.544172 -0.776261 0
M  V30 10907 H 1027.44 -1.50569 -3.1784 0
M  V30 10908 H 1027.32 0.141764 -3.76934 0
M  V30 10909 H 1029.71 0.599548 -2.88945 0
M  V30 10910 H 1029.79 -1.07427 -2.32149 0
M  V30 10911 H 1029.43 -1.88111 -4.7178 0
M  V30 10912 H 1029.36 -0.186419 -5.2627 0
M  V30 10913 H 1031.85 -0.536343 -3.74075 0
M  V30 10914 H 1032.16 -1.71217 -7.53594 0
M  V30 10915 H 1030.51 -1.53302 -6.77882 0
M  V30 10916 H 1033.7 -0.747654 -4.62091 0
M  V30 10917 H 1033.87 -1.28362 -6.35159 0
M  V30 10918 N 1027.28 1.57312 -0.0952337 0
M  V30 10919 C 1028.21 2.17056 0.860753 0
M  V30 10920 C 1029.19 1.10394 1.29411 0
M  V30 10921 O 1030.38 1.38532 1.36098 0
M  V30 10922 C 1027.51 2.751 2.11984 0
M  V30 10923 C 1026.46 3.87136 1.8251 0
M  V30 10924 C 1025.79 4.31883 3.15247 0
M  V30 10925 C 1027.09 5.10326 1.11194 0
M  V30 10926 H 1028.78 2.97192 0.362983 0
M  V30 10927 H 1026.33 1.42955 0.173151 0
M  V30 10928 H 1028.28 3.15547 2.79299 0
M  V30 10929 H 1027 1.92219 2.64044 0
M  V30 10930 H 1025.66 3.47229 1.17592 0
M  V30 10931 H 1025.31 3.45893 3.65195 0
M  V30 10932 H 1025.01 5.0742 2.96309 0
M  V30 10933 H 1026.53 4.74964 3.83721 0
M  V30 10934 H 1027.95 5.47942 1.6862 0
M  V30 10935 H 1026.34 5.91293 1.02435 0
M  V30 10936 H 1027.41 4.84807 0.0947227 0
M  V30 10937 N 1028.76 -0.17846 1.56586 0
M  V30 10938 C 1030.01 -0.894502 1.8078 0
M  V30 10939 C 1030.32 -1.8372 0.67129 0
M  V30 10940 O 1031.53 -2.59509 0.797971 0
M  V30 10941 C 1029.98 -1.64109 3.20306 0
M  V30 10942 C 1029.59 -0.742387 4.41806 0
M  V30 10943 C 1031.33 -2.34578 3.53798 0
M  V30 10944 C 1029.24 -1.4888 5.72354 0
M  V30 10945 H 1028.17 -0.33776 0.674117 0
M  V30 10946 H 1030.82 -0.14752 1.82906 0
M  V30 10947 H 1029.2 -2.43257 3.12477 0
M  V30 10948 H 1030.38 0.011615 4.60799 0
M  V30 10949 H 1028.69 -0.147705 4.16138 0
M  V30 10950 H 1031.29 -2.91004 4.48577 0
M  V30 10951 H 1031.63 -3.09572 2.78336 0
M  V30 10952 H 1032.17 -1.62381 3.63149 0
M  V30 10953 H 1028.9 -0.781325 6.50827 0
M  V30 10954 H 1028.42 -2.21631 5.57351 0
M  V30 10955 H 1030.1 -2.03819 6.14058 0
M  V30 10956 N 1030.24 -1.51135 -0.446768 0
M  V30 10957 C 1031.51 -1.5387 -1.20762 0
M  V30 10958 C 1031.89 -0.297446 -2.08994 0
M  V30 10959 O 1031.24 0.717975 -2.16927 0
M  V30 10960 C 1031.45 -2.84767 -2.01764 0
M  V30 10961 C 1032.8 -3.3636 -2.59128 0
M  V30 10962 O 1033.82 -2.86254 -2.11984 0
M  V30 10963 O 1032.68 -4.23765 -3.45088 0
M  V30 10964 H 1029.78 -0.618228 -0.549293 0
M  V30 10965 H 1032.32 -1.63442 -0.456605 0
M  V30 10966 H 1031.09 -3.6657 -1.36901 0
M  V30 10967 H 1030.72 -2.78313 -2.8395 0
M  V30 10968 N 1031.71 0.701592 -1.41122 0
M  V30 10969 C 1032.99 1.45569 -1.30648 0
M  V30 10970 C 1033.37 2.10988 0.068744 0
M  V30 10971 O 1032.72 2.01228 1.08257 0
M  V30 10972 C 1032.93 2.48003 -2.45551 0
M  V30 10973 C 1034.28 3.13431 -2.86437 0
M  V30 10974 O 1035.3 2.58327 -2.45247 0
M  V30 10975 O 1034.16 4.13221 -3.57646 0
M  V30 10976 H 1031.25 0.648 -0.513834 0
M  V30 10977 H 1033.8 0.73258 -1.53073 0
M  V30 10978 H 1032.57 1.98276 -3.37346 0
M  V30 10979 H 1032.19 3.27832 -2.24971 0
M  V30 10980 N 1033.19 1.2685 0.935242 0
M  V30 10981 C 1034.1 1.10716 2.06831 0
M  V30 10982 C 1035.12 0.0391222 1.73956 0
M  V30 10983 O 1036.29 0.244071 1.99916 0
M  V30 10984 C 1033.36 0.748093 3.38533 0
M  V30 10985 C 1032.42 1.89619 3.85153 0
M  V30 10986 C 1031.65 1.55416 5.1057 0
M  V30 10987 O 1031.88 0.458596 5.68553 0
M  V30 10988 O 1030.81 2.39087 5.52378 0
M  V30 10989 H 1034.64 2.05785 2.23352 0
M  V30 10990 H 1032.22 1.05967 1.05315 0
M  V30 10991 H 1034.1 0.560841 4.17651 0
M  V30 10992 H 1032.78 -0.173142 3.23237 0
M  V30 10993 H 1031.68 2.13845 3.06954 0
M  V30 10994 H 1033.02 2.79737 4.04979 0
M  V30 10995 N 1034.67 -1.14067 1.0875 0
M  V30 10996 C 1035.92 -1.85459 0.82053 0
M  V30 10997 C 1036.25 -1.82923 -0.65213 0
M  V30 10998 O 1035.52 -1.26241 -1.47965 0
M  V30 10999 C 1035.81 -3.33937 1.34752 0
M  V30 11000 C 1035.66 -3.45026 2.88578 0
M  V30 11001 C 1036.98 -4.2915 0.975636 0
M  V30 11002 H 1034.1 -0.673384 0.299538 0
M  V30 11003 H 1036.74 -1.33927 1.34772 0
M  V30 11004 H 1034.89 -3.77953 0.899086 0
M  V30 11005 H 1036.56 -3.09771 3.41818 0
M  V30 11006 H 1034.81 -2.86124 3.26061 0
M  V30 11007 H 1035.48 -4.49408 3.20526 0
M  V30 11008 H 1037.95 -3.93168 1.36228 0
M  V30 11009 H 1036.83 -5.31489 1.37152 0
M  V30 11010 H 1037.09 -4.41945 -0.116956 0
M  V30 11011 N 1036.15 -0.873678 -1.31166 0
M  V30 11012 C 1037.56 -0.566109 -1.49223 0
M  V30 11013 C 1037.76 0.898889 -1.80339 0
M  V30 11014 O 1036.82 1.68084 -1.88425 0
M  V30 11015 C 1038.13 -1.46952 -2.62346 0
M  V30 11016 C 1039.68 -1.47195 -2.76229 0
M  V30 11017 C 1040.16 -2.36102 -3.92454 0
M  V30 11018 N 1041.65 -2.34003 -3.99746 0
M  V30 11019 C 1042.38 -2.99513 -4.88958 0
M  V30 11020 N 1041.88 -3.74206 -5.83045 0
M  V30 11021 N 1043.67 -2.88802 -4.82234 0
M  V30 11022 H 1035.82 -1.82156 -1.09239 0
M  V30 11023 H 1038.09 -0.779086 -0.54012 0
M  V30 11024 H 1037.79 -2.51213 -2.4614 0
M  V30 11025 H 1037.67 -1.17077 -3.5857 0
M  V30 11026 H 1040.05 -0.436902 -2.91848 0
M  V30 11027 H 1040.13 -1.81095 -1.80661 0
M  V30 11028 H 1039.78 -3.39685 -3.77593 0
M  V30 11029 H 1039.71 -1.99524 -4.87337 0
M  V30 11030 H 1042.2 -1.79713 -3.32433 0
M  V30 11031 H 1042.51 -4.21312 -6.47855 0
M  V30 11032 H 1040.86 -3.78314 -5.83012 0
M  V30 11033 H 1044.05 -2.29984 -4.07707 0
M  V30 11034 H 1044.22 -3.40136 -5.51554 0
M  V30 11035 N 1037.63 1.44308 -0.633487 0
M  V30 11036 C 1038.88 2.01239 -0.136356 0
M  V30 11037 C 1039.19 1.50438 1.25011 0
M  V30 11038 O 1040.39 1.99513 1.84138 0
M  V30 11039 C 1038.85 3.59382 -0.193011 0
M  V30 11040 C 1038.46 4.19178 -1.58093 0
M  V30 11041 C 1040.2 4.23778 0.247534 0
M  V30 11042 C 1038.11 5.69553 -1.59258 0
M  V30 11043 H 1037.04 0.752521 -0.0472109 0
M  V30 11044 H 1039.69 1.65498 -0.79263 0
M  V30 11045 H 1038.07 3.92432 0.530408 0
M  V30 11046 H 1039.25 3.97662 -2.32813 0
M  V30 11047 H 1037.56 3.67079 -1.96576 0
M  V30 11048 H 1040.16 5.34075 0.258401 0
M  V30 11049 H 1040.5 3.96285 1.27529 0
M  V30 11050 H 1041.03 3.9554 -0.423469 0
M  V30 11051 H 1037.77 6.01784 -2.59878 0
M  V30 11052 H 1037.29 5.93185 -0.888352 0
M  V30 11053 H 1038.97 6.33234 -1.32756 0
M  V30 11054 N 1039.1 0.374177 1.53094 0
M  V30 11055 C 1040.03 -0.459976 2.28925 0
M  V30 11056 C 1041.02 -1.07656 1.31698 0
M  V30 11057 O 1042.2 -1.09219 1.60577 0
M  V30 11058 C 1039.33 -1.5954 3.08487 0
M  V30 11059 C 1038.28 -1.10563 4.13473 0
M  V30 11060 C 1037.61 -2.33196 4.81169 0
M  V30 11061 C 1038.91 -0.184275 5.21975 0
M  V30 11062 H 1040.6 0.172692 2.98902 0
M  V30 11063 H 1038.15 0.0844956 1.43752 0
M  V30 11064 H 1040.1 -2.18565 3.60288 0
M  V30 11065 H 1038.83 -2.25543 2.36216 0
M  V30 11066 H 1037.49 -0.53801 3.62631 0
M  V30 11067 H 1037.13 -2.97675 4.05461 0
M  V30 11068 H 1036.83 -2.01094 5.52119 0
M  V30 11069 H 1038.36 -2.92892 5.35767 0
M  V30 11070 H 1039.77 -0.682262 5.69226 0
M  V30 11071 H 1038.17 0.0462746 6.00082 0
M  V30 11072 H 1039.24 0.771152 4.78729 0
M  V30 11073 N 1040.58 -1.57259 0.103575 0
M  V30 11074 C 1041.83 -1.93832 -0.55786 0
M  V30 11075 C 1042.14 -0.988087 -1.68808 0
M  V30 11076 O 1043.35 -1.24786 -2.41124 0
M  V30 11077 C 1041.81 -3.44433 -1.04373 0
M  V30 11078 C 1041.41 -4.47963 0.0571971 0
M  V30 11079 C 1043.16 -3.89953 -1.67742 0
M  V30 11080 C 1041.07 -5.89727 -0.444505 0
M  V30 11081 H 1040 -0.723536 -0.212161 0
M  V30 11082 H 1042.65 -1.82606 0.180944 0
M  V30 11083 H 1041.03 -3.50841 -1.83648 0
M  V30 11084 H 1042.2 -4.53209 0.83298 0
M  V30 11085 H 1040.52 -4.12104 0.596588 0
M  V30 11086 H 1043.11 -4.93272 -2.06365 0
M  V30 11087 H 1043.46 -3.2907 -2.54988 0
M  V30 11088 H 1043.99 -3.86281 -0.950342 0
M  V30 11089 H 1040.73 -6.5433 0.391543 0
M  V30 11090 H 1040.25 -5.87935 -1.18711 0
M  V30 11091 H 1041.93 -6.40558 -0.910739 0
M  V30 11092 N 1042.06 0.170153 -1.56679 0
M  V30 11093 C 1043.01 1.22997 -1.9742 0
M  V30 11094 C 1044 1.45762 -0.863117 0
M  V30 11095 O 1045.21 1.46328 -1.04824 0
M  V30 11096 H 1041.58 0.413482 -0.628122 0
M  V30 11097 H 1043.55 0.859502 -2.85754 0
M  V30 11098 C 1042.3 2.5615 -2.35122 0
M  V30 11099 H 1041.63 2.39456 -3.20158 0
M  V30 11100 H 1043.07 3.28991 -2.67471 0
M  V30 11101 C 1041.53 3.14992 -1.19507 0
M  V30 11102 O 1042.06 3.98781 -0.483357 0
M  V30 11103 N 1040.26 2.74098 -0.965332 0
M  V30 11104 H 1039.81 2.06062 -1.54585 0
M  V30 11105 H 1039.77 3.13803 -0.193611 0
M  V30 11106 N 1043.54 1.5137 0.438746 0
M  V30 11107 C 1044.82 1.54508 1.19944 0
M  V30 11108 C 1045.2 0.308525 2.08833 0
M  V30 11109 O 1044.54 -0.706461 2.17305 0
M  V30 11110 C 1044.75 2.85833 2.00251 0
M  V30 11111 C 1046.1 3.37729 2.5734 0
M  V30 11112 O 1047.13 2.87374 2.10463 0
M  V30 11113 O 1045.98 4.25589 3.42836 0
M  V30 11114 H 1043.08 0.621132 0.546007 0
M  V30 11115 H 1045.62 1.63682 0.447931 0
M  V30 11116 H 1044.4 3.67291 1.34955 0
M  V30 11117 H 1044.02 2.79815 2.8247 0
M  V30 11118 N 1045.02 -0.694098 1.41492 0
M  V30 11119 C 1045.98 -1.78976 1.43179 0
M  V30 11120 C 1046.98 -1.57539 0.322191 0
M  V30 11121 O 1048.17 -1.64185 0.582138 0
M  V30 11122 C 1045.3 -3.17368 1.2446 0
M  V30 11123 H 1046.49 -1.78874 2.40716 0
M  V30 11124 H 1044.05 -0.901867 1.27656 0
M  V30 11125 H 1044.78 -3.23109 0.277691 0
M  V30 11126 H 1044.57 -3.3433 2.04856 0
M  V30 11127 H 1046.06 -3.97345 1.28479 0
M  V30 11128 N 1046.49 -1.27344 -0.928501 0
M  V30 11129 C 1047.72 -1.16278 -1.70772 0
M  V30 11130 C 1048.13 0.283131 -1.8707 0
M  V30 11131 O 1047.48 1.20466 -1.38685 0
M  V30 11132 C 1047.54 -1.77313 -3.1273 0
M  V30 11133 C 1047.2 -3.26488 -3.19773 0
M  V30 11134 C 1048.2 -4.23133 -3.02083 0
M  V30 11135 C 1045.88 -3.67182 -3.42757 0
M  V30 11136 C 1047.88 -5.5845 -3.07267 0
M  V30 11137 C 1045.56 -5.02629 -3.47574 0
M  V30 11138 C 1046.56 -5.98072 -3.29847 0
M  V30 11139 O 1046.25 -7.3105 -3.34397 0
M  V30 11140 H 1045.98 -0.405215 -0.541089 0
M  V30 11141 H 1048.54 -1.68707 -1.17163 0
M  V30 11142 H 1046.77 -1.19361 -3.67818 0
M  V30 11143 H 1048.46 -1.60972 -3.72616 0
M  V30 11144 H 1049.22 -3.93031 -2.84168 0
M  V30 11145 H 1045.1 -2.93369 -3.55606 0
M  V30 11146 H 1048.64 -6.32924 -2.93348 0
M  V30 11147 H 1044.54 -5.32387 -3.65013 0
M  V30 11148 H 1045.31 -7.39488 -3.50857 0
M  V30 11149 N 1047.97 1.13488 -1.09353 0
M  V30 11150 C 1048.92 2.18876 -0.732251 0
M  V30 11151 C 1049.89 1.63616 0.286175 0
M  V30 11152 O 1051.07 1.90059 0.167981 0
M  V30 11153 C 1048.21 3.44737 -0.158157 0
M  V30 11154 C 1047.33 4.14104 -1.23053 0
M  V30 11155 C 1046.46 5.27578 -0.619272 0
M  V30 11156 C 1045.5 5.88793 -1.67301 0
M  V30 11157 N 1044.64 6.937 -1.08283 0
M  V30 11158 H 1049.48 2.49128 -1.63522 0
M  V30 11159 H 1047.02 1.22326 -0.816995 0
M  V30 11160 H 1048.97 4.16756 0.192488 0
M  V30 11161 H 1047.6 3.14938 0.708082 0
M  V30 11162 H 1046.66 3.40376 -1.69847 0
M  V30 11163 H 1047.97 4.55683 -2.02865 0
M  V30 11164 H 1047.12 6.0631 -0.217428 0
M  V30 11165 H 1045.86 4.87246 0.210399 0
M  V30 11166 H 1044.87 5.08756 -2.0844 0
M  V30 11167 H 1046.09 6.31197 -2.50533 0
M  V30 11168 H 1044.04 6.55426 -0.274426 0
M  V30 11169 H 1043.95 7.33817 -1.81792 0
M  V30 11170 H 1045.22 7.76286 -0.707167 0
M  V30 11171 N 1049.45 0.880621 1.30701 0
M  V30 11172 C 1050.87 0.574015 1.4892 0
M  V30 11173 C 1051.07 -0.889312 1.80813 0
M  V30 11174 O 1050.12 -1.67082 1.89314 0
M  V30 11175 C 1051.44 1.48341 2.61563 0
M  V30 11176 C 1052.98 1.48658 2.75445 0
M  V30 11177 C 1053.46 2.3818 3.91196 0
M  V30 11178 N 1054.95 2.36119 3.985 0
M  V30 11179 C 1055.69 3.02101 4.87363 0
M  V30 11180 N 1055.18 3.77293 5.81052 0
M  V30 11181 N 1056.97 2.91356 4.80696 0
M  V30 11182 H 1049.13 1.82732 1.08271 0
M  V30 11183 H 1051.39 0.781939 0.535981 0
M  V30 11184 H 1051.09 2.52515 2.44804 0
M  V30 11185 H 1050.97 1.18977 3.57944 0
M  V30 11186 H 1053.36 0.452374 2.91612 0
M  V30 11187 H 1053.44 1.8205 1.79698 0
M  V30 11188 H 1053.08 3.41683 3.75786 0
M  V30 11189 H 1053.01 2.02106 4.86272 0
M  V30 11190 H 1055.5 1.81474 3.31475 0
M  V30 11191 H 1055.81 4.24742 6.45612 0
M  V30 11192 H 1054.16 3.81401 5.80998 0
M  V30 11193 H 1057.35 2.32143 4.06481 0
M  V30 11194 H 1057.52 3.43056 5.49742 0
M  V30 11195 N 1050.93 -1.4397 0.641131 0
M  V30 11196 C 1052.16 -2.06303 0.157006 0
M  V30 11197 C 1052.57 -1.47981 -1.17248 0
M  V30 11198 O 1051.93 -0.606471 -1.72128 0
M  V30 11199 C 1051.98 -3.6147 0.0468425 0
M  V30 11200 O 1051.7 -4.17622 1.32376 0
M  V30 11201 C 1053.2 -4.40857 -0.464795 0
M  V30 11202 H 1050.42 -0.665684 0.0842946 0
M  V30 11203 H 1052.97 -1.84675 0.878363 0
M  V30 11204 H 1051.12 -3.82325 -0.625006 0
M  V30 11205 H 1051.54 -5.11167 1.17509 0
M  V30 11206 H 1053.01 -5.49813 -0.490862 0
M  V30 11207 H 1053.49 -4.13016 -1.4938 0
M  V30 11208 H 1054.09 -4.24943 0.174146 0
M  V30 11209 N 1052.41 -0.382291 -1.52893 0
M  V30 11210 C 1053.65 0.202433 -2.01787 0
M  V30 11211 C 1053.99 1.47044 -1.26853 0
M  V30 11212 O 1053.26 1.91007 -0.366969 0
M  V30 11213 C 1053.54 0.477471 -3.5692 0
M  V30 11214 C 1053.4 -0.805339 -4.42532 0
M  V30 11215 C 1054.72 1.27106 -4.21346 0
M  V30 11216 H 1051.84 0.0720998 -0.733465 0
M  V30 11217 H 1054.48 -0.510478 -1.83014 0
M  V30 11218 H 1052.63 1.08478 -3.73048 0
M  V30 11219 H 1054.3 -1.4424 -4.3817 0
M  V30 11220 H 1052.54 -1.42216 -4.09826 0
M  V30 11221 H 1053.21 -0.567635 -5.49074 0
M  V30 11222 H 1055.69 0.757161 -4.09153 0
M  V30 11223 H 1054.57 1.43225 -5.29885 0
M  V30 11224 H 1054.83 2.28431 -3.78513 0
M  V30 11225 N 1053.89 1.57202 -0.111913 0
M  V30 11226 C 1054.85 2.13778 0.826534 0
M  V30 11227 C 1055.85 1.07097 1.19945 0
M  V30 11228 O 1057.04 1.32906 1.12613 0
M  V30 11229 C 1054.17 2.6722 2.11675 0
M  V30 11230 H 1055.36 2.98023 0.334975 0
M  V30 11231 H 1052.92 1.55696 0.137256 0
M  V30 11232 H 1053.65 1.86542 2.65278 0
M  V30 11233 H 1053.44 3.45235 1.8589 0
M  V30 11234 H 1054.93 3.10926 2.78774 0
M  V30 11235 N 1055.36 -0.161842 1.56767 0
M  V30 11236 C 1056.29 -1.20226 2.0017 0
M  V30 11237 C 1057.27 -1.4564 0.878807 0
M  V30 11238 O 1058.46 -1.56813 1.14557 0
M  V30 11239 C 1055.59 -2.53897 2.36968 0
M  V30 11240 C 1054.54 -2.43033 3.52305 0
M  V30 11241 C 1053.87 -3.81281 3.74872 0
M  V30 11242 C 1055.17 -1.927 4.85453 0
M  V30 11243 H 1056.86 -0.84142 2.87333 0
M  V30 11244 H 1054.41 -0.403309 1.38237 0
M  V30 11245 H 1056.36 -3.26893 2.6593 0
M  V30 11246 H 1055.09 -2.91787 1.46724 0
M  V30 11247 H 1053.75 -1.7249 3.23485 0
M  V30 11248 H 1053.39 -4.1658 2.81904 0
M  V30 11249 H 1053.09 -3.74877 4.52483 0
M  V30 11250 H 1054.62 -4.55848 4.06245 0
M  V30 11251 H 1056.03 -2.55477 5.13229 0
M  V30 11252 H 1054.43 -1.97222 5.66766 0
M  V30 11253 H 1055.5 -0.881816 4.76814 0
M  V30 11254 N 1056.84 -1.516 -0.430713 0
M  V30 11255 C 1057.77 -1.76342 -1.53054 0
M  V30 11256 C 1058.75 -0.61349 -1.58652 0
M  V30 11257 O 1059.94 -0.856888 -1.74273 0
M  V30 11258 C 1057.07 -1.8945 -2.91077 0
M  V30 11259 C 1056.02 -3.04928 -3.00339 0
M  V30 11260 C 1055.35 -3.03228 -4.40405 0
M  V30 11261 C 1056.65 -4.44777 -2.73808 0
M  V30 11262 H 1058.34 -2.68435 -1.326 0
M  V30 11263 H 1055.89 -1.29171 -0.636466 0
M  V30 11264 H 1057.84 -2.05343 -3.67984 0
M  V30 11265 H 1056.56 -0.940114 -3.12777 0
M  V30 11266 H 1055.22 -2.88751 -2.25872 0
M  V30 11267 H 1054.87 -2.05553 -4.59083 0
M  V30 11268 H 1054.57 -3.80776 -4.47531 0
M  V30 11269 H 1056.1 -3.21222 -5.19277 0
M  V30 11270 H 1057.51 -4.6127 -3.40445 0
M  V30 11271 H 1055.91 -5.2408 -2.92335 0
M  V30 11272 H 1056.98 -4.54358 -1.69372 0
M  V30 11273 N 1058.32 0.686584 -1.41858 0
M  V30 11274 C 1059.55 1.47519 -1.45072 0
M  V30 11275 C 1059.96 1.88709 -0.0585868 0
M  V30 11276 O 1059.32 1.57373 0.924116 0
M  V30 11277 C 1059.37 2.73195 -2.36742 0
M  V30 11278 O 1059.09 2.33736 -3.70539 0
M  V30 11279 C 1060.59 3.66861 -2.48854 0
M  V30 11280 H 1057.81 0.454307 -0.493808 0
M  V30 11281 H 1060.36 0.844612 -1.86243 0
M  V30 11282 H 1058.51 3.32468 -1.98856 0
M  V30 11283 H 1058.93 3.14809 -4.19518 0
M  V30 11284 H 1060.4 4.51801 -3.17143 0
M  V30 11285 H 1060.88 4.11961 -1.52265 0
M  V30 11286 H 1061.48 3.13486 -2.87414 0
M  V30 11287 N 1059.8 1.27835 0.921735 0
M  V30 11288 C 1060.71 1.12904 2.05645 0
M  V30 11289 C 1061.72 0.0575704 1.73905 0
M  V30 11290 O 1062.9 0.265261 1.99645 0
M  V30 11291 C 1059.96 0.783957 3.3772 0
M  V30 11292 C 1059.03 1.93694 3.8312 0
M  V30 11293 C 1058.26 1.60823 5.08893 0
M  V30 11294 O 1058.48 0.518873 5.68035 0
M  V30 11295 O 1057.42 2.44932 5.49811 0
M  V30 11296 H 1061.24 2.08143 2.21157 0
M  V30 11297 H 1058.83 1.07078 1.04185 0
M  V30 11298 H 1060.71 0.605107 4.17033 0
M  V30 11299 H 1059.38 -0.138849 3.23402 0
M  V30 11300 H 1058.29 2.17089 3.04669 0
M  V30 11301 H 1059.62 2.84016 4.0199 0
M  V30 11302 N 1061.28 -1.12907 1.09954 0
M  V30 11303 C 1062.22 -2.18485 0.743848 0
M  V30 11304 C 1063.19 -1.63766 -0.277494 0
M  V30 11305 O 1064.38 -1.90146 -0.157899 0
M  V30 11306 C 1061.52 -3.44649 0.176437 0
M  V30 11307 C 1060.63 -4.13445 1.25248 0
M  V30 11308 C 1059.77 -5.27242 0.647242 0
M  V30 11309 C 1058.8 -5.87897 1.70421 0
M  V30 11310 N 1057.94 -6.93116 1.1196 0
M  V30 11311 H 1062.78 -2.48257 1.64841 0
M  V30 11312 H 1060.32 -1.21891 0.823471 0
M  V30 11313 H 1062.28 -4.16852 -0.170384 0
M  V30 11314 H 1060.91 -3.15309 -0.69137 0
M  V30 11315 H 1059.96 -3.39471 1.7165 0
M  V30 11316 H 1061.27 -4.54601 2.05279 0
M  V30 11317 H 1060.42 -6.06186 0.249579 0
M  V30 11318 H 1059.16 -4.87351 -0.184556 0
M  V30 11319 H 1058.17 -5.07643 2.11136 0
M  V30 11320 H 1059.39 -6.2986 2.53877 0
M  V30 11321 H 1057.34 -6.55271 0.309181 0
M  V30 11322 H 1057.26 -7.32843 1.85681 0
M  V30 11323 H 1058.52 -7.759 0.748326 0
M  V30 11324 N 1062.75 -0.88754 -1.30232 0
M  V30 11325 C 1063.7 -0.354497 -2.28061 0
M  V30 11326 C 1064.67 0.556732 -1.56492 0
M  V30 11327 O 1065.86 0.484597 -1.84543 0
M  V30 11328 C 1063 0.422701 -3.42501 0
M  V30 11329 C 1062.11 -0.518036 -4.28883 0
M  V30 11330 C 1061.24 0.275011 -5.30488 0
M  V30 11331 C 1060.28 -0.661032 -6.0852 0
M  V30 11332 N 1059.42 0.0968509 -7.02033 0
M  V30 11333 H 1064.26 -1.19388 -2.73039 0
M  V30 11334 H 1061.8 -0.600091 -1.34303 0
M  V30 11335 H 1063.75 0.889249 -4.07613 0
M  V30 11336 H 1062.38 1.22664 -2.98586 0
M  V30 11337 H 1061.44 -1.10308 -3.64055 0
M  V30 11338 H 1062.75 -1.23504 -4.83268 0
M  V30 11339 H 1061.9 0.803301 -6.01358 0
M  V30 11340 H 1060.64 1.02522 -4.76802 0
M  V30 11341 H 1059.65 -1.20093 -5.36524 0
M  V30 11342 H 1060.87 -1.41037 -6.64293 0
M  V30 11343 H 1058.82 0.829548 -6.50734 0
M  V30 11344 H 1058.73 -0.560476 -7.5392 0
M  V30 11345 H 1060 0.6058 -7.77142 0
M  V30 11346 N 1064.23 1.43628 -0.648757 0
M  V30 11347 C 1065.2 2.29172 0.0360713 0
M  V30 11348 C 1066.2 1.41974 0.754976 0
M  V30 11349 O 1067.39 1.63654 0.5969 0
M  V30 11350 C 1064.52 3.23942 1.0618 0
M  V30 11351 H 1065.71 2.91214 -0.716544 0
M  V30 11352 H 1063.26 1.50833 -0.409759 0
M  V30 11353 H 1064 2.66786 1.8438 0
M  V30 11354 H 1063.78 3.88223 0.550016 0
M  V30 11355 H 1065.27 3.8816 1.54019 0
M  V30 11356 N 1065.71 0.390394 1.52688 0
M  V30 11357 C 1066.99 -0.249068 1.94008 0
M  V30 11358 C 1067.37 -1.64263 1.32593 0
M  V30 11359 O 1066.72 -2.23086 0.494448 0
M  V30 11360 C 1066.93 -0.274318 3.4792 0
M  V30 11361 C 1068.27 -0.502743 4.21613 0
M  V30 11362 O 1069.3 -0.35448 3.54432 0
M  V30 11363 O 1068.16 -0.79334 5.40711 0
M  V30 11364 H 1065.25 -0.155116 0.812323 0
M  V30 11365 H 1067.8 0.44498 1.63762 0
M  V30 11366 H 1066.57 0.701766 3.84956 0
M  V30 11367 H 1066.19 -1.01324 3.84473 0
M  V30 11368 N 1067.19 -1.57141 0.120249 0
M  V30 11369 C 1068.43 -1.95527 -0.538245 0
M  V30 11370 C 1068.77 -1.00373 -1.6625 0
M  V30 11371 O 1068.04 -0.0411734 -1.94456 0
M  V30 11372 C 1068.33 -3.43843 -1.06976 0
M  V30 11373 C 1068.18 -4.49771 0.0511596 0
M  V30 11374 C 1069.5 -3.94035 -1.96022 0
M  V30 11375 H 1066.62 -0.710958 -0.194183 0
M  V30 11376 H 1069.26 -1.88986 0.196061 0
M  V30 11377 H 1067.41 -3.49548 -1.69553 0
M  V30 11378 H 1069.08 -4.56163 0.686503 0
M  V30 11379 H 1067.32 -4.27882 0.714127 0
M  V30 11380 H 1067.99 -5.50812 -0.361995 0
M  V30 11381 H 1070.47 -3.9064 -1.43315 0
M  V30 11382 H 1069.35 -4.98329 -2.3013 0
M  V30 11383 H 1069.61 -3.34803 -2.8872 0
M  V30 11384 N 1068.67 0.153526 -1.5685 0
M  V30 11385 C 1069.58 1.20932 -2.01029 0
M  V30 11386 C 1070.59 1.47401 -0.924598 0
M  V30 11387 O 1071.77 1.592 -1.23359 0
M  V30 11388 C 1068.83 2.52438 -2.37647 0
M  V30 11389 C 1067.89 2.33673 -3.60132 0
M  V30 11390 C 1067.13 3.58909 -3.94994 0
M  V30 11391 O 1067.35 4.64823 -3.30599 0
M  V30 11392 O 1066.28 3.5196 -4.8827 0
M  V30 11393 H 1070.11 0.864273 -2.91143 0
M  V30 11394 H 1067.7 0.361755 -1.44954 0
M  V30 11395 H 1069.58 3.29981 -2.62088 0
M  V30 11396 H 1068.25 2.86486 -1.5069 0
M  V30 11397 H 1067.16 1.54102 -3.40886 0
M  V30 11398 H 1068.49 2.04544 -4.47686 0
M  V30 11399 N 1070.14 1.51827 0.422667 0
M  V30 11400 C 1071.09 1.74198 1.51406 0
M  V30 11401 C 1072.06 0.584013 1.55494 0
M  V30 11402 O 1073.25 0.820079 1.72277 0
M  V30 11403 C 1070.39 1.88627 2.88988 0
M  V30 11404 C 1069.5 3.16233 2.94314 0
M  V30 11405 C 1068.63 3.21172 4.2311 0
M  V30 11406 C 1067.67 4.43033 4.2236 0
M  V30 11407 N 1066.81 4.4544 5.42704 0
M  V30 11408 H 1071.65 2.67352 1.31632 0
M  V30 11409 H 1069.19 1.32487 0.63919 0
M  V30 11410 H 1071.15 1.94976 3.68837 0
M  V30 11411 H 1069.78 0.988673 3.07287 0
M  V30 11412 H 1068.83 3.19123 2.07039 0
M  V30 11413 H 1070.14 4.06104 2.89623 0
M  V30 11414 H 1069.29 3.26517 5.11343 0
M  V30 11415 H 1068.03 2.29216 4.30478 0
M  V30 11416 H 1067.04 4.37849 3.32518 0
M  V30 11417 H 1068.26 5.3627 4.16643 0
M  V30 11418 H 1066.21 3.56361 5.50766 0
M  V30 11419 H 1066.13 5.29138 5.39953 0
M  V30 11420 H 1067.39 4.54997 6.32928 0
M  V30 11421 N 1071.62 -0.679052 1.4222 0
M  V30 11422 C 1072.87 -1.44125 1.42674 0
M  V30 11423 C 1073.2 -1.94156 0.041438 0
M  V30 11424 O 1072.48 -1.70628 -0.93361 0
M  V30 11425 C 1072.76 -2.64133 2.44756 0
M  V30 11426 C 1072.61 -2.19761 3.9246 0
M  V30 11427 C 1073.93 -3.66347 2.43881 0
M  V30 11428 H 1071.05 -0.522729 0.519541 0
M  V30 11429 H 1073.69 -0.772067 1.73606 0
M  V30 11430 H 1071.84 -3.21225 2.1851 0
M  V30 11431 H 1073.51 -1.67869 4.29671 0
M  V30 11432 H 1071.76 -1.51377 4.06531 0
M  V30 11433 H 1072.43 -3.05944 4.59459 0
M  V30 11434 H 1074.9 -3.18963 2.67211 0
M  V30 11435 H 1073.78 -4.47902 3.17293 0
M  V30 11436 H 1074.04 -4.17183 1.46325 0
M  V30 11437 N 1073.1 -1.28322 -0.914942 0
M  V30 11438 C 1074.06 -1.12169 -1.99877 0
M  V30 11439 C 1075.06 -0.0617252 -1.60681 0
M  V30 11440 O 1076.25 -0.307405 -1.71466 0
M  V30 11441 C 1073.39 -0.711959 -3.33383 0
M  V30 11442 H 1074.58 -2.08425 -2.15636 0
M  V30 11443 H 1072.13 -1.11291 -1.09745 0
M  V30 11444 H 1072.87 0.251418 -3.23324 0
M  V30 11445 H 1072.65 -1.47764 -3.63192 0
M  V30 11446 H 1074.14 -0.621558 -4.12948 0
M  V30 11447 N 1074.58 1.12322 -1.10551 0
M  V30 11448 C 1075.51 2.20176 -0.777486 0
M  V30 11449 C 1076.49 1.68252 0.250069 0
M  V30 11450 O 1077.67 1.93856 0.115574 0
M  V30 11451 C 1074.8 3.46666 -0.209822 0
M  V30 11452 C 1073.76 4.11749 -1.1682 0
M  V30 11453 C 1073.08 5.32703 -0.461684 0
M  V30 11454 C 1074.38 4.57746 -2.51527 0
M  V30 11455 H 1076.08 2.47872 -1.67928 0
M  V30 11456 H 1073.62 1.19136 -0.808863 0
M  V30 11457 H 1075.58 4.21388 0.0318068 0
M  V30 11458 H 1074.3 3.18401 0.727226 0
M  V30 11459 H 1072.96 3.39009 -1.3953 0
M  V30 11460 H 1072.61 5.00706 0.479875 0
M  V30 11461 H 1072.31 5.77197 -1.1008 0
M  V30 11462 H 1073.83 6.10172 -0.228629 0
M  V30 11463 H 1075.25 5.23835 -2.32958 0
M  V30 11464 H 1073.64 5.13021 -3.11335 0
M  V30 11465 H 1074.71 3.71667 -3.11435 0
M  V30 11466 N 1076.06 0.894434 1.2976 0
M  V30 11467 C 1076.99 0.3847 2.30309 0
M  V30 11468 C 1077.97 -0.537486 1.61385 0
M  V30 11469 O 1079.15 -0.449332 1.8893 0
M  V30 11470 C 1076.28 -0.393311 3.45066 0
M  V30 11471 C 1075.24 0.437968 4.25753 0
M  V30 11472 C 1074.56 -0.467221 5.32655 0
M  V30 11473 C 1075.86 1.6851 4.9437 0
M  V30 11474 H 1077.56 1.22496 2.73194 0
M  V30 11475 H 1075.1 0.590471 1.31337 0
M  V30 11476 H 1077.06 -0.760614 4.14479 0
M  V30 11477 H 1075.78 -1.2673 3.0101 0
M  V30 11478 H 1074.44 0.787533 3.58041 0
M  V30 11479 H 1074.09 -1.33919 4.84845 0
M  V30 11480 H 1073.79 0.0852482 5.87538 0
M  V30 11481 H 1075.31 -0.830833 6.04921 0
M  V30 11482 H 1076.72 1.38784 5.56248 0
M  V30 11483 H 1075.12 2.17849 5.59162 0
M  V30 11484 H 1076.19 2.42412 4.19958 0
M  V30 11485 N 1077.53 -1.43282 0.656365 0
M  V30 11486 C 1078.46 -2.33492 -0.0196962 0
M  V30 11487 C 1079.45 -1.49647 -0.80868 0
M  V30 11488 O 1080.63 -1.78303 -0.769529 0
M  V30 11489 C 1077.76 -3.33052 -0.984574 0
M  V30 11490 C 1076.71 -4.26908 -0.305483 0
M  V30 11491 C 1076.04 -5.16531 -1.38202 0
M  V30 11492 C 1077.34 -5.16073 0.804081 0
M  V30 11493 H 1079.03 -2.90272 0.733661 0
M  V30 11494 H 1076.58 -1.39574 0.354259 0
M  V30 11495 H 1078.53 -3.9506 -1.46647 0
M  V30 11496 H 1077.26 -2.74535 -1.76913 0
M  V30 11497 H 1075.92 -3.66268 0.155995 0
M  V30 11498 H 1075.56 -4.54351 -2.1581 0
M  V30 11499 H 1075.26 -5.80148 -0.932878 0
M  V30 11500 H 1076.79 -5.81414 -1.86522 0
M  V30 11501 H 1078.2 -5.71873 0.404212 0
M  V30 11502 H 1076.6 -5.88427 1.17789 0
M  V30 11503 H 1077.67 -4.55574 1.66073 0
M  V30 11504 N 1079.01 -0.398486 -1.52479 0
M  V30 11505 C 1079.94 0.423498 -2.29627 0
M  V30 11506 C 1080.92 1.05547 -1.33394 0
M  V30 11507 O 1082.11 1.0665 -1.62294 0
M  V30 11508 C 1079.24 1.54612 -3.10986 0
M  V30 11509 C 1078.19 1.03971 -4.15179 0
M  V30 11510 C 1077.52 2.25512 -4.84818 0
M  V30 11511 C 1078.82 0.10121 -5.22202 0
M  V30 11512 H 1080.51 -0.220222 -2.98589 0
M  V30 11513 H 1078.06 -0.107355 -1.43599 0
M  V30 11514 H 1080.01 2.12806 -3.63719 0
M  V30 11515 H 1078.74 2.21756 -2.39774 0
M  V30 11516 H 1077.4 0.480251 -3.63441 0
M  V30 11517 H 1077.04 2.91187 -4.10145 0
M  V30 11518 H 1076.74 1.92285 -5.55248 0
M  V30 11519 H 1078.27 2.84331 -5.40359 0
M  V30 11520 H 1079.68 0.591617 -5.70239 0
M  V30 11521 H 1078.08 -0.141737 -5.99933 0
M  V30 11522 H 1079.15 -0.847216 -4.77441 0
M  V30 11523 N 1080.49 1.57075 -0.12858 0
M  V30 11524 C 1081.4 2.19369 0.831533 0
M  V30 11525 C 1082.42 1.17258 1.28555 0
M  V30 11526 O 1083.59 1.49766 1.34656 0
M  V30 11527 C 1080.66 2.78846 2.06024 0
M  V30 11528 C 1079.72 3.96024 1.65722 0
M  V30 11529 C 1078.95 4.52655 2.82735 0
M  V30 11530 O 1079.18 4.08175 3.98434 0
M  V30 11531 O 1078.11 5.43198 2.59268 0
M  V30 11532 H 1081.94 3.01887 0.331352 0
M  V30 11533 H 1079.52 1.49081 0.0975226 0
M  V30 11534 H 1081.4 3.16721 2.77967 0
M  V30 11535 H 1080.08 1.99353 2.5503 0
M  V30 11536 H 1078.98 3.62899 0.908574 0
M  V30 11537 H 1080.32 4.76981 1.21449 0
M  V30 11538 N 1081.97 -0.145205 1.5693 0
M  V30 11539 C 1082.92 -1.17923 1.98401 0
M  V30 11540 C 1083.89 -1.42591 0.851885 0
M  V30 11541 O 1085.07 -1.54896 1.11409 0
M  V30 11542 C 1082.21 -2.50727 2.37128 0
M  V30 11543 C 1081.32 -2.33218 3.63639 0
M  V30 11544 C 1080.46 -3.5907 3.91462 0
M  V30 11545 C 1079.5 -3.36605 5.11237 0
M  V30 11546 N 1078.64 -4.54592 5.35061 0
M  V30 11547 H 1083.48 -0.818573 2.86537 0
M  V30 11548 H 1081.01 -0.392739 1.4176 0
M  V30 11549 H 1082.97 -3.28165 2.57611 0
M  V30 11550 H 1081.6 -2.84736 1.52069 0
M  V30 11551 H 1080.65 -1.46826 3.50922 0
M  V30 11552 H 1081.96 -2.12579 4.51234 0
M  V30 11553 H 1081.12 -4.44936 4.12453 0
M  V30 11554 H 1079.86 -3.82715 3.02293 0
M  V30 11555 H 1078.86 -2.49127 4.90118 0
M  V30 11556 H 1080.09 -3.14357 6.01961 0
M  V30 11557 H 1078.03 -4.78406 4.48847 0
M  V30 11558 H 1077.95 -4.36962 6.16928 0
M  V30 11559 H 1079.22 -5.41666 5.60551 0
M  V30 11560 N 1083.45 -1.52049 -0.414609 0
M  V30 11561 C 1084.36 -1.7788 -1.52958 0
M  V30 11562 C 1085.37 -0.66408 -1.60829 0
M  V30 11563 O 1086.55 -0.948882 -1.77646 0
M  V30 11564 C 1083.61 -1.91906 -2.88744 0
M  V30 11565 C 1082.68 -3.15803 -2.90804 0
M  V30 11566 C 1081.91 -3.29151 -4.20114 0
M  V30 11567 O 1082.13 -2.47892 -5.13718 0
M  V30 11568 O 1081.07 -4.2227 -4.28919 0
M  V30 11569 H 1084.89 -2.72506 -1.34067 0
M  V30 11570 H 1082.48 -1.36826 -0.599918 0
M  V30 11571 H 1084.36 -2.02986 -3.6929 0
M  V30 11572 H 1083.03 -1.00468 -3.07714 0
M  V30 11573 H 1081.94 -3.10185 -2.09131 0
M  V30 11574 H 1083.27 -4.07004 -2.76783 0
M  V30 11575 N 1084.93 0.6715 -1.42579 0
M  V30 11576 C 1086.17 1.43366 -1.43436 0
M  V30 11577 C 1086.5 1.94131 -0.0517339 0
M  V30 11578 O 1085.78 1.71121 0.924548 0
M  V30 11579 C 1086.06 2.62832 -2.46154 0
M  V30 11580 C 1085.92 2.17677 -3.9362 0
M  V30 11581 C 1087.23 3.65049 -2.4582 0
M  V30 11582 H 1084.35 0.519967 -0.522306 0
M  V30 11583 H 1087 0.762849 -1.74013 0
M  V30 11584 H 1085.15 3.20062 -2.2021 0
M  V30 11585 H 1086.82 1.65588 -4.30556 0
M  V30 11586 H 1085.06 1.49219 -4.07328 0
M  V30 11587 H 1085.73 3.03503 -4.61075 0
M  V30 11588 H 1088.21 3.17541 -2.68899 0
M  V30 11589 H 1087.08 4.46213 -3.19664 0
M  V30 11590 H 1087.34 4.16401 -1.48536 0
M  V30 11591 N 1086.4 1.28806 0.908124 0
M  V30 11592 C 1087.33 1.15758 2.02787 0
M  V30 11593 C 1088.31 0.053911 1.70015 0
M  V30 11594 O 1089.5 0.231901 1.9281 0
M  V30 11595 C 1086.63 0.824526 3.37371 0
M  V30 11596 C 1085.58 1.88359 3.84324 0
M  V30 11597 C 1084.91 1.40404 5.15937 0
M  V30 11598 C 1086.21 3.29108 4.05568 0
M  V30 11599 H 1087.9 2.09431 2.13961 0
M  V30 11600 H 1085.45 1.00831 1.02806 0
M  V30 11601 H 1087.4 0.71999 4.15204 0
M  V30 11602 H 1086.13 -0.147902 3.26265 0
M  V30 11603 H 1084.79 1.97736 3.087 0
M  V30 11604 H 1084.43 0.420515 5.01239 0
M  V30 11605 H 1084.13 2.11224 5.48323 0
M  V30 11606 H 1085.66 1.31283 5.9632 0
M  V30 11607 H 1087.07 3.2262 4.73909 0
M  V30 11608 H 1085.47 3.97812 4.49294 0
M  V30 11609 H 1086.54 3.72709 3.10187 0
M  V30 11610 N 1087.88 -1.11734 1.11145 0
M  V30 11611 C 1089.16 -1.79795 0.770261 0
M  V30 11612 C 1089.54 -1.97624 -0.742158 0
M  V30 11613 O 1088.89 -1.55847 -1.67105 0
M  V30 11614 C 1089.1 -3.13684 1.52982 0
M  V30 11615 C 1090.44 -3.88771 1.70711 0
M  V30 11616 O 1091.47 -3.23363 1.49381 0
M  V30 11617 O 1090.33 -5.06134 2.06132 0
M  V30 11618 H 1087.42 -0.778617 0.27872 0
M  V30 11619 H 1089.97 -1.18504 1.2147 0
M  V30 11620 H 1088.74 -2.96043 2.55879 0
M  V30 11621 H 1088.36 -3.82687 1.07873 0
M  V30 11622 N 1089.36 -0.901303 -1.29284 0
M  V30 11623 C 1090.31 -0.378666 -2.27672 0
M  V30 11624 C 1091.28 0.540102 -1.57074 0
M  V30 11625 O 1092.46 0.464997 -1.85047 0
M  V30 11626 C 1089.6 0.38635 -3.42931 0
M  V30 11627 C 1088.71 -0.563496 -4.28309 0
M  V30 11628 C 1087.85 0.218731 -5.30749 0
M  V30 11629 C 1086.89 -0.725536 -6.07785 0
M  V30 11630 N 1086.03 0.0223854 -7.02096 0
M  V30 11631 H 1090.87 -1.22277 -2.71758 0
M  V30 11632 H 1088.4 -0.614302 -1.33659 0
M  V30 11633 H 1090.36 0.845967 -4.08533 0
M  V30 11634 H 1088.99 1.1949 -2.9987 0
M  V30 11635 H 1088.04 -1.14163 -3.62865 0
M  V30 11636 H 1089.35 -1.28623 -4.81931 0
M  V30 11637 H 1088.51 0.739473 -6.02177 0
M  V30 11638 H 1087.25 0.97459 -4.77863 0
M  V30 11639 H 1086.25 -1.25776 -5.3522 0
M  V30 11640 H 1087.48 -1.48075 -6.6276 0
M  V30 11641 H 1085.42 0.760482 -6.51577 0
M  V30 11642 H 1085.34 -0.640408 -7.53283 0
M  V30 11643 H 1086.61 0.523339 -7.77741 0
M  V30 11644 N 1090.84 1.42931 -0.663954 0
M  V30 11645 C 1091.79 2.32577 0.03287 0
M  V30 11646 C 1092.78 1.49217 0.801918 0
M  V30 11647 O 1093.99 1.65358 0.711106 0
M  V30 11648 H 1090.36 0.751424 0.0294198 0
M  V30 11649 H 1092.33 2.89059 -0.740763 0
M  V30 11650 C 1091.08 3.33661 0.978025 0
M  V30 11651 H 1090.4 3.97837 0.395681 0
M  V30 11652 H 1091.84 3.98997 1.43448 0
M  V30 11653 C 1090.3 2.65085 2.07922 0
M  V30 11654 O 1090.83 2.4745 3.16435 0
M  V30 11655 N 1089.04 2.24285 1.84783 0
M  V30 11656 H 1088.59 2.38827 0.965368 0
M  V30 11657 H 1088.54 1.78732 2.58655 0
M  V30 11658 N 1092.32 0.406567 1.52266 0
M  V30 11659 C 1093.59 -0.228477 1.94261 0
M  V30 11660 C 1093.97 -1.62848 1.34328 0
M  V30 11661 O 1093.32 -2.22549 0.518082 0
M  V30 11662 C 1093.53 -0.237401 3.48192 0
M  V30 11663 C 1094.88 -0.457997 4.22123 0
M  V30 11664 O 1095.9 -0.316868 3.54788 0
M  V30 11665 O 1094.76 -0.735946 5.41522 0
M  V30 11666 H 1091.86 -0.146492 0.813922 0
M  V30 11667 H 1094.4 0.462325 1.63281 0
M  V30 11668 H 1093.17 0.742556 3.8419 0
M  V30 11669 H 1092.8 -0.972408 3.85526 0
M  V30 11670 N 1093.79 -1.57004 0.136909 0
M  V30 11671 C 1094.73 -2.12004 -0.844362 0
M  V30 11672 C 1095.71 -1.04099 -1.24909 0
M  V30 11673 O 1096.89 -1.31866 -1.34698 0
M  V30 11674 C 1094.02 -2.63147 -2.13241 0
M  V30 11675 C 1093.06 -3.83105 -1.87438 0
M  V30 11676 S 1093.9 -5.2461 -1.07447 0
M  V30 11677 C 1095.05 -5.79134 -2.37392 0
M  V30 11678 H 1095.28 -2.94905 -0.376614 0
M  V30 11679 H 1092.82 -1.54207 -0.0771977 0
M  V30 11680 H 1094.78 -2.93264 -2.87239 0
M  V30 11681 H 1093.44 -1.80395 -2.57131 0
M  V30 11682 H 1092.63 -4.17099 -2.82922 0
M  V30 11683 H 1092.23 -3.53696 -1.21553 0
M  V30 11684 H 1094.52 -5.8995 -3.33114 0
M  V30 11685 H 1095.47 -6.76887 -2.07918 0
M  V30 11686 H 1095.87 -5.07311 -2.47579 0
M  V30 11687 N 1095.27 0.136881 -1.57004 0
M  V30 11688 C 1096.52 0.849031 -1.84172 0
M  V30 11689 C 1096.85 1.80359 -0.720027 0
M  V30 11690 O 1096.13 1.92538 0.275584 0
M  V30 11691 C 1096.41 1.61465 -3.21871 0
M  V30 11692 C 1096.26 0.680902 -4.44616 0
M  V30 11693 C 1097.58 2.57488 -3.56914 0
M  V30 11694 H 1094.7 0.307209 -0.669919 0
M  V30 11695 H 1097.34 0.113862 -1.89659 0
M  V30 11696 H 1095.49 2.24137 -3.17325 0
M  V30 11697 H 1097.16 0.0644094 -4.61255 0
M  V30 11698 H 1095.41 -0.00883629 -4.33799 0
M  V30 11699 H 1096.08 1.25286 -5.37594 0
M  V30 11700 H 1098.55 2.0493 -3.62136 0
M  V30 11701 H 1097.43 3.08101 -4.54274 0
M  V30 11702 H 1097.69 3.39321 -2.83397 0
M  V30 11703 N 1096.75 1.52266 0.40654 0
M  V30 11704 C 1097.66 1.78688 1.52012 0
M  V30 11705 C 1098.68 0.6726 1.60475 0
M  V30 11706 O 1099.85 0.95829 1.77141 0
M  V30 11707 C 1096.92 1.93434 2.87722 0
M  V30 11708 C 1095.98 3.17341 2.89125 0
M  V30 11709 C 1095.21 3.31374 4.18362 0
M  V30 11710 O 1095.43 2.50613 5.12396 0
M  V30 11711 O 1094.37 4.24539 4.26674 0
M  V30 11712 H 1098.19 2.73213 1.3262 0
M  V30 11713 H 1095.78 1.37142 0.592653 0
M  V30 11714 H 1097.66 2.04941 3.68208 0
M  V30 11715 H 1096.34 1.02099 3.07177 0
M  V30 11716 H 1095.24 3.1129 2.07483 0
M  V30 11717 H 1096.58 4.08466 2.7462 0
M  V30 11718 N 1098.23 -0.663929 1.42933 0
M  V30 11719 C 1099.16 -1.78899 1.50058 0
M  V30 11720 C 1100.14 -1.66329 0.356164 0
M  V30 11721 O 1101.32 -1.85587 0.571944 0
M  V30 11722 C 1098.45 -3.17265 1.41281 0
M  V30 11723 C 1097.41 -3.44584 2.53861 0
M  V30 11724 C 1096.73 -4.82638 2.3014 0
M  V30 11725 C 1098.03 -3.40394 3.96143 0
M  V30 11726 H 1099.73 -1.73194 2.44222 0
M  V30 11727 H 1097.27 -0.83182 1.17545 0
M  V30 11728 H 1099.23 -3.95715 1.44872 0
M  V30 11729 H 1097.95 -3.23675 0.43616 0
M  V30 11730 H 1096.61 -2.685 2.49606 0
M  V30 11731 H 1096.26 -4.85711 1.30743 0
M  V30 11732 H 1095.96 -5.01879 3.056 0
M  V30 11733 H 1097.48 -5.63359 2.35497 0
M  V30 11734 H 1098.9 -4.08796 4.01943 0
M  V30 11735 H 1097.29 -3.7117 4.71543 0
M  V30 11736 H 1098.36 -2.38767 4.22041 0
M  V30 11737 N 1099.71 -1.29285 -0.901281 0
M  V30 11738 C 1100.64 -1.16832 -2.0217 0
M  V30 11739 C 1101.62 -0.0629265 -1.69984 0
M  V30 11740 O 1102.8 -0.242123 -1.92685 0
M  V30 11741 C 1099.93 -0.842406 -3.36929 0
M  V30 11742 C 1098.89 -1.90394 -3.8332 0
M  V30 11743 C 1098.21 -1.43138 -5.15185 0
M  V30 11744 C 1099.51 -3.31254 -4.03817 0
M  V30 11745 H 1101.21 -2.10562 -2.12847 0
M  V30 11746 H 1098.75 -1.01375 -1.0227 0
M  V30 11747 H 1100.71 -0.741999 -4.14816 0
M  V30 11748 H 1099.43 0.130598 -3.26339 0
M  V30 11749 H 1098.09 -1.99371 -3.07647 0
M  V30 11750 H 1097.74 -0.447091 -5.01009 0
M  V30 11751 H 1097.44 -2.14129 -5.47195 0
M  V30 11752 H 1098.96 -1.34444 -5.95615 0
M  V30 11753 H 1100.37 -3.25129 -4.72191 0
M  V30 11754 H 1098.77 -4.00189 -4.47178 0
M  V30 11755 H 1099.84 -3.74349 -3.08206 0
M  V30 11756 N 1101.18 1.11143 -1.11736 0
M  V30 11757 C 1102.43 1.82586 -0.866412 0
M  V30 11758 C 1102.75 1.85227 0.609593 0
M  V30 11759 O 1102.02 1.32505 1.44288 0
M  V30 11760 H 1100.6 0.676149 -0.31754 0
M  V30 11761 H 1103.27 1.34516 -1.41037 0
M  V30 11762 H 1102.36 2.8635 -1.24136 0
M  V30 11763 N 1102.66 0.908147 1.28804 0
M  V30 11764 C 1104.07 0.585727 1.77274 0
M  V30 11765 C 1104.42 -0.898842 1.744 0
M  V30 11766 O 1103.55 -1.70301 1.33516 0
M  V30 11767 C 1104.14 1.05647 3.21907 0
M  V30 11768 C 1102.7 0.785066 3.68122 0
M  V30 11769 C 1101.85 1.22638 2.48707 0
M  V30 11770 H 1104.8 1.09 1.15346 0
M  V30 11771 H 1104.82 0.395442 3.7844 0
M  V30 11772 H 1104.33 2.13698 3.23967 0
M  V30 11773 H 1102.44 -0.282477 3.71528 0
M  V30 11774 H 1102.55 1.38888 4.58527 0
M  V30 11775 H 1100.91 0.645217 2.46392 0
M  V30 11776 H 1101.7 2.31512 2.5349 0
M  V30 11777 N 1104.14 -1.42577 0.671525 0
M  V30 11778 C 1105.56 -1.5592 0.340769 0
M  V30 11779 C 1105.76 -1.65179 -1.15405 0
M  V30 11780 O 1104.81 -1.61691 -1.93939 0
M  V30 11781 C 1106.13 -2.81087 1.06821 0
M  V30 11782 C 1107.67 -2.94855 1.05022 0
M  V30 11783 C 1108.15 -4.22878 1.75892 0
M  V30 11784 N 1109.64 -4.29783 1.72744 0
M  V30 11785 C 1110.37 -5.2765 2.24439 0
M  V30 11786 N 1109.87 -6.31689 2.84501 0
M  V30 11787 N 1111.66 -5.19426 2.14832 0
M  V30 11788 H 1103.81 -1.34811 1.64133 0
M  V30 11789 H 1106.08 -0.648704 0.691294 0
M  V30 11790 H 1105.78 -2.80371 2.12332 0
M  V30 11791 H 1105.66 -3.71879 0.631356 0
M  V30 11792 H 1108.04 -2.951 0.00345633 0
M  V30 11793 H 1108.13 -2.05303 1.52592 0
M  V30 11794 H 1107.77 -4.23394 2.80535 0
M  V30 11795 H 1107.7 -5.1136 1.25773 0
M  V30 11796 H 1110.19 -3.55225 1.28932 0
M  V30 11797 H 1110.5 -7.02715 3.21575 0
M  V30 11798 H 1108.85 -6.3226 2.88569 0
M  V30 11799 H 1112.04 -4.37067 1.676 0
M  V30 11800 H 1112.21 -5.95535 2.55426 0
M  V30 11801 N 1105.62 -0.414636 -1.52048 0
M  V30 11802 C 1107.03 0.0537107 -1.86623 0
M  V30 11803 C 1107.38 1.43955 -1.3331 0
M  V30 11804 O 1106.51 2.05616 -0.674606 0
M  V30 11805 C 1107.1 0.104241 -3.3864 0
M  V30 11806 C 1105.66 0.516936 -3.72833 0
M  V30 11807 C 1104.81 -0.305042 -2.75617 0
M  V30 11808 H 1107.76 -0.631469 -1.45596 0
M  V30 11809 H 1107.78 0.918395 -3.6925 0
M  V30 11810 H 1107.29 -0.904523 -3.77412 0
M  V30 11811 H 1105.39 1.53214 -3.39641 0
M  V30 11812 H 1105.5 0.2575 -4.78408 0
M  V30 11813 H 1103.87 0.233416 -2.53628 0
M  V30 11814 H 1104.65 -1.31226 -3.1723 0
M  V30 11815 N 1107.1 1.56929 -0.145233 0
M  V30 11816 C 1108.34 1.96068 0.50632 0
M  V30 11817 C 1108.67 1.02999 1.64989 0
M  V30 11818 O 1107.93 0.0588581 1.95611 0
M  V30 11819 C 1108.23 3.41467 1.05522 0
M  V30 11820 C 1107.89 4.5089 0.0302827 0
M  V30 11821 C 1106.55 4.80542 -0.251475 0
M  V30 11822 C 1108.91 5.16917 -0.666783 0
M  V30 11823 C 1106.23 5.7353 -1.23614 0
M  V30 11824 C 1108.59 6.10965 -1.64025 0
M  V30 11825 C 1107.25 6.38998 -1.92973 0
M  V30 11826 H 1106.52 0.717464 0.185276 0
M  V30 11827 H 1109.17 1.90093 -0.23169 0
M  V30 11828 H 1107.47 3.44265 1.87053 0
M  V30 11829 H 1109.17 3.69077 1.5679 0
M  V30 11830 H 1105.76 4.2781 0.260069 0
M  V30 11831 H 1109.94 4.94142 -0.462297 0
M  V30 11832 H 1105.2 5.93543 -1.46687 0
M  V30 11833 H 1109.37 6.61204 -2.18591 0
M  V30 11834 H 1107 7.10855 -2.69423 0
M  V30 11835 N 1108.58 -0.128553 1.57075 0
M  V30 11836 C 1109.54 -1.14215 1.98715 0
M  V30 11837 C 1110.54 -1.34843 0.876019 0
M  V30 11838 O 1111.73 -1.31522 1.14227 0
M  V30 11839 C 1108.86 -2.49865 2.31905 0
M  V30 11840 H 1110.05 -0.784481 2.89458 0
M  V30 11841 H 1107.61 -0.372531 1.51796 0
M  V30 11842 H 1108.34 -2.9057 1.44012 0
M  V30 11843 H 1108.13 -2.3625 3.12935 0
M  V30 11844 H 1109.62 -3.22832 2.64895 0
M  V30 11845 N 1110.05 -1.5248 -0.398459 0
M  V30 11846 C 1110.96 -1.79492 -1.51062 0
M  V30 11847 C 1111.98 -0.681101 -1.60116 0
M  V30 11848 O 1113.16 -0.967671 -1.7663 0
M  V30 11849 C 1110.22 -1.94958 -2.86692 0
M  V30 11850 C 1109.28 -3.1887 -2.87438 0
M  V30 11851 C 1108.51 -3.33588 -4.16599 0
M  V30 11852 O 1108.74 -2.53327 -5.11059 0
M  V30 11853 O 1107.67 -4.26795 -4.24416 0
M  V30 11854 H 1111.5 -2.73913 -1.31169 0
M  V30 11855 H 1109.08 -1.37455 -0.585372 0
M  V30 11856 H 1110.96 -2.06891 -3.67116 0
M  V30 11857 H 1109.64 -1.03726 -3.06631 0
M  V30 11858 H 1108.55 -3.12386 -2.0583 0
M  V30 11859 H 1109.88 -4.09917 -2.7245 0
M  V30 11860 N 1111.53 0.65634 -1.43283 0
M  V30 11861 C 1112.48 1.76934 -1.48199 0
M  V30 11862 C 1113.45 1.62748 -0.332023 0
M  V30 11863 O 1114.63 1.83036 -0.538735 0
M  V30 11864 C 1111.77 3.15072 -1.40797 0
M  V30 11865 C 1110.89 3.40414 -2.65974 0
M  V30 11866 C 1110.02 4.68383 -2.50582 0
M  V30 11867 C 1109.06 4.8682 -3.71043 0
M  V30 11868 N 1108.2 6.06043 -3.5448 0
M  V30 11869 H 1113.04 1.72067 -2.43304 0
M  V30 11870 H 1110.57 0.839728 -1.20777 0
M  V30 11871 H 1112.53 3.94925 -1.345 0
M  V30 11872 H 1111.16 3.19017 -0.492754 0
M  V30 11873 H 1110.21 2.54681 -2.82563 0
M  V30 11874 H 1111.53 3.49925 -3.55463 0
M  V30 11875 H 1110.68 5.56357 -2.41975 0
M  V30 11876 H 1109.42 4.61187 -1.58612 0
M  V30 11877 H 1108.42 3.97282 -3.80062 0
M  V30 11878 H 1109.65 4.95847 -4.64017 0
M  V30 11879 H 1107.6 5.99985 -2.65242 0
M  V30 11880 H 1107.51 6.16498 -4.37568 0
M  V30 11881 H 1108.78 6.96647 -3.49719 0
M  V30 11882 N 1113.01 1.29761 0.894412 0
M  V30 11883 C 1114.23 1.21064 1.68399 0
M  V30 11884 C 1114.66 -0.224608 1.86754 0
M  V30 11885 O 1114.02 -1.16199 1.39167 0
M  V30 11886 C 1114.07 1.93468 3.04306 0
M  V30 11887 O 1113.17 1.25533 3.9283 0
M  V30 11888 H 1112.51 0.419223 0.514925 0
M  V30 11889 H 1115.04 1.71421 1.11696 0
M  V30 11890 H 1115.05 2.02127 3.54413 0
M  V30 11891 H 1113.73 2.97857 2.90265 0
M  V30 11892 H 1112.3 1.25168 3.51266 0
M  V30 11893 N 1114.49 -1.10549 1.12324 0
M  V30 11894 C 1115.72 -1.8627 0.900618 0
M  V30 11895 C 1116.13 -1.80609 -0.550069 0
M  V30 11896 O 1115.49 -1.19396 -1.38025 0
M  V30 11897 C 1115.54 -3.34716 1.36556 0
M  V30 11898 O 1115.26 -3.40279 2.75938 0
M  V30 11899 C 1116.76 -4.27315 1.17969 0
M  V30 11900 H 1113.98 -0.588741 0.321908 0
M  V30 11901 H 1116.52 -1.39759 1.49291 0
M  V30 11902 H 1114.68 -3.78697 0.81652 0
M  V30 11903 H 1115.09 -4.32781 2.96312 0
M  V30 11904 H 1116.57 -5.29677 1.55391 0
M  V30 11905 H 1117.04 -4.39036 0.120158 0
M  V30 11906 H 1117.65 -3.89137 1.71617 0
M  V30 11907 N 1115.97 -0.914965 -1.28321 0
M  V30 11908 C 1117.2 -0.563835 -1.98757 0
M  V30 11909 C 1117.6 0.859528 -1.68549 0
M  V30 11910 O 1116.95 1.58105 -0.935336 0
M  V30 11911 C 1117.01 -0.694539 -3.52727 0
M  V30 11912 C 1116.67 -2.08767 -4.06528 0
M  V30 11913 C 1117.67 -3.06052 -4.20272 0
M  V30 11914 C 1115.35 -2.40118 -4.4119 0
M  V30 11915 C 1117.35 -4.32803 -4.67932 0
M  V30 11916 C 1115.04 -3.67108 -4.88544 0
M  V30 11917 C 1116.03 -4.63265 -5.01871 0
M  V30 11918 O 1115.72 -5.87997 -5.48192 0
M  V30 11919 H 1115.45 -0.213557 -0.641381 0
M  V30 11920 H 1118.01 -1.23062 -1.64453 0
M  V30 11921 H 1116.24 0.0293186 -3.86689 0
M  V30 11922 H 1117.93 -0.350335 -4.04385 0
M  V30 11923 H 1118.69 -2.8315 -3.93765 0
M  V30 11924 H 1114.57 -1.66025 -4.30066 0
M  V30 11925 H 1118.12 -5.07861 -4.78249 0
M  V30 11926 H 1114.01 -3.89834 -5.14489 0
M  V30 11927 H 1114.78 -5.90804 -5.66474 0
M  V30 11928 N 1117.44 1.42219 -0.679077 0
M  V30 11929 C 1118.35 2.346 -0.00345919 0
M  V30 11930 C 1119.37 1.55327 0.784181 0
M  V30 11931 O 1120.55 1.87878 0.725524 0
M  V30 11932 C 1117.61 3.33905 0.933194 0
M  V30 11933 C 1116.67 4.29073 0.139607 0
M  V30 11934 C 1115.9 5.23634 1.03165 0
M  V30 11935 O 1116.13 5.23234 2.27119 0
M  V30 11936 O 1115.06 5.99901 0.490159 0
M  V30 11937 H 1118.89 2.9392 -0.764525 0
M  V30 11938 H 1116.47 1.42794 -0.439329 0
M  V30 11939 H 1118.35 3.949 1.47077 0
M  V30 11940 H 1117.03 2.77052 1.67404 0
M  V30 11941 H 1115.94 3.71478 -0.442177 0
M  V30 11942 H 1117.27 4.88979 -0.562214 0
M  V30 11943 N 1118.92 0.422693 1.51826 0
M  V30 11944 C 1119.83 -0.40261 2.31119 0
M  V30 11945 C 1120.85 -1.04117 1.39412 0
M  V30 11946 O 1122.02 -1.03973 1.72486 0
M  V30 11947 C 1119.09 -1.49699 3.12716 0
M  V30 11948 C 1118.15 -0.880088 4.20182 0
M  V30 11949 C 1117.38 -1.92232 4.97878 0
M  V30 11950 O 1117.61 -3.14246 4.76031 0
M  V30 11951 O 1116.54 -1.521 5.82365 0
M  V30 11952 H 1120.37 0.244308 3.02716 0
M  V30 11953 H 1117.95 0.185569 1.48243 0
M  V30 11954 H 1119.83 -2.13202 3.63487 0
M  V30 11955 H 1118.51 -2.12826 2.43899 0
M  V30 11956 H 1117.41 -0.207404 3.73525 0
M  V30 11957 H 1118.75 -0.292535 4.9133 0
M  V30 11958 N 1120.4 -1.5685 0.153553 0
M  V30 11959 C 1121.65 -1.96334 -0.495915 0
M  V30 11960 C 1121.97 -1.03873 -1.64441 0
M  V30 11961 O 1121.23 -0.069231 -1.95578 0
M  V30 11962 C 1121.53 -3.42022 -1.0371 0
M  V30 11963 C 1121.19 -4.509 -0.00637049 0
M  V30 11964 C 1119.86 -4.80402 0.276956 0
M  V30 11965 C 1122.21 -5.16556 0.694187 0
M  V30 11966 C 1119.54 -5.72866 1.26653 0
M  V30 11967 C 1121.89 -6.10087 1.67263 0
M  V30 11968 C 1120.55 -6.37965 1.96359 0
M  V30 11969 H 1119.82 -0.718436 -0.181468 0
M  V30 11970 H 1122.47 -1.89968 0.241768 0
M  V30 11971 H 1120.77 -3.45252 -1.85225 0
M  V30 11972 H 1122.47 -3.69903 -1.54831 0
M  V30 11973 H 1119.06 -4.27942 -0.237378 0
M  V30 11974 H 1123.25 -4.9389 0.488496 0
M  V30 11975 H 1118.5 -5.92756 1.49833 0
M  V30 11976 H 1122.68 -6.60036 2.22094 0
M  V30 11977 H 1120.3 -7.09416 2.73189 0
M  V30 11978 N 1121.88 0.120221 -1.57141 0
M  V30 11979 C 1123.12 0.829449 -1.85062 0
M  V30 11980 C 1123.46 1.79585 -0.739116 0
M  V30 11981 O 1122.73 1.92819 0.255147 0
M  V30 11982 C 1123.01 1.58042 -3.23566 0
M  V30 11983 C 1122.87 0.633706 -4.45314 0
M  V30 11984 C 1124.19 2.53688 -3.59625 0
M  V30 11985 H 1121.31 0.300086 -0.67314 0
M  V30 11986 H 1123.95 0.0937393 -1.89769 0
M  V30 11987 H 1122.1 2.20758 -3.19684 0
M  V30 11988 H 1123.77 0.0154836 -4.61297 0
M  V30 11989 H 1122.01 -0.054846 -4.33765 0
M  V30 11990 H 1122.68 1.19577 -5.38893 0
M  V30 11991 H 1125.16 2.01078 -3.6429 0
M  V30 11992 H 1124.04 3.03265 -4.57516 0
M  V30 11993 H 1124.3 3.36296 -2.8698 0
M  V30 11994 N 1123.36 1.52689 0.390367 0
M  V30 11995 C 1124.27 1.8029 1.50108 0
M  V30 11996 C 1125.28 0.689582 1.59752 0
M  V30 11997 O 1126.46 0.977024 1.76114 0
M  V30 11998 C 1123.52 1.96475 2.85654 0
M  V30 11999 C 1122.58 3.2039 2.85743 0
M  V30 12000 C 1121.82 3.35793 4.14824 0
M  V30 12001 O 1122.04 2.56033 5.09709 0
M  V30 12002 O 1120.97 4.2904 4.22147 0
M  V30 12003 H 1124.8 2.74605 1.29715 0
M  V30 12004 H 1122.39 1.37763 0.578074 0
M  V30 12005 H 1124.27 2.08835 3.66013 0
M  V30 12006 H 1122.94 1.05351 3.06077 0
M  V30 12007 H 1121.85 3.13473 2.0417 0
M  V30 12008 H 1123.18 4.11356 2.70272 0
M  V30 12009 N 1124.83 -0.648732 1.43629 0
M  V30 12010 C 1126.08 -1.40579 1.45196 0
M  V30 12011 C 1126.4 -1.9484 0.0790556 0
M  V30 12012 O 1125.67 -1.74707 -0.886239 0
M  V30 12013 H 1124.25 -0.52175 0.53459 0
M  V30 12014 H 1126.92 -0.764796 1.79268 0
M  V30 12015 H 1126.01 -2.24591 2.16715 0
M  V30 12016 N 1126.31 -1.30234 -0.887518 0
M  V30 12017 C 1127.54 -1.21829 -1.67229 0
M  V30 12018 C 1127.96 0.219251 -1.87523 0
M  V30 12019 O 1127.31 1.14526 -1.42091 0
M  V30 12020 C 1127.36 -1.94044 -3.05007 0
M  V30 12021 O 1127.08 -3.32185 -2.85631 0
M  V30 12022 C 1128.59 -1.92265 -3.99436 0
M  V30 12023 H 1125.81 -0.421716 -0.521916 0
M  V30 12024 H 1128.35 -1.71816 -1.10903 0
M  V30 12025 H 1126.5 -1.47861 -3.58072 0
M  V30 12026 H 1126.92 -3.68724 -3.73018 0
M  V30 12027 H 1128.39 -2.47336 -4.93486 0
M  V30 12028 H 1128.87 -0.900984 -4.29859 0
M  V30 12029 H 1129.48 -2.38247 -3.52305 0
M  V30 12030 N 1127.79 1.09952 -1.12909 0
M  V30 12031 C 1129.04 1.81657 -0.885729 0
M  V30 12032 C 1129.36 1.85863 0.589913 0
M  V30 12033 O 1128.63 1.34028 1.42875 0
M  V30 12034 H 1127.21 0.672743 -0.324694 0
M  V30 12035 H 1129.87 1.33013 -1.42456 0
M  V30 12036 H 1128.97 2.85018 -1.27167 0
M  V30 12037 N 1129.27 0.921757 1.27833 0
M  V30 12038 C 1130.49 0.574599 1.99281 0
M  V30 12039 C 1130.92 -0.838905 1.68357 0
M  V30 12040 O 1130.28 -1.56196 0.920468 0
M  V30 12041 C 1130.32 0.800027 3.51613 0
M  V30 12042 O 1129.43 -0.137215 4.12172 0
M  V30 12043 H 1128.77 0.221887 0.625829 0
M  V30 12044 H 1131.3 1.23939 1.62789 0
M  V30 12045 H 1131.31 0.71326 4.01717 0
M  V30 12046 H 1129.98 1.83042 3.73455 0
M  V30 12047 H 1128.56 -0.00103872 3.729 0
M  V30 12048 N 1130.75 -1.41857 0.686609 0
M  V30 12049 C 1131.68 -2.33481 0.0298353 0
M  V30 12050 C 1132.66 -1.51329 -0.776756 0
M  V30 12051 O 1133.84 -1.79895 -0.731535 0
M  V30 12052 C 1130.97 -3.35065 -0.913707 0
M  V30 12053 C 1129.93 -4.2746 -0.214861 0
M  V30 12054 C 1129.25 -5.19346 -1.27215 0
M  V30 12055 C 1130.55 -5.14252 0.913367 0
M  V30 12056 H 1132.25 -2.8865 0.795067 0
M  V30 12057 H 1129.79 -1.38792 0.383785 0
M  V30 12058 H 1131.75 -3.98082 -1.38234 0
M  V30 12059 H 1130.47 -2.78226 -1.7105 0
M  V30 12060 H 1129.13 -3.65855 0.233651 0
M  V30 12061 H 1128.78 -4.58827 -2.06124 0
M  V30 12062 H 1128.48 -5.81996 -0.80961 0
M  V30 12063 H 1130 -5.85239 -1.74147 0
M  V30 12064 H 1131.41 -5.70887 0.525424 0
M  V30 12065 H 1129.81 -5.85796 1.30244 0
M  V30 12066 H 1130.88 -4.51949 1.75699 0
M  V30 12067 N 1132.22 -0.430739 -1.51599 0
M  V30 12068 C 1133.5 0.197543 -1.946 0
M  V30 12069 C 1133.88 1.6069 -1.36901 0
M  V30 12070 O 1133.23 2.21697 -0.553422 0
M  V30 12071 C 1133.44 0.181976 -3.48525 0
M  V30 12072 C 1134.79 0.390783 -4.22798 0
M  V30 12073 O 1135.81 0.260384 -3.55247 0
M  V30 12074 O 1134.67 0.649701 -5.42624 0
M  V30 12075 H 1131.76 0.133524 -0.81615 0
M  V30 12076 H 1134.31 -0.488243 -1.62525 0
M  V30 12077 H 1133.08 -0.803584 -3.8296 0
M  V30 12078 H 1132.71 0.910952 -3.87024 0
M  V30 12079 N 1133.7 1.56767 -0.161869 0
M  V30 12080 C 1134.61 2.21083 0.784814 0
M  V30 12081 C 1135.63 1.19959 1.26039 0
M  V30 12082 O 1136.8 1.52588 1.31449 0
M  V30 12083 C 1133.87 2.83153 2.00063 0
M  V30 12084 C 1132.93 3.9945 1.57285 0
M  V30 12085 C 1132.16 4.5855 2.7307 0
M  V30 12086 O 1132.39 4.16534 3.89686 0
M  V30 12087 O 1131.32 5.48575 2.47688 0
M  V30 12088 H 1135.15 3.02522 0.267243 0
M  V30 12089 H 1132.73 1.49255 0.0658783 0
M  V30 12090 H 1134.61 3.22546 2.71186 0
M  V30 12091 H 1133.29 2.04718 2.50744 0
M  V30 12092 H 1132.2 3.64745 0.831393 0
M  V30 12093 H 1133.53 4.7945 1.11304 0
M  V30 12094 N 1135.18 -0.111886 1.57202 0
M  V30 12095 C 1136.46 -0.849125 1.76208 0
M  V30 12096 C 1136.84 -1.97735 0.73919 0
M  V30 12097 O 1136.19 -2.27283 -0.235523 0
M  V30 12098 C 1136.4 -1.35924 3.21443 0
M  V30 12099 C 1137.74 -1.80874 3.84148 0
M  V30 12100 O 1138.77 -1.45587 3.25089 0
M  V30 12101 O 1137.63 -2.46065 4.87969 0
M  V30 12102 H 1134.72 -0.403761 0.721738 0
M  V30 12103 H 1137.27 -0.0950726 1.69433 0
M  V30 12104 H 1136.04 -0.550113 3.87414 0
M  V30 12105 H 1135.66 -2.17579 3.32784 0
M  V30 12106 N 1136.66 -1.52894 -0.382264 0
M  V30 12107 C 1137.89 -1.72152 -1.14766 0
M  V30 12108 C 1138.3 -0.442911 -1.83531 0
M  V30 12109 O 1137.66 0.583085 -1.72935 0
M  V30 12110 C 1137.71 -2.87566 -2.19062 0
M  V30 12111 O 1137.43 -4.10478 -1.53099 0
M  V30 12112 C 1138.93 -3.18559 -3.08277 0
M  V30 12113 H 1136.15 -0.576212 -0.343832 0
M  V30 12114 H 1138.7 -1.99571 -0.446273 0
M  V30 12115 H 1136.85 -2.62589 -2.84826 0
M  V30 12116 H 1137.26 -4.74989 -2.22454 0
M  V30 12117 H 1138.74 -4.02763 -3.77473 0
M  V30 12118 H 1139.22 -2.33222 -3.72161 0
M  V30 12119 H 1139.82 -3.454 -2.48151 0
M  V30 12120 N 1138.14 0.641106 -1.43971 0
M  V30 12121 C 1139.36 1.43324 -1.4991 0
M  V30 12122 C 1139.79 1.87705 -0.121908 0
M  V30 12123 O 1139.15 1.58127 0.886875 0
M  V30 12124 C 1139.19 2.63637 -2.46025 0
M  V30 12125 O 1138.3 3.63123 -1.95488 0
M  V30 12126 H 1137.64 0.429252 -0.506595 0
M  V30 12127 H 1140.17 0.783427 -1.89007 0
M  V30 12128 H 1140.18 3.11304 -2.63731 0
M  V30 12129 H 1138.85 2.30678 -3.46064 0
M  V30 12130 H 1137.43 3.22332 -1.87501 0
M  V30 12131 N 1139.62 1.30703 0.880598 0
M  V30 12132 C 1140.55 1.20033 2.00286 0
M  V30 12133 C 1141.53 0.0899614 1.69862 0
M  V30 12134 O 1142.71 0.272747 1.92275 0
M  V30 12135 C 1139.84 0.895902 3.35546 0
M  V30 12136 C 1138.8 1.96468 3.80242 0
M  V30 12137 C 1138.12 1.51316 5.12843 0
M  V30 12138 C 1139.42 3.37637 3.98496 0
M  V30 12139 H 1141.12 2.13922 2.0947 0
M  V30 12140 H 1138.66 1.02989 1.00644 0
M  V30 12141 H 1140.61 0.807899 4.13583 0
M  V30 12142 H 1139.34 -0.0786636 3.26505 0
M  V30 12143 H 1138 2.0424 3.04437 0
M  V30 12144 H 1137.65 0.52674 5.00234 0
M  V30 12145 H 1137.35 2.22807 5.43719 0
M  V30 12146 H 1138.87 1.43903 5.93401 0
M  V30 12147 H 1140.28 3.326 4.66959 0
M  V30 12148 H 1138.68 4.07253 4.40755 0
M  V30 12149 H 1139.75 3.79205 3.02211 0
M  V30 12150 N 1141.09 -1.09351 1.1349 0
M  V30 12151 C 1142.5 -1.63035 0.909746 0
M  V30 12152 C 1142.86 -1.88229 -0.553573 0
M  V30 12153 O 1141.98 -1.63256 -1.42044 0
M  V30 12154 C 1142.58 -2.96186 1.64497 0
M  V30 12155 C 1141.13 -3.46692 1.46566 0
M  V30 12156 C 1140.28 -2.21095 1.67369 0
M  V30 12157 H 1143.23 -0.92704 1.28809 0
M  V30 12158 H 1143.25 -3.64177 1.10251 0
M  V30 12159 H 1142.77 -2.77818 2.70996 0
M  V30 12160 H 1140.87 -3.70183 0.423728 0
M  V30 12161 H 1140.98 -4.24078 2.22923 0
M  V30 12162 H 1139.34 -2.29789 1.0986 0
M  V30 12163 H 1140.13 -2.05245 2.7519 0
M  V30 12164 N 1142.57 -0.928524 -1.27343 0
M  V30 12165 C 1143.48 -0.433901 -2.30553 0
M  V30 12166 C 1144.5 0.485832 -1.6708 0
M  V30 12167 O 1145.67 0.36844 -1.98001 0
M  V30 12168 C 1142.74 0.304617 -3.45359 0
M  V30 12169 C 1141.8 -0.650131 -4.24349 0
M  V30 12170 C 1141.03 0.0532372 -5.33673 0
M  V30 12171 O 1141.26 1.27246 -5.56026 0
M  V30 12172 O 1140.19 -0.619009 -5.98709 0
M  V30 12173 H 1144.02 -1.2909 -2.74899 0
M  V30 12174 H 1141.6 -0.693903 -1.32308 0
M  V30 12175 H 1143.48 0.721137 -4.15184 0
M  V30 12176 H 1142.16 1.13721 -3.03066 0
M  V30 12177 H 1141.06 -1.11635 -3.57055 0
M  V30 12178 H 1142.4 -1.44996 -4.70358 0
M  V30 12179 N 1144.05 1.41491 -0.694123 0
M  V30 12180 C 1145.3 2.00854 -0.224033 0
M  V30 12181 C 1145.62 1.55246 1.17999 0
M  V30 12182 O 1144.89 0.782452 1.79595 0
M  V30 12183 H 1143.47 0.742721 -0.0798368 0
M  V30 12184 H 1146.13 1.73137 -0.894958 0
M  V30 12185 H 1145.23 3.11173 -0.240332 0
M  V30 12186 N 1145.53 0.438773 1.51369 0
M  V30 12187 C 1146.46 -0.362467 2.3067 0
M  V30 12188 C 1147.44 -1.01973 1.36145 0
M  V30 12189 O 1148.62 -1.0231 1.65065 0
M  V30 12190 C 1145.75 -1.46313 3.14976 0
M  V30 12191 C 1144.71 -0.929272 4.1779 0
M  V30 12192 C 1144.03 -2.12579 4.90627 0
M  V30 12193 C 1145.33 0.0372782 5.22287 0
M  V30 12194 H 1147.03 0.29931 2.979 0
M  V30 12195 H 1144.57 0.14539 1.43264 0
M  V30 12196 H 1146.53 -2.03088 3.69233 0
M  V30 12197 H 1145.25 -2.15321 2.45569 0
M  V30 12198 H 1143.91 -0.383722 3.64586 0
M  V30 12199 H 1143.56 -2.8021 4.17722 0
M  V30 12200 H 1143.26 -1.77496 5.60151 0
M  V30 12201 H 1144.78 -2.69905 5.47708 0
M  V30 12202 H 1146.2 -0.44022 5.71607 0
M  V30 12203 H 1144.59 0.300748 5.99346 0
M  V30 12204 H 1145.66 0.973503 4.75027 0
M  V30 12205 N 1147.01 -1.56678 0.170181 0
M  V30 12206 C 1147.95 -2.17909 -0.760556 0
M  V30 12207 C 1148.92 -1.11875 -1.22773 0
M  V30 12208 O 1150.11 -1.40021 -1.2961 0
M  V30 12209 C 1147.25 -2.82305 -1.9849 0
M  V30 12210 C 1146.36 -4.02796 -1.5614 0
M  V30 12211 C 1145.5 -4.55121 -2.73932 0
M  V30 12212 C 1144.53 -5.68025 -2.28067 0
M  V30 12213 N 1143.67 -6.14865 -3.38947 0
M  V30 12214 H 1148.51 -2.97098 -0.231629 0
M  V30 12215 H 1146.05 -1.46742 -0.102602 0
M  V30 12216 H 1148.01 -3.17797 -2.70298 0
M  V30 12217 H 1146.64 -2.05721 -2.48755 0
M  V30 12218 H 1145.69 -3.73131 -0.740097 0
M  V30 12219 H 1147 -4.84526 -1.18472 0
M  V30 12220 H 1146.15 -4.92789 -3.53898 0
M  V30 12221 H 1144.89 -3.72445 -3.14858 0
M  V30 12222 H 1143.9 -5.2991 -1.46546 0
M  V30 12223 H 1145.12 -6.52501 -1.88199 0
M  V30 12224 H 1143.07 -5.35119 -3.79452 0
M  V30 12225 H 1142.99 -6.91582 -3.05369 0
M  V30 12226 H 1144.25 -6.57183 -4.19203 0
M  V30 12227 N 1148.48 0.103547 -1.57259 0
M  V30 12228 C 1149.76 0.839768 -1.76656 0
M  V30 12229 C 1150.14 1.9734 -0.749666 0
M  V30 12230 O 1149.49 2.27405 0.223466 0
M  V30 12231 C 1149.7 1.34218 -3.22159 0
M  V30 12232 C 1151.05 1.78835 -3.85102 0
M  V30 12233 O 1152.07 1.43861 -3.25857 0
M  V30 12234 O 1150.93 2.43474 -4.89267 0
M  V30 12235 H 1148.02 0.399928 -0.723869 0
M  V30 12236 H 1150.57 0.0860857 -1.69482 0
M  V30 12237 H 1149.34 0.52956 -3.877 0
M  V30 12238 H 1148.96 2.15811 -3.33933 0
M  V30 12239 N 1149.96 1.53094 0.37415 0
M  V30 12240 C 1151.21 1.70059 1.11586 0
M  V30 12241 C 1151.56 0.442567 1.87241 0
M  V30 12242 O 1150.86 -0.564198 1.83105 0
M  V30 12243 C 1151.05 2.88432 2.11049 0
M  V30 12244 C 1150.88 4.25625 1.45166 0
M  V30 12245 C 1149.65 4.90613 1.20942 0
M  V30 12246 C 1151.85 5.06472 0.893887 0
M  V30 12247 N 1149.83 6.11751 0.513196 0
M  V30 12248 C 1151.2 6.19139 0.326549 0
M  V30 12249 C 1153.25 4.91565 0.791739 0
M  V30 12250 C 1151.96 7.18529 -0.332963 0
M  V30 12251 C 1153.98 5.9122 0.146023 0
M  V30 12252 C 1153.35 7.03203 -0.410477 0
M  V30 12253 H 1149.44 0.675625 0.39377 0
M  V30 12254 H 1152.03 1.90475 0.403383 0
M  V30 12255 H 1150.2 2.6957 2.79619 0
M  V30 12256 H 1151.93 2.94261 2.77835 0
M  V30 12257 H 1148.69 4.49604 1.48841 0
M  V30 12258 H 1149.11 6.76759 0.180695 0
M  V30 12259 H 1153.75 4.05183 1.20776 0
M  V30 12260 H 1151.47 8.04509 -0.76096 0
M  V30 12261 H 1155.06 5.8176 0.0680321 0
M  V30 12262 H 1153.94 7.78993 -0.90223 0
M  V30 12263 N 1151.44 -0.633461 1.44309 0
M  V30 12264 C 1152.39 -1.76674 1.51292 0
M  V30 12265 C 1153.38 -1.64972 0.384807 0
M  V30 12266 O 1154.59 -1.71079 0.559653 0
M  V30 12267 H 1150.96 -0.583238 0.474697 0
M  V30 12268 H 1152.93 -1.67907 2.46678 0
M  V30 12269 C 1151.68 -3.15002 1.47205 0
M  V30 12270 H 1151.01 -3.24653 2.33325 0
M  V30 12271 H 1152.45 -3.94199 1.56151 0
M  V30 12272 C 1150.9 -3.3635 0.192464 0
M  V30 12273 O 1151.43 -3.94857 -0.738285 0
M  V30 12274 N 1149.64 -2.9044 0.0963424 0
M  V30 12275 H 1149.19 -2.43011 0.85459 0
M  V30 12276 H 1149.15 -3.05099 -0.759061 0
M  V30 12277 N 1152.92 -1.31168 -0.873655 0
M  V30 12278 C 1153.87 -1.18507 -1.98052 0
M  V30 12279 C 1154.84 -0.0717583 -1.65945 0
M  V30 12280 O 1156.02 -0.243965 -1.89234 0
M  V30 12281 C 1153.16 -0.894571 -3.33304 0
M  V30 12282 C 1152.27 -2.09086 -3.7803 0
M  V30 12283 C 1151.41 -1.73747 -5.01982 0
M  V30 12284 C 1150.45 -2.89805 -5.39147 0
M  V30 12285 N 1149.58 -2.54686 -6.54278 0
M  V30 12286 H 1154.42 -2.13193 -2.08213 0
M  V30 12287 H 1151.96 -1.06056 -1.01934 0
M  V30 12288 H 1153.92 -0.706714 -4.11171 0
M  V30 12289 H 1152.55 0.0154449 -3.22796 0
M  V30 12290 H 1151.6 -2.38961 -2.95976 0
M  V30 12291 H 1152.91 -2.95963 -4.01506 0
M  V30 12292 H 1152.07 -1.51402 -5.87505 0
M  V30 12293 H 1150.81 -0.840553 -4.80402 0
M  V30 12294 H 1149.81 -3.12803 -4.52144 0
M  V30 12295 H 1151.04 -3.802 -5.62694 0
M  V30 12296 H 1148.98 -1.67513 -6.34252 0
M  V30 12297 H 1148.9 -3.35093 -6.77679 0
M  V30 12298 H 1150.17 -2.35725 -7.43003 0
M  V30 12299 N 1154.4 1.08748 -1.14068 0
M  V30 12300 C 1155.31 2.19123 -0.837998 0
M  V30 12301 C 1156.32 1.73065 0.180164 0
M  V30 12302 O 1157.5 2.01398 0.00952285 0
M  V30 12303 C 1154.56 3.45257 -0.316 0
M  V30 12304 C 1153.62 4.05959 -1.39628 0
M  V30 12305 C 1152.86 5.26072 -0.899095 0
M  V30 12306 O 1153.08 5.69804 0.260744 0
M  V30 12307 O 1152.01 5.7808 -1.67652 0
M  V30 12308 H 1155.84 2.4748 -1.76033 0
M  V30 12309 H 1153.43 1.17816 -0.918675 0
M  V30 12310 H 1155.31 4.21389 -0.0306425 0
M  V30 12311 H 1153.98 3.18486 0.578654 0
M  V30 12312 H 1152.89 3.31432 -1.73505 0
M  V30 12313 H 1154.22 4.36971 -2.26533 0
M  V30 12314 N 1155.87 0.935264 1.26849 0
M  V30 12315 C 1157.29 0.636661 1.46352 0
M  V30 12316 C 1157.49 -0.811823 1.84423 0
M  V30 12317 O 1156.55 -1.58902 1.9623 0
M  V30 12318 C 1157.86 1.59301 2.55036 0
M  V30 12319 C 1159.41 1.60207 2.68892 0
M  V30 12320 C 1159.88 2.54558 3.80742 0
M  V30 12321 N 1161.37 2.52809 3.88126 0
M  V30 12322 C 1162.11 3.225 4.74111 0
M  V30 12323 N 1161.6 4.01598 5.64527 0
M  V30 12324 N 1163.4 3.11481 4.67906 0
M  V30 12325 H 1155.55 1.8716 1.00423 0
M  V30 12326 H 1157.81 0.803968 0.502334 0
M  V30 12327 H 1157.52 2.62671 2.33874 0
M  V30 12328 H 1157.39 1.34052 3.52576 0
M  V30 12329 H 1159.78 0.575649 2.89431 0
M  V30 12330 H 1159.86 1.89508 1.71815 0
M  V30 12331 H 1159.5 3.57314 3.60956 0
M  V30 12332 H 1159.43 2.22549 4.77263 0
M  V30 12333 H 1161.92 1.9537 3.2348 0
M  V30 12334 H 1162.24 4.51742 6.27016 0
M  V30 12335 H 1160.58 4.057 5.64298 0
M  V30 12336 H 1163.77 2.49175 3.9627 0
M  V30 12337 H 1163.95 3.66064 5.34697 0
M  V30 12338 N 1157.35 -1.41121 0.701616 0
M  V30 12339 C 1158.26 -2.34565 0.0407815 0
M  V30 12340 C 1159.28 -1.56555 -0.75937 0
M  V30 12341 O 1160.45 -1.89008 -0.695542 0
M  V30 12342 C 1157.52 -3.35347 -0.879954 0
M  V30 12343 C 1156.58 -4.29241 -0.0713279 0
M  V30 12344 C 1155.81 -5.25209 -0.948211 0
M  V30 12345 O 1156.04 -5.26781 -2.18766 0
M  V30 12346 O 1154.97 -6.00605 -0.394657 0
M  V30 12347 H 1158.8 -2.92666 0.811188 0
M  V30 12348 H 1156.38 -1.42077 0.461991 0
M  V30 12349 H 1158.26 -3.9719 -1.40776 0
M  V30 12350 H 1156.94 -2.7968 -1.62975 0
M  V30 12351 H 1155.85 -3.70727 0.50122 0
M  V30 12352 H 1157.18 -4.88022 0.639935 0
M  V30 12353 N 1158.83 -0.446794 -1.51134 0
M  V30 12354 C 1159.78 0.359865 -2.27977 0
M  V30 12355 C 1160.75 1.0086 -1.31972 0
M  V30 12356 O 1161.93 1.02569 -1.60886 0
M  V30 12357 C 1159.07 1.44978 -3.1317 0
M  V30 12358 C 1158.19 0.818243 -4.2418 0
M  V30 12359 C 1157.32 1.884 -4.96668 0
M  V30 12360 C 1156.36 1.2314 -5.99586 0
M  V30 12361 N 1155.5 2.23894 -6.65444 0
M  V30 12362 H 1160.34 -0.301775 -2.96468 0
M  V30 12363 H 1157.87 -0.160666 -1.4622 0
M  V30 12364 H 1159.83 2.09308 -3.60896 0
M  V30 12365 H 1158.46 2.08092 -2.46775 0
M  V30 12366 H 1157.51 0.0629889 -3.80348 0
M  V30 12367 H 1158.83 0.301885 -4.97886 0
M  V30 12368 H 1157.98 2.6037 -5.4799 0
M  V30 12369 H 1156.72 2.43411 -4.22614 0
M  V30 12370 H 1155.72 0.497215 -5.47547 0
M  V30 12371 H 1156.95 0.688505 -6.75601 0
M  V30 12372 H 1154.89 2.77967 -5.94197 0
M  V30 12373 H 1154.81 1.77176 -7.34945 0
M  V30 12374 H 1156.08 2.95318 -7.21393 0
M  V30 12375 N 1160.31 1.56586 -0.178487 0
M  V30 12376 C 1161.22 2.21903 0.761321 0
M  V30 12377 C 1162.23 1.21289 1.2476 0
M  V30 12378 O 1163.41 1.53974 1.29823 0
M  V30 12379 C 1160.48 2.85259 1.97048 0
M  V30 12380 C 1159.54 4.01095 1.53039 0
M  V30 12381 C 1158.77 4.61421 2.68191 0
M  V30 12382 O 1158.99 4.20644 3.85247 0
M  V30 12383 O 1157.93 5.51171 2.41855 0
M  V30 12384 H 1161.75 3.02788 0.235141 0
M  V30 12385 H 1159.34 1.49316 0.0500442 0
M  V30 12386 H 1161.22 3.25404 2.6775 0
M  V30 12387 H 1159.89 2.07366 2.48558 0
M  V30 12388 H 1158.8 3.65606 0.792661 0
M  V30 12389 H 1160.13 4.80603 1.06213 0
M  V30 12390 N 1161.79 -0.095206 1.57312 0
M  V30 12391 C 1162.73 -1.11551 2.02052 0
M  V30 12392 C 1163.7 -1.39808 0.896818 0
M  V30 12393 O 1164.89 -1.51273 1.1628 0
M  V30 12394 C 1162.03 -2.43056 2.44985 0
M  V30 12395 C 1161.14 -2.21531 3.70875 0
M  V30 12396 C 1160.28 -3.46434 4.02687 0
M  V30 12397 C 1159.32 -3.2017 5.21687 0
M  V30 12398 N 1158.45 -4.37339 5.49253 0
M  V30 12399 H 1163.29 -0.727 2.88996 0
M  V30 12400 H 1160.83 -0.347441 1.42938 0
M  V30 12401 H 1162.79 -3.19803 2.67921 0
M  V30 12402 H 1161.42 -2.79754 1.61051 0
M  V30 12403 H 1160.47 -1.35587 3.55416 0
M  V30 12404 H 1161.78 -1.98116 4.57768 0
M  V30 12405 H 1160.94 -4.31589 4.26399 0
M  V30 12406 H 1159.67 -3.72904 3.14315 0
M  V30 12407 H 1158.68 -2.33409 4.97796 0
M  V30 12408 H 1159.9 -2.95047 6.11657 0
M  V30 12409 H 1157.85 -4.63885 4.6384 0
M  V30 12410 H 1157.77 -4.17114 6.30517 0
M  V30 12411 H 1159.04 -5.23559 5.775 0
M  V30 12412 N 1163.26 -1.53291 -0.366026 0
M  V30 12413 C 1164.17 -1.82656 -1.47221 0
M  V30 12414 C 1165.19 -0.71491 -1.58635 0
M  V30 12415 O 1166.37 -1.00492 -1.74538 0
M  V30 12416 C 1163.43 -2.00995 -2.82492 0
M  V30 12417 C 1162.49 -3.24895 -2.8061 0
M  V30 12418 C 1161.73 -3.4235 -4.09429 0
M  V30 12419 O 1161.95 -2.6411 -5.05571 0
M  V30 12420 O 1160.88 -4.35702 -4.15268 0
M  V30 12421 H 1164.71 -2.76634 -1.2533 0
M  V30 12422 H 1162.29 -1.38665 -0.556084 0
M  V30 12423 H 1164.18 -2.14632 -3.62645 0
M  V30 12424 H 1162.85 -1.10207 -3.04362 0
M  V30 12425 H 1161.76 -3.16682 -1.99157 0
M  V30 12426 H 1163.09 -4.15604 -2.63694 0
M  V30 12427 N 1164.74 0.6258 -1.44643 0
M  V30 12428 C 1165.65 1.76611 -1.5442 0
M  V30 12429 C 1166.67 1.68614 -0.429576 0
M  V30 12430 O 1167.84 1.89296 -0.687686 0
M  V30 12431 C 1164.91 3.13015 -1.49071 0
M  V30 12432 C 1163.97 3.32604 -2.71428 0
M  V30 12433 C 1163.2 4.62501 -2.66325 0
M  V30 12434 O 1163.43 5.43651 -1.72626 0
M  V30 12435 O 1162.36 4.84408 -3.57258 0
M  V30 12436 H 1166.19 1.71315 -2.50769 0
M  V30 12437 H 1163.77 0.787677 -1.26949 0
M  V30 12438 H 1165.65 3.94318 -1.48631 0
M  V30 12439 H 1164.33 3.18842 -0.558686 0
M  V30 12440 H 1163.24 2.50959 -2.77435 0
M  V30 12441 H 1164.57 3.31642 -3.63695 0
M  V30 12442 N 1166.22 1.31629 0.866686 0
M  V30 12443 C 1167.63 1.19347 1.43573 0
M  V30 12444 C 1167.98 -0.198765 1.95191 0
M  V30 12445 O 1167.11 -1.09674 1.86549 0
M  V30 12446 C 1167.7 2.16055 2.6097 0
M  V30 12447 C 1166.26 2.07697 3.13909 0
M  V30 12448 C 1165.41 2.05099 1.86627 0
M  V30 12449 H 1168.36 1.43633 0.674929 0
M  V30 12450 H 1168.38 1.75207 3.37761 0
M  V30 12451 H 1167.89 3.17375 2.23371 0
M  V30 12452 H 1165.99 1.09583 3.56121 0
M  V30 12453 H 1166.11 2.96958 3.75969 0
M  V30 12454 H 1164.47 1.50162 2.05727 0
M  V30 12455 H 1165.25 3.0818 1.51261 0
M  V30 12456 N 1167.7 -1.08142 1.14644 0
M  V30 12457 C 1169.11 -1.62061 0.926986 0
M  V30 12458 C 1169.46 -1.88805 -0.533578 0
M  V30 12459 O 1168.59 -1.64753 -1.40305 0
M  V30 12460 C 1169.18 -2.94425 1.67629 0
M  V30 12461 C 1167.74 -3.45118 1.50235 0
M  V30 12462 C 1166.89 -2.19307 1.69705 0
M  V30 12463 H 1169.84 -0.913326 1.29785 0
M  V30 12464 H 1169.86 -3.62987 1.14107 0
M  V30 12465 H 1169.37 -2.74928 2.73927 0
M  V30 12466 H 1167.47 -3.69713 0.462967 0
M  V30 12467 H 1167.59 -4.2169 2.27408 0
M  V30 12468 H 1165.95 -2.28611 1.12291 0
M  V30 12469 H 1166.73 -2.02315 2.77351 0
M  V30 12470 N 1169.18 -0.941978 -1.26351 0
M  V30 12471 C 1170.43 -0.588806 -1.93333 0
M  V30 12472 C 1170.75 0.875067 -1.74263 0
M  V30 12473 O 1170.02 1.62187 -1.09873 0
M  V30 12474 H 1168.6 -0.214774 -0.715459 0
M  V30 12475 H 1171.26 -1.19747 -1.53774 0
M  V30 12476 H 1170.35 -0.807267 -3.01479 0
M  V30 12477 N 1170.66 1.40747 -0.709091 0
M  V30 12478 C 1171.57 2.3454 -0.0532205 0
M  V30 12479 C 1172.58 1.56956 0.751057 0
M  V30 12480 O 1173.76 1.89375 0.685509 0
M  V30 12481 C 1170.82 3.35809 0.862157 0
M  V30 12482 C 1169.88 4.29273 0.0485632 0
M  V30 12483 C 1169.12 5.25705 0.920345 0
M  V30 12484 O 1169.34 5.27933 2.15969 0
M  V30 12485 O 1168.27 6.00806 0.3628 0
M  V30 12486 H 1172.1 2.92232 -0.826698 0
M  V30 12487 H 1169.68 1.4183 -0.469519 0
M  V30 12488 H 1171.57 3.97931 1.38668 0
M  V30 12489 H 1170.24 2.8054 1.61489 0
M  V30 12490 H 1169.15 3.70456 -0.520873 0
M  V30 12491 H 1170.48 4.87676 -0.665807 0
M  V30 12492 N 1172.13 0.454803 1.50895 0
M  V30 12493 C 1173.08 -0.347769 2.28165 0
M  V30 12494 C 1174.05 -1.00158 1.32505 0
M  V30 12495 O 1175.24 -1.01715 1.61427 0
M  V30 12496 C 1172.38 -1.43315 3.13934 0
M  V30 12497 C 1171.49 -0.795736 4.24608 0
M  V30 12498 C 1170.62 -1.85763 4.9766 0
M  V30 12499 C 1169.66 -1.19959 6.0023 0
M  V30 12500 N 1168.8 -2.20361 6.66622 0
M  V30 12501 H 1173.64 0.317493 2.96304 0
M  V30 12502 H 1171.18 0.168418 1.46133 0
M  V30 12503 H 1173.13 -2.07391 3.62001 0
M  V30 12504 H 1171.76 -2.0678 2.47875 0
M  V30 12505 H 1170.82 -0.0428173 3.80376 0
M  V30 12506 H 1172.13 -0.275477 4.98039 0
M  V30 12507 H 1171.28 -2.5746 5.49363 0
M  V30 12508 H 1170.02 -2.41166 4.23899 0
M  V30 12509 H 1169.03 -0.46817 5.47803 0
M  V30 12510 H 1170.25 -0.652666 6.75956 0
M  V30 12511 H 1168.2 -2.74812 5.95663 0
M  V30 12512 H 1168.11 -1.73275 7.35875 0
M  V30 12513 H 1169.38 -2.91488 7.22949 0
M  V30 12514 N 1173.61 -1.56489 0.186789 0
M  V30 12515 C 1174.86 -1.97634 -0.454831 0
M  V30 12516 C 1175.19 -1.07334 -1.61843 0
M  V30 12517 O 1174.47 -0.123612 -1.94107 0
M  V30 12518 C 1174.75 -3.48071 -0.922962 0
M  V30 12519 C 1174.6 -4.49149 0.241877 0
M  V30 12520 C 1175.92 -4.01994 -1.79134 0
M  V30 12521 H 1173.04 -0.718555 -0.163854 0
M  V30 12522 H 1175.68 -1.87984 0.27604 0
M  V30 12523 H 1173.83 -3.56425 -1.54575 0
M  V30 12524 H 1175.5 -4.52841 0.87936 0
M  V30 12525 H 1173.75 -4.24468 0.894964 0
M  V30 12526 H 1174.42 -5.51851 -0.128051 0
M  V30 12527 H 1176.89 -3.96367 -1.26618 0
M  V30 12528 H 1175.77 -5.07641 -2.08787 0
M  V30 12529 H 1176.03 -3.46747 -2.74261 0
M  V30 12530 N 1175.09 0.086862 -1.5736 0
M  V30 12531 C 1176.05 1.08906 -2.01673 0
M  V30 12532 C 1177.05 1.32473 -0.911463 0
M  V30 12533 O 1178.24 1.28447 -1.17673 0
M  V30 12534 C 1175.37 2.43629 -2.38449 0
M  V30 12535 H 1176.57 0.707461 -2.91436 0
M  V30 12536 H 1174.12 0.332154 -1.5273 0
M  V30 12537 H 1174.86 2.8665 -1.51665 0
M  V30 12538 H 1174.64 2.2787 -3.19089 0
M  V30 12539 H 1176.13 3.15695 -2.73361 0
M  V30 12540 N 1176.57 1.53483 0.357892 0
M  V30 12541 C 1177.52 1.81143 1.45911 0
M  V30 12542 C 1178.51 0.681002 1.55109 0
M  V30 12543 O 1179.72 0.864086 1.57904 0
M  V30 12544 H 1176.09 0.573663 0.486225 0
M  V30 12545 H 1178.06 2.733 1.19789 0
M  V30 12546 C 1176.81 2.02509 2.8264 0
M  V30 12547 H 1176.13 2.88938 2.76324 0
M  V30 12548 H 1177.57 2.25837 3.58851 0
M  V30 12549 C 1176.03 0.806412 3.27106 0
M  V30 12550 O 1176.56 -0.00116809 4.017 0
M  V30 12551 N 1174.77 0.627677 2.8374 0
M  V30 12552 H 1174.32 1.28601 2.23203 0
M  V30 12553 H 1174.27 -0.186301 3.13848 0
M  V30 12554 O 1178.08 -0.50387 1.53439 0
M  V30 12555 H 1178.78 -1.15877 1.55217 0
M  V30 END ATOM
M  V30 BEGIN BOND
M  V30 END BOND
M  V30 END CTAB
M  END
$$$$
