drugbank_target|P00692 Alpha-amylase (DB02379; DB03773)
 OpenBabel12092119593D

  0  0  0     0  0            999 V3000
M  V30 BEGIN CTAB
M  V30 COUNTS 8056 8173 0 0 0
M  V30 BEGIN ATOM
M  V30 1 H -0.908 1.98254 -0.117106 0
M  V30 2 N 0 1.576 0 0
M  V30 3 C 0.933 2.03868 1.02534 0
M  V30 4 C 1.911 0.928543 1.3348 0
M  V30 5 O 3.095 1.19667 1.45644 0
M  V30 6 C 0.222 2.43627 2.35294 0
M  V30 7 C -0.732 3.65373 2.2001 0
M  V30 8 S 0.101 5.13292 1.52614 0
M  V30 9 C 1.257 5.56322 2.86805 0
M  V30 10 H 1.49 2.90518 0.631377 0
M  V30 11 H -0.977 1.52953 0.210867 0
M  V30 12 H 0.981 2.67203 3.11629 0
M  V30 13 H -0.358 1.57376 2.7183 0
M  V30 14 H -1.165 3.90944 3.18086 0
M  V30 15 H -1.563 3.418 1.51819 0
M  V30 16 H 0.729 5.58782 3.83104 0
M  V30 17 H 1.672 6.56266 2.65933 0
M  V30 18 H 2.08 4.83886 2.90714 0
M  V30 19 N 1.4781 -0.272755 1.55222 0
M  V30 20 C 2.7271 -1.00211 1.75045 0
M  V30 21 C 3.0401 -1.87441 0.559046 0
M  V30 22 O 4.2461 -2.63856 0.639698 0
M  V30 23 C 2.7021 -1.83165 3.09804 0
M  V30 24 C 2.3101 -1.008 4.36513 0
M  V30 25 C 4.0541 -2.55529 3.38977 0
M  V30 26 C 1.9611 -1.83194 5.62311 0
M  V30 27 H 0.8911 -0.377878 0.652476 0
M  V30 28 H 3.5421 -0.257776 1.8168 0
M  V30 29 H 1.9241 -2.61694 2.97207 0
M  V30 30 H 3.0981 -0.266855 4.60027 0
M  V30 31 H 1.4131 -0.398897 4.14485 0
M  V30 32 H 4.0101 -3.17578 4.30172 0
M  V30 33 H 4.3531 -3.25825 2.59121 0
M  V30 34 H 4.8861 -1.84029 3.52673 0
M  V30 35 H 1.6251 -1.17318 6.44916 0
M  V30 36 H 1.1451 -2.54905 5.4294 0
M  V30 37 H 2.8241 -2.40552 6.00619 0
M  V30 38 N 2.9562 -1.48159 -0.537278 0
M  V30 39 C 3.8882 -1.58218 -1.65831 0
M  V30 40 C 4.9012 -0.466948 -1.5596 0
M  V30 41 O 6.0902 -0.73747 -1.62553 0
M  V30 42 C 3.1902 -1.48906 -3.04434 0
M  V30 43 C 2.3632 -2.75343 -3.3986 0
M  V30 44 C 1.4222 -2.59588 -4.57712 0
M  V30 45 O 0.4482 -3.33457 -4.61297 0
M  V30 46 N 1.6502 -1.68724 -5.55439 0
M  V30 47 H 4.4152 -2.54891 -1.57641 0
M  V30 48 H 1.9762 -1.4479 -0.724386 0
M  V30 49 H 3.9682 -1.36072 -3.81139 0
M  V30 50 H 2.5382 -0.602368 -3.06741 0
M  V30 51 H 1.7582 -3.02795 -2.52406 0
M  V30 52 H 3.0462 -3.5924 -3.60311 0
M  V30 53 H 2.4442 -1.07898 -5.55315 0
M  V30 54 H 1.0012 -1.61832 -6.3139 0
M  V30 55 N 4.4343 0.785586 -1.36625 0
M  V30 56 C 5.3813 1.89838 -1.31264 0
M  V30 57 C 6.3513 1.65115 -0.180633 0
M  V30 58 O 7.5363 1.87222 -0.36777 0
M  V30 59 C 4.6763 3.26706 -1.11163 0
M  V30 60 C 3.7893 3.63476 -2.33472 0
M  V30 61 C 2.9243 4.89481 -2.06353 0
M  V30 62 C 1.9633 5.18941 -3.24602 0
M  V30 63 N 1.1003 6.36131 -2.97123 0
M  V30 64 H 5.9403 1.93756 -2.26413 0
M  V30 65 H 3.4773 0.947454 -1.12524 0
M  V30 66 H 5.4353 4.05639 -0.975337 0
M  V30 67 H 4.0653 3.222 -0.196674 0
M  V30 68 H 3.1173 2.79636 -2.57891 0
M  V30 69 H 4.4293 3.81193 -3.21704 0
M  V30 70 H 3.5833 5.76288 -1.89675 0
M  V30 71 H 2.3223 4.73841 -1.15437 0
M  V30 72 H 1.3273 4.30615 -3.41834 0
M  V30 73 H 2.5523 5.36498 -4.16349 0
M  V30 74 H 0.4983 6.21875 -2.08823 0
M  V30 75 H 0.4153 6.54198 -3.78894 0
M  V30 76 H 1.6833 7.2591 -2.84033 0
M  V30 77 N 5.9124 1.20967 1.01018 0
M  V30 78 C 7.3284 0.965905 1.27053 0
M  V30 79 C 7.5284 -0.350785 1.98423 0
M  V30 80 O 6.5844 -1.07773 2.28344 0
M  V30 81 C 7.8974 2.15294 2.09926 0
M  V30 82 C 9.4454 2.19463 2.23171 0
M  V30 83 C 9.9204 3.3767 3.09424 0
M  V30 84 N 11.4114 3.37724 3.17012 0
M  V30 85 C 12.1464 4.25837 3.83993 0
M  V30 86 N 11.6424 5.24138 4.53047 0
M  V30 87 N 13.4354 4.1366 3.80581 0
M  V30 88 H 5.5864 2.0565 0.531194 0
M  V30 89 H 7.8494 0.90024 0.297106 0
M  V30 90 H 7.5554 3.10684 1.64828 0
M  V30 91 H 7.4294 2.13923 3.10672 0
M  V30 92 H 9.8164 1.24632 2.6749 0
M  V30 93 H 9.8974 2.2488 1.21912 0
M  V30 94 H 9.5414 4.32791 2.65808 0
M  V30 95 H 9.4714 3.29491 4.10784 0
M  V30 96 H 11.9624 2.6658 2.6785 0
M  V30 97 H 12.2754 5.87684 5.01844 0
M  V30 98 H 10.6204 5.28068 4.5185 0
M  V30 99 H 13.8114 3.36127 3.25785 0
M  V30 100 H 13.9844 4.82538 4.32505 0
M  V30 101 N 7.3905 -1.2043 1.01659 0
M  V30 102 C 8.3375 -2.23215 0.586822 0
M  V30 103 C 9.3075 -1.61382 -0.393085 0
M  V30 104 O 10.4925 -1.88544 -0.292525 0
M  V30 105 C 7.6325 -3.45032 -0.0687464 0
M  V30 106 C 6.7455 -4.21296 0.955724 0
M  V30 107 C 5.8805 -5.30507 0.271208 0
M  V30 108 C 4.9195 -5.98515 1.28244 0
M  V30 109 N 4.0565 -6.99316 0.62459 0
M  V30 110 H 8.8965 -2.59336 1.46796 0
M  V30 111 H 6.4335 -1.27431 0.734836 0
M  V30 112 H 8.3915 -4.1459 -0.465965 0
M  V30 113 H 7.0215 -3.09604 -0.913529 0
M  V30 114 H 6.0735 -3.50803 1.4711 0
M  V30 115 H 7.3855 -4.6803 1.72479 0
M  V30 116 H 6.5395 -6.06428 -0.18151 0
M  V30 117 H 5.2785 -4.8481 -0.530163 0
M  V30 118 H 4.2835 -5.21355 1.74554 0
M  V30 119 H 5.5085 -6.46298 2.08509 0
M  V30 120 H 3.4545 -6.55812 -0.156914 0
M  V30 121 H 3.3715 -7.44178 1.33172 0
M  V30 122 H 4.6395 -7.79255 0.195462 0
M  V30 123 N 8.8686 -0.792821 -1.36206 0
M  V30 124 C 10.2846 -0.474903 -1.52371 0
M  V30 125 C 10.4846 1.00622 -1.74578 0
M  V30 126 O 9.5406 1.79162 -1.77924 0
M  V30 127 C 10.8536 -1.3083 -2.70747 0
M  V30 128 C 12.4016 -1.30234 -2.84619 0
M  V30 129 C 12.8766 -2.11956 -4.06004 0
M  V30 130 N 14.3676 -2.09419 -4.13156 0
M  V30 131 C 15.1026 -2.69419 -5.06163 0
M  V30 132 N 14.5986 -3.3829 -6.04592 0
M  V30 133 N 16.3916 -2.59134 -4.98804 0
M  V30 134 H 8.5426 -1.75222 -1.20046 0
M  V30 135 H 10.8056 -0.745024 -0.586211 0
M  V30 136 H 10.5116 -2.35881 -2.6087 0
M  V30 137 H 10.3856 -0.95196 -3.6499 0
M  V30 138 H 12.7726 -0.259748 -2.93955 0
M  V30 139 H 12.8536 -1.69847 -1.91274 0
M  V30 140 H 12.4976 -3.16248 -3.97429 0
M  V30 141 H 12.4276 -1.69711 -4.98503 0
M  V30 142 H 14.9186 -1.59297 -3.42685 0
M  V30 143 H 15.2316 -3.81394 -6.7213 0
M  V30 144 H 13.5766 -3.42393 -6.04807 0
M  V30 145 H 16.7676 -2.04927 -4.20859 0
M  V30 146 H 16.9406 -3.06185 -5.711 0
M  V30 147 N 10.3467 1.47872 -0.545128 0
M  V30 148 C 11.5747 2.06889 -0.021084 0
M  V30 149 C 11.9897 1.39955 1.2672 0
M  V30 150 O 11.3467 0.492036 1.75742 0
M  V30 151 C 11.3977 3.60996 0.190817 0
M  V30 152 O 11.1187 4.25419 -1.04644 0
M  V30 153 C 12.6197 4.36849 0.753521 0
M  V30 154 H 9.8397 0.669785 -0.0403635 0
M  V30 155 H 12.3837 1.90049 -0.755095 0
M  V30 156 H 10.5387 3.77391 0.87492 0
M  V30 157 H 10.9527 5.17785 -0.836611 0
M  V30 158 H 12.4267 5.45399 0.851139 0
M  V30 159 H 12.9037 4.02306 1.762 0
M  V30 160 H 13.5097 4.25169 0.105503 0
M  V30 161 N 11.8248 0.280983 1.55075 0
M  V30 162 C 13.0708 -0.33461 2.00021 0
M  V30 163 C 13.4038 -1.55063 1.16915 0
M  V30 164 O 12.6788 -1.93006 0.240646 0
M  V30 165 C 12.9618 -0.711007 3.53011 0
M  V30 166 C 12.8148 0.512766 4.46868 0
M  V30 167 C 14.1338 -1.54522 4.12081 0
M  V30 168 H 11.2528 -0.120147 0.727141 0
M  V30 169 H 13.8948 0.389097 1.85973 0
M  V30 170 H 12.0448 -1.32761 3.65112 0
M  V30 171 H 13.7168 1.15131 4.46702 0
M  V30 172 H 11.9598 1.14975 4.18286 0
M  V30 173 H 12.6308 0.205556 5.51617 0
M  V30 174 H 15.1068 -1.02442 4.03293 0
M  V30 175 H 13.9828 -1.77739 5.19327 0
M  V30 176 H 14.2438 -2.52813 3.62682 0
M  V30 177 N 13.3029 -1.57598 0.00835791 0
M  V30 178 C 14.5279 -1.95617 -0.689103 0
M  V30 179 C 14.9529 -0.883753 -1.66046 0
M  V30 180 O 14.3109 0.157352 -1.80616 0
M  V30 181 C 14.3589 -3.32736 -1.38994 0
M  V30 182 O 13.4629 -3.27631 -2.50463 0
M  V30 183 H 12.8039 -0.638379 -0.182668 0
M  V30 184 H 15.3339 -2.045 0.064036 0
M  V30 185 H 15.3439 -3.68494 -1.75147 0
M  V30 186 H 14.0189 -4.1034 -0.677778 0
M  V30 187 H 12.5959 -3.03561 -2.16576 0
M  V30 188 N 14.781 0.264519 -1.55364 0
M  V30 189 C 16.028 0.994986 -1.7637 0
M  V30 190 C 16.356 1.85976 -0.5695 0
M  V30 191 O 15.611 1.90509 0.44776 0
M  V30 192 C 15.91 1.9004 -3.02687 0
M  V30 193 C 15.576 1.19243 -4.34847 0
M  V30 194 C 14.238 0.996709 -4.70764 0
M  V30 195 C 16.59 0.689296 -5.16622 0
M  V30 196 C 13.918 0.285261 -5.86006 0
M  V30 197 C 16.27 -0.00860079 -6.32599 0
M  V30 198 C 14.934 -0.215963 -6.67151 0
M  V30 199 H 14.204 0.364091 -0.645383 0
M  V30 200 H 16.851 0.266543 -1.89636 0
M  V30 201 H 15.156 2.69533 -2.84357 0
M  V30 202 H 16.853 2.46695 -3.16137 0
M  V30 203 H 13.443 1.3549 -4.06621 0
M  V30 204 H 17.627 0.828108 -4.89342 0
M  V30 205 H 12.883 0.113961 -6.11294 0
M  V30 206 H 17.057 -0.406186 -6.95214 0
M  V30 207 H 14.684 -0.769217 -7.56298 0
M  V30 208 N 16.2591 1.48442 0.529413 0
M  V30 209 C 17.6751 1.34575 0.858004 0
M  V30 210 C 17.8751 0.3572 1.98309 0
M  V30 211 O 16.9311 -0.221379 2.51528 0
M  V30 212 C 18.2441 2.74617 1.22499 0
M  V30 213 C 19.7921 2.83109 1.33484 0
M  V30 214 C 20.2671 4.23854 1.73526 0
M  V30 215 N 21.7581 4.2653 1.80628 0
M  V30 216 C 22.4931 5.32372 2.12997 0
M  V30 217 N 21.9891 6.48491 2.43786 0
M  V30 218 N 23.7821 5.19766 2.14008 0
M  V30 219 H 15.9331 2.1133 -0.212925 0
M  V30 220 H 18.1961 0.947439 -0.0326199 0
M  V30 221 H 17.9021 3.4852 0.471905 0
M  V30 222 H 17.7761 3.08177 2.17501 0
M  V30 223 H 20.1631 2.09462 2.0787 0
M  V30 224 H 20.2441 2.53168 0.366027 0
M  V30 225 H 19.8881 4.98018 0.997013 0
M  V30 226 H 19.8181 4.5124 2.71459 0
M  V30 227 H 22.3091 3.42772 1.59108 0
M  V30 228 H 22.6221 7.24993 2.67592 0
M  V30 229 H 20.9671 6.51765 2.41304 0
M  V30 230 H 24.1581 4.28066 1.89412 0
M  V30 231 H 24.3311 6.02354 2.38902 0
M  V30 232 N 17.7372 -0.778329 1.37039 0
M  V30 233 C 18.6672 -1.90546 1.34962 0
M  V30 234 C 19.6482 -1.68681 0.219274 0
M  V30 235 O 20.8332 -1.89634 0.418624 0
M  V30 236 C 17.9632 -3.27734 1.14925 0
M  V30 237 C 16.9172 -3.64147 2.24902 0
M  V30 238 C 16.2432 -4.99806 1.89996 0
M  V30 239 C 17.5432 -3.71579 3.67051 0
M  V30 240 H 19.2372 -1.92541 2.29277 0
M  V30 241 H 16.7832 -0.924948 1.10366 0
M  V30 242 H 18.7362 -4.06215 1.12104 0
M  V30 243 H 17.4602 -3.26154 0.170631 0
M  V30 244 H 16.1192 -2.8797 2.26868 0
M  V30 245 H 15.7672 -4.94759 0.906796 0
M  V30 246 H 15.4672 -5.25139 2.63634 0
M  V30 247 H 16.9912 -5.80694 1.88749 0
M  V30 248 H 18.4052 -4.40227 3.67251 0
M  V30 249 H 16.8022 -4.08405 4.39688 0
M  V30 250 H 17.8722 -2.72404 4.01154 0
M  V30 251 N 19.2153 -1.21501 -1.00376 0
M  V30 252 C 20.4613 -1.03452 -1.74429 0
M  V30 253 C 20.7943 0.430764 -1.89362 0
M  V30 254 O 20.0693 1.31962 -1.42886 0
M  V30 255 C 20.3523 -1.73375 -3.15615 0
M  V30 256 C 20.2053 -3.27431 -3.08397 0
M  V30 257 C 21.5243 -1.47732 -4.14564 0
M  V30 258 H 18.6433 -0.377226 -0.633143 0
M  V30 259 H 21.2853 -1.49693 -1.17013 0
M  V30 260 H 19.4353 -1.34064 -3.64636 0
M  V30 261 H 21.1073 -3.76119 -2.67081 0
M  V30 262 H 19.3503 -3.5767 -2.45468 0
M  V30 263 H 20.0213 -3.71524 -4.08258 0
M  V30 264 H 22.4973 -1.8186 -3.74254 0
M  V30 265 H 21.3733 -1.99169 -5.11491 0
M  V30 266 H 21.6343 -0.407589 -4.40217 0
M  V30 267 N 20.6934 1.19889 -1.02296 0
M  V30 268 C 21.6234 2.25141 -0.619174 0
M  V30 269 C 22.6044 1.66051 0.368915 0
M  V30 270 O 23.7894 1.92546 0.252941 0
M  V30 271 C 20.9194 3.4728 0.0368783 0
M  V30 272 C 19.8734 4.19005 -0.872865 0
M  V30 273 C 19.1994 5.34637 -0.0822402 0
M  V30 274 C 20.4994 4.74452 -2.18387 0
M  V30 275 H 22.1934 2.59171 -1.49903 0
M  V30 276 H 19.7394 1.24579 -0.722222 0
M  V30 277 H 21.6924 4.20098 0.330958 0
M  V30 278 H 20.4164 3.12433 0.95149 0
M  V30 279 H 19.0754 3.48061 -1.15105 0
M  V30 280 H 18.7234 4.96034 0.83422 0
M  V30 281 H 18.4234 5.83557 -0.688149 0
M  V30 282 H 19.9474 6.10255 0.205238 0
M  V30 283 H 21.3614 5.39055 -1.95172 0
M  V30 284 H 19.7584 5.33834 -2.74119 0
M  V30 285 H 20.8284 3.92844 -2.84257 0
M  V30 286 N 22.1715 0.800033 1.35784 0
M  V30 287 C 23.1045 0.151499 2.27697 0
M  V30 288 C 24.0825 -0.678663 1.4776 0
M  V30 289 O 25.2665 -0.647358 1.77035 0
M  V30 290 C 22.3935 -0.790492 3.29346 0
M  V30 291 C 21.4395 -0.0407832 4.26481 0
M  V30 292 S 22.2725 1.29077 5.19711 0
M  V30 293 C 23.4285 0.353055 6.24903 0
M  V30 294 H 23.6615 0.930796 2.82353 0
M  V30 295 H 21.1945 0.594767 1.42485 0
M  V30 296 H 23.1525 -1.3285 3.88409 0
M  V30 297 H 21.8135 -1.54312 2.73581 0
M  V30 298 H 21.0065 -0.755971 4.98298 0
M  V30 299 H 20.6085 0.427063 3.71554 0
M  V30 300 H 22.9005 -0.464147 6.75908 0
M  V30 301 H 23.8435 1.04023 7.00418 0
M  V30 302 H 24.2515 -0.0483344 5.64479 0
M  V30 303 N 23.6496 -1.47581 0.552962 0
M  V30 304 C 24.8896 -2.04379 0.0296245 0
M  V30 305 C 25.2536 -1.4185 -1.29393 0
M  V30 306 O 26.4546 -1.89669 -1.90471 0
M  V30 307 C 24.7256 -3.57339 -0.0661371 0
M  V30 308 S 26.2846 -4.35511 -0.536213 0
M  V30 309 H 23.1026 -0.710625 0.0230991 0
M  V30 310 H 25.7046 -1.81005 0.738734 0
M  V30 311 H 24.4086 -4.00374 0.901596 0
M  V30 312 H 23.9396 -3.85202 -0.798931 0
M  V30 313 H 25.9546 -4.6253 -1.79668 0
M  V30 314 N 25.1277 -0.289203 -1.54924 0
M  V30 315 C 26.3557 0.326463 -2.04308 0
M  V30 316 C 26.7707 1.48413 -1.16701 0
M  V30 317 O 26.1277 1.81507 -0.190087 0
M  V30 318 C 26.1787 0.794014 -3.52672 0
M  V30 319 O 25.8997 -0.317564 -4.36948 0
M  V30 320 C 27.4007 1.47605 -4.18004 0
M  V30 321 H 24.6207 0.0726272 -0.667058 0
M  V30 322 H 27.1647 -0.425401 -2.00026 0
M  V30 323 H 25.3197 1.49593 -3.57352 0
M  V30 324 H 25.7337 0.0443186 -5.24481 0
M  V30 325 H 27.2077 1.75447 -5.23376 0
M  V30 326 H 27.6847 2.41224 -3.67025 0
M  V30 327 H 28.2907 0.81762 -4.17367 0
M  V30 328 N 26.6058 1.57591 -0.0167156 0
M  V30 329 C 27.5358 2.12496 0.967858 0
M  V30 330 C 28.5168 1.03807 1.34752 0
M  V30 331 O 29.7018 1.31577 1.42833 0
M  V30 332 C 26.8318 2.64194 2.25431 0
M  V30 333 C 25.7858 3.77559 2.01576 0
M  V30 334 C 25.1118 4.15636 3.36379 0
M  V30 335 C 26.4118 5.04151 1.36489 0
M  V30 336 H 28.1058 2.95013 0.510643 0
M  V30 337 H 25.6518 1.41915 0.244181 0
M  V30 338 H 27.6048 3.01236 2.94678 0
M  V30 339 H 26.3288 1.78821 2.73296 0
M  V30 340 H 24.9878 3.40937 1.34751 0
M  V30 341 H 24.6358 3.27263 3.81979 0
M  V30 342 H 24.3358 4.92022 3.21229 0
M  V30 343 H 25.8598 4.5525 4.06915 0
M  V30 344 H 27.2738 5.38857 1.95718 0
M  V30 345 H 25.6708 5.85453 1.31776 0
M  V30 346 H 26.7408 4.83733 0.336219 0
M  V30 347 N 28.0839 -0.256276 1.55502 0
M  V30 348 C 29.0139 -1.32102 1.92539 0
M  V30 349 C 29.9949 -1.50684 0.789194 0
M  V30 350 O 31.1799 -1.63449 1.04872 0
M  V30 351 C 28.3099 -2.67752 2.21192 0
M  V30 352 C 27.2639 -2.63878 3.36975 0
M  V30 353 C 26.5899 -4.03236 3.51147 0
M  V30 354 C 27.8899 -2.21682 4.72921 0
M  V30 355 H 29.5839 -1.01351 2.81724 0
M  V30 356 H 27.1299 -0.486105 1.35547 0
M  V30 357 H 29.0829 -3.42365 2.45691 0
M  V30 358 H 27.8069 -3.0012 1.28824 0
M  V30 359 H 26.4659 -1.91722 3.12471 0
M  V30 360 H 26.1139 -4.32854 2.56216 0
M  V30 361 H 25.8139 -4.01535 4.29003 0
M  V30 362 H 27.3379 -4.79563 3.77957 0
M  V30 363 H 28.7519 -2.86023 4.96854 0
M  V30 364 H 27.1489 -2.3111 5.53812 0
M  V30 365 H 28.2189 -1.16833 4.70615 0
M  V30 366 N 29.562 -1.4872 -0.521534 0
M  V30 367 C 30.809 -1.57168 -1.27689 0
M  V30 368 C 31.137 -0.249275 -1.92896 0
M  V30 369 O 30.392 0.761162 -1.80291 0
M  V30 370 C 30.691 -2.66497 -2.38148 0
M  V30 371 C 30.357 -4.08664 -1.90538 0
M  V30 372 C 29.019 -4.47357 -1.77271 0
M  V30 373 C 31.371 -4.97724 -1.54663 0
M  V30 374 C 28.699 -5.72905 -1.26478 0
M  V30 375 C 31.051 -6.2377 -1.05329 0
M  V30 376 C 29.715 -6.61311 -0.906861 0
M  V30 377 H 28.985 -0.575117 -0.467249 0
M  V30 378 H 31.632 -1.82472 -0.581051 0
M  V30 379 H 29.937 -2.35085 -3.13437 0
M  V30 380 H 31.634 -2.70246 -2.96257 0
M  V30 381 H 28.224 -3.78111 -2.01816 0
M  V30 382 H 32.408 -4.68501 -1.63768 0
M  V30 383 H 27.664 -6.00709 -1.13835 0
M  V30 384 H 31.838 -6.9217 -0.76644 0
M  V30 385 H 29.465 -7.5848 -0.511083 0
M  V30 386 N 31.0401 0.771051 -1.3745 0
M  V30 387 C 32.2861 1.5319 -1.32894 0
M  V30 388 C 32.6191 1.94008 0.0862511 0
M  V30 389 O 31.8941 1.64124 1.04373 0
M  V30 390 C 32.1771 2.79648 -2.26868 0
M  V30 391 C 32.0301 2.45079 -3.77169 0
M  V30 392 C 33.3491 3.81583 -2.19277 0
M  V30 393 H 30.4681 0.555744 -0.484064 0
M  V30 394 H 33.1101 0.884492 -1.68157 0
M  V30 395 H 31.2601 3.34891 -1.96926 0
M  V30 396 H 32.9321 1.95745 -4.1771 0
M  V30 397 H 31.1751 1.77767 -3.95704 0
M  V30 398 H 31.8461 3.35478 -4.38359 0
M  V30 399 H 34.3221 3.35835 -2.45671 0
M  V30 400 H 33.1981 4.67787 -2.87171 0
M  V30 401 H 33.4591 4.25897 -1.18592 0
M  V30 402 N 32.5182 1.22032 0.997298 0
M  V30 403 C 33.7432 1.06921 1.77715 0
M  V30 404 C 34.1682 -0.376226 1.84299 0
M  V30 405 O 33.5262 -1.27165 1.29223 0
M  V30 406 C 33.5742 1.67996 3.19076 0
M  V30 407 O 32.6782 0.930653 4.01762 0
M  V30 408 H 32.0192 0.375814 0.547412 0
M  V30 409 H 34.5492 1.61737 1.25309 0
M  V30 410 H 34.5592 1.72538 3.69723 0
M  V30 411 H 33.2342 2.73182 3.13599 0
M  V30 412 H 31.8112 0.960917 3.60307 0
M  V30 413 N 33.9963 -1.19345 1.0293 0
M  V30 414 C 34.9263 -2.2481 0.631105 0
M  V30 415 C 35.9073 -1.66245 -0.360104 0
M  V30 416 O 37.0923 -1.92677 -0.242726 0
M  V30 417 C 34.2223 -3.47295 -0.0184607 0
M  V30 418 C 33.1763 -4.18536 0.895073 0
M  V30 419 C 32.5023 -5.34586 0.110592 0
M  V30 420 C 33.8023 -4.73287 2.209 0
M  V30 421 H 35.4963 -2.58372 1.51275 0
M  V30 422 H 33.0423 -1.24194 0.728818 0
M  V30 423 H 34.9953 -4.20268 -0.308675 0
M  V30 424 H 33.7193 -3.12933 -0.934907 0
M  V30 425 H 32.3783 -3.47446 1.16949 0
M  V30 426 H 32.0263 -4.96469 -0.807902 0
M  V30 427 H 31.7263 -5.83183 0.719087 0
M  V30 428 H 33.2503 -6.10355 -0.172871 0
M  V30 429 H 34.6643 -5.38013 1.98028 0
M  V30 430 H 33.0613 -5.32373 2.76946 0
M  V30 431 H 34.1313 -3.91331 2.86336 0
M  V30 432 N 35.4744 -0.807222 -1.35358 0
M  V30 433 C 36.8854 -0.44876 -1.81226 0
M  V30 434 C 37.2364 1.02929 -1.67033 0
M  V30 435 O 36.3614 1.79991 -1.20133 0
M  V30 436 C 36.9564 -0.807774 -3.2903 0
M  V30 437 C 35.5154 -0.501901 -3.73039 0
M  V30 438 C 34.6624 -1.03304 -2.57339 0
M  V30 439 H 37.6134 -0.998808 -1.23327 0
M  V30 440 H 37.6344 -0.10554 -3.80354 0
M  V30 441 H 37.1464 -1.88357 -3.39328 0
M  V30 442 H 35.2474 0.565128 -3.68289 0
M  V30 443 H 35.3604 -1.03497 -4.67787 0
M  V30 444 H 33.7244 -0.455339 -2.50597 0
M  V30 445 H 34.5074 -2.11496 -2.70415 0
M  V30 446 N 36.9525 1.47285 -0.560781 0
M  V30 447 C 38.2015 2.01668 -0.035895 0
M  V30 448 C 38.5145 1.44021 1.32353 0
M  V30 449 O 39.7205 1.90088 1.93853 0
M  V30 450 C 38.1765 3.59897 -0.0136659 0
M  V30 451 C 37.7845 4.26536 -1.37006 0
M  V30 452 C 39.5285 4.22017 0.458425 0
M  V30 453 C 37.4355 5.76782 -1.30675 0
M  V30 454 H 36.3655 0.753938 -0.00964879 0
M  V30 455 H 39.0165 1.69243 -0.709166 0
M  V30 456 H 37.3985 3.89301 0.725325 0
M  V30 457 H 38.5725 4.0877 -2.12705 0
M  V30 458 H 36.8875 3.76419 -1.78038 0
M  V30 459 H 39.4845 5.32124 0.524247 0
M  V30 460 H 39.8275 3.89437 1.4712 0
M  V30 461 H 40.3605 3.97159 -0.225818 0
M  V30 462 H 37.0995 6.13988 -2.29564 0
M  V30 463 H 36.6195 5.96875 -0.591622 0
M  V30 464 H 38.2985 6.39063 -1.01033 0
M  V30 465 N 38.4306 0.297415 1.54768 0
M  V30 466 C 39.6586 -0.315623 2.04478 0
M  V30 467 C 40.0736 -1.47792 1.17486 0
M  V30 468 O 39.4306 -1.81404 0.19971 0
M  V30 469 C 39.4816 -0.7753 3.53088 0
M  V30 470 O 39.2026 0.340732 4.36773 0
M  V30 471 C 40.7036 -1.45386 4.18781 0
M  V30 472 H 37.9236 -0.0690887 0.667434 0
M  V30 473 H 40.4676 0.436003 1.99798 0
M  V30 474 H 38.6226 -1.47696 3.58141 0
M  V30 475 H 39.0366 -0.0165035 5.24497 0
M  V30 476 H 40.5106 -1.72669 5.24299 0
M  V30 477 H 40.9876 -2.39275 3.68299 0
M  V30 478 H 41.5936 -0.795475 4.17795 0
M  V30 479 N 39.9087 -1.5758 0.0250728 0
M  V30 480 C 40.8557 -2.09973 -0.958129 0
M  V30 481 C 41.8257 -1.00085 -1.3256 0
M  V30 482 O 43.0107 -1.27481 -1.41962 0
M  V30 483 C 40.1507 -2.62812 -2.2366 0
M  V30 484 C 39.2637 -3.86693 -1.92594 0
M  V30 485 C 38.3987 -4.27941 -3.14707 0
M  V30 486 C 37.4377 -5.44591 -2.79442 0
M  V30 487 N 36.5747 -5.81014 -3.94167 0
M  V30 488 H 41.4147 -2.937 -0.504428 0
M  V30 489 H 38.9517 -1.45172 -0.237392 0
M  V30 490 H 40.9097 -2.91536 -2.98434 0
M  V30 491 H 39.5397 -1.81922 -2.66654 0
M  V30 492 H 38.5917 -3.64723 -1.0808 0
M  V30 493 H 39.9037 -4.71547 -1.62619 0
M  V30 494 H 39.0577 -4.58079 -3.97804 0
M  V30 495 H 37.7967 -3.41845 -3.4784 0
M  V30 496 H 36.8017 -5.1415 -1.94755 0
M  V30 497 H 38.0267 -6.32382 -2.47528 0
M  V30 498 H 35.9727 -4.97874 -4.2715 0
M  V30 499 H 35.8897 -6.60498 -3.67801 0
M  V30 500 H 37.1577 -6.15756 -4.7798 0
M  V30 501 N 41.3868 0.248026 -1.55636 0
M  V30 502 C 42.6148 0.993808 -1.81469 0
M  V30 503 C 43.0298 1.78991 -0.60064 0
M  V30 504 O 42.3868 1.77345 0.430682 0
M  V30 505 C 42.4378 1.93258 -3.05506 0
M  V30 506 O 42.1588 1.16869 -4.22224 0
M  V30 507 C 43.6598 2.79444 -3.4413 0
M  V30 508 H 40.8798 0.292486 -0.603898 0
M  V30 509 H 43.4238 0.271253 -2.02693 0
M  V30 510 H 41.5788 2.60943 -2.86335 0
M  V30 511 H 41.9928 1.80359 -4.92515 0
M  V30 512 H 43.4668 3.41066 -4.34026 0
M  V30 513 H 43.9438 3.50499 -2.64665 0
M  V30 514 H 44.5498 2.17214 -3.65648 0
M  V30 515 N 42.8649 1.48995 0.513639 0
M  V30 516 C 44.0899 1.61792 1.29762 0
M  V30 517 C 44.5149 0.284475 1.85936 0
M  V30 518 O 43.8729 -0.746185 1.65232 0
M  V30 519 C 43.9209 2.67993 2.41272 0
M  V30 520 O 43.0249 2.26287 3.44772 0
M  V30 521 H 42.3659 0.541963 0.38363 0
M  V30 522 H 44.8959 1.95097 0.616307 0
M  V30 523 H 44.9059 2.89772 2.87221 0
M  V30 524 H 43.5809 3.64791 1.9975 0
M  V30 525 H 42.1579 2.14788 3.04829 0
M  V30 526 N 44.343 -0.763751 1.37857 0
M  V30 527 C 45.306 -1.85889 1.34081 0
M  V30 528 C 46.306 -1.58949 0.243277 0
M  V30 529 O 47.496 -1.66882 0.499589 0
M  V30 530 C 44.628 -3.23176 1.08489 0
M  V30 531 H 45.821 -1.90648 2.31502 0
M  V30 532 H 43.374 -0.964367 1.23003 0
M  V30 533 H 44.109 -3.24091 0.116318 0
M  V30 534 H 43.894 -3.44124 1.8794 0
M  V30 535 H 45.384 -4.03254 1.08517 0
M  V30 536 N 45.8211 -1.22559 -0.990812 0
M  V30 537 C 47.0671 -1.05297 -1.73322 0
M  V30 538 C 47.4001 0.410655 -1.89808 0
M  V30 539 O 46.6751 1.30439 -1.44277 0
M  V30 540 C 46.9581 -1.76713 -3.13759 0
M  V30 541 C 46.8111 -3.30684 -3.04907 0
M  V30 542 C 48.1301 -1.52121 -4.12974 0
M  V30 543 H 45.2491 -0.38392 -0.629106 0
M  V30 544 H 47.8911 -1.50926 -1.15418 0
M  V30 545 H 46.0411 -1.37924 -3.63193 0
M  V30 546 H 47.7131 -3.7893 -2.63077 0
M  V30 547 H 45.9561 -3.60253 -2.41661 0
M  V30 548 H 46.6271 -3.75833 -4.04294 0
M  V30 549 H 49.1031 -1.85819 -3.72304 0
M  V30 550 H 47.9791 -2.04582 -5.0935 0
M  V30 551 H 48.2401 -0.454257 -4.3976 0
M  V30 552 N 47.2992 1.18797 -1.03562 0
M  V30 553 C 48.2472 2.24297 -0.615905 0
M  V30 554 C 49.2412 1.65643 0.354808 0
M  V30 555 O 50.4472 1.78618 0.22265 0
M  V30 556 H 46.8222 0.729909 -0.180934 0
M  V30 557 H 48.7932 2.5701 -1.5162 0
M  V30 558 C 47.5422 3.47698 0.0104735 0
M  V30 559 H 46.8652 3.93125 -0.727509 0
M  V30 560 H 48.3052 4.23159 0.266995 0
M  V30 561 C 46.7642 3.12489 1.25905 0
M  V30 562 O 47.2942 3.25761 2.35038 0
M  V30 563 N 45.5002 2.6686 1.15039 0
M  V30 564 H 45.0472 2.56261 0.262328 0
M  V30 565 H 45.0052 2.43674 1.98672 0
M  V30 566 N 48.7773 0.814389 1.34928 0
M  V30 567 C 50.0253 0.397636 1.9815 0
M  V30 568 C 50.3463 -1.04069 1.64908 0
M  V30 569 O 49.6163 -1.72121 0.93548 0
M  V30 570 H 48.1963 0.144043 0.732981 0
M  V30 571 H 50.8583 1.04195 1.6471 0
M  V30 572 H 49.9543 0.509688 3.0791 0
M  V30 573 N 50.2554 -1.46986 0.568584 0
M  V30 574 C 51.4834 -2.0683 0.0539956 0
M  V30 575 C 51.8984 -1.41953 -1.24478 0
M  V30 576 O 51.2554 -0.519933 -1.74937 0
M  V30 577 C 51.3064 -3.61254 -0.133362 0
M  V30 578 O 51.0274 -4.237 1.11399 0
M  V30 579 C 52.5284 -4.37992 -0.683927 0
M  V30 580 H 49.7484 -0.669058 0.0510141 0
M  V30 581 H 52.2924 -1.88824 0.785234 0
M  V30 582 H 50.4474 -3.78735 -0.81477 0
M  V30 583 H 50.8614 -5.16388 0.91888 0
M  V30 584 H 52.3354 -5.46684 -0.764263 0
M  V30 585 H 52.8124 -4.05058 -1.69778 0
M  V30 586 H 53.4184 -4.25283 -0.0378494 0
M  V30 587 N 51.7335 -0.305618 -1.54608 0
M  V30 588 C 52.6635 0.561482 -2.26649 0
M  V30 589 C 53.6445 1.13415 -1.26772 0
M  V30 590 O 54.8295 1.16262 -1.55553 0
M  V30 591 C 51.9595 1.73122 -3.01075 0
M  V30 592 C 50.9135 1.2887 -4.08138 0
M  V30 593 C 50.2395 2.54396 -4.70305 0
M  V30 594 C 51.5395 0.416578 -5.20636 0
M  V30 595 H 53.2335 -0.0393902 -2.99374 0
M  V30 596 H 50.7795 -0.020385 -1.43986 0
M  V30 597 H 52.7325 2.34396 -3.50195 0
M  V30 598 H 51.4565 2.3584 -2.25936 0
M  V30 599 H 50.1155 0.698991 -3.59875 0
M  V30 600 H 49.7635 3.15439 -3.918 0
M  V30 601 H 49.4635 2.25486 -5.42614 0
M  V30 602 H 50.9875 3.16464 -5.2219 0
M  V30 603 H 52.4015 0.935116 -5.65622 0
M  V30 604 H 50.7985 0.221046 -5.99693 0
M  V30 605 H 51.8685 -0.557162 -4.81688 0
M  V30 606 N 53.2116 1.57565 -0.0334293 0
M  V30 607 C 54.1446 2.05997 0.981866 0
M  V30 608 C 55.1226 0.956647 1.3148 0
M  V30 609 O 56.3066 1.22729 1.43073 0
M  V30 610 C 53.4336 2.48564 2.30074 0
M  V30 611 C 52.4796 3.69958 2.12211 0
M  V30 612 S 53.3126 5.16414 1.41692 0
M  V30 613 C 54.4686 5.6228 2.7494 0
M  V30 614 H 54.7016 2.91792 0.569612 0
M  V30 615 H 52.2346 1.53366 0.178376 0
M  V30 616 H 54.1926 2.73753 3.05892 0
M  V30 617 H 52.8536 1.63106 2.68431 0
M  V30 618 H 52.0466 3.97603 3.09722 0
M  V30 619 H 51.6486 3.44943 1.44535 0
M  V30 620 H 53.9406 5.66783 3.71165 0
M  V30 621 H 54.8836 6.61759 2.51953 0
M  V30 622 H 55.2916 4.89944 2.80384 0
M  V30 623 N 54.6897 -0.239769 1.55765 0
M  V30 624 C 55.6217 -1.32001 1.87372 0
M  V30 625 C 56.6347 -1.43944 0.760522 0
M  V30 626 O 57.8237 -1.45167 1.0387 0
M  V30 627 C 54.9237 -2.69779 2.05115 0
M  V30 628 C 54.0967 -2.80014 3.36022 0
M  V30 629 C 53.1557 -3.98684 3.4342 0
M  V30 630 O 52.1817 -3.87877 4.16582 0
M  V30 631 N 53.3837 -5.12176 2.73232 0
M  V30 632 H 56.1487 -1.0522 2.80622 0
M  V30 633 H 53.7097 -0.429857 1.56089 0
M  V30 634 H 55.7017 -3.47517 2.07399 0
M  V30 635 H 54.2717 -2.89237 1.18577 0
M  V30 636 H 53.4917 -1.88896 3.45994 0
M  V30 637 H 54.7797 -2.83808 4.22292 0
M  V30 638 H 54.1777 -5.2385 2.13536 0
M  V30 639 H 52.7347 -5.88022 2.81199 0
M  V30 640 N 56.1678 -1.49265 -0.50573 0
M  V30 641 C 57.3978 -1.61979 -1.28243 0
M  V30 642 C 57.8058 -0.288576 -1.86986 0
M  V30 643 O 57.1488 0.735408 -1.68337 0
M  V30 644 C 57.2108 -2.62632 -2.45489 0
M  V30 645 C 56.8748 -4.071 -2.07651 0
M  V30 646 C 57.8718 -4.94049 -1.61901 0
M  V30 647 C 55.5568 -4.52801 -2.17431 0
M  V30 648 C 57.5508 -6.24736 -1.26428 0
M  V30 649 C 55.2378 -5.83503 -1.8157 0
M  V30 650 C 56.2358 -6.69294 -1.36142 0
M  V30 651 O 55.9238 -7.9756 -1.00764 0
M  V30 652 H 55.6558 -0.54834 -0.395347 0
M  V30 653 H 58.2098 -1.96002 -0.614204 0
M  V30 654 H 56.4398 -2.2378 -3.15372 0
M  V30 655 H 58.1288 -2.64925 -3.07522 0
M  V30 656 H 58.8948 -4.5997 -1.53795 0
M  V30 657 H 54.7738 -3.86196 -2.51742 0
M  V30 658 H 58.3178 -6.91652 -0.908992 0
M  V30 659 H 54.2148 -6.17112 -1.89324 0
M  V30 660 H 54.9828 -8.10529 -1.13952 0
M  V30 661 N 57.6459 0.756429 -1.3826 0
M  V30 662 C 58.8929 1.51547 -1.34312 0
M  V30 663 C 59.2209 1.94382 0.0677144 0
M  V30 664 O 58.4759 1.65514 1.04421 0
M  V30 665 C 58.7749 2.78313 -2.24224 0
M  V30 666 C 58.4409 2.54455 -3.72241 0
M  V30 667 C 57.1029 2.47657 -4.12576 0
M  V30 668 C 59.4549 2.3354 -4.65949 0
M  V30 669 C 56.7829 2.17956 -5.44713 0
M  V30 670 C 59.1349 2.05359 -5.9834 0
M  V30 671 C 57.7989 1.97016 -6.37762 0
M  V30 672 H 57.0689 0.55455 -0.491482 0
M  V30 673 H 59.7159 0.870039 -1.70595 0
M  V30 674 H 58.0209 3.47492 -1.80987 0
M  V30 675 H 59.7179 3.36259 -2.18474 0
M  V30 676 H 56.3079 2.60616 -3.40261 0
M  V30 677 H 60.4919 2.37772 -4.35635 0
M  V30 678 H 55.7479 2.10003 -5.74203 0
M  V30 679 H 59.9219 1.88179 -6.70494 0
M  V30 680 H 57.5489 1.73766 -7.40074 0
M  V30 681 N 59.124 1.23083 0.984299 0
M  V30 682 C 60.034 1.02515 2.11016 0
M  V30 683 C 61.05 -0.0291702 1.73976 0
M  V30 684 O 62.226 0.165434 2.00719 0
M  V30 685 C 59.291 0.614673 3.41208 0
M  V30 686 C 58.352 1.74359 3.92297 0
M  V30 687 C 57.585 1.35261 5.16275 0
M  V30 688 O 57.808 0.235136 5.69915 0
M  V30 689 O 56.742 2.17227 5.61334 0
M  V30 690 H 60.568 1.96862 2.31255 0
M  V30 691 H 58.153 1.01753 1.09392 0
M  V30 692 H 60.035 0.396518 4.1953 0
M  V30 693 H 58.71 -0.299851 3.22308 0
M  V30 694 H 57.617 2.01635 3.1511 0
M  V30 695 H 58.95 2.63629 4.15645 0
M  V30 696 N 60.6021 -1.18246 1.0419 0
M  V30 697 C 61.8481 -1.88793 0.75689 0
M  V30 698 C 62.2031 -1.78909 -0.707767 0
M  V30 699 O 61.4961 -1.1794 -1.50999 0
M  V30 700 C 61.6901 -3.38082 1.15911 0
M  V30 701 C 61.5191 -3.62496 2.66133 0
M  V30 702 C 60.2891 -3.7979 3.33298 0
M  V30 703 C 62.4871 -3.62976 3.64353 0
M  V30 704 N 60.4691 -3.91955 4.72487 0
M  V30 705 C 61.8401 -3.80869 4.89222 0
M  V30 706 C 63.8951 -3.46071 3.57965 0
M  V30 707 C 62.5981 -3.83608 6.08471 0
M  V30 708 C 64.6241 -3.50093 4.76643 0
M  V30 709 C 63.9861 -3.68484 6.00332 0
M  V30 710 H 60.0851 -0.709406 0.32904 0
M  V30 711 H 62.6691 -1.42022 1.33183 0
M  V30 712 H 60.8401 -3.83544 0.612238 0
M  V30 713 H 62.5721 -3.96202 0.824989 0
M  V30 714 H 59.3271 -3.79224 2.83701 0
M  V30 715 H 59.7511 -4.01857 5.44831 0
M  V30 716 H 64.3931 -3.30797 2.63311 0
M  V30 717 H 62.1111 -3.97669 7.0348 0
M  V30 718 H 65.6971 -3.38285 4.73344 0
M  V30 719 H 64.5771 -3.71488 6.90627 0
M  V30 720 N 62.0802 -0.821533 -1.34494 0
M  V30 721 C 63.3102 -0.421272 -2.02259 0
M  V30 722 C 63.7182 0.977047 -1.6202 0
M  V30 723 O 63.0612 1.64348 -0.820703 0
M  V30 724 C 63.1232 -0.44231 -3.56769 0
M  V30 725 C 62.7872 -1.79372 -4.20327 0
M  V30 726 C 63.7842 -2.75435 -4.40944 0
M  V30 727 C 61.4692 -2.08182 -4.57127 0
M  V30 728 C 63.4632 -3.98482 -4.97484 0
M  V30 729 C 61.1502 -3.31489 -5.13379 0
M  V30 730 C 62.1482 -4.26457 -5.33501 0
M  V30 731 O 61.8362 -5.47585 -5.88562 0
M  V30 732 H 61.5682 -0.167473 -0.654927 0
M  V30 733 H 64.1222 -1.11073 -1.72777 0
M  V30 734 H 62.3522 0.303836 -3.85505 0
M  V30 735 H 64.0412 -0.0622925 -4.05852 0
M  V30 736 H 64.8072 -2.54473 -4.12878 0
M  V30 737 H 60.6862 -1.35066 -4.4077 0
M  V30 738 H 64.2302 -4.72618 -5.13106 0
M  V30 739 H 60.1272 -3.52316 -5.40873 0
M  V30 740 H 60.8952 -5.49086 -6.06998 0
M  V30 741 N 63.5583 1.46682 -0.576371 0
M  V30 742 C 64.7863 2.06798 -0.0649635 0
M  V30 743 C 65.2013 1.42612 1.23723 0
M  V30 744 O 64.5583 0.529203 1.74659 0
M  V30 745 C 64.6093 3.6132 0.114202 0
M  V30 746 O 64.3303 4.23104 -1.13644 0
M  V30 747 C 65.8313 4.38349 0.66069 0
M  V30 748 H 63.0513 0.668778 -0.0545616 0
M  V30 749 H 65.5953 1.88404 -0.795237 0
M  V30 750 H 63.7503 3.79162 0.794673 0
M  V30 751 H 64.1643 5.15894 -0.946253 0
M  V30 752 H 65.6383 5.47081 0.73526 0
M  V30 753 H 66.1153 4.05953 1.67627 0
M  V30 754 H 66.7213 4.25297 0.0152951 0
M  V30 755 N 65.0364 0.313813 1.54444 0
M  V30 756 C 66.4474 -0.176243 1.85866 0
M  V30 757 C 66.7984 -1.52405 1.23561 0
M  V30 758 O 65.9234 -2.09605 0.538016 0
M  V30 759 C 66.5184 -0.32657 3.37222 0
M  V30 760 C 65.0774 -0.760846 3.6863 0
M  V30 761 C 64.2244 0.123247 2.77026 0
M  V30 762 H 67.1754 0.534418 1.49431 0
M  V30 763 H 67.1964 -1.15908 3.62416 0
M  V30 764 H 66.7084 0.654531 3.82541 0
M  V30 765 H 64.8094 -1.75204 3.28838 0
M  V30 766 H 64.9224 -0.571353 4.75681 0
M  V30 767 H 63.2864 -0.399597 2.51546 0
M  V30 768 H 64.0694 1.10094 3.25168 0
M  V30 769 N 66.5145 -1.57545 0.0417849 0
M  V30 770 C 67.4625 -2.12148 -0.953723 0
M  V30 771 C 68.4565 -1.05104 -1.32852 0
M  V30 772 O 69.6625 -1.23524 -1.30927 0
M  V30 773 H 66.0375 -0.677957 -0.325389 0
M  V30 774 H 68.0085 -2.94707 -0.467991 0
M  V30 775 C 66.7575 -2.6739 -2.22257 0
M  V30 776 H 66.0805 -3.49413 -1.94295 0
M  V30 777 H 67.5205 -3.09227 -2.90094 0
M  V30 778 C 65.9795 -1.60723 -2.96091 0
M  V30 779 O 66.5095 -1.01449 -3.88679 0
M  V30 780 N 64.7155 -1.32466 -2.58652 0
M  V30 781 H 64.2625 -1.80856 -1.83437 0
M  V30 782 H 64.2205 -0.61325 -3.08361 0
M  V30 783 N 67.9926 0.231505 -1.5589 0
M  V30 784 C 69.2696 0.981096 -1.69215 0
M  V30 785 C 69.6496 2.02799 -0.586164 0
M  V30 786 O 68.9976 2.24823 0.408253 0
M  V30 787 C 69.2076 1.60054 -3.10135 0
M  V30 788 C 70.5556 2.09658 -3.69227 0
M  V30 789 O 71.5796 1.69967 -3.13033 0
M  V30 790 O 70.4386 2.8258 -4.67772 0
M  V30 791 H 67.5326 0.457653 -0.688827 0
M  V30 792 H 70.0786 0.224073 -1.68214 0
M  V30 793 H 68.8506 0.844105 -3.82087 0
M  V30 794 H 68.4736 2.42336 -3.15212 0
M  V30 795 N 69.4707 1.49531 0.497807 0
M  V30 796 C 70.7187 1.58865 1.24926 0
M  V30 797 C 71.0397 0.278721 1.92998 0
M  V30 798 O 70.3097 -0.702144 1.82885 0
M  V30 799 H 68.8897 0.585343 0.464094 0
M  V30 800 H 71.5517 1.86174 0.57666 0
M  V30 801 H 70.6477 2.38633 2.01149 0
M  V30 802 N 70.9488 -0.749086 1.3866 0
M  V30 803 C 71.8808 -1.87273 1.32142 0
M  V30 804 C 72.8938 -1.61127 0.232787 0
M  V30 805 O 74.0828 -1.71623 0.49069 0
M  V30 806 C 71.1828 -3.23005 1.02571 0
M  V30 807 C 70.3558 -3.7662 2.22433 0
M  V30 808 C 69.4148 -4.90879 1.89537 0
M  V30 809 O 68.4408 -5.05276 2.62078 0
M  V30 810 N 69.6428 -5.74198 0.853031 0
M  V30 811 H 72.4078 -1.93373 2.28969 0
M  V30 812 H 69.9688 -0.929216 1.32579 0
M  V30 813 H 71.9608 -3.96992 0.786085 0
M  V30 814 H 70.5308 -3.12262 0.145249 0
M  V30 815 H 69.7508 -2.94147 2.62434 0
M  V30 816 H 71.0388 -4.09173 3.02415 0
M  V30 817 H 70.4368 -5.6514 0.25155 0
M  V30 818 H 68.9938 -6.48313 0.67329 0
M  V30 819 N 72.4269 -1.23603 -0.977757 0
M  V30 820 C 73.3769 -0.986664 -2.05545 0
M  V30 821 C 74.3609 0.0683009 -1.60755 0
M  V30 822 O 75.5529 -0.144162 -1.76412 0
M  V30 823 C 72.6819 -0.582623 -3.3832 0
M  V30 824 C 71.7679 -1.67313 -3.89701 0
M  V30 825 N 72.1589 -2.90394 -4.14132 0
M  V30 826 C 70.4569 -1.54832 -4.18262 0
M  V30 827 C 71.1579 -3.61017 -4.56116 0
M  V30 828 N 70.1339 -2.8854 -4.60701 0
M  V30 829 H 73.9359 -1.92139 -2.22396 0
M  V30 830 H 71.4499 -1.1358 -1.16074 0
M  V30 831 H 73.4469 -0.38524 -4.15116 0
M  V30 832 H 72.1069 0.34503 -3.22862 0
M  V30 833 H 73.1179 -3.26673 -4.01877 0
M  V30 834 H 69.7949 -0.687969 -4.11793 0
M  V30 835 H 71.1849 -4.66544 -4.83514 0
M  V30 836 N 73.905 1.17692 -1.04816 0
M  V30 837 C 75.151 1.88389 -0.766892 0
M  V30 838 C 75.506 1.79282 0.698269 0
M  V30 839 O 74.799 1.18739 1.50372 0
M  V30 840 C 74.993 3.37462 -1.17703 0
M  V30 841 C 74.822 3.6108 -2.68051 0
M  V30 842 C 73.592 3.78018 -3.35307 0
M  V30 843 C 75.79 3.61039 -3.66273 0
M  V30 844 N 73.772 3.89444 -4.74559 0
M  V30 845 C 75.143 3.78269 -4.91235 0
M  V30 846 C 77.198 3.44168 -3.59796 0
M  V30 847 C 75.901 3.80376 -6.10497 0
M  V30 848 C 77.927 3.4756 -4.78493 0
M  V30 849 C 77.289 3.65295 -6.02278 0
M  V30 850 H 73.388 0.707651 -0.332798 0
M  V30 851 H 75.972 1.41314 -1.33934 0
M  V30 852 H 74.143 3.83214 -0.63257 0
M  V30 853 H 75.875 3.95759 -0.845989 0
M  V30 854 H 72.63 3.77714 -2.85708 0
M  V30 855 H 73.054 3.98962 -5.46954 0
M  V30 856 H 77.696 3.29396 -2.65062 0
M  V30 857 H 75.414 3.93933 -7.05579 0
M  V30 858 H 79 3.3577 -4.75131 0
M  V30 859 H 77.88 3.6782 -6.92588 0
M  V30 860 N 75.3831 0.828654 1.34056 0
M  V30 861 C 76.3301 0.252567 2.29414 0
M  V30 862 C 77.3001 -0.62588 1.53857 0
M  V30 863 O 78.4851 -0.566312 1.82202 0
M  V30 864 C 75.6251 -0.574831 3.40279 0
M  V30 865 C 74.7381 0.326499 4.30764 0
M  V30 866 C 73.8731 -0.511016 5.28736 0
M  V30 867 C 72.9121 0.389342 6.1086 0
M  V30 868 N 72.0491 -0.409439 7.00905 0
M  V30 869 H 76.8891 1.07108 2.78086 0
M  V30 870 H 74.4261 0.539677 1.36843 0
M  V30 871 H 76.3841 -1.06992 4.03248 0
M  V30 872 H 75.0141 -1.35841 2.92826 0
M  V30 873 H 74.0661 0.939837 3.68607 0
M  V30 874 H 75.3781 1.01857 4.88289 0
M  V30 875 H 74.5321 -1.07035 5.97184 0
M  V30 876 H 73.2711 -1.23657 4.71763 0
M  V30 877 H 72.2761 0.960769 5.4134 0
M  V30 878 H 73.5011 1.1131 6.69916 0
M  V30 879 H 71.4471 -1.11856 6.46393 0
M  V30 880 H 71.3641 0.224126 7.55668 0
M  V30 881 H 72.6321 -0.951336 7.73673 0
M  V30 882 N 76.8612 -1.46375 0.584142 0
M  V30 883 C 78.2772 -1.57694 0.245929 0
M  V30 884 C 78.4772 -1.57903 -1.25175 0
M  V30 885 O 77.5332 -1.49676 -2.03355 0
M  V30 886 C 78.8462 -2.87028 0.896402 0
M  V30 887 C 80.3942 -3.00662 0.870127 0
M  V30 888 C 80.8692 -4.32734 1.50017 0
M  V30 889 N 82.3602 -4.39436 1.46458 0
M  V30 890 C 83.0952 -5.40248 1.92144 0
M  V30 891 N 82.5912 -6.47726 2.4581 0
M  V30 892 N 84.3842 -5.31459 1.83052 0
M  V30 893 H 76.5352 -1.44483 1.55687 0
M  V30 894 H 78.7982 -0.689291 0.650831 0
M  V30 895 H 78.5042 -2.9269 1.95002 0
M  V30 896 H 78.3782 -3.75014 0.405486 0
M  V30 897 H 80.7652 -2.94581 -0.174871 0
M  V30 898 H 80.8462 -2.14148 1.39908 0
M  V30 899 H 80.4902 -4.39573 2.54437 0
M  V30 900 H 80.4202 -5.18025 0.946432 0
M  V30 901 H 82.9112 -3.62367 1.07231 0
M  V30 902 H 83.2242 -7.20863 2.78525 0
M  V30 903 H 81.5692 -6.48542 2.49836 0
M  V30 904 H 84.7602 -4.46396 1.40883 0
M  V30 905 H 84.9332 -6.09881 2.18973 0
M  V30 906 N 78.3393 -0.321999 -1.54275 0
M  V30 907 C 79.2693 0.537411 -2.27231 0
M  V30 908 C 80.2503 1.12064 -1.27968 0
M  V30 909 O 81.4353 1.14606 -1.56777 0
M  V30 910 C 78.5653 1.69919 -3.02894 0
M  V30 911 C 77.5193 1.24534 -4.09482 0
M  V30 912 C 76.8453 2.49394 -4.72977 0
M  V30 913 C 78.1453 0.361335 -5.21049 0
M  V30 914 H 79.8393 -0.0711406 -2.99315 0
M  V30 915 H 77.3853 -0.0356555 -1.43956 0
M  V30 916 H 79.3383 2.30668 -3.52662 0
M  V30 917 H 78.0623 2.33431 -2.28424 0
M  V30 918 H 76.7213 0.660782 -3.60596 0
M  V30 919 H 76.3693 3.11265 -3.95124 0
M  V30 920 H 76.0693 2.19718 -5.44975 0
M  V30 921 H 77.5933 3.10908 -5.25517 0
M  V30 922 H 79.0073 0.875072 -5.66582 0
M  V30 923 H 77.4043 0.157428 -5.99893 0
M  V30 924 H 78.4743 -0.60822 -4.8107 0
M  V30 925 N 79.8174 1.5752 -0.0501392 0
M  V30 926 C 80.7494 2.08413 0.95376 0
M  V30 927 C 81.7624 1.01175 1.27544 0
M  V30 928 O 82.9514 1.28744 1.23641 0
M  V30 929 C 80.0514 2.51138 2.27559 0
M  V30 930 C 79.2244 3.817 2.13598 0
M  V30 931 C 78.2834 4.10749 3.28895 0
M  V30 932 O 77.3094 4.80685 3.04845 0
M  V30 933 N 78.5114 3.62579 4.5334 0
M  V30 934 H 81.2764 2.95165 0.519383 0
M  V30 935 H 78.8374 1.61327 0.136127 0
M  V30 936 H 80.8294 2.67648 3.03557 0
M  V30 937 H 79.3994 1.6964 2.62567 0
M  V30 938 H 78.6194 3.74782 1.22197 0
M  V30 939 H 79.9074 4.67201 2.01496 0
M  V30 940 H 79.3054 3.06039 4.75769 0
M  V30 941 H 77.8624 3.84329 5.26436 0
M  V30 942 N 81.2955 -0.223234 1.56011 0
M  V30 943 C 82.2435 -1.29627 1.93131 0
M  V30 944 C 83.2375 -1.48608 0.813146 0
M  V30 945 O 84.4435 -1.49802 0.997966 0
M  V30 946 H 80.8185 -0.434563 0.613726 0
M  V30 947 H 82.7895 -0.955995 2.82672 0
M  V30 948 C 81.5385 -2.63983 2.26292 0
M  V30 949 H 80.8615 -2.50185 3.11846 0
M  V30 950 H 82.3015 -3.3788 2.56151 0
M  V30 951 C 80.7605 -3.18866 1.08747 0
M  V30 952 O 81.2905 -4.00192 0.347727 0
M  V30 953 N 79.4965 -2.77217 0.871743 0
M  V30 954 H 79.0435 -2.1119 1.47501 0
M  V30 955 H 79.0015 -3.1428 0.0869905 0
M  V30 956 N 82.7736 -1.49793 -0.48987 0
M  V30 957 C 84.0506 -1.50348 -1.25119 0
M  V30 958 C 84.4306 -0.237466 -2.0976 0
M  V30 959 O 83.7786 0.77981 -2.14782 0
M  V30 960 C 83.9886 -2.78872 -2.09837 0
M  V30 961 C 85.3366 -3.288 -2.68655 0
M  V30 962 O 86.3606 -2.80065 -2.20096 0
M  V30 963 O 85.2196 -4.13707 -3.57083 0
M  V30 964 H 82.3136 -0.602242 -0.566775 0
M  V30 965 H 84.8596 -1.62067 -0.503229 0
M  V30 966 H 83.6316 -3.62499 -1.47343 0
M  V30 967 H 83.2546 -2.70066 -2.91805 0
M  V30 968 N 84.2517 0.741722 -1.39055 0
M  V30 969 C 85.2147 1.83733 -1.37021 0
M  V30 970 C 86.2147 1.58542 -0.268534 0
M  V30 971 O 87.4047 1.66067 -0.526076 0
M  V30 972 C 84.5367 3.2141 -1.13617 0
M  V30 973 H 85.7297 1.86941 -2.34506 0
M  V30 974 H 83.2827 0.944676 -1.24521 0
M  V30 975 H 84.0177 3.23865 -0.167863 0
M  V30 976 H 83.8027 3.4109 -1.93391 0
M  V30 977 H 85.2927 4.01477 -1.14918 0
M  V30 978 N 85.7298 1.2412 0.971189 0
M  V30 979 C 86.6398 1.04747 2.09917 0
M  V30 980 C 87.6558 -0.0107162 1.73997 0
M  V30 981 O 88.8318 0.186714 2.00533 0
M  V30 982 C 85.8968 0.650828 3.40537 0
M  V30 983 C 84.9578 1.7851 3.90426 0
M  V30 984 C 84.1908 1.40729 5.14812 0
M  V30 985 O 84.4138 0.29557 5.69634 0
M  V30 986 O 83.3478 2.23168 5.58999 0
M  V30 987 H 87.1738 1.99304 2.29154 0
M  V30 988 H 84.7588 1.02908 1.08307 0
M  V30 989 H 86.6408 0.440992 4.19086 0
M  V30 990 H 85.3158 -0.265649 3.22608 0
M  V30 991 H 84.2228 2.04966 3.12953 0
M  V30 992 H 85.5558 2.68023 4.12825 0
M  V30 993 N 87.2079 -1.17134 1.05439 0
M  V30 994 C 88.1579 -2.1919 0.627675 0
M  V30 995 C 89.1419 -1.57328 -0.337147 0
M  V30 996 O 90.3339 -1.76329 -0.153976 0
M  V30 997 C 87.4629 -3.43299 0.00651435 0
M  V30 998 C 86.5489 -4.12255 0.995312 0
M  V30 999 N 86.9399 -4.56997 2.16765 0
M  V30 1000 C 85.2379 -4.38316 0.824336 0
M  V30 1001 C 85.9389 -5.10239 2.7934 0
M  V30 1002 N 84.9149 -5.02595 2.07122 0
M  V30 1003 H 88.7169 -2.5149 1.52086 0
M  V30 1004 H 86.2309 -1.33491 0.924868 0
M  V30 1005 H 88.2279 -4.15693 -0.316965 0
M  V30 1006 H 86.8879 -3.1249 -0.882033 0
M  V30 1007 H 87.8989 -4.51006 2.54587 0
M  V30 1008 H 84.5759 -4.17498 -0.0129526 0
M  V30 1009 H 85.9659 -5.54961 3.78772 0
M  V30 1010 N 88.686 -0.835752 -1.33615 0
M  V30 1011 C 89.616 -0.281739 -2.31794 0
M  V30 1012 C 90.597 0.608833 -1.58831 0
M  V30 1013 O 91.782 0.533035 -1.86741 0
M  V30 1014 C 88.912 0.546612 -3.42971 0
M  V30 1015 C 87.866 -0.247904 -4.27281 0
M  V30 1016 C 87.192 0.704001 -5.30045 0
M  V30 1017 C 88.492 -1.46324 -5.01385 0
M  V30 1018 H 90.186 -1.10206 -2.78379 0
M  V30 1019 H 87.732 -0.531388 -1.33837 0
M  V30 1020 H 89.685 0.944467 -4.1068 0
M  V30 1021 H 88.409 1.40011 -2.95067 0
M  V30 1022 H 87.068 -0.627281 -3.61194 0
M  V30 1023 H 86.716 1.55381 -4.78399 0
M  V30 1024 H 86.416 0.176524 -5.87335 0
M  V30 1025 H 87.94 1.09944 -6.0062 0
M  V30 1026 H 89.354 -1.13871 -5.61877 0
M  V30 1027 H 87.751 -1.92728 -5.6831 0
M  V30 1028 H 88.821 -2.23467 -4.30338 0
M  V30 1029 N 90.1641 1.46063 -0.591896 0
M  V30 1030 C 91.3891 2.07226 -0.0850314 0
M  V30 1031 C 91.8141 1.43625 1.21463 0
M  V30 1032 O 91.1721 0.523305 1.73583 0
M  V30 1033 C 91.2201 3.60554 0.0576567 0
M  V30 1034 O 90.3241 3.97128 1.11188 0
M  V30 1035 H 89.6651 0.660615 -0.0669568 0
M  V30 1036 H 92.1951 1.8756 -0.81745 0
M  V30 1037 H 92.2051 4.07165 0.2609 0
M  V30 1038 H 90.8801 4.06235 -0.891416 0
M  V30 1039 H 89.4571 3.62213 0.886356 0
M  V30 1040 N 91.6422 0.330177 1.54103 0
M  V30 1041 C 92.9192 -0.325007 1.92881 0
M  V30 1042 C 93.2992 -1.6934 1.26045 0
M  V30 1043 O 92.6472 -2.24855 0.406526 0
M  V30 1044 C 92.8572 -0.410634 3.46576 0
M  V30 1045 C 94.2052 -0.667801 4.19316 0
M  V30 1046 O 95.2292 -0.49329 3.52768 0
M  V30 1047 O 94.0882 -1.00491 5.37181 0
M  V30 1048 H 91.1822 -0.186873 0.80561 0
M  V30 1049 H 93.7282 0.380376 1.65382 0
M  V30 1050 H 92.5002 0.550164 3.87413 0
M  V30 1051 H 92.1232 -1.16333 3.802 0
M  V30 1052 N 93.1203 -1.57491 0.0584922 0
M  V30 1053 C 94.3693 -1.92155 -0.613146 0
M  V30 1054 C 94.6823 -0.939334 -1.71569 0
M  V30 1055 O 95.8883 -1.17829 -2.44599 0
M  V30 1056 C 94.3443 -3.41303 -1.14195 0
M  V30 1057 C 93.9523 -4.47944 -0.0711265 0
M  V30 1058 C 95.6963 -3.84988 -1.78841 0
M  V30 1059 C 93.6033 -5.88212 -0.613225 0
M  V30 1060 H 92.5333 -0.717162 -0.232796 0
M  V30 1061 H 95.1843 -1.83049 0.12857 0
M  V30 1062 H 93.5663 -3.45437 -1.93621 0
M  V30 1063 H 94.7403 -4.55408 0.702836 0
M  V30 1064 H 93.0553 -4.13644 0.478313 0
M  V30 1065 H 95.6523 -4.87159 -2.20408 0
M  V30 1066 H 95.9953 -3.21632 -2.64308 0
M  V30 1067 H 96.5283 -3.83401 -1.06059 0
M  V30 1068 H 93.2673 -6.55183 0.203978 0
M  V30 1069 H 92.7873 -5.84294 -1.35501 0
M  V30 1070 H 94.4663 -6.37687 -1.09383 0
M  V30 1071 N 94.5984 0.214957 -1.56127 0
M  V30 1072 C 95.8464 0.936518 -1.79091 0
M  V30 1073 C 96.1674 1.84606 -0.628148 0
M  V30 1074 O 95.4374 1.92664 0.35462 0
M  V30 1075 H 94.0174 0.3488 -0.660566 0
M  V30 1076 H 96.6794 0.22523 -1.93594 0
M  V30 1077 H 95.7754 1.53943 -2.71492 0
M  V30 1078 N 96.0765 1.50051 0.48192 0
M  V30 1079 C 97.3255 1.59741 1.23149 0
M  V30 1080 C 97.6385 0.298163 1.93314 0
M  V30 1081 O 98.8445 0.273835 2.70116 0
M  V30 1082 C 97.3005 2.81926 2.23708 0
M  V30 1083 C 96.9085 4.18685 1.59396 0
M  V30 1084 C 98.6525 3.00956 2.99375 0
M  V30 1085 C 96.5595 5.3207 2.58178 0
M  V30 1086 H 95.4895 0.594838 0.46334 0
M  V30 1087 H 98.1405 1.76467 0.503169 0
M  V30 1088 H 96.5225 2.58736 2.99786 0
M  V30 1089 H 97.6965 4.52088 0.891811 0
M  V30 1090 H 96.0115 4.05171 0.960503 0
M  V30 1091 H 98.6085 3.82836 3.73283 0
M  V30 1092 H 98.9515 2.12258 3.58123 0
M  V30 1093 H 99.4845 3.24277 2.30411 0
M  V30 1094 H 96.2235 6.22888 2.04184 0
M  V30 1095 H 95.7435 5.03098 3.26577 0
M  V30 1096 H 97.4225 5.62196 3.20225 0
M  V30 1097 N 97.5546 -0.734337 1.39446 0
M  V30 1098 C 98.7826 -1.52358 1.39981 0
M  V30 1099 C 99.1976 -1.88799 -0.0054975 0
M  V30 1100 O 98.5546 -1.54146 -0.976998 0
M  V30 1101 C 98.6056 -2.81072 2.27333 0
M  V30 1102 O 98.3266 -2.46178 3.62392 0
M  V30 1103 C 99.8276 -3.75096 2.36259 0
M  V30 1104 H 97.0476 -0.470806 0.478103 0
M  V30 1105 H 99.5916 -0.907339 1.83269 0
M  V30 1106 H 97.7466 -3.39026 1.87457 0
M  V30 1107 H 98.1606 -3.28866 4.08592 0
M  V30 1108 H 99.6346 -4.62305 3.01626 0
M  V30 1109 H 100.112 -4.16892 1.38194 0
M  V30 1110 H 100.718 -3.23061 2.76608 0
M  V30 1111 N 99.0327 -1.24633 -0.964593 0
M  V30 1112 C 99.9957 -1.0424 -2.04124 0
M  V30 1113 C 100.996 0.00137563 -1.608 0
M  V30 1114 O 102.186 -0.239883 -1.7254 0
M  V30 1115 C 99.3177 -0.580588 -3.3592 0
M  V30 1116 H 100.511 -1.99803 -2.23649 0
M  V30 1117 H 98.0637 -1.06899 -1.14027 0
M  V30 1118 H 98.7987 0.3781 -3.22088 0
M  V30 1119 H 98.5837 -1.33398 -3.6871 0
M  V30 1120 H 100.074 -0.459034 -4.15069 0
M  V30 1121 N 100.511 1.16574 -1.06058 0
M  V30 1122 C 101.757 1.87324 -0.777022 0
M  V30 1123 C 102.09 1.81351 0.694645 0
M  V30 1124 O 101.365 1.22753 1.50871 0
M  V30 1125 C 101.648 3.36991 -1.26922 0
M  V30 1126 C 101.501 3.51667 -2.80447 0
M  V30 1127 C 102.82 4.3131 -0.87521 0
M  V30 1128 H 99.9388 0.680191 -0.28374 0
M  V30 1129 H 102.581 1.37036 -1.3161 0
M  V30 1130 H 100.731 3.79949 -0.81063 0
M  V30 1131 H 102.403 3.17664 -3.34495 0
M  V30 1132 H 100.646 2.93656 -3.19294 0
M  V30 1133 H 101.317 4.56766 -3.0995 0
M  V30 1134 H 103.793 3.9624 -1.27014 0
M  V30 1135 H 102.669 5.34545 -1.2471 0
M  V30 1136 H 102.93 4.41552 0.220071 0
M  V30 1137 N 101.989 0.842826 1.3317 0
M  V30 1138 C 103.235 0.450342 1.98352 0
M  V30 1139 C 103.59 -0.980508 1.65541 0
M  V30 1140 O 102.883 -1.67678 0.927065 0
M  V30 1141 C 103.077 0.612607 3.52111 0
M  V30 1142 C 102.906 2.05768 3.99862 0
M  V30 1143 C 101.676 2.69374 4.27511 0
M  V30 1144 C 103.874 3.02688 4.15794 0
M  V30 1145 N 101.856 4.04915 4.61429 0
M  V30 1146 C 103.227 4.23186 4.53115 0
M  V30 1147 C 105.282 2.99041 3.98094 0
M  V30 1148 C 103.985 5.40518 4.74587 0
M  V30 1149 C 106.011 4.15607 4.20743 0
M  V30 1150 C 105.373 5.3486 4.58371 0
M  V30 1151 H 101.472 0.213296 0.752349 0
M  V30 1152 H 104.056 1.09173 1.61212 0
M  V30 1153 H 102.227 0.000998822 3.884 0
M  V30 1154 H 103.959 0.191179 4.04248 0
M  V30 1155 H 100.714 2.20485 4.19146 0
M  V30 1156 H 101.138 4.74798 4.82593 0
M  V30 1157 H 105.78 2.0797 3.68114 0
M  V30 1158 H 103.498 6.3213 5.03425 0
M  V30 1159 H 107.084 4.14207 4.08563 0
M  V30 1160 H 105.964 6.23558 4.75547 0
M  V30 1161 N 103.467 -1.45747 0.599634 0
M  V30 1162 C 104.716 -2.01502 0.0893511 0
M  V30 1163 C 105.029 -1.4748 -1.28488 0
M  V30 1164 O 106.235 -1.95161 -1.88745 0
M  V30 1165 C 104.691 -3.59735 0.109082 0
M  V30 1166 C 104.299 -4.22754 1.48267 0
M  V30 1167 C 106.043 -4.23085 -0.346374 0
M  V30 1168 C 103.95 -5.73115 1.45921 0
M  V30 1169 H 102.88 -0.753417 0.0296347 0
M  V30 1170 H 105.531 -1.67303 0.753788 0
M  V30 1171 H 103.913 -3.91087 -0.621854 0
M  V30 1172 H 105.087 -4.02987 2.23468 0
M  V30 1173 H 103.402 -3.71567 1.87955 0
M  V30 1174 H 105.999 -5.33327 -0.38298 0
M  V30 1175 H 106.342 -3.93201 -1.36743 0
M  V30 1176 H 106.875 -3.9642 0.331038 0
M  V30 1177 H 103.614 -6.07685 2.45762 0
M  V30 1178 H 103.134 -5.95097 0.749665 0
M  V30 1179 H 104.813 -6.3616 1.17941 0
M  V30 1180 N 104.945 -0.338344 -1.53925 0
M  V30 1181 C 106.356 0.146651 -1.86123 0
M  V30 1182 C 106.707 1.5042 -1.2597 0
M  V30 1183 O 105.832 2.08723 -0.571294 0
M  V30 1184 C 106.427 0.272879 -3.37699 0
M  V30 1185 C 104.986 0.702103 -3.69794 0
M  V30 1186 C 104.133 -0.167304 -2.76795 0
M  V30 1187 H 107.084 -0.558123 -1.48562 0
M  V30 1188 H 107.105 1.10128 -3.64214 0
M  V30 1189 H 106.617 -0.715307 -3.81451 0
M  V30 1190 H 104.718 1.6995 -3.31584 0
M  V30 1191 H 104.831 0.495604 -4.7653 0
M  V30 1192 H 103.195 0.359527 -2.5215 0
M  V30 1193 H 103.978 -1.15253 -3.23375 0
M  V30 1194 N 106.423 1.57458 -0.0668435 0
M  V30 1195 C 107.834 1.80776 0.466558 0
M  V30 1196 C 108.185 0.980361 1.69951 0
M  V30 1197 O 107.31 0.201441 2.1546 0
M  V30 1198 C 107.905 3.27881 0.85321 0
M  V30 1199 C 106.464 3.52062 1.3315 0
M  V30 1200 C 105.611 2.75513 0.314264 0
M  V30 1201 H 108.562 1.5598 -0.292588 0
M  V30 1202 H 108.583 3.39659 1.715 0
M  V30 1203 H 108.095 3.88075 -0.0443439 0
M  V30 1204 H 106.196 2.97167 2.24772 0
M  V30 1205 H 106.309 4.60762 1.31285 0
M  V30 1206 H 104.673 2.42123 0.790492 0
M  V30 1207 H 105.456 3.38442 -0.575477 0
M  V30 1208 N 107.901 -0.206675 1.56239 0
M  V30 1209 C 108.864 -1.23976 1.92776 0
M  V30 1210 C 109.864 -1.39041 0.807729 0
M  V30 1211 O 111.054 -1.37051 1.0753 0
M  V30 1212 C 108.186 -2.61112 2.19165 0
M  V30 1213 H 109.379 -0.927764 2.85189 0
M  V30 1214 H 106.932 -0.447718 1.4975 0
M  V30 1215 H 107.667 -2.97386 1.29352 0
M  V30 1216 H 107.452 -2.51552 3.00772 0
M  V30 1217 H 108.942 -3.35633 2.48476 0
M  V30 1218 N 109.379 -1.50304 -0.473955 0
M  V30 1219 C 110.609 -1.64663 -1.24778 0
M  V30 1220 C 111.017 -0.328174 -1.86332 0
M  V30 1221 O 110.36 0.699536 -1.69859 0
M  V30 1222 C 110.422 -2.6778 -2.39863 0
M  V30 1223 C 110.086 -4.11413 -1.98969 0
M  V30 1224 C 111.083 -4.97372 -1.51385 0
M  V30 1225 C 108.768 -4.57312 -2.07777 0
M  V30 1226 C 110.762 -6.27277 -1.13148 0
M  V30 1227 C 108.449 -5.87223 -1.69152 0
M  V30 1228 C 109.447 -6.72031 -1.21915 0
M  V30 1229 O 109.135 -7.99518 -0.838237 0
M  V30 1230 H 108.867 -0.556602 -0.383627 0
M  V30 1231 H 111.421 -1.9726 -0.572491 0
M  V30 1232 H 109.651 -2.30419 -3.10554 0
M  V30 1233 H 111.34 -2.71388 -3.01833 0
M  V30 1234 H 112.106 -4.63128 -1.44004 0
M  V30 1235 H 107.985 -3.91449 -2.43493 0
M  V30 1236 H 111.529 -6.93425 -0.762077 0
M  V30 1237 H 107.426 -6.20989 -1.76191 0
M  V30 1238 H 108.194 -8.12764 -0.967339 0
M  V30 1239 N 110.857 0.726932 -1.39834 0
M  V30 1240 C 111.804 1.841 -1.39197 0
M  V30 1241 C 112.774 1.642 -0.250502 0
M  V30 1242 O 113.959 1.85494 -0.446846 0
M  V30 1243 C 111.099 3.21697 -1.24919 0
M  V30 1244 C 110.212 3.53247 -2.48678 0
M  V30 1245 C 109.347 4.80289 -2.26928 0
M  V30 1246 C 108.386 5.04707 -3.4632 0
M  V30 1247 N 107.523 6.22956 -3.23836 0
M  V30 1248 H 112.363 1.83979 -2.34427 0
M  V30 1249 H 109.9 0.898876 -1.16442 0
M  V30 1250 H 111.858 4.01137 -1.1465 0
M  V30 1251 H 110.488 3.21076 -0.333153 0
M  V30 1252 H 109.54 2.68447 -2.69519 0
M  V30 1253 H 110.852 3.67205 -3.37582 0
M  V30 1254 H 110.006 5.67725 -2.13947 0
M  V30 1255 H 108.745 4.68519 -1.35431 0
M  V30 1256 H 107.75 4.1573 -3.5979 0
M  V30 1257 H 108.975 5.18357 -4.38729 0
M  V30 1258 H 106.921 6.12459 -2.35011 0
M  V30 1259 H 106.838 6.37539 -4.063 0
M  V30 1260 H 108.106 7.1321 -3.14566 0
M  V30 1261 N 112.336 1.25143 0.95797 0
M  V30 1262 C 113.584 1.09476 1.69881 0
M  V30 1263 C 113.905 -0.365502 1.91544 0
M  V30 1264 O 113.175 -1.25985 1.50015 0
M  V30 1265 H 111.755 0.402128 0.629525 0
M  V30 1266 H 114.417 1.57214 1.15194 0
M  V30 1267 H 113.513 1.60046 2.6794 0
M  V30 1268 N 113.814 -1.1601 1.06675 0
M  V30 1269 C 114.744 -2.22688 0.702307 0
M  V30 1270 C 115.725 -1.67306 -0.307032 0
M  V30 1271 O 116.91 -1.93352 -0.181305 0
M  V30 1272 C 114.04 -3.47178 0.092038 0
M  V30 1273 C 112.994 -4.15477 1.02777 0
M  V30 1274 C 112.32 -5.33963 0.28061 0
M  V30 1275 C 113.62 -4.66019 2.35846 0
M  V30 1276 H 115.314 -2.53429 1.59419 0
M  V30 1277 H 112.86 -1.21813 0.767961 0
M  V30 1278 H 114.813 -4.21037 -0.174814 0
M  V30 1279 H 113.537 -3.15749 -0.834877 0
M  V30 1280 H 112.196 -3.43549 1.27944 0
M  V30 1281 H 111.844 -4.98788 -0.649545 0
M  V30 1282 H 111.544 -5.806 0.904258 0
M  V30 1283 H 113.068 -6.10596 0.021396 0
M  V30 1284 H 114.482 -5.3144 2.15045 0
M  V30 1285 H 112.879 -5.23293 2.93743 0
M  V30 1286 H 113.949 -3.82023 2.98641 0
M  V30 1287 N 115.292 -0.849877 -1.32721 0
M  V30 1288 C 116.517 -0.463856 -2.02146 0
M  V30 1289 C 116.942 0.930449 -1.63476 0
M  V30 1290 O 116.3 1.61033 -0.832952 0
M  V30 1291 C 116.348 -0.604955 -3.55489 0
M  V30 1292 O 115.452 0.36425 -4.10788 0
M  V30 1293 H 114.793 -0.187046 -0.637111 0
M  V30 1294 H 117.323 -1.14775 -1.69375 0
M  V30 1295 H 117.333 -0.490696 -4.05038 0
M  V30 1296 H 116.008 -1.62174 -3.82978 0
M  V30 1297 H 114.585 0.206628 -3.72327 0
M  V30 1298 N 116.77 1.45427 -0.607355 0
M  V30 1299 C 117.702 2.2871 0.149752 0
M  V30 1300 C 118.715 1.39937 0.831958 0
M  V30 1301 O 119.904 1.64313 0.697385 0
M  V30 1302 C 117.004 3.15673 1.23304 0
M  V30 1303 C 116.177 4.32722 0.637996 0
M  V30 1304 C 115.236 5.00895 1.61215 0
M  V30 1305 O 114.262 5.57697 1.13854 0
M  V30 1306 N 115.464 5.00159 2.94655 0
M  V30 1307 H 118.229 2.94328 -0.564882 0
M  V30 1308 H 115.79 1.55612 -0.446823 0
M  V30 1309 H 117.782 3.58144 1.88454 0
M  V30 1310 H 116.352 2.51965 1.8502 0
M  V30 1311 H 115.572 3.93734 -0.191572 0
M  V30 1312 H 116.86 5.08321 0.220665 0
M  V30 1313 H 116.258 4.553 3.35735 0
M  V30 1314 H 114.815 5.46495 3.55228 0
M  V30 1315 N 118.248 0.346503 1.53744 0
M  V30 1316 C 119.473 -0.253074 2.0585 0
M  V30 1317 C 119.898 -1.43202 1.21962 0
M  V30 1318 O 119.256 -1.79783 0.234073 0
M  V30 1319 C 119.304 -0.643193 3.54817 0
M  V30 1320 O 118.408 -1.74286 3.73762 0
M  V30 1321 H 117.749 -0.0413583 0.662711 0
M  V30 1322 H 120.279 0.501574 1.98357 0
M  V30 1323 H 120.289 -0.919526 3.97503 0
M  V30 1324 H 118.964 0.218966 4.15323 0
M  V30 1325 H 117.541 -1.46356 3.42979 0
M  V30 1326 N 119.726 -1.57421 0.075193 0
M  V30 1327 C 121.003 -1.85029 -0.634329 0
M  V30 1328 C 121.383 -0.968305 -1.87582 0
M  V30 1329 O 120.731 -0.0354749 -2.28472 0
M  V30 1330 C 120.941 -3.35286 -0.968742 0
M  V30 1331 C 122.289 -4.02875 -1.34077 0
M  V30 1332 O 123.313 -3.40051 -1.06037 0
M  V30 1333 O 122.172 -5.13691 -1.86506 0
M  V30 1334 H 119.266 -0.7645 -0.315387 0
M  V30 1335 H 121.812 -1.69366 0.106382 0
M  V30 1336 H 120.584 -3.91203 -0.0871376 0
M  V30 1337 H 120.207 -3.56223 -1.7661 0
M  V30 1338 N 121.204 0.198386 -1.56346 0
M  V30 1339 C 122.152 1.26538 -1.95169 0
M  V30 1340 C 123.146 1.47295 -0.836685 0
M  V30 1341 O 124.352 1.48195 -1.02167 0
M  V30 1342 H 120.727 0.424744 -0.620561 0
M  V30 1343 H 122.698 0.910904 -2.84157 0
M  V30 1344 C 121.447 2.6035 -2.30463 0
M  V30 1345 H 120.77 2.45192 -3.15786 0
M  V30 1346 H 122.21 3.33762 -2.61494 0
M  V30 1347 C 120.669 3.17096 -1.13806 0
M  V30 1348 O 121.199 3.99588 -0.41135 0
M  V30 1349 N 119.405 2.75795 -0.915736 0
M  V30 1350 H 118.952 2.08816 -1.50843 0
M  V30 1351 H 118.91 3.14101 -0.136979 0
M  V30 1352 N 122.682 1.50554 0.465978 0
M  V30 1353 C 123.93 1.61479 1.21528 0
M  V30 1354 C 124.251 0.319596 1.92363 0
M  V30 1355 O 123.521 -0.663194 1.84333 0
M  V30 1356 H 122.101 0.595055 0.451573 0
M  V30 1357 H 124.763 1.87355 0.53704 0
M  V30 1358 H 123.859 2.42846 1.96042 0
M  V30 1359 N 124.16 -0.719506 1.40217 0
M  V30 1360 C 125.39 -1.50646 1.41384 0
M  V30 1361 C 125.798 -1.89197 0.0107743 0
M  V30 1362 O 125.141 -1.55709 -0.974708 0
M  V30 1363 C 125.203 -2.81405 2.23722 0
M  V30 1364 C 124.867 -2.65199 3.72181 0
M  V30 1365 C 125.864 -2.32717 4.64907 0
M  V30 1366 C 123.549 -2.81586 4.1595 0
M  V30 1367 C 125.543 -2.16827 5.99387 0
M  V30 1368 C 123.23 -2.65313 5.50502 0
M  V30 1369 C 124.228 -2.32981 6.42035 0
M  V30 1370 O 123.916 -2.16827 7.74107 0
M  V30 1371 H 123.648 -0.471606 0.484318 0
M  V30 1372 H 126.202 -0.895456 1.84853 0
M  V30 1373 H 124.432 -3.44823 1.75026 0
M  V30 1374 H 126.121 -3.43102 2.16878 0
M  V30 1375 H 126.887 -2.19694 4.32388 0
M  V30 1376 H 122.766 -3.0574 3.45027 0
M  V30 1377 H 126.31 -1.91513 6.70797 0
M  V30 1378 H 122.207 -2.7792 5.82607 0
M  V30 1379 H 122.975 -2.31778 7.84998 0
M  V30 1380 N 125.638 -1.25649 -0.95132 0
M  V30 1381 C 126.886 -1.10375 -1.69298 0
M  V30 1382 C 127.207 0.355339 -1.91735 0
M  V30 1383 O 126.477 1.25188 -1.50681 0
M  V30 1384 H 125.057 -0.405461 -0.627384 0
M  V30 1385 H 127.719 -1.57823 -1.14358 0
M  V30 1386 H 126.815 -1.61465 -2.67087 0
M  V30 1387 N 127.117 1.15442 -1.07289 0
M  V30 1388 C 128.528 1.67803 -0.818475 0
M  V30 1389 C 128.879 1.8489 0.656507 0
M  V30 1390 O 128.004 1.55176 1.50829 0
M  V30 1391 C 128.599 3.04805 -1.47917 0
M  V30 1392 C 127.158 3.54245 -1.27229 0
M  V30 1393 C 126.305 2.29986 -1.54925 0
M  V30 1394 H 129.256 0.996646 -1.23502 0
M  V30 1395 H 129.277 3.69702 -0.90005 0
M  V30 1396 H 128.789 2.92336 -2.55267 0
M  V30 1397 H 126.89 3.71956 -0.21899 0
M  V30 1398 H 127.003 4.35723 -1.99203 0
M  V30 1399 H 125.367 2.35496 -0.970242 0
M  V30 1400 H 126.15 2.20105 -2.63455 0
M  V30 1401 N 128.595 0.856903 1.32268 0
M  V30 1402 C 129.825 0.47475 2.01071 0
M  V30 1403 C 130.233 -0.933746 1.64553 0
M  V30 1404 O 129.576 -1.62114 0.863989 0
M  V30 1405 C 129.638 0.536746 3.55471 0
M  V30 1406 C 129.302 1.90453 4.15423 0
M  V30 1407 C 130.299 2.87029 4.33486 0
M  V30 1408 C 127.984 2.20229 4.51447 0
M  V30 1409 C 129.978 4.11532 4.86744 0
M  V30 1410 C 127.665 3.44984 5.0441 0
M  V30 1411 C 128.663 4.40452 5.22007 0
M  V30 1412 O 128.351 5.62998 5.73837 0
M  V30 1413 H 128.083 0.184778 0.650256 0
M  V30 1414 H 130.637 1.15615 1.69771 0
M  V30 1415 H 128.867 -0.20152 3.86175 0
M  V30 1416 H 130.556 0.169875 4.05544 0
M  V30 1417 H 131.322 2.6533 4.05986 0
M  V30 1418 H 127.201 1.46705 4.37034 0
M  V30 1419 H 130.745 4.86056 5.00395 0
M  V30 1420 H 126.642 3.66532 5.31342 0
M  V30 1421 H 127.41 5.64987 5.92226 0
M  V30 1422 N 130.073 -1.45103 0.615059 0
M  V30 1423 C 131.35 -1.95549 0.0448276 0
M  V30 1424 C 131.73 -1.55737 -1.4251 0
M  V30 1425 O 131.078 -0.823556 -2.13143 0
M  V30 1426 C 131.288 -3.48098 0.250785 0
M  V30 1427 C 132.636 -4.24384 0.135509 0
M  V30 1428 O 133.66 -3.55738 0.181299 0
M  V30 1429 O 132.519 -5.46493 0.0268878 0
M  V30 1430 H 129.613 -0.8264 -0.0314845 0
M  V30 1431 H 132.159 -1.55232 0.685642 0
M  V30 1432 H 130.931 -3.7007 1.27139 0
M  V30 1433 H 130.554 -3.95323 -0.424937 0
M  V30 1434 N 131.551 -0.354651 -1.53558 0
M  V30 1435 C 132.481 0.489091 -2.2832 0
M  V30 1436 C 133.462 1.09324 -1.30316 0
M  V30 1437 O 134.647 1.11255 -1.59173 0
M  V30 1438 C 131.777 1.63456 -3.0643 0
M  V30 1439 C 130.731 1.1582 -4.12031 0
M  V30 1440 C 130.057 2.39305 -4.7816 0
M  V30 1441 C 131.357 0.250731 -5.21698 0
M  V30 1442 H 133.051 -0.134614 -2.99097 0
M  V30 1443 H 130.597 -0.0661826 -1.43848 0
M  V30 1444 H 132.55 2.23136 -3.57475 0
M  V30 1445 H 131.274 2.28533 -2.33325 0
M  V30 1446 H 129.933 0.584146 -3.61916 0
M  V30 1447 H 129.581 3.02814 -4.01637 0
M  V30 1448 H 129.281 2.08109 -5.49513 0
M  V30 1449 H 130.805 2.99691 -5.31994 0
M  V30 1450 H 132.219 0.754695 -5.68311 0
M  V30 1451 H 130.616 0.0301468 -6.00092 0
M  V30 1452 H 131.686 -0.710125 -4.79672 0
M  V30 1453 N 133.029 1.57378 -0.0835403 0
M  V30 1454 C 134.259 1.97975 0.590713 0
M  V30 1455 C 134.667 0.961083 1.62972 0
M  V30 1456 O 134.01 -0.0590879 1.83605 0
M  V30 1457 C 134.072 3.34915 1.3066 0
M  V30 1458 C 133.736 4.55069 0.419698 0
M  V30 1459 C 134.733 5.18868 -0.32749 0
M  V30 1460 C 132.418 5.0114 0.341137 0
M  V30 1461 C 134.412 6.27098 -1.14134 0
M  V30 1462 C 132.099 6.0924 -0.476374 0
M  V30 1463 C 133.097 6.72083 -1.21627 0
M  V30 1464 O 132.785 7.781 -2.02028 0
M  V30 1465 H 132.517 0.655818 0.163947 0
M  V30 1466 H 135.071 2.04807 -0.156021 0
M  V30 1467 H 133.301 3.24733 2.09966 0
M  V30 1468 H 134.99 3.60037 1.87424 0
M  V30 1469 H 135.756 4.84211 -0.276459 0
M  V30 1470 H 131.635 4.51996 0.90668 0
M  V30 1471 H 135.179 6.7608 -1.71935 0
M  V30 1472 H 131.076 6.43329 -0.528927 0
M  V30 1473 H 131.844 7.95034 -1.94586 0
M  V30 1474 N 134.507 -0.190092 1.56449 0
M  V30 1475 C 135.784 -0.935886 1.71757 0
M  V30 1476 C 136.164 -2.01173 0.639726 0
M  V30 1477 O 135.512 -2.25827 -0.348502 0
M  V30 1478 C 135.722 -1.51775 3.1427 0
M  V30 1479 C 137.07 -1.99794 3.74656 0
M  V30 1480 O 138.094 -1.61607 3.1743 0
M  V30 1481 O 136.953 -2.70079 4.751 0
M  V30 1482 H 134.047 -0.439229 0.700719 0
M  V30 1483 H 136.593 -0.179395 1.68749 0
M  V30 1484 H 135.365 -0.742505 3.84191 0
M  V30 1485 H 134.988 -2.33894 3.21527 0
M  V30 1486 N 135.985 -1.50799 -0.457987 0
M  V30 1487 C 136.915 -1.73553 -1.5621 0
M  V30 1488 C 137.896 -0.584774 -1.59732 0
M  V30 1489 O 139.081 -0.825314 -1.7579 0
M  V30 1490 C 136.211 -1.84169 -2.94447 0
M  V30 1491 C 135.165 -2.99461 -3.0579 0
M  V30 1492 C 134.491 -2.95235 -4.45803 0
M  V30 1493 C 135.791 -4.39766 -2.81786 0
M  V30 1494 H 137.485 -2.66 -1.37421 0
M  V30 1495 H 135.031 -1.28002 -0.659662 0
M  V30 1496 H 136.984 -1.98672 -3.71628 0
M  V30 1497 H 135.708 -0.883545 -3.14422 0
M  V30 1498 H 134.367 -2.8463 -2.31044 0
M  V30 1499 H 134.015 -1.97239 -4.62715 0
M  V30 1500 H 133.715 -3.72642 -4.54326 0
M  V30 1501 H 135.239 -3.11803 -5.24987 0
M  V30 1502 H 136.653 -4.55054 -3.4871 0
M  V30 1503 H 135.05 -5.18722 -3.0174 0
M  V30 1504 H 136.12 -4.51229 -1.7754 0
M  V30 1505 N 137.463 0.71206 -1.40597 0
M  V30 1506 C 138.711 1.46907 -1.38791 0
M  V30 1507 C 139.032 1.94998 0.00780391 0
M  V30 1508 O 138.302 1.70587 0.963174 0
M  V30 1509 H 136.882 0.545043 -0.51082 0
M  V30 1510 H 139.544 0.843882 -1.75683 0
M  V30 1511 H 138.64 2.34021 -2.06496 0
M  V30 1512 N 138.941 1.26152 0.944643 0
M  V30 1513 C 139.851 1.09176 2.07648 0
M  V30 1514 C 140.867 0.0261935 1.7398 0
M  V30 1515 O 142.043 0.229208 2.00091 0
M  V30 1516 C 139.108 0.722915 3.39079 0
M  V30 1517 C 138.169 1.86752 3.86552 0
M  V30 1518 C 137.402 1.51617 5.11711 0
M  V30 1519 O 137.625 0.416331 5.68879 0
M  V30 1520 O 136.559 2.34975 5.54139 0
M  V30 1521 H 140.385 2.0412 2.24875 0
M  V30 1522 H 137.97 1.05182 1.061 0
M  V30 1523 H 139.852 0.529787 4.18056 0
M  V30 1524 H 138.527 -0.197159 3.23099 0
M  V30 1525 H 137.434 2.11558 3.08535 0
M  V30 1526 H 138.767 2.76719 4.07047 0
M  V30 1527 N 140.419 -1.14872 1.07899 0
M  V30 1528 C 141.666 -1.85789 0.805532 0
M  V30 1529 C 141.994 -1.82649 -0.668561 0
M  V30 1530 O 141.249 -1.24858 -1.50695 0
M  V30 1531 C 141.548 -3.34223 1.26609 0
M  V30 1532 C 141.214 -3.57555 2.74709 0
M  V30 1533 C 139.876 -3.63631 3.1516 0
M  V30 1534 C 142.228 -3.66803 3.70277 0
M  V30 1535 C 139.556 -3.76473 4.49983 0
M  V30 1536 C 141.908 -3.8117 5.04869 0
M  V30 1537 C 140.572 -3.85494 5.44932 0
M  V30 1538 H 139.842 -0.679849 0.294765 0
M  V30 1539 H 142.489 -1.3572 1.35101 0
M  V30 1540 H 140.794 -3.86536 0.640103 0
M  V30 1541 H 142.491 -3.87511 1.03132 0
M  V30 1542 H 139.081 -3.5347 2.42398 0
M  V30 1543 H 143.265 -3.61404 3.40149 0
M  V30 1544 H 138.521 -3.7808 4.80484 0
M  V30 1545 H 142.695 -3.87268 5.78789 0
M  V30 1546 H 140.322 -3.95197 6.49403 0
M  V30 1547 N 141.898 -0.863906 -1.31812 0
M  V30 1548 C 142.83 -0.272485 -2.27575 0
M  V30 1549 C 143.843 0.56104 -1.52827 0
M  V30 1550 O 145.032 0.384021 -1.7432 0
M  V30 1551 C 142.132 0.63283 -3.32939 0
M  V30 1552 C 141.305 -0.166902 -4.37081 0
M  V30 1553 C 140.364 0.665608 -5.21973 0
M  V30 1554 O 139.39 0.0958091 -5.69119 0
M  V30 1555 N 140.592 1.9787 -5.45736 0
M  V30 1556 H 143.357 -1.0954 -2.78964 0
M  V30 1557 H 140.918 -0.724791 -1.4477 0
M  V30 1558 H 142.91 1.19532 -3.86645 0
M  V30 1559 H 141.48 1.35642 -2.81638 0
M  V30 1560 H 140.7 -0.910838 -3.83533 0
M  V30 1561 H 141.988 -0.715874 -5.03739 0
M  V30 1562 H 141.386 2.46484 -5.09178 0
M  V30 1563 H 139.943 2.48911 -6.024 0
M  V30 1564 N 143.376 1.44774 -0.622745 0
M  V30 1565 C 144.308 2.28856 0.125485 0
M  V30 1566 C 145.321 1.40811 0.817069 0
M  V30 1567 O 146.51 1.65044 0.679918 0
M  V30 1568 C 143.61 3.16963 1.19949 0
M  V30 1569 C 142.783 4.33374 0.592064 0
M  V30 1570 C 141.842 5.02577 1.55893 0
M  V30 1571 O 140.868 5.58873 1.07933 0
M  V30 1572 N 142.07 5.03256 2.89334 0
M  V30 1573 H 144.835 2.93713 -0.596068 0
M  V30 1574 H 142.396 1.55129 -0.463303 0
M  V30 1575 H 144.388 3.60123 1.84644 0
M  V30 1576 H 142.958 2.53913 1.82337 0
M  V30 1577 H 142.178 3.93509 -0.233322 0
M  V30 1578 H 143.466 5.08527 0.166738 0
M  V30 1579 H 142.864 4.58836 3.30887 0
M  V30 1580 H 141.421 5.50232 3.49412 0
M  V30 1581 N 144.854 0.36279 1.53368 0
M  V30 1582 C 145.801 -0.485008 2.25646 0
M  V30 1583 C 146.771 -1.07982 1.2621 0
M  V30 1584 O 147.956 -1.11284 1.54986 0
M  V30 1585 C 145.096 -1.62023 3.04701 0
M  V30 1586 C 144.209 -1.05086 4.19024 0
M  V30 1587 C 143.344 -2.15496 4.85525 0
M  V30 1588 C 142.383 -1.5601 5.91884 0
M  V30 1589 N 141.52 -2.60241 6.52088 0
M  V30 1590 H 146.36 0.137864 2.97681 0
M  V30 1591 H 143.897 0.0798061 1.46883 0
M  V30 1592 H 145.855 -2.28887 3.48807 0
M  V30 1593 H 144.485 -2.2138 2.34927 0
M  V30 1594 H 143.537 -0.27259 3.79422 0
M  V30 1595 H 144.849 -0.575926 4.95464 0
M  V30 1596 H 144.003 -2.90186 5.32801 0
M  V30 1597 H 142.742 -2.66341 4.08551 0
M  V30 1598 H 141.747 -0.798338 5.43973 0
M  V30 1599 H 142.972 -1.05994 6.70777 0
M  V30 1600 H 140.918 -3.10304 5.77968 0
M  V30 1601 H 140.835 -2.17426 7.24059 0
M  V30 1602 H 142.103 -3.34641 7.04014 0
M  V30 1603 N 146.332 -1.57332 0.0918853 0
M  V30 1604 C 147.58 -1.93853 -0.571446 0
M  V30 1605 C 147.901 -0.974212 -1.6892 0
M  V30 1606 O 147.171 -0.0257254 -1.95883 0
M  V30 1607 H 145.751 -0.715666 -0.214082 0
M  V30 1608 H 148.413 -1.94287 0.154464 0
M  V30 1609 H 147.509 -2.96191 -0.983729 0
M  V30 1610 N 147.81 0.181792 -1.56548 0
M  V30 1611 C 149.038 0.915947 -1.85521 0
M  V30 1612 C 149.453 1.76282 -0.676016 0
M  V30 1613 O 148.81 1.79012 0.355077 0
M  V30 1614 C 148.861 1.80126 -3.13427 0
M  V30 1615 O 148.582 0.988562 -4.26801 0
M  V30 1616 C 150.083 2.64597 -3.55673 0
M  V30 1617 H 147.303 0.26661 -0.61576 0
M  V30 1618 H 149.847 0.185039 -2.03661 0
M  V30 1619 H 148.002 2.48563 -2.97145 0
M  V30 1620 H 148.416 1.59308 -4.99721 0
M  V30 1621 H 149.89 3.2235 -4.48101 0
M  V30 1622 H 150.367 3.38958 -2.79292 0
M  V30 1623 H 150.973 2.0151 -3.74532 0
M  V30 1624 N 149.288 1.51039 0.449983 0
M  V30 1625 C 150.534 1.63322 1.20223 0
M  V30 1626 C 150.867 0.34241 1.91158 0
M  V30 1627 O 150.142 -0.657344 1.83055 0
M  V30 1628 C 150.425 2.82801 2.22925 0
M  V30 1629 C 150.278 4.21823 1.56157 0
M  V30 1630 C 151.597 2.97807 3.24035 0
M  V30 1631 H 148.716 0.594407 0.435718 0
M  V30 1632 H 151.358 1.83489 0.493136 0
M  V30 1633 H 149.508 2.65738 2.834 0
M  V30 1634 H 151.18 4.50526 0.991162 0
M  V30 1635 H 149.423 4.25105 0.864172 0
M  V30 1636 H 150.094 5.01391 2.30891 0
M  V30 1637 H 152.57 3.13497 2.73603 0
M  V30 1638 H 151.446 3.82992 3.93202 0
M  V30 1639 H 151.707 2.09328 3.89402 0
M  V30 1640 N 150.766 -0.704594 1.40972 0
M  V30 1641 C 152.182 -1.01406 1.23244 0
M  V30 1642 C 152.382 -2.01169 0.115399 0
M  V30 1643 O 151.438 -2.47021 -0.523147 0
M  V30 1644 C 152.751 -1.54728 2.57836 0
M  V30 1645 C 154.299 -1.66658 2.64942 0
M  V30 1646 C 154.774 -2.23383 3.9983 0
M  V30 1647 N 156.265 -2.30756 4.01629 0
M  V30 1648 C 157 -2.75655 5.02794 0
M  V30 1649 N 156.496 -3.20225 6.14352 0
M  V30 1650 N 158.289 -2.75138 4.90159 0
M  V30 1651 H 150.44 -0.0435285 2.12355 0
M  V30 1652 H 152.703 -0.0818951 0.944456 0
M  V30 1653 H 152.409 -0.888832 3.40283 0
M  V30 1654 H 152.283 -2.53084 2.79693 0
M  V30 1655 H 154.67 -2.31617 1.8286 0
M  V30 1656 H 154.751 -0.668717 2.46904 0
M  V30 1657 H 154.395 -1.59043 4.82357 0
M  V30 1658 H 154.325 -3.23904 4.15203 0
M  V30 1659 H 156.816 -1.99291 3.21079 0
M  V30 1660 H 157.129 -3.53084 6.87424 0
M  V30 1661 H 155.474 -3.18156 6.17901 0
M  V30 1662 H 158.665 -2.39661 4.02095 0
M  V30 1663 H 158.838 -3.09812 5.6914 0
M  V30 1664 N 152.244 -1.26651 -0.937939 0
M  V30 1665 C 153.472 -1.15173 -1.7188 0
M  V30 1666 C 153.887 0.292668 -1.86518 0
M  V30 1667 O 153.244 1.20014 -1.37488 0
M  V30 1668 C 153.295 -1.81925 -3.12387 0
M  V30 1669 O 153.016 -3.2072 -2.98446 0
M  V30 1670 C 154.517 -1.76442 -4.06673 0
M  V30 1671 H 151.737 -0.400911 -0.538063 0
M  V30 1672 H 154.281 -1.67332 -1.1756 0
M  V30 1673 H 152.436 -1.33696 -3.63599 0
M  V30 1674 H 152.85 -3.53802 -3.872 0
M  V30 1675 H 154.324 -2.27781 -5.02812 0
M  V30 1676 H 154.801 -0.731608 -4.33064 0
M  V30 1677 H 155.407 -2.24238 -3.61382 0
M  V30 1678 N 153.722 1.14298 -1.08507 0
M  V30 1679 C 154.669 2.19414 -0.715965 0
M  V30 1680 C 155.639 1.63399 0.298326 0
M  V30 1681 O 156.824 1.89929 0.182101 0
M  V30 1682 C 153.964 3.44845 -0.132534 0
M  V30 1683 C 153.077 4.15007 -1.19973 0
M  V30 1684 C 152.212 5.28024 -0.580048 0
M  V30 1685 C 151.251 5.9002 -1.62921 0
M  V30 1686 N 150.388 6.94485 -1.03125 0
M  V30 1687 H 155.228 2.50336 -1.61666 0
M  V30 1688 H 152.765 1.2293 -0.807882 0
M  V30 1689 H 154.723 4.16601 0.223454 0
M  V30 1690 H 153.353 3.14403 0.731467 0
M  V30 1691 H 152.405 3.41629 -1.67313 0
M  V30 1692 H 153.717 4.57178 -1.99473 0
M  V30 1693 H 152.871 6.06455 -0.172364 0
M  V30 1694 H 151.61 4.87076 0.246603 0
M  V30 1695 H 150.615 5.10291 -2.04654 0
M  V30 1696 H 151.84 6.33042 -2.45835 0
M  V30 1697 H 149.786 6.55612 -0.225711 0
M  V30 1698 H 149.703 7.35148 -1.76334 0
M  V30 1699 H 150.971 7.7679 -0.649458 0
M  V30 1700 N 155.201 0.870884 1.31352 0
M  V30 1701 C 156.431 0.496049 2.00557 0
M  V30 1702 C 156.839 -0.916241 1.65534 0
M  V30 1703 O 156.182 -1.61188 0.881134 0
M  V30 1704 C 156.244 0.574418 3.54881 0
M  V30 1705 C 155.908 1.94849 4.1338 0
M  V30 1706 C 156.905 2.91611 4.30417 0
M  V30 1707 C 154.59 2.25005 4.49086 0
M  V30 1708 C 156.584 4.16672 4.82352 0
M  V30 1709 C 154.271 3.50315 5.00722 0
M  V30 1710 C 155.269 4.45964 5.17306 0
M  V30 1711 O 154.957 5.69052 5.67833 0
M  V30 1712 H 154.689 0.191664 0.64826 0
M  V30 1713 H 157.243 1.17409 1.68536 0
M  V30 1714 H 155.473 -0.160549 3.86367 0
M  V30 1715 H 157.162 0.212879 4.05341 0
M  V30 1716 H 157.928 2.69622 4.03149 0
M  V30 1717 H 153.807 1.51332 4.35453 0
M  V30 1718 H 157.351 4.91336 4.95211 0
M  V30 1719 H 153.248 3.72147 5.27424 0
M  V30 1720 H 154.016 5.71236 5.86201 0
M  V30 1721 N 156.679 -1.44442 0.630414 0
M  V30 1722 C 157.927 -2.01653 0.134351 0
M  V30 1723 C 158.248 -1.49836 -1.24796 0
M  V30 1724 O 157.518 -0.701684 -1.82902 0
M  V30 1725 H 156.098 -0.74554 0.0466769 0
M  V30 1726 H 158.76 -1.76952 0.816955 0
M  V30 1727 H 157.856 -3.11935 0.101498 0
M  V30 1728 N 158.157 -0.370918 -1.53173 0
M  V30 1729 C 159.385 0.217704 -2.05751 0
M  V30 1730 C 159.8 1.42018 -1.24404 0
M  V30 1731 O 159.157 1.80245 -0.286033 0
M  V30 1732 C 159.208 0.605954 -3.56385 0
M  V30 1733 O 158.929 -0.548734 -4.3465 0
M  V30 1734 C 160.43 1.2524 -4.25241 0
M  V30 1735 H 157.65 0.0371659 -0.66997 0
M  V30 1736 H 160.194 -0.530832 -1.9749 0
M  V30 1737 H 158.349 1.3044 -3.6478 0
M  V30 1738 H 158.763 -0.23376 -5.23979 0
M  V30 1739 H 160.237 1.47458 -5.3194 0
M  V30 1740 H 160.714 2.2143 -3.79296 0
M  V30 1741 H 161.32 0.595233 -4.21114 0
M  V30 1742 N 159.635 1.57281 -0.100228 0
M  V30 1743 C 160.582 2.14305 0.856858 0
M  V30 1744 C 161.552 1.06296 1.27634 0
M  V30 1745 O 162.737 1.34109 1.35718 0
M  V30 1746 C 159.877 2.73184 2.10866 0
M  V30 1747 C 158.99 3.95442 1.73925 0
M  V30 1748 C 158.125 4.42468 2.93931 0
M  V30 1749 C 157.164 5.57303 2.5314 0
M  V30 1750 N 156.301 5.99158 3.65997 0
M  V30 1751 H 161.141 2.95772 0.363726 0
M  V30 1752 H 158.678 1.46139 0.167858 0
M  V30 1753 H 160.636 3.05442 2.84185 0
M  V30 1754 H 159.266 1.94437 2.57671 0
M  V30 1755 H 158.318 3.69464 0.905554 0
M  V30 1756 H 159.63 4.78769 1.39935 0
M  V30 1757 H 158.784 4.76537 3.75496 0
M  V30 1758 H 157.523 3.58052 3.31134 0
M  V30 1759 H 156.528 5.22857 1.70003 0
M  V30 1760 H 157.753 6.43471 2.17075 0
M  V30 1761 H 155.699 5.17687 4.02909 0
M  V30 1762 H 155.616 6.77295 3.35869 0
M  V30 1763 H 156.884 6.3786 4.48057 0
M  V30 1764 N 161.113 -0.173488 1.56642 0
M  V30 1765 C 162.338 -0.910149 1.86363 0
M  V30 1766 C 162.763 -1.75132 0.686318 0
M  V30 1767 O 162.121 -1.77595 -0.364643 0
M  V30 1768 C 162.169 -1.76447 3.14482 0
M  V30 1769 O 161.273 -2.86584 2.96553 0
M  V30 1770 H 160.614 -0.255086 0.613047 0
M  V30 1771 H 163.144 -0.172283 2.03873 0
M  V30 1772 H 163.154 -2.16483 3.45831 0
M  V30 1773 H 161.829 -1.14658 3.99783 0
M  V30 1774 H 160.406 -2.50146 2.76553 0
M  V30 1775 N 162.591 -1.51276 -0.441967 0
M  V30 1776 C 163.501 -1.75092 -1.56141 0
M  V30 1777 C 164.517 -0.634963 -1.62001 0
M  V30 1778 O 165.693 -0.916686 -1.79329 0
M  V30 1779 C 162.758 -1.86666 -2.92158 0
M  V30 1780 C 161.819 -3.10506 -2.96453 0
M  V30 1781 C 161.052 -3.21519 -4.25982 0
M  V30 1782 O 161.275 -2.38586 -5.18105 0
M  V30 1783 O 160.209 -4.14465 -4.36466 0
M  V30 1784 H 164.035 -2.70044 -1.38961 0
M  V30 1785 H 161.62 -1.35722 -0.624499 0
M  V30 1786 H 163.502 -1.96292 -3.72891 0
M  V30 1787 H 162.177 -0.949014 -3.09476 0
M  V30 1788 H 161.084 -3.06363 -2.14692 0
M  V30 1789 H 162.417 -4.01945 -2.84079 0
M  V30 1790 N 164.069 0.697108 -1.41344 0
M  V30 1791 C 164.999 1.82353 -1.45841 0
M  V30 1792 C 165.98 1.67115 -0.317247 0
M  V30 1793 O 167.165 1.86871 -0.528474 0
M  V30 1794 C 164.295 3.20476 -1.33838 0
M  V30 1795 C 163.249 3.50415 -2.4575 0
M  V30 1796 C 162.575 4.87878 -2.18813 0
M  V30 1797 C 163.875 3.49546 -3.88091 0
M  V30 1798 H 165.569 1.78846 -2.40113 0
M  V30 1799 H 163.115 0.859028 -1.15571 0
M  V30 1800 H 165.068 3.98988 -1.35596 0
M  V30 1801 H 163.792 3.24604 -0.360498 0
M  V30 1802 H 162.451 2.74253 -2.43271 0
M  V30 1803 H 162.099 4.8863 -1.19371 0
M  V30 1804 H 161.799 5.08875 -2.93803 0
M  V30 1805 H 163.323 5.68702 -2.22284 0
M  V30 1806 H 164.737 4.18066 -3.92293 0
M  V30 1807 H 163.134 3.82075 -4.62751 0
M  V30 1808 H 164.204 2.48552 -4.16353 0
M  V30 1809 N 165.547 1.27147 0.931209 0
M  V30 1810 C 166.479 1.05364 2.03546 0
M  V30 1811 C 167.492 0.0108438 1.62796 0
M  V30 1812 O 168.681 0.25202 1.76712 0
M  V30 1813 C 165.781 0.575566 3.33977 0
M  V30 1814 C 164.954 1.68985 4.03439 0
M  V30 1815 C 164.013 1.20813 5.12143 0
M  V30 1816 O 163.039 1.90712 5.363 0
M  V30 1817 N 164.241 0.0618851 5.80467 0
M  V30 1818 H 167.006 2.00454 2.22796 0
M  V30 1819 H 164.567 1.18666 1.10136 0
M  V30 1820 H 166.559 0.237264 4.04004 0
M  V30 1821 H 165.129 -0.282016 3.11325 0
M  V30 1822 H 164.349 2.19861 3.27192 0
M  V30 1823 H 165.637 2.4378 4.46597 0
M  V30 1824 H 165.035 -0.521621 5.6329 0
M  V30 1825 H 163.592 -0.217264 6.51438 0
M  V30 1826 N 167.025 -1.13721 1.09112 0
M  V30 1827 C 168.302 -1.81155 0.737706 0
M  V30 1828 C 168.682 -1.96253 -0.777683 0
M  V30 1829 O 168.03 -1.52807 -1.69889 0
M  V30 1830 C 168.24 -3.16392 1.47299 0
M  V30 1831 C 169.588 -3.91787 1.63671 0
M  V30 1832 O 170.612 -3.26005 1.43524 0
M  V30 1833 O 169.471 -5.0977 1.96969 0
M  V30 1834 H 166.565 -0.783518 0.26463 0
M  V30 1835 H 169.111 -1.20676 1.19312 0
M  V30 1836 H 167.883 -3.0061 2.50498 0
M  V30 1837 H 167.506 -3.8457 1.00953 0
M  V30 1838 N 168.503 -0.877838 -1.30888 0
M  V30 1839 C 169.466 -0.344265 -2.266 0
M  V30 1840 C 170.466 0.50922 -1.52524 0
M  V30 1841 O 171.656 0.317398 -1.71284 0
M  V30 1842 C 168.788 0.510198 -3.37061 0
M  V30 1843 H 169.981 -1.1893 -2.7531 0
M  V30 1844 H 167.534 -0.654088 -1.41956 0
M  V30 1845 H 168.269 1.37612 -2.93655 0
M  V30 1846 H 168.054 -0.101047 -3.9197 0
M  V30 1847 H 169.544 0.875537 -4.08319 0
M  V30 1848 N 169.982 1.44106 -0.638065 0
M  V30 1849 C 171.231 2.01194 -0.142744 0
M  V30 1850 C 171.544 1.50835 1.24532 0
M  V30 1851 O 172.75 2.00096 1.83504 0
M  V30 1852 C 171.206 3.59319 -0.20442 0
M  V30 1853 C 170.814 4.18674 -1.59423 0
M  V30 1854 C 172.558 4.23854 0.234079 0
M  V30 1855 C 170.465 5.69045 -1.61065 0
M  V30 1856 H 169.395 0.752367 -0.0495998 0
M  V30 1857 H 172.046 1.65246 -0.797881 0
M  V30 1858 H 170.428 3.92598 0.517946 0
M  V30 1859 H 171.602 3.96921 -2.34074 0
M  V30 1860 H 169.917 3.66453 -1.97741 0
M  V30 1861 H 172.514 5.34155 0.241443 0
M  V30 1862 H 172.857 3.96688 1.2627 0
M  V30 1863 H 173.39 3.95403 -0.436025 0
M  V30 1864 H 170.129 6.00956 -2.61787 0
M  V30 1865 H 169.649 5.929 -0.90718 0
M  V30 1866 H 171.328 6.32809 -1.34766 0
M  V30 1867 N 171.46 0.379036 1.52974 0
M  V30 1868 C 172.708 -0.206014 2.01047 0
M  V30 1869 C 173.029 -1.48175 1.26765 0
M  V30 1870 O 172.299 -1.92085 0.384743 0
M  V30 1871 H 170.879 -0.0791184 0.742798 0
M  V30 1872 H 173.541 0.508366 1.88153 0
M  V30 1873 H 172.637 -0.423501 3.09213 0
M  V30 1874 N 172.938 -1.57226 0.108567 0
M  V30 1875 C 174.163 -1.99604 -0.563303 0
M  V30 1876 C 174.588 -0.987563 -1.6009 0
M  V30 1877 O 173.946 0.0421687 -1.81251 0
M  V30 1878 C 173.994 -3.40902 -1.17552 0
M  V30 1879 O 173.098 -3.42896 -2.2912 0
M  V30 1880 H 172.439 -0.648704 -0.1417 0
M  V30 1881 H 174.969 -2.03679 0.193961 0
M  V30 1882 H 174.979 -3.78886 -1.51357 0
M  V30 1883 H 173.654 -4.1382 -0.415445 0
M  V30 1884 H 172.231 -3.1672 -1.96832 0
M  V30 1885 N 174.416 0.165178 -1.56732 0
M  V30 1886 C 175.346 1.20651 -1.99914 0
M  V30 1887 C 176.327 1.45827 -0.875705 0
M  V30 1888 O 177.512 1.57057 -1.14223 0
M  V30 1889 C 174.642 2.54401 -2.36427 0
M  V30 1890 C 173.596 2.43782 -3.51787 0
M  V30 1891 C 172.922 3.82078 -3.7406 0
M  V30 1892 C 174.222 1.93732 -4.85041 0
M  V30 1893 H 175.916 0.847534 -2.87154 0
M  V30 1894 H 173.462 0.40625 -1.38151 0
M  V30 1895 H 175.415 3.27458 -2.65234 0
M  V30 1896 H 174.139 2.92098 -1.46103 0
M  V30 1897 H 172.798 1.73178 -3.23117 0
M  V30 1898 H 172.446 4.17179 -2.81017 0
M  V30 1899 H 172.146 3.7584 -4.51684 0
M  V30 1900 H 173.67 4.56712 -4.05274 0
M  V30 1901 H 175.084 2.56569 -5.12684 0
M  V30 1902 H 173.481 1.98428 -5.66345 0
M  V30 1903 H 174.551 0.891962 -4.76626 0
M  V30 1904 N 175.894 1.51508 0.433938 0
M  V30 1905 C 176.844 1.69451 1.52546 0
M  V30 1906 C 177.828 0.548474 1.51263 0
M  V30 1907 O 179.02 0.804529 1.57659 0
M  V30 1908 C 176.149 1.82604 2.90707 0
M  V30 1909 C 175.235 3.03002 2.96733 0
M  V30 1910 N 175.626 4.26121 2.72496 0
M  V30 1911 C 173.924 3.02327 3.27894 0
M  V30 1912 C 174.625 5.07407 2.84452 0
M  V30 1913 N 173.601 4.42126 3.16269 0
M  V30 1914 H 177.403 2.62305 1.32564 0
M  V30 1915 H 174.917 1.49202 0.641297 0
M  V30 1916 H 176.914 1.93569 3.69238 0
M  V30 1917 H 175.574 0.909339 3.11707 0
M  V30 1918 H 176.585 4.55009 2.4736 0
M  V30 1919 H 173.262 2.20301 3.54646 0
M  V30 1920 H 174.652 6.15422 2.69639 0
M  V30 1921 N 177.372 -0.689602 1.41712 0
M  V30 1922 C 178.597 -1.48329 1.44959 0
M  V30 1923 C 179.022 -1.8801 0.0581283 0
M  V30 1924 O 178.38 -1.55026 -0.940035 0
M  V30 1925 C 178.428 -2.71835 2.36935 0
M  V30 1926 O 177.532 -3.69549 1.8305 0
M  V30 1927 H 176.873 -0.446199 0.491734 0
M  V30 1928 H 179.403 -0.847127 1.86239 0
M  V30 1929 H 179.413 -3.20076 2.53013 0
M  V30 1930 H 178.088 -2.42291 3.38035 0
M  V30 1931 H 176.665 -3.2851 1.76452 0
M  V30 1932 N 178.85 -1.27639 -0.924453 0
M  V30 1933 C 180.266 -1.05113 -1.20097 0
M  V30 1934 C 180.466 0.213262 -2.00368 0
M  V30 1935 O 179.522 0.91787 -2.35226 0
M  V30 1936 C 180.835 -2.29244 -1.94596 0
M  V30 1937 C 182.383 -2.34315 -2.07522 0
M  V30 1938 C 182.858 -3.58183 -2.85427 0
M  V30 1939 N 184.349 -3.5876 -2.92994 0
M  V30 1940 C 185.084 -4.51277 -3.53746 0
M  V30 1941 N 184.58 -5.54102 -4.15863 0
M  V30 1942 N 186.373 -4.38894 -3.51181 0
M  V30 1943 H 178.524 -2.08821 -0.388264 0
M  V30 1944 H 180.787 -0.918568 -0.234385 0
M  V30 1945 H 180.493 -3.21301 -1.43034 0
M  V30 1946 H 180.367 -2.34816 -2.95197 0
M  V30 1947 H 182.754 -1.42762 -2.58269 0
M  V30 1948 H 182.835 -2.32744 -1.06131 0
M  V30 1949 H 182.479 -4.50074 -2.35363 0
M  V30 1950 H 182.409 -3.57006 -3.8711 0
M  V30 1951 H 184.9 -2.84398 -2.4885 0
M  V30 1952 H 185.213 -6.20859 -4.60168 0
M  V30 1953 H 183.558 -5.57941 -4.144 0
M  V30 1954 H 186.749 -3.57772 -3.01856 0
M  V30 1955 H 186.922 -5.11186 -3.98237 0
M  V30 1956 N 180.328 1.1314 -1.09713 0
M  V30 1957 C 181.276 2.20717 -0.733934 0
M  V30 1958 C 182.27 1.6729 0.266506 0
M  V30 1959 O 183.476 1.79547 0.127656 0
M  V30 1960 H 179.851 0.719292 -0.21937 0
M  V30 1961 H 181.822 2.48611 -1.6503 0
M  V30 1962 C 180.571 3.47265 -0.173849 0
M  V30 1963 H 179.894 3.88716 -0.934873 0
M  V30 1964 H 181.334 4.23979 0.0423126 0
M  V30 1965 C 179.793 3.18724 1.09164 0
M  V30 1966 O 180.323 3.37762 2.17439 0
M  V30 1967 N 178.529 2.72583 1.00732 0
M  V30 1968 H 178.076 2.57291 0.126121 0
M  V30 1969 H 178.034 2.53862 1.85476 0
M  V30 1970 N 181.806 0.884767 1.30421 0
M  V30 1971 C 183.052 0.503851 1.96441 0
M  V30 1972 C 183.385 -0.944518 1.69684 0
M  V30 1973 O 182.66 -1.66737 1.00145 0
M  V30 1974 C 182.943 0.779085 3.51571 0
M  V30 1975 C 182.796 2.27807 3.87846 0
M  V30 1976 C 184.115 0.255452 4.39358 0
M  V30 1977 H 181.234 0.184533 0.713524 0
M  V30 1978 H 183.876 1.10872 1.54297 0
M  V30 1979 H 182.026 0.264274 3.876 0
M  V30 1980 H 183.698 2.86127 3.61841 0
M  V30 1981 H 181.941 2.74479 3.35922 0
M  V30 1982 H 182.612 2.42125 4.96064 0
M  V30 1983 H 185.088 0.696079 4.10236 0
M  V30 1984 H 183.964 0.477361 5.4682 0
M  V30 1985 H 184.225 -0.843293 4.33983 0
M  V30 1986 N 183.284 -1.43765 0.645699 0
M  V30 1987 C 184.216 -2.29027 -0.0890605 0
M  V30 1988 C 185.229 -1.42093 -0.794563 0
M  V30 1989 O 186.418 -1.66104 -0.653575 0
M  V30 1990 C 183.518 -3.18831 -1.14891 0
M  V30 1991 C 182.691 -4.34261 -0.523043 0
M  V30 1992 C 181.75 -5.04994 -1.47878 0
M  V30 1993 O 180.776 -5.6052 -0.990277 0
M  V30 1994 N 181.978 -5.07795 -2.81291 0
M  V30 1995 H 184.743 -2.92727 0.64272 0
M  V30 1996 H 182.304 -1.54373 0.487924 0
M  V30 1997 H 184.296 -3.63015 -1.78892 0
M  V30 1998 H 182.866 -2.56782 -1.78275 0
M  V30 1999 H 182.086 -3.93088 0.295896 0
M  V30 2000 H 183.374 -5.08728 -0.0858147 0
M  V30 2001 H 182.772 -4.64042 -3.23546 0
M  V30 2002 H 181.329 -5.55721 -3.40614 0
M  V30 2003 N 184.763 -0.387143 -1.52771 0
M  V30 2004 C 186.009 0.196025 -2.0185 0
M  V30 2005 C 186.342 1.46641 -1.27319 0
M  V30 2006 O 185.617 1.90889 -0.373032 0
M  V30 2007 C 185.9 0.466136 -3.5707 0
M  V30 2008 C 185.753 -0.819385 -4.42274 0
M  V30 2009 C 187.072 1.25768 -4.21747 0
M  V30 2010 H 184.191 0.0697708 -0.73369 0
M  V30 2011 H 186.833 -0.516286 -1.82851 0
M  V30 2012 H 184.983 1.07293 -3.7339 0
M  V30 2013 H 186.655 -1.4563 -4.37709 0
M  V30 2014 H 184.898 -1.43517 -4.09372 0
M  V30 2015 H 185.569 -0.585065 -5.48891 0
M  V30 2016 H 188.045 0.744167 -4.09391 0
M  V30 2017 H 186.921 1.41541 -5.30337 0
M  V30 2018 H 187.182 2.27228 -3.79236 0
M  V30 2019 N 186.241 1.57166 -0.116904 0
M  V30 2020 C 187.471 1.99184 0.548586 0
M  V30 2021 C 187.879 0.995436 1.60897 0
M  V30 2022 O 187.222 -0.0201293 1.83689 0
M  V30 2023 C 187.284 3.37611 1.23526 0
M  V30 2024 C 186.948 4.55857 0.323077 0
M  V30 2025 C 187.945 5.18056 -0.437476 0
M  V30 2026 C 185.63 5.01751 0.234761 0
M  V30 2027 C 187.624 6.24536 -1.2741 0
M  V30 2028 C 185.311 6.08093 -0.605496 0
M  V30 2029 C 186.309 6.69352 -1.35856 0
M  V30 2030 O 185.997 7.7364 -2.18487 0
M  V30 2031 H 185.729 0.659148 0.149999 0
M  V30 2032 H 188.283 2.0443 -0.199428 0
M  V30 2033 H 186.513 3.29113 2.0303 0
M  V30 2034 H 188.202 3.63932 1.79745 0
M  V30 2035 H 188.968 4.83516 -0.379105 0
M  V30 2036 H 184.847 4.53817 0.810601 0
M  V30 2037 H 188.391 6.72281 -1.86237 0
M  V30 2038 H 184.288 6.42063 -0.665268 0
M  V30 2039 H 185.056 7.90727 -2.11406 0
M  V30 2040 N 187.719 -0.156864 1.56817 0
M  V30 2041 C 188.967 -0.869404 1.82444 0
M  V30 2042 C 189.288 -1.82147 0.69623 0
M  V30 2043 O 188.558 -1.93847 -0.28287 0
M  V30 2044 H 187.138 -0.324043 0.673056 0
M  V30 2045 H 189.8 -0.153224 1.94297 0
M  V30 2046 H 188.896 -1.43761 2.77019 0
M  V30 2047 N 189.197 -1.51736 -0.425897 0
M  V30 2048 C 190.474 -1.55519 -1.1863 0
M  V30 2049 C 190.854 -0.326219 -2.08564 0
M  V30 2050 O 190.202 0.688012 -2.17896 0
M  V30 2051 C 190.412 -2.87521 -1.9782 0
M  V30 2052 C 191.76 -3.39899 -2.54468 0
M  V30 2053 O 192.784 -2.89148 -2.08019 0
M  V30 2054 O 191.643 -4.2848 -3.39215 0
M  V30 2055 H 188.737 -0.625739 -0.540721 0
M  V30 2056 H 191.283 -1.64055 -0.434038 0
M  V30 2057 H 190.055 -3.68422 -1.31836 0
M  V30 2058 H 189.678 -2.822 -2.80088 0
M  V30 2059 N 190.675 0.682077 -1.42076 0
M  V30 2060 C 191.921 1.44428 -1.42367 0
M  V30 2061 C 192.254 1.94164 -0.0373056 0
M  V30 2062 O 191.529 1.70429 0.937239 0
M  V30 2063 C 191.812 2.64654 -2.44194 0
M  V30 2064 C 191.665 2.20596 -3.91991 0
M  V30 2065 C 192.984 3.66865 -2.431 0
M  V30 2066 H 190.103 0.523834 -0.518428 0
M  V30 2067 H 192.745 0.77576 -1.73442 0
M  V30 2068 H 190.895 3.2169 -2.17826 0
M  V30 2069 H 192.567 1.68783 -4.29313 0
M  V30 2070 H 190.81 1.52242 -4.06208 0
M  V30 2071 H 191.481 3.06921 -4.58807 0
M  V30 2072 H 193.957 3.19531 -2.66532 0
M  V30 2073 H 192.833 4.48577 -3.16339 0
M  V30 2074 H 193.094 4.17493 -1.45437 0
M  V30 2075 N 192.153 1.28127 0.917671 0
M  V30 2076 C 193.399 1.15223 1.66888 0
M  V30 2077 C 193.732 -0.299293 1.9188 0
M  V30 2078 O 193.007 -1.21805 1.51637 0
M  V30 2079 C 193.29 1.94706 3.02922 0
M  V30 2080 C 193.143 3.47898 2.85109 0
M  V30 2081 C 194.462 1.75939 4.03402 0
M  V30 2082 H 191.581 0.419946 0.605652 0
M  V30 2083 H 194.223 1.57398 1.06423 0
M  V30 2084 H 192.373 1.58864 3.54534 0
M  V30 2085 H 194.045 3.93624 2.40537 0
M  V30 2086 H 192.288 3.7373 2.20246 0
M  V30 2087 H 192.959 3.98765 3.81694 0
M  V30 2088 H 195.435 2.07209 3.60837 0
M  V30 2089 H 194.311 2.33931 4.96556 0
M  V30 2090 H 194.572 0.709877 4.36364 0
M  V30 2091 N 193.631 -1.12557 1.10312 0
M  V30 2092 C 194.561 -2.20341 0.772798 0
M  V30 2093 C 195.542 -1.68198 -0.25365 0
M  V30 2094 O 196.727 -1.93831 -0.119699 0
M  V30 2095 C 193.857 -3.46709 0.202443 0
M  V30 2096 C 192.811 -4.11996 1.15943 0
M  V30 2097 C 192.137 -5.328 0.450345 0
M  V30 2098 C 193.437 -4.5828 2.50552 0
M  V30 2099 H 195.131 -2.48229 1.674 0
M  V30 2100 H 192.677 -1.19308 0.806326 0
M  V30 2101 H 194.63 -4.2138 -0.0407752 0
M  V30 2102 H 193.354 -3.18245 -0.734001 0
M  V30 2103 H 192.013 -3.39305 1.38808 0
M  V30 2104 H 191.661 -5.00602 -0.490531 0
M  V30 2105 H 191.361 -5.7743 1.08851 0
M  V30 2106 H 192.885 -6.10219 0.215642 0
M  V30 2107 H 194.299 -5.2433 2.31843 0
M  V30 2108 H 192.696 -5.13683 3.10242 0
M  V30 2109 H 193.766 -3.72329 3.10643 0
M  V30 2110 N 195.109 -0.891671 -1.2995 0
M  V30 2111 C 196.057 -0.353066 -2.29905 0
M  V30 2112 C 197.051 0.543509 -1.60444 0
M  V30 2113 O 198.257 0.4272 -1.74857 0
M  V30 2114 H 194.632 -0.095531 -0.745907 0
M  V30 2115 H 196.603 -1.20961 -2.72784 0
M  V30 2116 C 195.352 0.411475 -3.45257 0
M  V30 2117 H 194.675 -0.269182 -3.98893 0
M  V30 2118 H 196.115 0.753328 -4.17254 0
M  V30 2119 C 194.574 1.6111 -2.9588 0
M  V30 2120 O 195.104 2.71045 -2.96475 0
M  V30 2121 N 193.31 1.45054 -2.51809 0
M  V30 2122 H 192.857 0.556175 -2.51524 0
M  V30 2123 H 192.815 2.25453 -2.1913 0
M  V30 2124 N 196.587 1.43421 -0.653314 0
M  V30 2125 C 197.537 2.2792 0.060558 0
M  V30 2126 C 198.521 1.39906 0.794677 0
M  V30 2127 O 199.713 1.63536 0.677128 0
M  V30 2128 C 196.842 3.27603 1.0262 0
M  V30 2129 C 195.928 4.23104 0.290551 0
M  V30 2130 N 196.319 5.01031 -0.692967 0
M  V30 2131 C 194.617 4.42816 0.531984 0
M  V30 2132 C 195.318 5.70626 -1.12963 0
M  V30 2133 N 194.294 5.41617 -0.463867 0
M  V30 2134 H 198.096 2.85585 -0.694143 0
M  V30 2135 H 195.61 1.55126 -0.480602 0
M  V30 2136 H 197.607 3.86918 1.55242 0
M  V30 2137 H 196.267 2.71499 1.78096 0
M  V30 2138 H 197.278 5.0669 -1.07169 0
M  V30 2139 H 193.955 3.97782 1.26791 0
M  V30 2140 H 195.345 6.4318 -1.94343 0
M  V30 2141 N 198.065 0.39524 1.52563 0
M  V30 2142 C 199.012 -0.437036 2.26624 0
M  V30 2143 C 199.982 -1.05281 1.28472 0
M  V30 2144 O 201.167 -1.07971 1.57311 0
M  V30 2145 C 198.307 -1.55524 3.08069 0
M  V30 2146 C 197.42 -0.961745 4.21158 0
M  V30 2147 C 196.555 -2.05149 4.89987 0
M  V30 2148 C 195.594 -1.4342 5.95061 0
M  V30 2149 N 194.731 -2.46351 6.57462 0
M  V30 2150 H 199.571 0.200976 2.97322 0
M  V30 2151 H 197.108 0.110944 1.46681 0
M  V30 2152 H 199.066 -2.21437 3.53584 0
M  V30 2153 H 197.696 -2.16348 2.3957 0
M  V30 2154 H 196.748 -0.192048 3.79915 0
M  V30 2155 H 198.06 -0.470701 4.96574 0
M  V30 2156 H 197.214 -2.78819 5.38837 0
M  V30 2157 H 195.953 -2.57615 4.14109 0
M  V30 2158 H 194.958 -0.682774 5.45544 0
M  V30 2159 H 196.183 -0.917416 6.72875 0
M  V30 2160 H 194.129 -2.97975 5.8442 0
M  V30 2161 H 194.046 -2.02019 7.28508 0
M  V30 2162 H 195.314 -3.19633 7.10954 0
M  V30 2163 N 199.544 -1.57102 0.125237 0
M  V30 2164 C 200.507 -2.14471 -0.80838 0
M  V30 2165 C 201.507 -1.0811 -1.19033 0
M  V30 2166 O 202.697 -1.33856 -1.11482 0
M  V30 2167 C 199.829 -2.69005 -2.09402 0
M  V30 2168 H 201.022 -2.98297 -0.309696 0
M  V30 2169 H 198.575 -1.55807 -0.124051 0
M  V30 2170 H 199.31 -1.88785 -2.63687 0
M  V30 2171 H 199.095 -3.46799 -1.82957 0
M  V30 2172 H 200.585 -3.13278 -2.76128 0
M  V30 2173 N 201.022 0.148545 -1.56898 0
M  V30 2174 C 202.27 0.859717 -1.82902 0
M  V30 2175 C 202.591 1.81775 -0.70588 0
M  V30 2176 O 201.861 1.93994 0.272586 0
M  V30 2177 H 200.441 0.320469 -0.674766 0
M  V30 2178 H 203.103 0.142918 -1.94375 0
M  V30 2179 H 202.199 1.4229 -2.77777 0
M  V30 2180 N 202.5 1.5196 0.417844 0
M  V30 2181 C 203.463 1.74065 1.49111 0
M  V30 2182 C 204.463 0.610537 1.48758 0
M  V30 2183 O 205.653 0.87832 1.50437 0
M  V30 2184 C 202.785 1.81502 2.88565 0
M  V30 2185 H 203.978 2.69869 1.30807 0
M  V30 2186 H 201.531 1.42244 0.647785 0
M  V30 2187 H 202.266 0.875813 3.1225 0
M  V30 2188 H 202.051 2.63651 2.90225 0
M  V30 2189 H 203.541 2.00376 3.66387 0
M  V30 2190 N 203.978 -0.674533 1.42435 0
M  V30 2191 C 205.255 -1.4305 1.33402 0
M  V30 2192 C 205.635 -2.11081 -0.0284674 0
M  V30 2193 O 204.983 -2.03257 -1.04397 0
M  V30 2194 C 205.193 -2.43272 2.50239 0
M  V30 2195 C 206.541 -3.07907 2.92367 0
M  V30 2196 O 207.565 -2.53599 2.50132 0
M  V30 2197 O 206.424 -4.0632 3.65467 0
M  V30 2198 H 203.518 -0.638076 0.526106 0
M  V30 2199 H 206.064 -0.703235 1.54443 0
M  V30 2200 H 204.836 -1.91803 3.41068 0
M  V30 2201 H 204.459 -3.23479 2.31186 0
M  V30 2202 N 205.456 -1.28612 -0.910864 0
M  V30 2203 C 206.419 -1.12803 -1.9952 0
M  V30 2204 C 207.419 -0.0668264 -1.60661 0
M  V30 2205 O 208.609 -0.312847 -1.71368 0
M  V30 2206 C 205.741 -0.72254 -3.33155 0
M  V30 2207 H 206.934 -2.09109 -2.14973 0
M  V30 2208 H 204.487 -1.11639 -1.09391 0
M  V30 2209 H 205.222 0.241152 -3.23402 0
M  V30 2210 H 205.007 -1.48916 -3.62721 0
M  V30 2211 H 206.497 -0.634666 -4.12749 0
M  V30 2212 N 206.934 1.1197 -1.10907 0
M  V30 2213 C 208.162 1.87402 -0.876824 0
M  V30 2214 C 208.577 1.79894 0.573025 0
M  V30 2215 O 207.934 1.17629 1.39534 0
M  V30 2216 C 207.985 3.36428 -1.32282 0
M  V30 2217 O 207.706 3.43765 -2.71582 0
M  V30 2218 C 209.207 4.28783 -1.12518 0
M  V30 2219 H 206.427 0.592793 -0.314384 0
M  V30 2220 H 208.971 1.41649 -1.47499 0
M  V30 2221 H 207.126 3.79706 -0.768229 0
M  V30 2222 H 207.54 4.3652 -2.90776 0
M  V30 2223 H 209.014 5.31613 -1.48633 0
M  V30 2224 H 209.491 4.39153 -0.0642394 0
M  V30 2225 H 210.097 3.91291 -1.66648 0
M  V30 2226 N 208.412 0.89855 1.29475 0
M  V30 2227 C 209.322 0.379974 2.31502 0
M  V30 2228 C 210.338 -0.524695 1.659 0
M  V30 2229 O 211.514 -0.414551 1.97087 0
M  V30 2230 C 208.579 -0.385138 3.44554 0
M  V30 2231 C 207.64 0.550914 4.2575 0
M  V30 2232 C 206.873 -0.177778 5.33404 0
M  V30 2233 O 207.096 -1.40189 5.52904 0
M  V30 2234 O 206.03 0.479106 5.9999 0
M  V30 2235 H 209.856 1.22639 2.77837 0
M  V30 2236 H 207.441 0.662834 1.33891 0
M  V30 2237 H 209.323 -0.817841 4.13388 0
M  V30 2238 H 207.998 -1.20763 3.0033 0
M  V30 2239 H 206.905 1.03271 3.59564 0
M  V30 2240 H 208.238 1.33979 4.73614 0
M  V30 2241 N 209.89 -1.43072 0.660911 0
M  V30 2242 C 211.167 -1.95307 0.107017 0
M  V30 2243 C 211.547 -1.60192 -1.37484 0
M  V30 2244 O 210.895 -0.890949 -2.10415 0
M  V30 2245 C 211.105 -3.47124 0.361402 0
M  V30 2246 C 212.453 -4.23738 0.270455 0
M  V30 2247 O 213.477 -3.54981 0.294382 0
M  V30 2248 O 212.336 -5.46131 0.200737 0
M  V30 2249 H 209.43 -0.826984 -0.00517729 0
M  V30 2250 H 211.976 -1.52972 0.734681 0
M  V30 2251 H 210.748 -3.65837 1.38848 0
M  V30 2252 H 210.371 -3.96475 -0.298953 0
M  V30 2253 N 211.368 -0.403325 -1.52352 0
M  V30 2254 C 212.614 0.174605 -2.02047 0
M  V30 2255 C 212.947 1.45282 -1.28867 0
M  V30 2256 O 212.222 1.90483 -0.393257 0
M  V30 2257 C 212.505 0.428238 -3.57545 0
M  V30 2258 C 212.358 -0.866248 -4.4138 0
M  V30 2259 C 213.677 1.21287 -4.23057 0
M  V30 2260 H 210.796 0.0619851 -0.734389 0
M  V30 2261 H 213.438 -0.53565 -1.82293 0
M  V30 2262 H 211.588 1.03327 -3.74507 0
M  V30 2263 H 213.26 -1.50265 -4.3614 0
M  V30 2264 H 211.503 -1.47851 -4.07827 0
M  V30 2265 H 212.174 -0.643249 -5.48239 0
M  V30 2266 H 214.65 0.700703 -4.10158 0
M  V30 2267 H 213.526 1.35909 -5.31808 0
M  V30 2268 H 213.787 2.23193 -3.81625 0
M  V30 2269 N 212.846 1.57033 -0.133567 0
M  V30 2270 C 214.074 2.00044 0.528195 0
M  V30 2271 C 214.489 1.01349 1.59291 0
M  V30 2272 O 213.846 0.00848369 1.82498 0
M  V30 2273 C 213.897 3.43018 1.1411 0
M  V30 2274 O 213.618 4.37939 0.11892 0
M  V30 2275 C 215.119 4.01237 1.88477 0
M  V30 2276 H 212.339 0.656517 0.138661 0
M  V30 2277 H 214.883 2.03267 -0.224196 0
M  V30 2278 H 213.038 3.40688 1.84418 0
M  V30 2279 H 213.452 5.21436 0.56613 0
M  V30 2280 H 214.926 5.03314 2.26669 0
M  V30 2281 H 215.403 3.41193 2.76558 0
M  V30 2282 H 216.009 4.07156 1.22898 0
M  V30 2283 N 214.325 -0.140222 1.56975 0
M  V30 2284 C 215.288 -1.15689 1.97861 0
M  V30 2285 C 216.288 -1.3549 0.865974 0
M  V30 2286 O 217.478 -1.32367 1.13246 0
M  V30 2287 C 214.61 -2.51582 2.30042 0
M  V30 2288 H 215.803 -0.805971 2.88867 0
M  V30 2289 H 213.356 -0.383801 1.51515 0
M  V30 2290 H 214.091 -2.91632 1.41849 0
M  V30 2291 H 213.876 -2.38569 3.11171 0
M  V30 2292 H 215.366 -3.24792 2.62488 0
M  V30 2293 N 215.803 -1.52179 -0.40978 0
M  V30 2294 C 217.049 -1.66453 -1.15851 0
M  V30 2295 C 217.382 -0.392972 -1.90182 0
M  V30 2296 O 216.657 0.608579 -1.84734 0
M  V30 2297 C 216.94 -2.88612 -2.15349 0
M  V30 2298 C 216.793 -4.25815 -1.44918 0
M  V30 2299 C 218.112 -3.06294 -3.16026 0
M  V30 2300 H 215.231 -0.60575 -0.419805 0
M  V30 2301 H 217.873 -1.84732 -0.444314 0
M  V30 2302 H 216.023 -2.73158 -2.76255 0
M  V30 2303 H 217.695 -4.52995 -0.871365 0
M  V30 2304 H 215.938 -4.27247 -0.751159 0
M  V30 2305 H 216.609 -5.07337 -2.17516 0
M  V30 2306 H 219.085 -3.20641 -2.65195 0
M  V30 2307 H 217.961 -3.93283 -3.8291 0
M  V30 2308 H 218.222 -2.19579 -3.83715 0
M  V30 2309 N 217.281 0.66697 -1.42791 0
M  V30 2310 C 218.191 1.80962 -1.49299 0
M  V30 2311 C 219.207 1.69775 -0.381108 0
M  V30 2312 O 220.383 1.91188 -0.633188 0
M  V30 2313 C 217.448 3.17156 -1.40045 0
M  V30 2314 C 216.509 3.40242 -2.6179 0
M  V30 2315 C 215.742 4.69939 -2.52969 0
M  V30 2316 O 215.965 5.48372 -1.56985 0
M  V30 2317 O 214.899 4.94441 -3.43237 0
M  V30 2318 H 218.725 1.78427 -2.45759 0
M  V30 2319 H 216.31 0.823713 -1.24641 0
M  V30 2320 H 218.192 3.98413 -1.37276 0
M  V30 2321 H 216.867 3.20312 -0.467138 0
M  V30 2322 H 215.774 2.58802 -2.70134 0
M  V30 2323 H 217.107 3.41923 -3.54047 0
M  V30 2324 N 218.759 1.29093 0.90403 0
M  V30 2325 C 220.005 1.16986 1.65656 0
M  V30 2326 C 220.338 -0.278925 1.92186 0
M  V30 2327 O 219.613 -1.2019 1.5292 0
M  V30 2328 C 219.896 1.97908 3.0084 0
M  V30 2329 C 219.749 3.50903 2.81403 0
M  V30 2330 C 221.068 1.80208 4.01513 0
M  V30 2331 H 218.187 0.426346 0.601164 0
M  V30 2332 H 220.829 1.58518 1.04747 0
M  V30 2333 H 218.979 1.62616 3.52829 0
M  V30 2334 H 220.651 3.96153 2.36348 0
M  V30 2335 H 218.894 3.76045 2.1627 0
M  V30 2336 H 219.565 4.02791 3.77443 0
M  V30 2337 H 222.041 2.11025 3.58619 0
M  V30 2338 H 220.917 2.39184 4.94047 0
M  V30 2339 H 221.178 0.756119 4.35586 0
M  V30 2340 N 220.237 -1.11381 1.11499 0
M  V30 2341 C 221.185 -2.19522 0.768956 0
M  V30 2342 C 222.179 -1.67693 -0.239857 0
M  V30 2343 O 223.385 -1.79727 -0.0990755 0
M  V30 2344 H 219.76 -0.715711 0.230786 0
M  V30 2345 H 221.731 -2.45954 1.68964 0
M  V30 2346 C 220.48 -3.46945 0.229073 0
M  V30 2347 H 219.803 -3.8718 0.996596 0
M  V30 2348 H 221.243 -4.23993 0.0251441 0
M  V30 2349 C 219.702 -3.2042 -1.04079 0
M  V30 2350 O 220.232 -3.41178 -2.12038 0
M  V30 2351 N 218.438 -2.74151 -0.963823 0
M  V30 2352 H 217.985 -2.57459 -0.0851722 0
M  V30 2353 H 217.943 -2.56781 -1.81414 0
M  V30 2354 N 221.715 -0.905404 -1.28997 0
M  V30 2355 C 223.126 -0.581953 -1.77398 0
M  V30 2356 C 223.477 0.902552 -1.74208 0
M  V30 2357 O 222.602 1.70584 -1.33154 0
M  V30 2358 C 223.197 -1.04961 -3.22131 0
M  V30 2359 C 221.756 -0.777229 -3.68288 0
M  V30 2360 C 220.903 -1.22109 -2.48967 0
M  V30 2361 H 223.854 -1.08754 -1.15578 0
M  V30 2362 H 223.875 -0.387387 -3.78523 0
M  V30 2363 H 223.387 -2.13008 -3.24421 0
M  V30 2364 H 221.488 0.290383 -3.71467 0
M  V30 2365 H 221.601 -1.37911 -4.58822 0
M  V30 2366 H 219.965 -0.639971 -2.46529 0
M  V30 2367 H 220.748 -2.30972 -2.53982 0
M  V30 2368 N 223.193 1.4272 -0.668489 0
M  V30 2369 C 224.156 2.292 0.00448567 0
M  V30 2370 C 225.156 1.43001 0.735339 0
M  V30 2371 O 226.346 1.64461 0.57429 0
M  V30 2372 C 223.478 3.25375 1.01705 0
M  V30 2373 H 224.671 2.90199 -0.756608 0
M  V30 2374 H 222.224 1.50254 -0.430506 0
M  V30 2375 H 222.959 2.69301 1.80686 0
M  V30 2376 H 222.744 3.88944 0.496463 0
M  V30 2377 H 224.234 3.90245 1.48655 0
M  V30 2378 N 224.671 0.411399 1.52136 0
M  V30 2379 C 225.619 -0.427633 2.28635 0
M  V30 2380 C 226.613 -1.04383 1.33419 0
M  V30 2381 O 227.819 -0.981772 1.50868 0
M  V30 2382 H 224.194 -0.156689 0.735495 0
M  V30 2383 H 226.165 0.238761 2.97443 0
M  V30 2384 C 224.914 -1.53082 3.12188 0
M  V30 2385 H 224.237 -1.06601 3.85326 0
M  V30 2386 H 225.677 -2.09167 3.68816 0
M  V30 2387 C 224.136 -2.49946 2.25895 0
M  V30 2388 O 224.666 -3.53884 1.90076 0
M  V30 2389 N 222.872 -2.2021 1.8962 0
M  V30 2390 H 222.419 -1.35719 2.18948 0
M  V30 2391 H 222.377 -2.85266 1.32176 0
M  V30 2392 N 226.149 -1.5696 0.141893 0
M  V30 2393 C 227.565 -1.58151 -0.21456 0
M  V30 2394 C 227.765 -1.1559 -1.65049 0
M  V30 2395 O 226.821 -0.853832 -2.37626 0
M  V30 2396 C 228.134 -3.00674 0.0395576 0
M  V30 2397 C 229.682 -3.1299 -0.0245529 0
M  V30 2398 C 230.157 -4.57554 0.202167 0
M  V30 2399 N 231.648 -4.62961 0.148919 0
M  V30 2400 C 232.383 -5.7262 0.298924 0
M  V30 2401 N 231.879 -6.90947 0.50637 0
M  V30 2402 N 233.672 -5.61601 0.236886 0
M  V30 2403 H 225.823 -1.8292 1.07953 0
M  V30 2404 H 228.086 -0.846425 0.42693 0
M  V30 2405 H 227.792 -3.36183 1.03315 0
M  V30 2406 H 227.666 -3.70981 -0.682143 0
M  V30 2407 H 230.053 -2.77326 -1.00869 0
M  V30 2408 H 230.134 -2.4518 0.729396 0
M  V30 2409 H 229.778 -4.93922 1.18338 0
M  V30 2410 H 229.708 -5.23484 -0.572044 0
M  V30 2411 H 232.199 -3.77899 -0.00697015 0
M  V30 2412 H 232.512 -7.7038 0.611076 0
M  V30 2413 H 230.857 -6.92878 0.542628 0
M  V30 2414 H 234.048 -4.68039 0.0756209 0
M  V30 2415 H 234.221 -6.47015 0.357227 0
M  V30 2416 N 227.627 0.131896 -1.57047 0
M  V30 2417 C 228.575 1.18146 -2.0036 0
M  V30 2418 C 229.569 1.43614 -0.898406 0
M  V30 2419 O 230.775 1.43729 -1.08361 0
M  V30 2420 H 227.15 0.398042 -0.638018 0
M  V30 2421 H 229.121 0.789564 -2.87765 0
M  V30 2422 C 227.87 2.50341 -2.41298 0
M  V30 2423 H 227.193 2.31578 -3.25902 0
M  V30 2424 H 228.633 3.22371 -2.75414 0
M  V30 2425 C 227.092 3.11984 -1.27153 0
M  V30 2426 O 227.622 3.97484 -0.580459 0
M  V30 2427 N 225.828 2.71662 -1.03189 0
M  V30 2428 H 225.375 2.02231 -1.59564 0
M  V30 2429 H 225.333 3.13238 -0.270077 0
M  V30 2430 N 229.106 1.52395 0.401703 0
M  V30 2431 C 230.038 1.72505 1.50912 0
M  V30 2432 C 231.051 0.605468 1.51122 0
M  V30 2433 O 232.24 0.880828 1.55254 0
M  V30 2434 C 229.34 1.75711 2.89791 0
M  V30 2435 C 228.513 3.04824 3.1369 0
M  V30 2436 C 227.572 2.99743 4.32482 0
M  V30 2437 O 226.598 3.73635 4.29402 0
M  V30 2438 N 227.8 2.18047 5.37992 0
M  V30 2439 H 230.565 2.68049 1.34052 0
M  V30 2440 H 228.126 1.50724 0.591084 0
M  V30 2441 H 230.118 1.69834 3.6734 0
M  V30 2442 H 228.688 0.876092 3.00072 0
M  V30 2443 H 227.908 3.2429 2.24119 0
M  V30 2444 H 229.196 3.90221 3.26504 0
M  V30 2445 H 228.594 1.57456 5.43345 0
M  V30 2446 H 227.151 2.18021 6.14256 0
M  V30 2447 N 230.584 -0.659388 1.43143 0
M  V30 2448 C 231.494 -1.80167 1.50256 0
M  V30 2449 C 232.51 -1.69571 0.390106 0
M  V30 2450 O 233.686 -1.90849 0.643319 0
M  V30 2451 C 230.751 -3.16409 1.41725 0
M  V30 2452 C 229.812 -3.38848 2.63591 0
M  V30 2453 C 229.045 -4.68591 2.55458 0
M  V30 2454 O 229.268 -5.47532 1.59891 0
M  V30 2455 O 228.202 -4.92614 3.45854 0
M  V30 2456 H 232.028 -1.77121 2.46702 0
M  V30 2457 H 229.613 -0.817092 1.25076 0
M  V30 2458 H 231.495 -3.9768 1.39387 0
M  V30 2459 H 230.17 -3.20059 0.484118 0
M  V30 2460 H 229.077 -2.57366 2.71502 0
M  V30 2461 H 230.41 -3.4004 3.55856 0
M  V30 2462 N 232.062 -1.29571 -0.897171 0
M  V30 2463 C 233.29 -1.20583 -1.68129 0
M  V30 2464 C 233.705 0.233181 -1.87354 0
M  V30 2465 O 233.062 1.15579 -1.41236 0
M  V30 2466 C 233.113 -1.91772 -3.06441 0
M  V30 2467 O 232.834 -3.30053 -2.88091 0
M  V30 2468 C 234.335 -1.89291 -4.00854 0
M  V30 2469 H 231.555 -0.417826 -0.525036 0
M  V30 2470 H 234.099 -1.70987 -1.12177 0
M  V30 2471 H 232.254 -1.45196 -3.59161 0
M  V30 2472 H 232.668 -3.65942 -3.75748 0
M  V30 2473 H 234.142 -2.43662 -4.95311 0
M  V30 2474 H 234.619 -0.869014 -4.30517 0
M  V30 2475 H 235.225 -2.35622 -3.54066 0
M  V30 2476 N 233.54 1.10788 -1.12088 0
M  V30 2477 C 234.765 1.87002 -0.896949 0
M  V30 2478 C 235.19 1.79933 0.548261 0
M  V30 2479 O 234.548 1.16662 1.38779 0
M  V30 2480 C 234.596 3.3349 -1.37174 0
M  V30 2481 O 233.7 4.08745 -0.547831 0
M  V30 2482 H 233.041 0.580397 -0.322545 0
M  V30 2483 H 235.571 1.39996 -1.49206 0
M  V30 2484 H 235.581 3.84339 -1.36922 0
M  V30 2485 H 234.256 3.37951 -2.42408 0
M  V30 2486 H 232.833 3.6776 -0.617034 0
M  V30 2487 N 235.018 0.912232 1.28515 0
M  V30 2488 C 235.928 0.404506 2.31086 0
M  V30 2489 C 236.944 -0.50707 1.66448 0
M  V30 2490 O 238.12 -0.393624 1.97516 0
M  V30 2491 C 235.185 -0.348572 3.44943 0
M  V30 2492 C 234.246 0.59604 4.25142 0
M  V30 2493 C 233.479 -0.121194 5.33562 0
M  V30 2494 O 233.702 -1.34317 5.5436 0
M  V30 2495 O 232.636 0.542716 5.99448 0
M  V30 2496 H 236.462 1.25579 2.76521 0
M  V30 2497 H 234.047 0.676998 1.33181 0
M  V30 2498 H 235.929 -0.77395 4.14232 0
M  V30 2499 H 234.604 -1.17571 3.01594 0
M  V30 2500 H 233.511 1.07079 3.58448 0
M  V30 2501 H 234.844 1.38995 4.72167 0
M  V30 2502 N 236.496 -1.42363 0.676048 0
M  V30 2503 C 237.406 -2.346 -0.00153389 0
M  V30 2504 C 238.422 -1.5516 -0.787485 0
M  V30 2505 O 239.598 -1.87723 -0.729521 0
M  V30 2506 C 236.663 -3.33705 -0.940298 0
M  V30 2507 C 235.724 -4.29042 -0.148739 0
M  V30 2508 C 234.957 -5.23413 -1.04279 0
M  V30 2509 O 235.18 -5.22749 -2.28232 0
M  V30 2510 O 234.114 -5.99795 -0.502925 0
M  V30 2511 H 237.94 -2.94082 0.758268 0
M  V30 2512 H 235.525 -1.42888 0.436289 0
M  V30 2513 H 237.407 -3.94586 -1.47917 0
M  V30 2514 H 236.082 -2.76695 -1.67993 0
M  V30 2515 H 234.989 -3.71571 0.43427 0
M  V30 2516 H 236.322 -4.89097 0.551805 0
M  V30 2517 N 237.974 -0.419461 -1.51915 0
M  V30 2518 C 239.204 0.151915 -2.06041 0
M  V30 2519 C 239.612 1.38539 -1.28855 0
M  V30 2520 O 238.955 1.80592 -0.336463 0
M  V30 2521 C 239.017 0.557119 -3.55157 0
M  V30 2522 C 238.681 -0.567054 -4.53468 0
M  V30 2523 C 239.678 -1.43379 -4.99738 0
M  V30 2524 C 237.363 -0.742693 -4.96779 0
M  V30 2525 C 239.357 -2.46102 -5.87973 0
M  V30 2526 C 237.044 -1.77322 -5.84808 0
M  V30 2527 C 238.042 -2.63078 -6.30301 0
M  V30 2528 O 237.73 -3.64364 -7.16585 0
M  V30 2529 H 237.462 0.0193293 -0.675724 0
M  V30 2530 H 240.016 -0.592073 -1.96682 0
M  V30 2531 H 238.246 1.35355 -3.62238 0
M  V30 2532 H 239.935 1.05759 -3.9188 0
M  V30 2533 H 240.701 -1.30954 -4.66986 0
M  V30 2534 H 236.58 -0.0848307 -4.60922 0
M  V30 2535 H 240.124 -3.13071 -6.23404 0
M  V30 2536 H 236.021 -1.89773 -6.16974 0
M  V30 2537 H 236.789 -3.60731 -7.34721 0
M  V30 2538 N 239.452 1.56882 -0.150215 0
M  V30 2539 C 240.384 2.14057 0.819286 0
M  V30 2540 C 241.397 1.09082 1.20851 0
M  V30 2541 O 242.586 1.36347 1.15203 0
M  V30 2542 C 239.686 2.65102 2.11127 0
M  V30 2543 C 238.859 3.94511 1.88891 0
M  V30 2544 C 237.918 4.30834 3.02107 0
M  V30 2545 O 236.944 4.99099 2.73659 0
M  V30 2546 N 238.146 3.90676 4.29363 0
M  V30 2547 H 240.911 2.97871 0.330618 0
M  V30 2548 H 238.472 1.61866 0.0332538 0
M  V30 2549 H 240.464 2.86411 2.85921 0
M  V30 2550 H 239.034 1.85994 2.51247 0
M  V30 2551 H 238.254 3.81795 0.981152 0
M  V30 2552 H 239.542 4.7907 1.71376 0
M  V30 2553 H 238.94 3.35677 4.55343 0
M  V30 2554 H 237.497 4.1703 5.00928 0
M  V30 2555 N 240.93 -0.123565 1.57115 0
M  V30 2556 C 242.179 -0.830704 1.83799 0
M  V30 2557 C 242.492 -1.81259 0.735158 0
M  V30 2558 O 243.698 -2.56558 0.888278 0
M  V30 2559 C 242.154 -1.52802 3.25852 0
M  V30 2560 C 241.762 -0.587356 4.44133 0
M  V30 2561 C 243.506 -2.22056 3.61789 0
M  V30 2562 C 241.413 -1.28764 5.77212 0
M  V30 2563 H 240.343 -0.313967 0.685522 0
M  V30 2564 H 242.994 -0.0834359 1.8331 0
M  V30 2565 H 241.376 -2.32175 3.20797 0
M  V30 2566 H 242.55 0.172829 4.60476 0
M  V30 2567 H 240.865 -0.00201892 4.164 0
M  V30 2568 H 243.462 -2.75131 4.58483 0
M  V30 2569 H 243.805 -2.99644 2.88997 0
M  V30 2570 H 244.338 -1.49576 3.68608 0
M  V30 2571 H 241.077 -0.55314 6.53162 0
M  V30 2572 H 240.597 -2.01995 5.64764 0
M  V30 2573 H 242.276 -1.8221 6.20813 0
M  V30 2574 N 242.408 -1.52605 -0.393616 0
M  V30 2575 C 243.355 -1.77055 -1.48054 0
M  V30 2576 C 244.325 -0.61358 -1.54352 0
M  V30 2577 O 245.51 -0.852806 -1.70681 0
M  V30 2578 C 242.65 -1.94108 -2.85335 0
M  V30 2579 C 241.763 -3.21792 -2.88226 0
M  V30 2580 C 240.898 -3.29188 -4.16904 0
M  V30 2581 C 239.937 -4.51013 -4.13828 0
M  V30 2582 N 239.074 -4.55716 -5.34105 0
M  V30 2583 H 243.914 -2.69815 -1.26506 0
M  V30 2584 H 241.451 -1.33683 -0.61379 0
M  V30 2585 H 243.409 -2.01979 -3.65049 0
M  V30 2586 H 242.039 -1.04713 -3.05344 0
M  V30 2587 H 241.091 -3.23015 -2.00911 0
M  V30 2588 H 242.403 -4.11557 -2.8182 0
M  V30 2589 H 241.557 -3.36216 -5.05018 0
M  V30 2590 H 240.296 -2.37389 -4.26026 0
M  V30 2591 H 239.301 -4.44115 -3.24102 0
M  V30 2592 H 240.526 -5.44123 -4.06333 0
M  V30 2593 H 238.472 -3.66807 -5.43865 0
M  V30 2594 H 238.389 -5.39346 -5.29756 0
M  V30 2595 H 239.657 -4.66993 -6.2413 0
M  V30 2596 N 243.887 0.651787 -1.4349 0
M  V30 2597 C 244.85 1.74647 -1.48429 0
M  V30 2598 C 245.85 1.56513 -0.368817 0
M  V30 2599 O 247.04 1.62385 -0.630623 0
M  V30 2600 C 244.172 3.13533 -1.33827 0
M  V30 2601 H 245.365 1.71649 -2.4592 0
M  V30 2602 H 242.918 0.863573 -1.30277 0
M  V30 2603 H 243.653 3.22142 -0.37349 0
M  V30 2604 H 243.438 3.28101 -2.14691 0
M  V30 2605 H 244.928 3.93356 -1.40218 0
M  V30 2606 N 245.365 1.30045 0.890287 0
M  V30 2607 C 246.611 1.19747 1.64415 0
M  V30 2608 C 246.966 -0.246591 1.90813 0
M  V30 2609 O 246.259 -1.174 1.51419 0
M  V30 2610 C 246.453 1.95409 2.99249 0
M  V30 2611 C 246.282 3.47025 2.86013 0
M  V30 2612 C 245.052 4.1638 2.86279 0
M  V30 2613 C 247.25 4.42353 2.62351 0
M  V30 2614 N 245.232 5.54293 2.63879 0
M  V30 2615 C 246.603 5.67792 2.49022 0
M  V30 2616 C 248.658 4.32009 2.47533 0
M  V30 2617 C 247.361 6.8406 2.22383 0
M  V30 2618 C 249.387 5.48038 2.22279 0
M  V30 2619 C 248.749 6.72455 2.09722 0
M  V30 2620 H 244.848 0.493223 0.60684 0
M  V30 2621 H 247.432 1.6399 1.04954 0
M  V30 2622 H 245.603 1.53565 3.56752 0
M  V30 2623 H 247.335 1.77298 3.63796 0
M  V30 2624 H 244.09 3.68164 2.97913 0
M  V30 2625 H 244.514 6.26852 2.55706 0
M  V30 2626 H 249.156 3.36503 2.55979 0
M  V30 2627 H 246.874 7.79612 2.12675 0
M  V30 2628 H 250.46 5.41939 2.11643 0
M  V30 2629 H 249.34 7.60722 1.90453 0
M  V30 2630 N 246.843 -1.10192 1.12674 0
M  V30 2631 C 248.071 -1.85983 0.906527 0
M  V30 2632 C 248.486 -1.80783 -0.544333 0
M  V30 2633 O 247.843 -1.19834 -1.37645 0
M  V30 2634 C 247.894 -3.34281 1.37618 0
M  V30 2635 O 247.615 -3.39401 2.77017 0
M  V30 2636 C 249.116 -4.26938 1.19325 0
M  V30 2637 H 246.336 -0.587716 0.323775 0
M  V30 2638 H 248.88 -1.39284 1.49734 0
M  V30 2639 H 247.035 -3.78436 0.828539 0
M  V30 2640 H 247.449 -4.31838 2.97684 0
M  V30 2641 H 248.923 -5.29181 1.57071 0
M  V30 2642 H 249.4 -4.38995 0.134097 0
M  V30 2643 H 250.006 -3.8859 1.72852 0
M  V30 2644 N 248.321 -0.919034 -1.28029 0
M  V30 2645 C 249.598 -0.473668 -1.89778 0
M  V30 2646 C 249.978 1.04783 -1.83259 0
M  V30 2647 O 249.326 1.8982 -1.27202 0
M  V30 2648 C 249.536 -1.00998 -3.34066 0
M  V30 2649 C 250.884 -1.06525 -4.1102 0
M  V30 2650 O 251.908 -0.958996 -3.43048 0
M  V30 2651 O 250.767 -1.22776 -5.3253 0
M  V30 2652 H 247.861 -0.15098 -0.813101 0
M  V30 2653 H 250.407 -1.01016 -1.36359 0
M  V30 2654 H 249.179 -2.05392 -3.33061 0
M  V30 2655 H 248.802 -0.454626 -3.94992 0
M  V30 2656 N 249.799 1.42003 -0.683588 0
M  V30 2657 C 251.046 2.01413 -0.209514 0
M  V30 2658 C 251.374 1.54088 1.1869 0
M  V30 2659 O 250.629 0.737591 1.81268 0
M  V30 2660 C 250.928 3.56827 -0.202357 0
M  V30 2661 C 250.594 4.23617 -1.54464 0
M  V30 2662 C 249.256 4.41577 -1.91215 0
M  V30 2663 C 251.608 4.61178 -2.42826 0
M  V30 2664 C 248.936 4.9437 -3.15935 0
M  V30 2665 C 251.288 5.15355 -3.66867 0
M  V30 2666 C 249.952 5.31528 -4.03776 0
M  V30 2667 H 249.222 0.737023 -0.0766668 0
M  V30 2668 H 251.869 1.70067 -0.880312 0
M  V30 2669 H 250.174 3.87892 0.551969 0
M  V30 2670 H 251.871 4.00588 0.181793 0
M  V30 2671 H 248.461 4.10004 -1.24877 0
M  V30 2672 H 252.645 4.46968 -2.15717 0
M  V30 2673 H 247.901 5.05076 -3.44541 0
M  V30 2674 H 252.075 5.43402 -4.35531 0
M  V30 2675 H 249.702 5.72199 -5.00492 0
M  V30 2676 N 251.277 0.427512 1.51691 0
M  V30 2677 C 252.693 0.0792977 1.59403 0
M  V30 2678 C 252.893 -1.41035 1.43914 0
M  V30 2679 O 251.949 -2.17922 1.27539 0
M  V30 2680 C 253.262 0.590636 2.94842 0
M  V30 2681 C 254.81 0.550215 3.08126 0
M  V30 2682 C 255.285 1.03836 4.46074 0
M  V30 2683 N 256.776 0.995943 4.52366 0
M  V30 2684 C 257.511 1.34463 5.57411 0
M  V30 2685 N 257.007 1.76569 6.69922 0
M  V30 2686 N 258.8 1.26343 5.47717 0
M  V30 2687 H 250.951 1.39687 1.60004 0
M  V30 2688 H 253.214 0.575003 0.753708 0
M  V30 2689 H 252.92 1.63251 3.11516 0
M  V30 2690 H 252.794 0.0102061 3.77199 0
M  V30 2691 H 255.181 -0.482654 2.91126 0
M  V30 2692 H 255.262 1.16693 2.27632 0
M  V30 2693 H 254.906 2.06965 4.63819 0
M  V30 2694 H 254.836 0.398286 5.25092 0
M  V30 2695 H 257.327 0.68661 3.7161 0
M  V30 2696 H 257.64 2.01438 7.46085 0
M  V30 2697 H 255.985 1.80488 6.71155 0
M  V30 2698 H 259.176 0.933209 4.58703 0
M  V30 2699 H 259.349 1.53846 6.29472 0
M  V30 2700 N 252.755 -1.56801 0.158532 0
M  V30 2701 C 254.002 -1.9649 -0.489679 0
M  V30 2702 C 254.33 -1.04394 -1.6411 0
M  V30 2703 O 253.585 -0.0754401 -1.95555 0
M  V30 2704 C 253.884 -3.4235 -1.02623 0
M  V30 2705 C 253.55 -4.50899 0.00794526 0
M  V30 2706 C 252.212 -4.80312 0.292207 0
M  V30 2707 C 254.564 -5.16333 0.710584 0
M  V30 2708 C 251.892 -5.72461 1.28472 0
M  V30 2709 C 254.244 -6.09553 1.69199 0
M  V30 2710 C 252.908 -6.37339 1.98383 0
M  V30 2711 H 252.178 -0.719009 -0.179186 0
M  V30 2712 H 254.825 -1.8989 0.247798 0
M  V30 2713 H 253.13 -3.45838 -1.84128 0
M  V30 2714 H 254.827 -3.70393 -1.53656 0
M  V30 2715 H 251.417 -4.28015 -0.22379 0
M  V30 2716 H 255.601 -4.93732 0.504174 0
M  V30 2717 H 250.857 -5.92278 1.51714 0
M  V30 2718 H 255.031 -6.59327 2.24189 0
M  V30 2719 H 252.658 -7.08546 2.7544 0
M  V30 2720 N 254.233 0.115231 -1.57178 0
M  V30 2721 C 255.644 0.67197 -1.74188 0
M  V30 2722 C 255.995 1.80125 -0.777777 0
M  V30 2723 O 255.12 2.16346 0.0484376 0
M  V30 2724 C 255.715 1.22573 -3.1585 0
M  V30 2725 C 254.274 1.72872 -3.34353 0
M  V30 2726 C 253.421 0.629972 -2.70049 0
M  V30 2727 H 256.372 -0.110712 -1.58313 0
M  V30 2728 H 256.393 2.09535 -3.17609 0
M  V30 2729 H 255.905 0.403598 -3.85996 0
M  V30 2730 H 254.006 2.5755 -2.69256 0
M  V30 2731 H 254.119 1.83557 -4.42542 0
M  V30 2732 H 252.483 1.0645 -2.31388 0
M  V30 2733 H 253.266 -0.181241 -3.42821 0
M  V30 2734 N 255.711 1.52812 0.385517 0
M  V30 2735 C 256.959 1.67694 1.12797 0
M  V30 2736 C 257.28 0.421115 1.90399 0
M  V30 2737 O 256.55 -0.564551 1.87589 0
M  V30 2738 H 255.13 0.618155 0.419396 0
M  V30 2739 H 257.792 1.89938 0.436972 0
M  V30 2740 H 256.888 2.52896 1.82894 0
M  V30 2741 N 257.189 -0.644168 1.43834 0
M  V30 2742 C 258.605 -0.960875 1.27434 0
M  V30 2743 C 258.805 -2.00499 0.200618 0
M  V30 2744 O 257.861 -2.49018 -0.417906 0
M  V30 2745 C 259.174 -1.43653 2.64167 0
M  V30 2746 C 260.722 -1.55271 2.71772 0
M  V30 2747 C 261.197 -2.06224 4.08944 0
M  V30 2748 N 262.688 -2.13513 4.11055 0
M  V30 2749 C 263.423 -2.54081 5.14033 0
M  V30 2750 N 262.919 -2.9388 6.27381 0
M  V30 2751 N 264.712 -2.54101 5.01387 0
M  V30 2752 H 256.863 0.0465779 2.12349 0
M  V30 2753 H 259.126 -0.0417638 0.94708 0
M  V30 2754 H 258.832 -0.743706 3.43747 0
M  V30 2755 H 258.706 -2.40993 2.90176 0
M  V30 2756 H 261.093 -2.23653 1.92519 0
M  V30 2757 H 261.174 -0.563395 2.49519 0
M  V30 2758 H 260.818 -1.38441 4.88668 0
M  V30 2759 H 260.748 -3.06003 4.28567 0
M  V30 2760 H 263.239 -1.85493 3.29242 0
M  V30 2761 H 263.552 -3.2361 7.01781 0
M  V30 2762 H 261.897 -2.91663 6.30839 0
M  V30 2763 H 265.088 -2.22391 4.11898 0
M  V30 2764 H 265.261 -2.85394 5.81768 0
M  V30 2765 N 258.668 -1.30515 -0.883378 0
M  V30 2766 C 259.916 -1.19194 -1.63209 0
M  V30 2767 C 260.237 0.253205 -1.93349 0
M  V30 2768 O 259.507 1.17025 -1.57105 0
M  V30 2769 H 258.087 -0.438148 -0.605009 0
M  V30 2770 H 260.749 -1.63663 -1.05832 0
M  V30 2771 H 259.845 -1.75396 -2.58153 0
M  V30 2772 N 260.146 1.09593 -1.13257 0
M  V30 2773 C 261.094 2.18271 -0.803783 0
M  V30 2774 C 262.088 1.68054 0.213148 0
M  V30 2775 O 263.294 1.79862 0.0704699 0
M  V30 2776 H 259.669 0.711949 -0.242143 0
M  V30 2777 H 261.64 2.43235 -1.72856 0
M  V30 2778 C 260.389 3.46536 -0.28424 0
M  V30 2779 H 259.712 3.85545 -1.05807 0
M  V30 2780 H 261.152 4.23899 -0.0925945 0
M  V30 2781 C 259.611 3.22036 0.989684 0
M  V30 2782 O 260.141 3.44509 2.06584 0
M  V30 2783 N 258.347 2.7565 0.920086 0
M  V30 2784 H 257.894 2.57562 0.0442019 0
M  V30 2785 H 257.852 2.59635 1.77306 0
M  V30 2786 N 261.624 0.925811 1.2754 0
M  V30 2787 C 262.852 0.581509 1.9856 0
M  V30 2788 C 263.267 -0.840041 1.69082 0
M  V30 2789 O 262.624 -1.55805 0.950312 0
M  V30 2790 C 262.675 0.795589 3.52637 0
M  V30 2791 O 262.396 2.16121 3.81082 0
M  V30 2792 C 263.897 0.459744 4.4091 0
M  V30 2793 H 261.117 0.220538 0.633722 0
M  V30 2794 H 263.661 1.24232 1.6244 0
M  V30 2795 H 261.816 0.18161 3.86974 0
M  V30 2796 H 262.23 2.2098 4.75676 0
M  V30 2797 H 263.704 0.660244 5.48037 0
M  V30 2798 H 264.181 -0.604625 4.35018 0
M  V30 2799 H 264.787 1.05178 4.12089 0
M  V30 2800 N 263.102 -1.41638 0.69111 0
M  V30 2801 C 264.332 -2.0533 0.228758 0
M  V30 2802 C 264.74 -1.52089 -1.12541 0
M  V30 2803 O 264.083 -0.662145 -1.71351 0
M  V30 2804 C 264.145 -3.59349 0.10407 0
M  V30 2805 C 263.809 -4.35362 1.38956 0
M  V30 2806 C 264.806 -4.64942 2.32648 0
M  V30 2807 C 262.491 -4.74714 1.64169 0
M  V30 2808 C 264.485 -5.32828 3.49818 0
M  V30 2809 C 262.172 -5.42338 2.81625 0
M  V30 2810 C 263.17 -5.71322 3.74273 0
M  V30 2811 O 262.858 -6.37554 4.89673 0
M  V30 2812 H 262.59 -0.667796 0.104997 0
M  V30 2813 H 265.144 -1.82477 0.942938 0
M  V30 2814 H 263.374 -3.80924 -0.665839 0
M  V30 2815 H 265.063 -4.04633 -0.320519 0
M  V30 2816 H 265.829 -4.35025 2.14425 0
M  V30 2817 H 261.708 -4.51538 0.929202 0
M  V30 2818 H 265.252 -5.55368 4.22152 0
M  V30 2819 H 261.149 -5.71673 2.99768 0
M  V30 2820 H 261.917 -6.56049 4.8943 0
M  V30 2821 N 264.58 -0.43555 -1.51462 0
M  V30 2822 C 265.805 0.132627 -2.06976 0
M  V30 2823 C 266.23 1.35848 -1.30104 0
M  V30 2824 O 265.588 1.78112 -0.338493 0
M  V30 2825 C 265.636 0.43523 -3.57964 0
M  V30 2826 O 264.74 1.52198 -3.83288 0
M  V30 2827 H 264.081 0.00265 -0.663995 0
M  V30 2828 H 266.611 -0.616369 -1.95095 0
M  V30 2829 H 266.621 0.686206 -4.02188 0
M  V30 2830 H 265.296 -0.460739 -4.1334 0
M  V30 2831 H 263.873 1.2611 -3.50928 0
M  V30 2832 N 266.058 1.56714 -0.166846 0
M  V30 2833 C 267.335 1.88412 0.525373 0
M  V30 2834 C 267.715 1.07602 1.81618 0
M  V30 2835 O 267.063 0.168621 2.27877 0
M  V30 2836 C 267.273 3.40363 0.771613 0
M  V30 2837 C 268.621 4.10007 1.1036 0
M  V30 2838 O 269.645 3.45655 0.860304 0
M  V30 2839 O 268.504 5.2369 1.56239 0
M  V30 2840 H 265.598 0.781587 0.270278 0
M  V30 2841 H 268.144 1.68458 -0.204946 0
M  V30 2842 H 266.916 3.91046 -0.141093 0
M  V30 2843 H 266.539 3.65914 1.55541 0
M  V30 2844 N 267.536 -0.106894 1.57237 0
M  V30 2845 C 268.783 -0.812526 1.85484 0
M  V30 2846 C 269.111 -1.79304 0.753687 0
M  V30 2847 O 268.366 -1.94047 -0.253853 0
M  V30 2848 C 268.665 -1.58628 3.20268 0
M  V30 2849 C 268.331 -0.748967 4.44636 0
M  V30 2850 C 266.993 -0.518104 4.78403 0
M  V30 2851 C 269.345 -0.166122 5.20935 0
M  V30 2852 C 266.673 0.305659 5.85903 0
M  V30 2853 C 269.025 0.644899 6.29304 0
M  V30 2854 C 267.689 0.885965 6.61594 0
M  V30 2855 H 266.959 -0.297324 0.678734 0
M  V30 2856 H 269.606 -0.0744332 1.91355 0
M  V30 2857 H 267.911 -2.39562 3.10028 0
M  V30 2858 H 269.608 -2.13643 3.39349 0
M  V30 2859 H 266.198 -0.939006 4.18187 0
M  V30 2860 H 270.382 -0.33167 4.95191 0
M  V30 2861 H 265.638 0.501528 6.0934 0
M  V30 2862 H 269.812 1.10345 6.87602 0
M  V30 2863 H 267.439 1.52609 7.44725 0
M  V30 2864 N 269.014 -1.53014 -0.377408 0
M  V30 2865 C 269.961 -1.78616 -1.46168 0
M  V30 2866 C 270.931 -0.629917 -1.53692 0
M  V30 2867 O 272.116 -0.870861 -1.69766 0
M  V30 2868 C 269.256 -1.97123 -2.8326 0
M  V30 2869 C 268.369 -3.24831 -2.84796 0
M  V30 2870 C 267.504 -3.33591 -4.13389 0
M  V30 2871 C 266.543 -4.55377 -4.09021 0
M  V30 2872 N 265.68 -4.61355 -5.29241 0
M  V30 2873 H 270.52 -2.71142 -1.23637 0
M  V30 2874 H 268.057 -1.34326 -0.599577 0
M  V30 2875 H 270.015 -2.05839 -3.62886 0
M  V30 2876 H 268.645 -1.07946 -3.04216 0
M  V30 2877 H 267.697 -3.25128 -1.97474 0
M  V30 2878 H 269.009 -4.14523 -2.77439 0
M  V30 2879 H 268.163 -3.41554 -5.01424 0
M  V30 2880 H 266.902 -2.41894 -4.23484 0
M  V30 2881 H 265.907 -4.47527 -3.19373 0
M  V30 2882 H 267.132 -5.48402 -4.00539 0
M  V30 2883 H 265.078 -3.72554 -5.39944 0
M  V30 2884 H 264.995 -5.44935 -5.24006 0
M  V30 2885 H 266.263 -4.73586 -6.19141 0
M  V30 2886 N 270.492 0.636531 -1.44174 0
M  V30 2887 C 271.738 1.39649 -1.47884 0
M  V30 2888 C 272.093 1.92098 -0.107747 0
M  V30 2889 O 271.386 1.70391 0.876208 0
M  V30 2890 C 271.58 2.58309 -2.47005 0
M  V30 2891 C 271.409 2.17476 -3.93617 0
M  V30 2892 C 270.179 2.0501 -4.61843 0
M  V30 2893 C 272.377 1.76722 -4.82984 0
M  V30 2894 N 270.359 1.57683 -5.93304 0
M  V30 2895 C 271.73 1.40601 -6.03847 0
M  V30 2896 C 273.785 1.64054 -4.70096 0
M  V30 2897 C 272.488 0.930787 -7.13252 0
M  V30 2898 C 274.514 1.17937 -5.79521 0
M  V30 2899 C 273.876 0.827625 -6.99521 0
M  V30 2900 H 269.975 0.506027 -0.596205 0
M  V30 2901 H 272.559 0.730791 -1.80465 0
M  V30 2902 H 270.73 3.22514 -2.16423 0
M  V30 2903 H 272.462 3.25083 -2.41045 0
M  V30 2904 H 269.217 2.25294 -4.16581 0
M  V30 2905 H 269.641 1.36334 -6.63131 0
M  V30 2906 H 274.283 1.89882 -3.77762 0
M  V30 2907 H 272.001 0.660012 -8.054 0
M  V30 2908 H 275.587 1.08601 -5.71574 0
M  V30 2909 H 274.467 0.476231 -7.82753 0
M  V30 2910 N 271.97 1.30982 0.876444 0
M  V30 2911 C 272.92 1.14688 1.97055 0
M  V30 2912 C 273.904 0.0596593 1.60789 0
M  V30 2913 O 275.096 0.283892 1.74708 0
M  V30 2914 C 272.225 0.849627 3.3262 0
M  V30 2915 C 271.311 1.97752 3.75173 0
M  V30 2916 N 271.702 3.22384 3.89746 0
M  V30 2917 C 270 1.8758 4.04635 0
M  V30 2918 C 270.701 3.96121 4.25985 0
M  V30 2919 N 269.677 3.24237 4.36315 0
M  V30 2920 H 273.479 2.09204 2.06424 0
M  V30 2921 H 270.993 1.22445 1.06682 0
M  V30 2922 H 272.99 0.713895 4.10742 0
M  V30 2923 H 271.65 -0.087376 3.24582 0
M  V30 2924 H 272.661 3.57575 3.74647 0
M  V30 2925 H 269.338 1.01303 4.05024 0
M  V30 2926 H 270.728 5.03491 4.44911 0
M  V30 2927 N 273.449 -1.08991 1.13837 0
M  V30 2928 C 274.695 -1.81699 0.91417 0
M  V30 2929 C 275.05 -1.84264 -0.553594 0
M  V30 2930 O 274.343 -1.30313 -1.4046 0
M  V30 2931 C 274.537 -3.27042 1.44147 0
M  V30 2932 C 274.366 -3.38637 2.95897 0
M  V30 2933 C 273.136 -3.50177 3.64286 0
M  V30 2934 C 275.334 -3.30791 3.93804 0
M  V30 2935 N 273.316 -3.50501 5.04006 0
M  V30 2936 C 274.687 -3.38037 5.19741 0
M  V30 2937 C 276.742 -3.14488 3.86007 0
M  V30 2938 C 275.445 -3.30659 6.38793 0
M  V30 2939 C 277.471 -3.08438 5.04599 0
M  V30 2940 C 276.833 -3.1628 6.29402 0
M  V30 2941 H 272.932 -0.678967 0.387979 0
M  V30 2942 H 275.516 -1.30224 1.4474 0
M  V30 2943 H 273.687 -3.76976 0.935091 0
M  V30 2944 H 275.419 -3.87785 1.1578 0
M  V30 2945 H 272.174 -3.53815 3.1482 0
M  V30 2946 H 272.598 -3.54236 5.76928 0
M  V30 2947 H 277.24 -3.07291 2.90399 0
M  V30 2948 H 274.958 -3.36618 7.34652 0
M  V30 2949 H 278.544 -2.96952 5.0031 0
M  V30 2950 H 277.424 -3.1162 7.19627 0
M  V30 2951 N 274.927 -0.932562 -1.27047 0
M  V30 2952 C 276.157 -0.591173 -1.97961 0
M  V30 2953 C 276.565 0.836219 -1.69717 0
M  V30 2954 O 275.908 1.56801 -0.957036 0
M  V30 2955 C 275.97 -0.743082 -3.51736 0
M  V30 2956 C 275.634 -2.1435 -4.03613 0
M  V30 2957 C 276.631 -3.11815 -4.16014 0
M  V30 2958 C 274.316 -2.46175 -4.37839 0
M  V30 2959 C 276.31 -4.39211 -4.61923 0
M  V30 2960 C 273.997 -3.73806 -4.83438 0
M  V30 2961 C 274.995 -4.70137 -4.95439 0
M  V30 2962 O 274.683 -5.95496 -5.40037 0
M  V30 2963 H 274.415 -0.222375 -0.638377 0
M  V30 2964 H 276.969 -1.25317 -1.62742 0
M  V30 2965 H 275.199 -0.0239739 -3.86693 0
M  V30 2966 H 276.888 -0.40603 -4.03864 0
M  V30 2967 H 277.654 -2.88549 -3.89826 0
M  V30 2968 H 273.533 -1.71936 -4.27737 0
M  V30 2969 H 277.077 -5.14404 -4.71205 0
M  V30 2970 H 272.974 -3.96888 -5.09068 0
M  V30 2971 H 273.742 -5.98554 -5.58279 0
M  V30 2972 N 276.405 1.4127 -0.698611 0
M  V30 2973 C 277.355 2.27997 -0.0119836 0
M  V30 2974 C 278.339 1.42363 0.749765 0
M  V30 2975 O 279.531 1.65607 0.624758 0
M  V30 2976 C 276.66 3.30702 0.921458 0
M  V30 2977 C 275.746 4.23814 0.155796 0
M  V30 2978 N 276.137 4.98572 -0.852015 0
M  V30 2979 C 274.435 4.44284 0.390836 0
M  V30 2980 C 275.136 5.66744 -1.3106 0
M  V30 2981 N 274.112 5.39867 -0.635944 0
M  V30 2982 H 277.914 2.83232 -0.784649 0
M  V30 2983 H 275.428 1.53518 -0.529711 0
M  V30 2984 H 277.425 3.91661 1.42854 0
M  V30 2985 H 276.085 2.77028 1.69369 0
M  V30 2986 H 277.096 5.03024 -1.23235 0
M  V30 2987 H 273.773 4.01614 1.14071 0
M  V30 2988 H 275.163 6.36672 -2.14707 0
M  V30 2989 N 277.883 0.443576 1.51229 0
M  V30 2990 C 279.13 -0.120796 2.02139 0
M  V30 2991 C 279.458 -1.42166 1.32736 0
M  V30 2992 O 278.713 -1.90849 0.43301 0
M  V30 2993 C 279.012 -0.380579 3.55368 0
M  V30 2994 C 278.678 0.83523 4.43097 0
M  V30 2995 C 277.34 1.16864 4.66794 0
M  V30 2996 C 279.692 1.64601 4.94526 0
M  V30 2997 C 277.02 2.31339 5.39165 0
M  V30 2998 C 279.372 2.78181 5.68153 0
M  V30 2999 C 278.036 3.11969 5.90112 0
M  V30 3000 H 277.306 -0.0442023 0.73968 0
M  V30 3001 H 279.953 0.592046 1.82118 0
M  V30 3002 H 278.258 -1.17538 3.73754 0
M  V30 3003 H 279.955 -0.830777 3.923 0
M  V30 3004 H 276.545 0.565437 4.24854 0
M  V30 3005 H 280.729 1.40163 4.76097 0
M  V30 3006 H 275.985 2.57823 5.5438 0
M  V30 3007 H 280.159 3.41371 6.06992 0
M  V30 3008 H 277.786 4.00784 6.45969 0
M  V30 3009 N 279.361 -1.56624 0.175154 0
M  V30 3010 C 280.638 -1.88688 -0.515373 0
M  V30 3011 C 281.018 -1.08564 -1.81044 0
M  V30 3012 O 280.366 -0.180703 -2.27784 0
M  V30 3013 C 280.576 -3.40768 -0.753552 0
M  V30 3014 C 281.924 -4.10587 -1.08184 0
M  V30 3015 O 282.948 -3.46106 -0.841961 0
M  V30 3016 O 281.807 -5.24512 -1.53459 0
M  V30 3017 H 278.901 -0.78301 -0.26613 0
M  V30 3018 H 281.447 -1.68347 0.213877 0
M  V30 3019 H 280.219 -3.90965 0.161829 0
M  V30 3020 H 279.842 -3.66733 -1.53598 0
M  V30 3021 N 280.839 0.0985539 -1.57292 0
M  V30 3022 C 282.087 0.801092 -1.85545 0
M  V30 3023 C 282.408 1.79438 -0.763353 0
M  V30 3024 O 281.678 1.94763 0.21073 0
M  V30 3025 H 280.258 0.29884 -0.684619 0
M  V30 3026 H 282.92 0.0810064 -1.94732 0
M  V30 3027 H 282.016 1.3338 -2.82163 0
M  V30 3028 N 282.317 1.53212 0.369288 0
M  V30 3029 C 283.28 1.7872 1.43498 0
M  V30 3030 C 284.28 0.657554 1.46741 0
M  V30 3031 O 285.47 0.925736 1.47566 0
M  V30 3032 C 282.602 1.90591 2.82645 0
M  V30 3033 H 283.795 2.73894 1.22156 0
M  V30 3034 H 281.348 1.44233 0.602203 0
M  V30 3035 H 282.083 0.974709 3.09306 0
M  V30 3036 H 281.868 2.72751 2.8169 0
M  V30 3037 H 283.358 2.11931 3.59826 0
M  V30 3038 N 283.795 -0.628877 1.44509 0
M  V30 3039 C 285.072 -1.38733 1.37886 0
M  V30 3040 C 285.452 -2.11065 0.0387008 0
M  V30 3041 O 284.8 -2.06476 -0.97878 0
M  V30 3042 C 285.01 -2.35188 2.57852 0
M  V30 3043 C 286.358 -2.9845 3.02014 0
M  V30 3044 O 287.382 -2.45513 2.58073 0
M  V30 3045 O 286.241 -3.94487 3.78209 0
M  V30 3046 H 283.335 -0.621015 0.54614 0
M  V30 3047 H 285.881 -0.653744 1.56602 0
M  V30 3048 H 284.653 -1.80855 3.46998 0
M  V30 3049 H 284.276 -3.1596 2.4136 0
M  V30 3050 N 285.273 -1.31445 -0.869486 0
M  V30 3051 C 286.519 -1.22347 -1.62489 0
M  V30 3052 C 286.874 0.216204 -1.91181 0
M  V30 3053 O 286.167 1.14977 -1.53268 0
M  V30 3054 C 286.361 -2.00145 -2.96102 0
M  V30 3055 C 286.19 -3.51531 -2.80456 0
M  V30 3056 C 284.96 -4.20882 -2.79618 0
M  V30 3057 C 287.158 -4.46471 -2.5528 0
M  V30 3058 N 285.14 -5.58421 -2.55027 0
M  V30 3059 C 286.511 -5.71682 -2.39957 0
M  V30 3060 C 288.566 -4.35892 -2.40629 0
M  V30 3061 C 287.269 -6.87511 -2.11472 0
M  V30 3062 C 289.295 -5.51505 -2.13532 0
M  V30 3063 C 288.657 -6.75707 -1.98998 0
M  V30 3064 H 284.756 -0.502815 -0.598917 0
M  V30 3065 H 287.34 -1.65639 -1.02332 0
M  V30 3066 H 285.511 -1.59221 -3.54264 0
M  V30 3067 H 287.243 -1.83063 -3.60929 0
M  V30 3068 H 283.998 -3.72857 -2.92018 0
M  V30 3069 H 284.422 -6.30841 -2.45701 0
M  V30 3070 H 289.064 -3.40533 -2.50593 0
M  V30 3071 H 286.782 -7.82897 -2.00245 0
M  V30 3072 H 290.368 -5.45238 -2.02995 0
M  V30 3073 H 289.248 -7.63655 -1.78326 0
M  V30 3074 N 286.751 1.08385 -1.14413 0
M  V30 3075 C 288.028 1.77429 -0.823297 0
M  V30 3076 C 288.408 1.9974 0.683163 0
M  V30 3077 O 287.756 1.60739 1.62405 0
M  V30 3078 C 287.966 3.09004 -1.62227 0
M  V30 3079 C 289.314 3.83532 -1.82177 0
M  V30 3080 O 290.338 3.18786 -1.58915 0
M  V30 3081 O 289.197 4.99792 -2.21067 0
M  V30 3082 H 286.291 0.769999 -0.301712 0
M  V30 3083 H 288.837 1.14846 -1.24934 0
M  V30 3084 H 287.609 2.88316 -2.64555 0
M  V30 3085 H 287.232 3.79316 -1.19187 0
M  V30 3086 N 288.23 0.939286 1.26551 0
M  V30 3087 C 289.14 0.453432 2.30176 0
M  V30 3088 C 290.156 -0.471649 1.67486 0
M  V30 3089 O 291.332 -0.35164 1.98306 0
M  V30 3090 C 288.397 -0.275326 3.45605 0
M  V30 3091 C 287.458 0.686084 4.23782 0
M  V30 3092 C 286.691 -0.00798994 5.33699 0
M  V30 3093 O 286.914 -1.22528 5.57085 0
M  V30 3094 O 285.848 0.669746 5.98162 0
M  V30 3095 H 289.674 1.31416 2.73795 0
M  V30 3096 H 287.259 0.705095 1.31715 0
M  V30 3097 H 289.141 -0.685911 4.1578 0
M  V30 3098 H 287.816 -1.11147 3.0402 0
M  V30 3099 H 286.723 1.14658 3.56096 0
M  V30 3100 H 288.056 1.48979 4.69112 0
M  V30 3101 N 289.708 -1.40897 0.706093 0
M  V30 3102 C 290.933 -2.05895 0.249435 0
M  V30 3103 C 291.358 -1.52823 -1.09666 0
M  V30 3104 O 290.716 -0.659589 -1.68876 0
M  V30 3105 C 290.764 -3.59872 0.22904 0
M  V30 3106 O 289.868 -4.04708 -0.792784 0
M  V30 3107 H 289.209 -0.653206 0.119241 0
M  V30 3108 H 291.739 -1.80471 0.96391 0
M  V30 3109 H 291.749 -4.07951 0.0634791 0
M  V30 3110 H 290.424 -3.97866 1.21141 0
M  V30 3111 H 289.001 -3.68111 -0.59572 0
M  V30 3112 N 291.186 -0.45159 -1.50991 0
M  V30 3113 C 292.602 -0.104647 -1.59257 0
M  V30 3114 C 292.802 1.38728 -1.4614 0
M  V30 3115 O 291.858 2.15866 -1.30989 0
M  V30 3116 C 293.171 -0.637468 -2.93865 0
M  V30 3117 C 294.719 -0.599166 -3.07212 0
M  V30 3118 C 295.194 -1.1092 -4.44366 0
M  V30 3119 N 296.685 -1.06778 -4.50725 0
M  V30 3120 C 297.42 -1.43314 -5.55201 0
M  V30 3121 N 296.916 -1.87204 -6.67028 0
M  V30 3122 N 298.709 -1.3504 -5.45638 0
M  V30 3123 H 290.86 -1.42214 -1.57762 0
M  V30 3124 H 293.123 -0.586921 -0.744465 0
M  V30 3125 H 292.829 -1.68187 -3.08879 0
M  V30 3126 H 292.703 -0.0702139 -3.77135 0
M  V30 3127 H 295.09 0.436277 -2.91857 0
M  V30 3128 H 295.171 -1.20299 -2.25747 0
M  V30 3129 H 294.815 -2.14318 -4.60467 0
M  V30 3130 H 294.745 -0.481773 -5.24392 0
M  V30 3131 H 297.236 -0.745643 -3.70471 0
M  V30 3132 H 297.549 -2.13282 -7.42786 0
M  V30 3133 H 295.894 -1.91142 -6.68199 0
M  V30 3134 H 299.085 -1.00607 -4.57161 0
M  V30 3135 H 299.258 -1.63841 -6.26945 0
M  V30 3136 N 292.664 1.56529 -0.183458 0
M  V30 3137 C 293.611 2.18546 0.742055 0
M  V30 3138 C 294.581 1.12912 1.2182 0
M  V30 3139 O 295.766 1.41115 1.28418 0
M  V30 3140 C 292.906 2.83977 1.96089 0
M  V30 3141 C 292.019 4.04105 1.52719 0
M  V30 3142 C 291.154 4.57427 2.70063 0
M  V30 3143 C 290.193 5.69938 2.23243 0
M  V30 3144 N 289.33 6.17717 3.33722 0
M  V30 3145 H 294.17 2.97284 0.206432 0
M  V30 3146 H 291.707 1.46823 0.0901571 0
M  V30 3147 H 293.665 3.20077 2.67594 0
M  V30 3148 H 292.295 2.07822 2.47002 0
M  V30 3149 H 291.347 3.73745 0.708436 0
M  V30 3150 H 292.659 4.85513 1.1436 0
M  V30 3151 H 291.813 4.95772 3.49708 0
M  V30 3152 H 290.552 3.75101 3.11689 0
M  V30 3153 H 289.557 5.31133 1.42048 0
M  V30 3154 H 290.782 6.54073 1.82661 0
M  V30 3155 H 288.728 5.38317 3.74902 0
M  V30 3156 H 288.645 6.94146 2.99495 0
M  V30 3157 H 289.913 6.60713 4.13616 0
M  V30 3158 N 294.142 -0.090211 1.57342 0
M  V30 3159 C 295.391 -0.791531 1.8552 0
M  V30 3160 C 295.704 -1.79659 0.773441 0
M  V30 3161 O 296.91 -2.54616 0.942497 0
M  V30 3162 C 295.366 -1.45856 3.2902 0
M  V30 3163 C 294.974 -0.493017 4.45279 0
M  V30 3164 C 296.718 -2.14332 3.66418 0
M  V30 3165 C 294.625 -1.16491 5.79814 0
M  V30 3166 H 293.555 -0.299356 0.692027 0
M  V30 3167 H 296.206 -0.0445343 1.83446 0
M  V30 3168 H 294.588 -2.25318 3.2565 0
M  V30 3169 H 295.762 0.270464 4.60006 0
M  V30 3170 H 294.077 0.0863061 4.16311 0
M  V30 3171 H 296.674 -2.65344 4.64216 0
M  V30 3172 H 297.017 -2.93447 2.95287 0
M  V30 3173 H 297.55 -1.41724 3.71698 0
M  V30 3174 H 294.289 -0.41447 6.54188 0
M  V30 3175 H 293.809 -1.8997 5.68921 0
M  V30 3176 H 295.488 -1.69001 6.24538 0
M  V30 3177 N 295.62 -1.53406 -0.361157 0
M  V30 3178 C 296.845 -1.74024 -1.12829 0
M  V30 3179 C 297.27 -0.470069 -1.82132 0
M  V30 3180 O 296.628 0.57619 -1.719 0
M  V30 3181 C 296.676 -2.90903 -2.13091 0
M  V30 3182 O 295.78 -2.59821 -3.20261 0
M  V30 3183 H 295.121 -0.577804 -0.327168 0
M  V30 3184 H 297.651 -2.00307 -0.41693 0
M  V30 3185 H 297.661 -3.17194 -2.56616 0
M  V30 3186 H 296.336 -3.83034 -1.62042 0
M  V30 3187 H 294.913 -2.44362 -2.81677 0
M  V30 3188 N 297.098 0.621204 -1.44841 0
M  V30 3189 C 298.514 0.94048 -1.28946 0
M  V30 3190 C 298.714 2.00154 -0.23249 0
M  V30 3191 O 297.77 2.49651 0.378237 0
M  V30 3192 C 299.083 1.39433 -2.66419 0
M  V30 3193 C 300.631 1.50927 -2.74208 0
M  V30 3194 C 301.106 1.99692 -4.12174 0
M  V30 3195 N 302.597 2.06947 -4.144 0
M  V30 3196 C 303.332 2.45871 -5.1801 0
M  V30 3197 N 302.828 2.83862 -6.31977 0
M  V30 3198 N 304.621 2.46092 -5.05366 0
M  V30 3199 H 296.772 -0.0803548 -2.12248 0
M  V30 3200 H 299.035 0.0266913 -0.947624 0
M  V30 3201 H 298.741 0.688925 -3.44887 0
M  V30 3202 H 298.615 2.36347 -2.93973 0
M  V30 3203 H 301.002 2.20561 -1.96053 0
M  V30 3204 H 301.083 0.523627 -2.50383 0
M  V30 3205 H 300.727 1.30649 -4.90809 0
M  V30 3206 H 300.657 2.99146 -4.33381 0
M  V30 3207 H 303.148 1.80232 -3.32152 0
M  V30 3208 H 303.461 3.12405 -7.0684 0
M  V30 3209 H 301.806 2.8159 -6.35399 0
M  V30 3210 H 304.997 2.1581 -4.15384 0
M  V30 3211 H 305.17 2.76102 -5.86235 0
M  V30 3212 N 298.576 1.31904 0.862503 0
M  V30 3213 C 299.825 1.21373 1.61094 0
M  V30 3214 C 300.138 -0.22504 1.94301 0
M  V30 3215 O 301.344 -0.452121 2.67709 0
M  V30 3216 C 299.8 2.12525 2.9045 0
M  V30 3217 C 299.408 3.61441 2.64697 0
M  V30 3218 C 301.152 2.10813 3.68454 0
M  V30 3219 C 299.059 4.44578 3.90006 0
M  V30 3220 H 297.989 0.450705 0.604468 0
M  V30 3221 H 300.64 1.56811 0.953027 0
M  V30 3222 H 299.022 1.69994 3.57656 0
M  V30 3223 H 300.196 4.12264 2.05851 0
M  V30 3224 H 298.511 3.65205 2.00036 0
M  V30 3225 H 301.108 2.70167 4.61426 0
M  V30 3226 H 301.451 1.09713 4.01583 0
M  V30 3227 H 301.984 2.51583 3.08141 0
M  V30 3228 H 298.723 5.46461 3.62023 0
M  V30 3229 H 298.243 3.98508 4.48276 0
M  V30 3230 H 299.922 4.57176 4.5782 0
M  V30 3231 N 300.054 -1.07777 1.14986 0
M  V30 3232 C 301.301 -1.8029 0.922056 0
M  V30 3233 C 301.629 -1.86531 -0.55105 0
M  V30 3234 O 300.884 -1.34189 -1.42449 0
M  V30 3235 C 301.183 -3.25495 1.47608 0
M  V30 3236 C 300.849 -3.39361 2.96893 0
M  V30 3237 C 299.511 -3.42852 3.37647 0
M  V30 3238 C 301.863 -3.42512 3.92854 0
M  V30 3239 C 299.191 -3.47094 4.73015 0
M  V30 3240 C 301.543 -3.4829 5.28088 0
M  V30 3241 C 300.207 -3.50058 5.68345 0
M  V30 3242 H 299.477 -0.659727 0.337404 0
M  V30 3243 H 302.124 -1.26854 1.43459 0
M  V30 3244 H 300.429 -3.81683 0.88463 0
M  V30 3245 H 302.126 -3.80168 1.27568 0
M  V30 3246 H 298.716 -3.37339 2.64387 0
M  V30 3247 H 302.9 -3.3904 3.62444 0
M  V30 3248 H 298.156 -3.46758 5.03556 0
M  V30 3249 H 302.33 -3.49675 6.02246 0
M  V30 3250 H 299.957 -3.53097 6.73221 0
M  V30 3251 N 301.532 -0.945985 -1.26051 0
M  V30 3252 C 302.479 -0.45809 -2.26208 0
M  V30 3253 C 303.449 0.484816 -1.58867 0
M  V30 3254 O 304.634 0.399969 -1.86561 0
M  V30 3255 C 301.774 0.266131 -3.44072 0
M  V30 3256 C 300.887 -0.713005 -4.26075 0
M  V30 3257 C 300.022 0.0329013 -5.3119 0
M  V30 3258 C 299.061 -0.93774 -6.04874 0
M  V30 3259 N 298.198 -0.223274 -7.01745 0
M  V30 3260 H 303.038 -1.3171 -2.67313 0
M  V30 3261 H 300.575 -0.66069 -1.31428 0
M  V30 3262 H 302.533 0.702514 -4.11243 0
M  V30 3263 H 301.163 1.08925 -3.03867 0
M  V30 3264 H 300.215 -1.26789 -3.58648 0
M  V30 3265 H 301.527 -1.45406 -4.77136 0
M  V30 3266 H 300.681 0.528335 -6.04395 0
M  V30 3267 H 299.42 0.806801 -4.8098 0
M  V30 3268 H 298.425 -1.44425 -5.30492 0
M  V30 3269 H 299.65 -1.71172 -6.57173 0
M  V30 3270 H 297.596 0.532046 -6.53839 0
M  V30 3271 H 297.513 -0.90357 -7.50581 0
M  V30 3272 H 298.781 0.250907 -7.79096 0
M  V30 3273 N 303.011 1.40521 -0.713556 0
M  V30 3274 C 304.258 2.00923 -0.25219 0
M  V30 3275 C 304.586 1.56571 1.15395 0
M  V30 3276 O 303.841 0.775874 1.79663 0
M  V30 3277 C 304.14 3.56317 -0.278 0
M  V30 3278 C 303.806 4.20246 -1.63415 0
M  V30 3279 C 302.468 4.37422 -2.00538 0
M  V30 3280 C 304.82 4.55923 -2.52554 0
M  V30 3281 C 302.148 4.87558 -3.2635 0
M  V30 3282 C 304.5 5.07458 -3.77716 0
M  V30 3283 C 303.164 5.22843 -4.14959 0
M  V30 3284 H 302.434 0.735231 -0.0922829 0
M  V30 3285 H 305.081 1.68161 -0.916188 0
M  V30 3286 H 303.386 3.88976 0.469567 0
M  V30 3287 H 305.083 4.00883 0.0967819 0
M  V30 3288 H 301.673 4.07263 -1.33546 0
M  V30 3289 H 305.857 4.42291 -2.25149 0
M  V30 3290 H 301.113 4.97654 -3.55176 0
M  V30 3291 H 305.287 5.34041 -4.4696 0
M  V30 3292 H 302.914 5.61454 -5.12516 0
M  V30 3293 N 304.489 0.459591 1.5075 0
M  V30 3294 C 305.905 0.113092 1.59199 0
M  V30 3295 C 306.105 -1.37951 1.46874 0
M  V30 3296 O 305.161 -2.15168 1.32132 0
M  V30 3297 C 306.474 0.653043 2.93523 0
M  V30 3298 C 308.022 0.615449 3.0689 0
M  V30 3299 C 308.497 1.13275 4.43771 0
M  V30 3300 N 309.988 1.09167 4.50152 0
M  V30 3301 C 310.723 1.46256 5.54434 0
M  V30 3302 N 310.219 1.90739 6.66026 0
M  V30 3303 N 312.012 1.37932 5.44914 0
M  V30 3304 H 304.163 1.43049 1.57005 0
M  V30 3305 H 306.426 0.590861 0.741341 0
M  V30 3306 H 306.132 1.69822 3.07983 0
M  V30 3307 H 306.006 0.0902132 3.77092 0
M  V30 3308 H 308.393 -0.420793 2.92084 0
M  V30 3309 H 308.474 1.21495 2.25106 0
M  V30 3310 H 308.118 2.16757 4.59324 0
M  V30 3311 H 308.048 0.509576 5.24129 0
M  V30 3312 H 310.539 0.76528 3.7007 0
M  V30 3313 H 310.852 2.17218 7.41644 0
M  V30 3314 H 309.197 1.94683 6.67176 0
M  V30 3315 H 312.388 1.0303 4.56621 0
M  V30 3316 H 312.561 1.67164 6.26067 0
M  V30 3317 N 305.967 -1.56429 0.191757 0
M  V30 3318 C 307.215 -1.97095 -0.447006 0
M  V30 3319 C 307.536 -1.07967 -1.62383 0
M  V30 3320 O 306.806 -0.150248 -1.95323 0
M  V30 3321 H 305.386 -0.727832 -0.168135 0
M  V30 3322 H 308.048 -1.92911 0.27771 0
M  V30 3323 H 307.144 -3.01848 -0.793371 0
M  V30 3324 N 307.445 0.0818655 -1.57387 0
M  V30 3325 C 308.355 1.11642 -2.06333 0
M  V30 3326 C 309.371 1.43033 -0.99083 0
M  V30 3327 O 310.547 1.53411 -1.30488 0
M  V30 3328 C 307.612 2.41342 -2.48907 0
M  V30 3329 C 306.673 2.17014 -3.7041 0
M  V30 3330 C 305.906 3.4053 -4.10944 0
M  V30 3331 O 306.129 4.4927 -3.51444 0
M  V30 3332 O 305.063 3.29336 -5.03807 0
M  V30 3333 H 308.889 0.730657 -2.9478 0
M  V30 3334 H 306.474 0.295301 -1.46452 0
M  V30 3335 H 308.356 3.17691 -2.76858 0
M  V30 3336 H 307.031 2.79319 -1.63593 0
M  V30 3337 H 305.938 1.38403 -3.47556 0
M  V30 3338 H 307.271 1.83923 -4.56545 0
M  V30 3339 N 308.923 1.53595 0.353017 0
M  V30 3340 C 310.171 1.70049 1.09215 0
M  V30 3341 C 310.492 0.461406 1.89463 0
M  V30 3342 O 309.762 -0.524633 1.88744 0
M  V30 3343 H 308.342 0.626912 0.40619 0
M  V30 3344 H 311.004 1.90822 0.396585 0
M  V30 3345 H 310.1 2.56718 1.77488 0
M  V30 3346 N 310.401 -0.613514 1.45168 0
M  V30 3347 C 311.348 -1.72456 1.53387 0
M  V30 3348 C 312.318 -1.6169 0.380191 0
M  V30 3349 O 313.503 -1.81356 0.592836 0
M  V30 3350 C 310.643 -3.10753 1.50088 0
M  V30 3351 C 309.756 -3.32368 2.75963 0
M  V30 3352 C 308.891 -4.60737 2.64376 0
M  V30 3353 C 307.93 -4.7559 3.85332 0
M  V30 3354 N 307.067 -5.95253 3.72315 0
M  V30 3355 H 311.907 -1.64768 2.48305 0
M  V30 3356 H 309.444 -0.803503 1.23216 0
M  V30 3357 H 311.402 -3.90758 1.46164 0
M  V30 3358 H 310.032 -3.17413 0.587243 0
M  V30 3359 H 309.084 -2.4618 2.89999 0
M  V30 3360 H 310.396 -3.39218 3.65695 0
M  V30 3361 H 309.55 -5.48928 2.58385 0
M  V30 3362 H 308.289 -4.56275 1.72233 0
M  V30 3363 H 307.294 -3.85824 3.91688 0
M  V30 3364 H 308.519 -4.81854 4.78533 0
M  V30 3365 H 306.465 -5.91847 2.82937 0
M  V30 3366 H 306.382 -6.03236 4.55677 0
M  V30 3367 H 307.65 -6.85958 3.70246 0
M  V30 3368 N 311.879 -1.3236 -0.855495 0
M  V30 3369 C 312.842 -1.21164 -1.94556 0
M  V30 3370 C 313.842 -0.134908 -1.60233 0
M  V30 3371 O 315.032 -0.385249 -1.69887 0
M  V30 3372 C 312.164 -0.863192 -3.29791 0
M  V30 3373 H 313.357 -2.18038 -2.05911 0
M  V30 3374 H 310.91 -1.16179 -1.04557 0
M  V30 3375 H 311.645 0.103769 -3.24134 0
M  V30 3376 H 311.43 -1.64166 -3.56078 0
M  V30 3377 H 312.92 -0.809156 -4.09686 0
M  V30 3378 N 313.357 1.07166 -1.15556 0
M  V30 3379 C 314.603 1.80222 -0.942961 0
M  V30 3380 C 314.958 1.85121 0.524209 0
M  V30 3381 O 314.251 1.32531 1.38369 0
M  V30 3382 C 314.445 3.24707 -1.49332 0
M  V30 3383 C 314.274 3.33887 -3.01247 0
M  V30 3384 C 313.044 3.44337 -3.69811 0
M  V30 3385 C 315.242 3.24484 -3.99017 0
M  V30 3386 N 313.224 3.42439 -5.09518 0
M  V30 3387 C 314.595 3.29726 -5.25053 0
M  V30 3388 C 316.65 3.08307 -3.90962 0
M  V30 3389 C 315.353 3.20455 -6.43973 0
M  V30 3390 C 317.379 3.00371 -5.09442 0
M  V30 3391 C 316.741 3.06227 -6.34354 0
M  V30 3392 H 312.84 0.672709 -0.398731 0
M  V30 3393 H 315.424 1.27905 -1.46794 0
M  V30 3394 H 313.595 3.7544 -0.994946 0
M  V30 3395 H 315.327 3.85894 -1.21935 0
M  V30 3396 H 312.082 3.48762 -3.20409 0
M  V30 3397 H 312.506 3.45013 -5.8249 0
M  V30 3398 H 317.148 3.02633 -2.95251 0
M  V30 3399 H 314.866 3.24888 -7.39914 0
M  V30 3400 H 318.452 2.88955 -5.04971 0
M  V30 3401 H 317.332 3.00132 -7.24493 0
M  V30 3402 N 314.835 0.952656 1.25548 0
M  V30 3403 C 316.112 0.523818 1.88456 0
M  V30 3404 C 316.492 -0.998871 1.85973 0
M  V30 3405 O 315.84 -1.86381 1.3219 0
M  V30 3406 C 316.05 1.0982 3.31271 0
M  V30 3407 C 317.398 1.17385 4.08051 0
M  V30 3408 O 318.422 1.04961 3.40384 0
M  V30 3409 O 317.281 1.36852 5.29088 0
M  V30 3410 H 314.375 0.172485 0.808813 0
M  V30 3411 H 316.921 1.04596 1.33633 0
M  V30 3412 H 315.693 2.1415 3.27499 0
M  V30 3413 H 315.316 0.559191 3.93648 0
M  V30 3414 N 316.313 -1.40141 0.720998 0
M  V30 3415 C 317.559 -2.01572 0.272075 0
M  V30 3416 C 317.914 -1.5616 -1.12391 0
M  V30 3417 O 317.207 -0.774198 -1.75262 0
M  V30 3418 C 317.401 -3.56165 0.296892 0
M  V30 3419 C 317.23 -4.16584 1.69375 0
M  V30 3420 C 316 -4.49783 2.30269 0
M  V30 3421 C 318.198 -4.41076 2.64493 0
M  V30 3422 N 316.18 -4.95626 3.62254 0
M  V30 3423 C 317.551 -4.88971 3.81192 0
M  V30 3424 C 319.606 -4.23122 2.62435 0
M  V30 3425 C 318.309 -5.20796 4.96149 0
M  V30 3426 C 320.335 -4.56052 3.76524 0
M  V30 3427 C 319.697 -5.04141 4.91956 0
M  V30 3428 H 315.796 -0.768343 0.145511 0
M  V30 3429 H 318.38 -1.70287 0.943959 0
M  V30 3430 H 316.551 -3.86868 -0.344578 0
M  V30 3431 H 318.283 -4.04346 -0.169254 0
M  V30 3432 H 315.038 -4.37101 1.82318 0
M  V30 3433 H 315.462 -5.22923 4.29977 0
M  V30 3434 H 320.104 -3.85158 1.74393 0
M  V30 3435 H 317.822 -5.57672 5.84831 0
M  V30 3436 H 321.408 -4.43796 3.76213 0
M  V30 3437 H 320.288 -5.29142 5.78774 0
M  V30 3438 N 317.792 -0.46758 -1.50504 0
M  V30 3439 C 318.702 0.33382 -2.32213 0
M  V30 3440 C 319.718 0.999323 -1.42441 0
M  V30 3441 O 320.894 0.988068 -1.75497 0
M  V30 3442 C 317.959 1.4035 -3.17022 0
M  V30 3443 C 317.02 0.754961 -4.2261 0
M  V30 3444 C 316.253 1.77367 -5.03365 0
M  V30 3445 O 316.476 2.99976 -4.8515 0
M  V30 3446 O 315.41 1.34744 -5.86624 0
M  V30 3447 H 319.236 -0.334067 -3.01857 0
M  V30 3448 H 316.821 -0.229496 -1.47627 0
M  V30 3449 H 318.703 2.02318 -3.69656 0
M  V30 3450 H 317.378 2.05492 -2.5011 0
M  V30 3451 H 316.285 0.0964244 -3.73976 0
M  V30 3452 H 317.618 0.146545 -4.91982 0
M  V30 3453 N 319.27 1.56325 -0.20005 0
M  V30 3454 C 320.516 1.98012 0.438059 0
M  V30 3455 C 320.849 1.08702 1.60927 0
M  V30 3456 O 320.124 0.140064 1.93995 0
M  V30 3457 C 320.407 3.48841 0.893419 0
M  V30 3458 C 320.26 4.48928 -0.279947 0
M  V30 3459 C 321.579 4.03498 1.75719 0
M  V30 3460 H 318.698 0.719918 0.157757 0
M  V30 3461 H 321.34 1.87743 -0.291968 0
M  V30 3462 H 319.49 3.57723 1.51547 0
M  V30 3463 H 321.162 4.52079 -0.91772 0
M  V30 3464 H 319.405 4.23694 -0.930919 0
M  V30 3465 H 320.076 5.5194 0.0812601 0
M  V30 3466 H 322.552 3.97427 1.23253 0
M  V30 3467 H 321.428 5.09393 2.04476 0
M  V30 3468 H 321.689 3.4906 2.71311 0
M  V30 3469 N 320.748 -0.0735177 1.57428 0
M  V30 3470 C 321.973 -0.789787 1.91774 0
M  V30 3471 C 322.398 -1.70413 0.796306 0
M  V30 3472 O 321.756 -1.79555 -0.250961 0
M  V30 3473 C 321.804 -1.5609 3.25067 0
M  V30 3474 O 320.908 -2.67144 3.14178 0
M  V30 3475 H 320.249 -0.215582 0.628029 0
M  V30 3476 H 322.779 -0.0422781 2.04556 0
M  V30 3477 H 322.789 -1.94052 3.58898 0
M  V30 3478 H 321.464 -0.890015 4.06265 0
M  V30 3479 H 320.041 -2.32052 2.91901 0
M  V30 3480 N 322.226 -1.5378 -0.344866 0
M  V30 3481 C 323.451 -1.75211 -1.10977 0
M  V30 3482 C 323.876 -0.48936 -1.81623 0
M  V30 3483 O 323.234 0.557925 -1.72502 0
M  V30 3484 C 323.282 -2.93147 -2.09993 0
M  V30 3485 O 322.386 -2.63203 -3.17487 0
M  V30 3486 H 321.727 -0.581241 -0.321021 0
M  V30 3487 H 324.257 -2.00738 -0.395661 0
M  V30 3488 H 324.267 -3.19898 -2.53237 0
M  V30 3489 H 322.942 -3.84731 -1.5797 0
M  V30 3490 H 321.519 -2.47336 -2.79069 0
M  V30 3491 N 323.704 0.605807 -1.45491 0
M  V30 3492 C 324.614 1.74466 -1.56839 0
M  V30 3493 C 325.63 1.68006 -0.452772 0
M  V30 3494 O 326.806 1.8833 -0.713708 0
M  V30 3495 C 323.871 3.10931 -1.53371 0
M  V30 3496 C 322.932 3.28832 -2.75986 0
M  V30 3497 C 322.165 4.58787 -2.72673 0
M  V30 3498 O 322.388 5.4122 -1.80102 0
M  V30 3499 O 321.322 4.79438 -3.63899 0
M  V30 3500 H 325.148 1.67843 -2.53106 0
M  V30 3501 H 322.733 0.770108 -1.28022 0
M  V30 3502 H 324.615 3.92233 -1.54051 0
M  V30 3503 H 323.29 3.18042 -0.602572 0
M  V30 3504 H 322.197 2.47112 -2.80867 0
M  V30 3505 H 323.53 3.26599 -3.68231 0
M  V30 3506 N 325.182 1.32811 0.848464 0
M  V30 3507 C 326.13 1.22231 1.97895 0
M  V30 3508 C 327.124 0.125749 1.68933 0
M  V30 3509 O 328.33 0.289083 1.77663 0
M  V30 3510 H 324.705 0.379058 0.649476 0
M  V30 3511 H 326.676 2.17828 2.03945 0
M  V30 3512 C 325.425 0.968572 3.33937 0
M  V30 3513 H 324.748 1.80458 3.56756 0
M  V30 3514 H 326.188 0.934808 4.13567 0
M  V30 3515 C 324.647 -0.328628 3.35293 0
M  V30 3516 O 325.177 -1.33848 3.78745 0
M  V30 3517 N 323.383 -0.352788 2.88451 0
M  V30 3518 H 322.93 0.469541 2.53285 0
M  V30 3519 H 322.888 -1.22057 2.89741 0
M  V30 3520 N 326.66 -1.06551 1.16123 0
M  V30 3521 C 327.908 -1.78947 0.939267 0
M  V30 3522 C 328.229 -1.87532 -0.534476 0
M  V30 3523 O 327.499 -1.38211 -1.38833 0
M  V30 3524 H 326.079 -0.662807 0.344523 0
M  V30 3525 H 328.741 -1.28725 1.46342 0
M  V30 3526 H 327.837 -2.81117 1.35572 0
M  V30 3527 N 328.138 -0.959301 -1.25041 0
M  V30 3528 C 329.086 -0.474437 -2.2771 0
M  V30 3529 C 330.08 0.457697 -1.631 0
M  V30 3530 O 331.286 0.333912 -1.76876 0
M  V30 3531 H 327.661 -0.134936 -0.739795 0
M  V30 3532 H 329.632 -1.35251 -2.65988 0
M  V30 3533 C 328.381 0.227884 -3.46952 0
M  V30 3534 H 327.704 -0.480248 -3.96905 0
M  V30 3535 H 329.144 0.531091 -4.20661 0
M  V30 3536 C 327.603 1.452 -3.04004 0
M  V30 3537 O 328.133 2.54949 -3.10426 0
M  V30 3538 N 326.339 1.31502 -2.59144 0
M  V30 3539 H 325.886 0.422065 -2.54119 0
M  V30 3540 H 325.844 2.13521 -2.30773 0
M  V30 3541 N 329.616 1.39756 -0.72842 0
M  V30 3542 C 330.846 2.04651 -0.283117 0
M  V30 3543 C 331.254 1.5502 1.08469 0
M  V30 3544 O 330.597 0.707343 1.69536 0
M  V30 3545 C 330.659 3.58947 -0.199309 0
M  V30 3546 C 330.323 4.31525 -1.5045 0
M  V30 3547 C 331.32 4.5861 -2.44894 0
M  V30 3548 C 329.005 4.70195 -1.76698 0
M  V30 3549 C 330.999 5.23366 -3.63822 0
M  V30 3550 C 328.686 5.3468 -2.95906 0
M  V30 3551 C 329.684 5.61198 -3.89289 0
M  V30 3552 O 329.372 6.24347 -5.06404 0
M  V30 3553 H 329.104 0.664777 -0.122666 0
M  V30 3554 H 331.658 1.79913 -0.990987 0
M  V30 3555 H 329.888 3.82556 0.56461 0
M  V30 3556 H 331.577 4.0534 0.213125 0
M  V30 3557 H 332.343 4.29187 -2.25883 0
M  V30 3558 H 328.222 4.48916 -1.04859 0
M  V30 3559 H 331.766 5.4398 -4.36728 0
M  V30 3560 H 327.663 5.63524 -3.14819 0
M  V30 3561 H 328.431 6.42842 -5.06652 0
M  V30 3562 N 331.094 0.475555 1.50254 0
M  V30 3563 C 332.371 -0.139685 1.95101 0
M  V30 3564 C 332.751 -1.56555 1.41611 0
M  V30 3565 O 332.099 -2.19956 0.618993 0
M  V30 3566 C 332.309 -0.0784298 3.48912 0
M  V30 3567 C 333.657 -0.265095 4.23772 0
M  V30 3568 O 334.681 -0.154808 3.55863 0
M  V30 3569 O 333.54 -0.488327 5.44314 0
M  V30 3570 H 330.634 -0.109236 0.819754 0
M  V30 3571 H 333.18 0.536276 1.61004 0
M  V30 3572 H 331.952 0.916918 3.80405 0
M  V30 3573 H 331.575 -0.795655 3.89558 0
M  V30 3574 N 332.573 -1.56217 0.208337 0
M  V30 3575 C 333.803 -2.02043 -0.431523 0
M  V30 3576 C 334.211 -1.08755 -1.54819 0
M  V30 3577 O 333.554 -0.0870009 -1.83494 0
M  V30 3578 C 333.616 -3.44239 -1.03633 0
M  V30 3579 C 333.28 -4.56965 -0.0567502 0
M  V30 3580 C 334.277 -5.14624 0.738773 0
M  V30 3581 C 331.962 -5.02266 0.0581736 0
M  V30 3582 C 333.956 -6.16045 1.63605 0
M  V30 3583 C 331.643 -6.03528 0.959001 0
M  V30 3584 C 332.641 -6.60293 1.7465 0
M  V30 3585 O 332.329 -7.59586 2.6322 0
M  V30 3586 H 332.061 -0.666772 -0.111313 0
M  V30 3587 H 334.615 -2.02919 0.318277 0
M  V30 3588 H 332.845 -3.40391 -1.83497 0
M  V30 3589 H 334.534 -3.73793 -1.58221 0
M  V30 3590 H 335.3 -4.80483 0.660364 0
M  V30 3591 H 331.179 -4.57771 -0.544633 0
M  V30 3592 H 334.723 -6.60279 2.25116 0
M  V30 3593 H 330.62 -6.37092 1.03848 0
M  V30 3594 H 331.388 -7.77057 2.57148 0
M  V30 3595 N 334.051 0.0651679 -1.57465 0
M  V30 3596 C 334.981 1.07693 -2.07182 0
M  V30 3597 C 335.962 1.39962 -0.966673 0
M  V30 3598 O 337.147 1.49475 -1.2398 0
M  V30 3599 C 334.277 2.3885 -2.52127 0
M  V30 3600 C 333.231 2.20917 -3.66579 0
M  V30 3601 C 332.557 3.57515 -3.97601 0
M  V30 3602 C 333.857 1.62493 -4.9638 0
M  V30 3603 H 335.551 0.663199 -2.91962 0
M  V30 3604 H 333.097 0.317569 -1.40455 0
M  V30 3605 H 335.05 3.09928 -2.85522 0
M  V30 3606 H 333.774 2.82215 -1.64384 0
M  V30 3607 H 332.433 1.52279 -3.33477 0
M  V30 3608 H 332.081 3.98463 -3.06979 0
M  V30 3609 H 331.781 3.46353 -4.74672 0
M  V30 3610 H 333.305 4.30013 -4.33499 0
M  V30 3611 H 334.719 2.23445 -5.27963 0
M  V30 3612 H 333.116 1.62009 -5.77818 0
M  V30 3613 H 334.186 0.587041 -4.81333 0
M  V30 3614 N 335.529 1.53961 0.336706 0
M  V30 3615 C 336.462 1.77255 1.43722 0
M  V30 3616 C 337.44 0.62193 1.50236 0
M  V30 3617 O 338.624 0.857874 1.67847 0
M  V30 3618 C 335.751 1.87733 2.81912 0
M  V30 3619 C 334.797 3.09933 2.92991 0
M  V30 3620 S 335.63 4.68836 2.58753 0
M  V30 3621 C 336.786 4.82202 3.99039 0
M  V30 3622 H 337.019 2.70322 1.23748 0
M  V30 3623 H 334.552 1.44917 0.532777 0
M  V30 3624 H 336.51 1.94455 3.61521 0
M  V30 3625 H 335.171 0.956666 2.99177 0
M  V30 3626 H 334.364 3.1396 3.94265 0
M  V30 3627 H 333.966 3.01472 2.21338 0
M  V30 3628 H 336.258 4.64032 4.9364 0
M  V30 3629 H 337.201 5.84298 4.00002 0
M  V30 3630 H 337.609 4.10604 3.87382 0
M  V30 3631 N 337.007 -0.598083 1.45811 0
M  V30 3632 C 338.237 -1.38121 1.53643 0
M  V30 3633 C 338.645 -1.88425 0.171081 0
M  V30 3634 O 337.988 -1.63409 -0.839237 0
M  V30 3635 C 338.05 -2.61432 2.46766 0
M  V30 3636 C 337.714 -2.32702 3.93318 0
M  V30 3637 C 338.711 -1.92479 4.82957 0
M  V30 3638 C 336.396 -2.45321 4.38318 0
M  V30 3639 C 338.39 -1.65248 6.15607 0
M  V30 3640 C 336.077 -2.17703 5.71007 0
M  V30 3641 C 337.075 -1.7773 6.5947 0
M  V30 3642 O 336.763 -1.50441 7.89698 0
M  V30 3643 H 336.495 -0.428863 0.522544 0
M  V30 3644 H 339.049 -0.73557 1.91777 0
M  V30 3645 H 337.279 -3.28749 2.0362 0
M  V30 3646 H 338.968 -3.23487 2.45175 0
M  V30 3647 H 339.734 -1.82258 4.49452 0
M  V30 3648 H 335.613 -2.75399 3.69697 0
M  V30 3649 H 339.157 -1.33973 6.84614 0
M  V30 3650 H 335.054 -2.27544 6.04065 0
M  V30 3651 H 335.822 -1.64415 8.01817 0
M  V30 3652 N 338.485 -1.33259 -0.841409 0
M  V30 3653 C 339.448 -1.23221 -1.9326 0
M  V30 3654 C 340.448 -0.151895 -1.60081 0
M  V30 3655 O 341.638 -0.403246 -1.69468 0
M  V30 3656 C 338.77 -0.898123 -3.28856 0
M  V30 3657 H 339.963 -2.2021 -2.03587 0
M  V30 3658 H 337.516 -1.17281 -1.03319 0
M  V30 3659 H 338.251 0.0693841 -3.24226 0
M  V30 3660 H 338.036 -1.67934 -3.54317 0
M  V30 3661 H 339.526 -0.852563 -4.08805 0
M  V30 3662 N 339.963 1.05934 -1.16686 0
M  V30 3663 C 341.24 1.75643 -0.860747 0
M  V30 3664 C 341.62 2.01144 0.640641 0
M  V30 3665 O 340.968 1.64147 1.58959 0
M  V30 3666 C 341.178 3.05493 -1.68745 0
M  V30 3667 C 342.526 3.79581 -1.90271 0
M  V30 3668 O 343.55 3.15344 -1.65641 0
M  V30 3669 O 342.409 4.9499 -2.31618 0
M  V30 3670 H 339.503 0.763426 -0.317977 0
M  V30 3671 H 342.049 1.1217 -1.27342 0
M  V30 3672 H 340.821 2.8264 -2.70611 0
M  V30 3673 H 340.444 3.76702 -1.27206 0
M  V30 3674 N 341.441 0.965919 1.2453 0
M  V30 3675 C 342.687 0.62776 1.92839 0
M  V30 3676 C 343.02 -0.834694 1.75347 0
M  V30 3677 O 342.295 -1.60031 1.10546 0
M  V30 3678 C 342.578 1.00109 3.45905 0
M  V30 3679 C 342.431 2.52011 3.72573 0
M  V30 3680 C 343.75 0.53435 4.36844 0
M  V30 3681 H 340.869 0.229537 0.700344 0
M  V30 3682 H 343.511 1.2046 1.46933 0
M  V30 3683 H 341.661 0.510238 3.85135 0
M  V30 3684 H 343.333 3.08559 3.42912 0
M  V30 3685 H 341.576 2.95287 3.17786 0
M  V30 3686 H 342.247 2.73183 4.79661 0
M  V30 3687 H 344.723 0.955565 4.04979 0
M  V30 3688 H 343.599 0.824152 5.42678 0
M  V30 3689 H 343.86 -0.565589 4.38467 0
M  V30 3690 N 342.919 -1.39368 0.735821 0
M  V30 3691 C 344.196 -1.94465 0.210395 0
M  V30 3692 C 344.576 -1.67254 -1.28799 0
M  V30 3693 O 343.924 -1.00123 -2.05396 0
M  V30 3694 C 344.134 -3.4472 0.544897 0
M  V30 3695 C 345.482 -4.21708 0.494689 0
M  V30 3696 O 346.506 -3.52922 0.482136 0
M  V30 3697 O 345.365 -5.44299 0.489947 0
M  V30 3698 H 342.459 -0.826096 0.0386666 0
M  V30 3699 H 345.005 -1.48863 0.814735 0
M  V30 3700 H 343.777 -3.57963 1.58045 0
M  V30 3701 H 343.4 -3.97502 -0.08837 0
M  V30 3702 N 344.397 -0.483516 -1.5 0
M  V30 3703 C 345.627 0.0643896 -2.065 0
M  V30 3704 C 346.035 1.32949 -1.34615 0
M  V30 3705 O 345.378 1.79003 -0.412756 0
M  V30 3706 C 345.44 0.405983 -3.572 0
M  V30 3707 C 345.104 -0.758875 -4.50655 0
M  V30 3708 C 346.101 -1.64445 -4.93208 0
M  V30 3709 C 343.786 -0.952725 -4.93182 0
M  V30 3710 C 345.78 -2.70818 -5.77006 0
M  V30 3711 C 343.467 -2.01966 -5.76761 0
M  V30 3712 C 344.465 -2.89574 -6.18576 0
M  V30 3713 O 344.153 -3.94429 -7.00486 0
M  V30 3714 H 343.885 -0.00934786 -0.675935 0
M  V30 3715 H 346.439 -0.674959 -1.93993 0
M  V30 3716 H 344.669 1.19869 -3.67652 0
M  V30 3717 H 346.358 0.890433 -3.96013 0
M  V30 3718 H 347.124 -1.50643 -4.61012 0
M  V30 3719 H 343.003 -0.280247 -4.60147 0
M  V30 3720 H 346.547 -3.3923 -6.09565 0
M  V30 3721 H 342.444 -2.1577 -6.0837 0
M  V30 3722 H 343.212 -3.91568 -7.1876 0
M  V30 3723 N 345.875 1.56104 -0.216619 0
M  V30 3724 C 347.152 1.89988 0.465165 0
M  V30 3725 C 347.532 1.13326 1.78102 0
M  V30 3726 O 346.88 0.241033 2.27225 0
M  V30 3727 C 347.09 3.42646 0.662939 0
M  V30 3728 C 348.438 4.13311 0.972602 0
M  V30 3729 O 349.462 3.48217 0.749901 0
M  V30 3730 O 348.321 5.28396 1.39499 0
M  V30 3731 H 345.415 0.78979 0.245276 0
M  V30 3732 H 347.961 1.67721 -0.258436 0
M  V30 3733 H 346.733 3.90399 -0.26543 0
M  V30 3734 H 346.356 3.70677 1.43821 0
M  V30 3735 N 347.353 -0.0568162 1.57498 0
M  V30 3736 C 348.303 -1.07315 2.01166 0
M  V30 3737 C 349.287 -1.33632 0.896171 0
M  V30 3738 O 350.479 -1.33682 1.16009 0
M  V30 3739 C 347.608 -2.38257 2.47161 0
M  V30 3740 C 346.694 -2.1515 3.65474 0
M  V30 3741 N 347.085 -1.62014 4.7915 0
M  V30 3742 C 345.383 -2.45559 3.72313 0
M  V30 3743 C 346.084 -1.54069 5.60926 0
M  V30 3744 N 345.06 -2.00652 5.05213 0
M  V30 3745 H 348.862 -0.655878 2.86488 0
M  V30 3746 H 346.376 -0.263635 1.60246 0
M  V30 3747 H 348.373 -3.11845 2.76691 0
M  V30 3748 H 347.033 -2.80687 1.63232 0
M  V30 3749 H 348.044 -1.30667 5.01145 0
M  V30 3750 H 344.721 -2.91253 2.99129 0
M  V30 3751 H 346.111 -1.13712 6.62208 0
M  V30 3752 N 348.832 -1.54138 -0.328536 0
M  V30 3753 C 350.243 -1.63395 -0.903272 0
M  V30 3754 C 350.594 -0.524828 -1.8905 0
M  V30 3755 O 349.719 0.343068 -2.13663 0
M  V30 3756 C 350.314 -2.9618 -1.64507 0
M  V30 3757 C 348.873 -3.0765 -2.1686 0
M  V30 3758 C 348.02 -2.58933 -0.992416 0
M  V30 3759 H 350.971 -1.58344 -0.106253 0
M  V30 3760 H 350.992 -2.86061 -2.50897 0
M  V30 3761 H 350.504 -3.76884 -0.926302 0
M  V30 3762 H 348.605 -2.31611 -2.91868 0
M  V30 3763 H 348.718 -4.1337 -2.42202 0
M  V30 3764 H 347.082 -2.14706 -1.37016 0
M  V30 3765 H 347.865 -3.42089 -0.288041 0
M  V30 3766 N 350.31 0.590341 -1.46126 0
M  V30 3767 C 351.587 1.35029 -1.41515 0
M  V30 3768 C 351.967 2.10888 -0.0946472 0
M  V30 3769 O 351.315 2.08998 0.923693 0
M  V30 3770 C 351.525 2.28269 -2.63997 0
M  V30 3771 C 352.873 2.90338 -3.09821 0
M  V30 3772 O 353.897 2.38585 -2.64492 0
M  V30 3773 O 352.756 3.84321 -3.88535 0
M  V30 3774 H 349.85 0.606317 -0.562413 0
M  V30 3775 H 352.396 0.611994 -1.58281 0
M  V30 3776 H 351.168 1.71591 -3.51671 0
M  V30 3777 H 350.791 3.0945 -2.49652 0
M  V30 3778 N 351.788 1.33704 0.83433 0
M  V30 3779 C 353.034 1.25603 1.59222 0
M  V30 3780 C 353.367 -0.176659 1.93395 0
M  V30 3781 O 352.642 -1.11915 1.59076 0
M  V30 3782 C 352.925 2.13576 2.89926 0
M  V30 3783 C 352.778 3.65326 2.62406 0
M  V30 3784 C 354.097 2.01238 3.91397 0
M  V30 3785 H 351.216 0.457613 0.577719 0
M  V30 3786 H 353.858 1.63848 0.961972 0
M  V30 3787 H 352.008 1.8109 3.43713 0
M  V30 3788 H 353.68 4.08124 2.15017 0
M  V30 3789 H 351.923 3.8698 1.96033 0
M  V30 3790 H 352.594 4.22232 3.55562 0
M  V30 3791 H 355.07 2.29738 3.46929 0
M  V30 3792 H 353.946 2.65036 4.80673 0
M  V30 3793 H 354.207 0.985951 4.30966 0
M  V30 3794 N 353.266 -1.05314 1.17247 0
M  V30 3795 C 354.512 -1.78557 0.961513 0
M  V30 3796 C 354.845 -1.87419 -0.508697 0
M  V30 3797 O 354.12 -1.37307 -1.37757 0
M  V30 3798 C 354.403 -3.22514 1.60176 0
M  V30 3799 C 354.256 -3.21673 3.14399 0
M  V30 3800 C 355.575 -4.20318 1.30463 0
M  V30 3801 H 352.694 -0.6482 0.350723 0
M  V30 3802 H 355.336 -1.23102 1.44727 0
M  V30 3803 H 353.486 -3.69867 1.18871 0
M  V30 3804 H 355.158 -2.82405 3.64753 0
M  V30 3805 H 353.401 -2.60048 3.47214 0
M  V30 3806 H 354.072 -4.23271 3.54324 0
M  V30 3807 H 356.548 -3.81454 1.66229 0
M  V30 3808 H 355.424 -5.19289 1.77848 0
M  V30 3809 H 355.685 -4.41526 0.22521 0
M  V30 3810 N 354.744 -0.972509 -1.24016 0
M  V30 3811 C 355.707 -0.511403 -2.23422 0
M  V30 3812 C 356.707 0.394679 -1.55881 0
M  V30 3813 O 357.897 0.189469 -1.73167 0
M  V30 3814 C 355.029 0.258769 -3.39916 0
M  V30 3815 H 356.222 -1.39024 -2.6573 0
M  V30 3816 H 353.775 -0.757585 -1.36713 0
M  V30 3817 H 354.51 1.1545 -3.03054 0
M  V30 3818 H 354.295 -0.391522 -3.9014 0
M  V30 3819 H 355.785 0.570244 -4.13688 0
M  V30 3820 N 356.222 1.38976 -0.743202 0
M  V30 3821 C 357.132 2.3434 -0.110399 0
M  V30 3822 C 358.148 1.58741 0.712559 0
M  V30 3823 O 359.324 1.9099 0.639125 0
M  V30 3824 C 356.389 3.37812 0.780012 0
M  V30 3825 C 355.45 4.29263 -0.0561319 0
M  V30 3826 C 354.683 5.27793 0.791875 0
M  V30 3827 O 354.906 5.33043 2.03031 0
M  V30 3828 O 353.84 6.01512 0.216183 0
M  V30 3829 H 357.666 2.90129 -0.897714 0
M  V30 3830 H 355.251 1.40643 -0.503966 0
M  V30 3831 H 357.133 4.01194 1.28923 0
M  V30 3832 H 355.808 2.84395 1.546 0
M  V30 3833 H 354.715 3.69076 -0.611056 0
M  V30 3834 H 356.048 4.85907 -0.784531 0
M  V30 3835 N 357.7 0.491464 1.49741 0
M  V30 3836 C 358.928 -0.0535151 2.06831 0
M  V30 3837 C 359.343 -1.31683 1.35296 0
M  V30 3838 O 358.7 -1.77402 0.42836 0
M  V30 3839 C 358.751 -0.320835 3.60073 0
M  V30 3840 O 358.472 0.892394 4.28915 0
M  V30 3841 C 359.973 -0.910519 4.33848 0
M  V30 3842 H 357.193 0.0161909 0.670805 0
M  V30 3843 H 359.737 0.68609 1.92647 0
M  V30 3844 H 357.892 -1.0104 3.73991 0
M  V30 3845 H 358.306 0.649401 5.20464 0
M  V30 3846 H 359.78 -1.04721 5.41976 0
M  V30 3847 H 360.257 -1.90589 3.95692 0
M  V30 3848 H 360.863 -0.258712 4.24512 0
M  V30 3849 N 359.178 -1.55987 0.224894 0
M  V30 3850 C 360.125 -2.20436 -0.68385 0
M  V30 3851 C 361.095 -1.16102 -1.18783 0
M  V30 3852 O 362.28 -1.4447 -1.24632 0
M  V30 3853 C 359.42 -2.89076 -1.88491 0
M  V30 3854 C 358.533 -4.08012 -1.41951 0
M  V30 3855 C 357.668 -4.64426 -2.5784 0
M  V30 3856 C 356.707 -5.75656 -2.08053 0
M  V30 3857 N 355.844 -6.26347 -3.17227 0
M  V30 3858 H 360.684 -2.97727 -0.12754 0
M  V30 3859 H 358.221 -1.47011 -0.0511978 0
M  V30 3860 H 360.179 -3.27059 -2.59014 0
M  V30 3861 H 358.809 -2.14298 -2.41405 0
M  V30 3862 H 357.861 -3.75492 -0.609095 0
M  V30 3863 H 359.173 -4.88375 -1.01447 0
M  V30 3864 H 358.327 -5.04869 -3.3644 0
M  V30 3865 H 357.066 -3.83233 -3.01635 0
M  V30 3866 H 356.071 -5.34712 -1.27916 0
M  V30 3867 H 357.296 -6.58686 -1.65255 0
M  V30 3868 H 355.242 -5.48067 -3.60497 0
M  V30 3869 H 355.159 -7.01843 -2.80986 0
M  V30 3870 H 356.427 -6.71447 -3.95953 0
M  V30 3871 N 360.656 0.0484629 -1.57525 0
M  V30 3872 C 361.603 1.05504 -2.05275 0
M  V30 3873 C 362.573 1.37084 -0.937927 0
M  V30 3874 O 363.758 1.47754 -1.2072 0
M  V30 3875 C 360.898 2.35676 -2.52093 0
M  V30 3876 C 360.011 2.10423 -3.77288 0
M  V30 3877 C 359.146 3.34327 -4.12794 0
M  V30 3878 C 358.185 3.04542 -5.30962 0
M  V30 3879 N 357.322 4.20841 -5.61994 0
M  V30 3880 H 362.162 0.640885 -2.91027 0
M  V30 3881 H 359.699 0.304854 -1.43906 0
M  V30 3882 H 361.657 3.11709 -2.77297 0
M  V30 3883 H 360.287 2.7485 -1.69285 0
M  V30 3884 H 359.339 1.24976 -3.59284 0
M  V30 3885 H 360.651 1.84438 -4.63448 0
M  V30 3886 H 359.805 4.1874 -4.39024 0
M  V30 3887 H 358.544 3.63408 -3.25247 0
M  V30 3888 H 357.549 2.18528 -5.04505 0
M  V30 3889 H 358.774 2.76758 -6.20146 0
M  V30 3890 H 356.72 4.4991 -4.77406 0
M  V30 3891 H 356.637 3.98212 -6.42622 0
M  V30 3892 H 357.905 5.06184 -5.92789 0
M  V30 3893 N 362.134 1.5431 0.320358 0
M  V30 3894 C 363.38 1.73859 1.05568 0
M  V30 3895 C 363.735 0.507807 1.85578 0
M  V30 3896 O 363.028 -0.499789 1.84967 0
M  V30 3897 C 363.222 2.95639 2.00828 0
M  V30 3898 C 363.051 4.30444 1.30186 0
M  V30 3899 C 361.821 4.94544 1.03703 0
M  V30 3900 C 364.019 5.0929 0.716138 0
M  V30 3901 N 362.001 6.13172 0.298846 0
M  V30 3902 C 363.372 6.19903 0.109729 0
M  V30 3903 C 365.427 4.94034 0.619269 0
M  V30 3904 C 364.13 7.16924 -0.584153 0
M  V30 3905 C 366.156 5.91369 -0.0609184 0
M  V30 3906 C 365.518 7.01336 -0.656258 0
M  V30 3907 H 361.617 0.688988 0.36989 0
M  V30 3908 H 364.201 1.9177 0.336494 0
M  V30 3909 H 362.372 2.79188 2.70016 0
M  V30 3910 H 364.104 3.03802 2.6737 0
M  V30 3911 H 360.859 4.54536 1.33019 0
M  V30 3912 H 361.283 6.76977 -0.0561964 0
M  V30 3913 H 365.925 4.0916 1.06526 0
M  V30 3914 H 363.643 8.01354 -1.04197 0
M  V30 3915 H 367.229 5.81642 -0.135552 0
M  V30 3916 H 366.109 7.75359 -1.17423 0
M  V30 3917 N 363.613 -0.582584 1.46437 0
M  V30 3918 C 364.861 -1.33814 1.51453 0
M  V30 3919 C 365.182 -1.94277 0.167792 0
M  V30 3920 O 364.452 -1.78566 -0.805677 0
M  V30 3921 H 363.032 -0.496838 0.557818 0
M  V30 3922 H 365.694 -0.682281 1.82568 0
M  V30 3923 H 364.79 -2.14479 2.26728 0
M  V30 3924 N 365.091 -1.34144 -0.827227 0
M  V30 3925 C 366.34 -1.25602 -1.5782 0
M  V30 3926 C 366.653 0.173445 -1.94829 0
M  V30 3927 O 367.859 0.380984 -2.68814 0
M  V30 3928 C 366.315 -2.20151 -2.84713 0
M  V30 3929 C 365.923 -3.68331 -2.55021 0
M  V30 3930 C 367.667 -2.20508 -3.62735 0
M  V30 3931 C 365.574 -4.54762 -3.78082 0
M  V30 3932 H 364.504 -0.466573 -0.592306 0
M  V30 3933 H 367.155 -1.59283 -0.911116 0
M  V30 3934 H 365.537 -1.79417 -3.53023 0
M  V30 3935 H 366.711 -4.17577 -1.94849 0
M  V30 3936 H 365.026 -3.7038 -1.90283 0
M  V30 3937 H 367.623 -2.82306 -4.54101 0
M  V30 3938 H 367.966 -1.20322 -3.98533 0
M  V30 3939 H 368.499 -2.59664 -3.01362 0
M  V30 3940 H 365.238 -5.55867 -3.47407 0
M  V30 3941 H 364.758 -4.10254 -4.37552 0
M  V30 3942 H 366.437 -4.69153 -4.45538 0
M  V30 3943 N 366.569 1.04691 -1.17803 0
M  V30 3944 C 367.815 1.78181 -0.980977 0
M  V30 3945 C 368.17 1.86191 0.484825 0
M  V30 3946 O 367.463 1.35436 1.35527 0
M  V30 3947 C 367.657 3.21467 -1.56186 0
M  V30 3948 C 367.486 3.27422 -3.08261 0
M  V30 3949 C 366.256 3.36415 -3.77032 0
M  V30 3950 C 368.454 3.15947 -4.0581 0
M  V30 3951 N 366.436 3.31554 -5.16667 0
M  V30 3952 C 367.807 3.18514 -5.31929 0
M  V30 3953 C 369.862 2.99945 -3.97413 0
M  V30 3954 C 368.565 3.06723 -6.50625 0
M  V30 3955 C 370.591 2.89497 -5.15699 0
M  V30 3956 C 369.953 2.92702 -6.40706 0
M  V30 3957 H 366.052 0.6641 -0.412911 0
M  V30 3958 H 368.636 1.24762 -1.49474 0
M  V30 3959 H 366.807 3.73245 -1.07436 0
M  V30 3960 H 368.539 3.8322 -1.30093 0
M  V30 3961 H 365.294 3.41887 -3.27735 0
M  V30 3962 H 365.718 3.3258 -5.89678 0
M  V30 3963 H 370.36 2.96302 -3.01604 0
M  V30 3964 H 368.078 3.0912 -7.46639 0
M  V30 3965 H 371.664 2.78179 -5.10987 0
M  V30 3966 H 370.544 2.84697 -7.30696 0
M  V30 3967 N 368.047 0.979072 1.23499 0
M  V30 3968 C 369.277 0.664237 1.95631 0
M  V30 3969 C 369.685 -0.772653 1.72704 0
M  V30 3970 O 369.028 -1.53141 1.01457 0
M  V30 3971 C 369.09 0.873115 3.48736 0
M  V30 3972 C 368.754 2.29182 3.95379 0
M  V30 3973 C 369.751 3.2704 4.04155 0
M  V30 3974 C 367.436 2.62256 4.28401 0
M  V30 3975 C 369.43 4.56052 4.45304 0
M  V30 3976 C 367.117 3.91491 4.69231 0
M  V30 3977 C 368.115 4.88201 4.77649 0
M  V30 3978 O 367.803 6.15129 5.17563 0
M  V30 3979 H 367.535 0.245915 0.629684 0
M  V30 3980 H 370.089 1.3127 1.57979 0
M  V30 3981 H 368.319 0.167476 3.86337 0
M  V30 3982 H 370.008 0.555642 4.02079 0
M  V30 3983 H 370.774 3.02819 3.78848 0
M  V30 3984 H 366.653 1.87692 4.21061 0
M  V30 3985 H 370.197 5.31538 4.51789 0
M  V30 3986 H 366.094 4.15508 4.93987 0
M  V30 3987 H 366.862 6.18862 5.35679 0
M  V30 3988 N 369.525 -1.3858 0.750561 0
M  V30 3989 C 370.488 -2.28836 0.129152 0
M  V30 3990 C 371.488 -1.47045 -0.650714 0
M  V30 3991 O 372.678 -1.6753 -0.477428 0
M  V30 3992 C 369.81 -3.30751 -0.825622 0
M  V30 3993 H 371.003 -2.85294 0.924516 0
M  V30 3994 H 368.556 -1.47489 0.517376 0
M  V30 3995 H 369.291 -2.79378 -1.64677 0
M  V30 3996 H 369.076 -3.91177 -0.268852 0
M  V30 3997 H 370.566 -3.98249 -1.2565 0
M  V30 3998 N 371.003 -0.499398 -1.49478 0
M  V30 3999 C 371.951 0.293604 -2.3074 0
M  V30 4000 C 372.945 0.96427 -1.39277 0
M  V30 4001 O 374.151 0.892141 -1.56336 0
M  V30 4002 H 370.526 0.113541 -0.743379 0
M  V30 4003 H 372.497 -0.411772 -2.95545 0
M  V30 4004 C 371.246 1.3462 -3.20582 0
M  V30 4005 H 370.569 0.83954 -3.90886 0
M  V30 4006 H 372.009 1.87308 -3.80384 0
M  V30 4007 C 370.468 2.36351 -2.40083 0
M  V30 4008 O 370.998 3.422 -2.10385 0
M  V30 4009 N 369.204 2.0878 -2.02137 0
M  V30 4010 H 368.751 1.22723 -2.26488 0
M  V30 4011 H 368.709 2.77075 -1.48583 0
M  V30 4012 N 372.481 1.55866 -0.233164 0
M  V30 4013 C 373.391 2.24431 0.683217 0
M  V30 4014 C 374.407 1.2558 1.2044 0
M  V30 4015 O 375.583 1.58422 1.24356 0
M  V30 4016 C 372.648 2.91979 1.86947 0
M  V30 4017 C 371.709 4.06204 1.38912 0
M  V30 4018 C 370.942 4.70522 2.51883 0
M  V30 4019 O 371.165 4.33865 3.70293 0
M  V30 4020 O 370.099 5.59296 2.22423 0
M  V30 4021 H 373.925 3.03426 0.129059 0
M  V30 4022 H 371.51 1.494 -0.0022283 0
M  V30 4023 H 373.392 3.34573 2.56201 0
M  V30 4024 H 372.067 2.15935 2.41151 0
M  V30 4025 H 370.974 3.68155 0.664259 0
M  V30 4026 H 372.307 4.84025 0.893328 0
M  V30 4027 N 373.959 -0.0401083 1.57549 0
M  V30 4028 C 374.889 -1.04384 2.08869 0
M  V30 4029 C 375.87 -1.38407 0.988817 0
M  V30 4030 O 377.055 -1.47483 1.26342 0
M  V30 4031 C 374.185 -2.34808 2.55895 0
M  V30 4032 C 373.139 -2.15057 3.70047 0
M  V30 4033 C 372.465 -3.51145 4.03239 0
M  V30 4034 C 373.765 -1.54576 4.98902 0
M  V30 4035 H 375.459 -0.616666 2.92981 0
M  V30 4036 H 373.005 -0.295184 1.40942 0
M  V30 4037 H 374.958 -3.05346 2.90417 0
M  V30 4038 H 373.682 -2.79565 1.68853 0
M  V30 4039 H 372.341 -1.46954 3.35857 0
M  V30 4040 H 371.989 -3.93529 3.13279 0
M  V30 4041 H 371.689 -3.38758 4.80122 0
M  V30 4042 H 373.213 -4.23062 4.40285 0
M  V30 4043 H 374.627 -2.15017 5.31451 0
M  V30 4044 H 373.024 -1.52796 5.80322 0
M  V30 4045 H 374.094 -0.51039 4.82206 0
M  V30 4046 N 375.437 -1.54477 -0.31217 0
M  V30 4047 C 376.662 -1.77526 -1.07235 0
M  V30 4048 C 377.087 -0.527775 -1.80544 0
M  V30 4049 O 376.445 0.52121 -1.73646 0
M  V30 4050 C 376.493 -2.97535 -2.03728 0
M  V30 4051 O 375.597 -2.69878 -3.11833 0
M  V30 4052 H 374.938 -0.58792 -0.30862 0
M  V30 4053 H 377.468 -2.01532 -0.352993 0
M  V30 4054 H 377.478 -3.25198 -2.46395 0
M  V30 4055 H 376.153 -3.87996 -1.49774 0
M  V30 4056 H 374.73 -2.53199 -2.7376 0
M  V30 4057 N 376.915 0.57481 -1.46744 0
M  V30 4058 C 377.845 1.69337 -1.60771 0
M  V30 4059 C 378.826 1.63825 -0.457736 0
M  V30 4060 O 380.011 1.8172 -0.684947 0
M  V30 4061 C 377.141 3.0798 -1.60517 0
M  V30 4062 C 376.095 3.28327 -2.74564 0
M  V30 4063 C 375.421 4.67578 -2.59373 0
M  V30 4064 C 376.721 3.15398 -4.16319 0
M  V30 4065 H 378.415 1.57853 -2.54407 0
M  V30 4066 H 375.961 0.75799 -1.22436 0
M  V30 4067 H 377.914 3.86061 -1.68923 0
M  V30 4068 H 376.638 3.20381 -0.634305 0
M  V30 4069 H 375.297 2.52649 -2.65639 0
M  V30 4070 H 374.945 4.76755 -1.60353 0
M  V30 4071 H 374.645 4.82144 -3.35873 0
M  V30 4072 H 376.169 5.47817 -2.69682 0
M  V30 4073 H 377.583 3.83315 -4.26313 0
M  V30 4074 H 375.98 3.41482 -4.93468 0
M  V30 4075 H 377.05 2.12372 -4.3592 0
M  V30 4076 N 378.394 1.34581 0.820102 0
M  V30 4077 C 379.671 1.17675 1.56244 0
M  V30 4078 C 380.051 -0.249541 2.0962 0
M  V30 4079 O 379.399 -1.25125 1.91196 0
M  V30 4080 C 379.609 2.23364 2.6816 0
M  V30 4081 C 380.957 2.58485 3.36854 0
M  V30 4082 O 381.981 2.22175 2.78418 0
M  V30 4083 O 380.84 3.20868 4.42386 0
M  V30 4084 H 377.934 0.456333 0.689702 0
M  V30 4085 H 380.48 1.46222 0.861231 0
M  V30 4086 H 379.252 3.19087 2.26493 0
M  V30 4087 H 378.875 1.96009 3.45928 0
M  V30 4088 N 379.872 -1.04064 1.18357 0
M  V30 4089 C 381.12 -1.76915 0.977013 0
M  V30 4090 C 381.441 -1.88624 -0.494577 0
M  V30 4091 O 380.711 -1.41125 -1.3587 0
M  V30 4092 H 379.291 -0.65535 0.358504 0
M  V30 4093 H 381.953 -1.25592 1.49039 0
M  V30 4094 H 381.049 -2.78178 1.41504 0
M  V30 4095 N 381.35 -0.985608 -1.22978 0
M  V30 4096 C 382.597 -0.657386 -1.91532 0
M  V30 4097 C 382.925 0.809707 -1.76845 0
M  V30 4098 O 382.18 1.60021 -1.12658 0
M  V30 4099 C 382.479 -1.00014 -3.43121 0
M  V30 4100 C 382.145 -2.4583 -3.77993 0
M  V30 4101 C 380.807 -2.85679 -3.87222 0
M  V30 4102 C 383.159 -3.40378 -3.94705 0
M  V30 4103 C 380.487 -4.19081 -4.10595 0
M  V30 4104 C 382.839 -4.73429 -4.1958 0
M  V30 4105 C 381.503 -5.1303 -4.27032 0
M  V30 4106 H 380.773 -0.240555 -0.700867 0
M  V30 4107 H 383.42 -1.24044 -1.45895 0
M  V30 4108 H 381.725 -0.335072 -3.90365 0
M  V30 4109 H 383.422 -0.724322 -3.94404 0
M  V30 4110 H 380.012 -2.13939 -3.71387 0
M  V30 4111 H 384.196 -3.10766 -3.8696 0
M  V30 4112 H 379.452 -4.49362 -4.14589 0
M  V30 4113 H 383.626 -5.46644 -4.31455 0
M  V30 4114 H 381.253 -6.16418 -4.44896 0
M  V30 4115 N 382.828 1.3818 -0.7579 0
M  V30 4116 C 384.244 1.5353 -0.435972 0
M  V30 4117 C 384.444 1.71961 1.05032 0
M  V30 4118 O 383.5 1.73307 1.83633 0
M  V30 4119 C 384.813 2.73989 -1.23898 0
M  V30 4120 C 386.361 2.87841 -1.22949 0
M  V30 4121 C 386.836 4.11266 -2.01554 0
M  V30 4122 N 388.327 4.18352 -1.98837 0
M  V30 4123 C 389.062 5.12856 -2.5645 0
M  V30 4124 N 388.558 6.13005 -3.22794 0
M  V30 4125 N 390.351 5.05238 -2.46356 0
M  V30 4126 H 382.502 1.24467 -1.7211 0
M  V30 4127 H 384.765 0.604982 -0.729864 0
M  V30 4128 H 384.471 2.66789 -2.29165 0
M  V30 4129 H 384.345 3.67294 -0.858764 0
M  V30 4130 H 386.732 2.9452 -0.184854 0
M  V30 4131 H 386.813 1.95534 -1.64924 0
M  V30 4132 H 386.457 4.05349 -3.06031 0
M  V30 4133 H 386.387 5.02661 -1.5697 0
M  V30 4134 H 388.878 3.46628 -1.50524 0
M  V30 4135 H 389.191 6.81619 -3.64165 0
M  V30 4136 H 387.536 6.13325 -3.2689 0
M  V30 4137 H 390.727 4.25938 -1.9415 0
M  V30 4138 H 390.9 5.78707 -2.91552 0
M  V30 4139 N 384.306 0.507319 1.49211 0
M  V30 4140 C 385.555 -0.0368315 2.01666 0
M  V30 4141 C 385.868 -1.37459 1.39156 0
M  V30 4142 O 387.074 -2.00579 1.82976 0
M  V30 4143 C 385.53 -0.116089 3.59713 0
M  V30 4144 C 385.138 1.2154 4.31198 0
M  V30 4145 C 386.882 -0.610268 4.2009 0
M  V30 4146 C 384.789 1.09796 5.81119 0
M  V30 4147 H 383.719 -0.0175376 0.753796 0
M  V30 4148 H 386.37 0.647691 1.71689 0
M  V30 4149 H 384.752 -0.8652 3.86433 0
M  V30 4150 H 385.926 1.9783 4.16173 0
M  V30 4151 H 384.241 1.64352 3.82593 0
M  V30 4152 H 386.838 -0.715742 5.29888 0
M  V30 4153 H 387.181 -1.61064 3.8388 0
M  V30 4154 H 387.714 0.0824916 3.97714 0
M  V30 4155 H 384.453 2.0728 6.21864 0
M  V30 4156 H 383.973 0.376058 5.9862 0
M  V30 4157 H 385.652 0.779281 6.4229 0
M  V30 4158 N 385.784 -1.5574 0.241426 0
M  V30 4159 C 387.061 -1.90704 -0.434881 0
M  V30 4160 C 387.441 -1.16145 -1.76277 0
M  V30 4161 O 386.789 -0.277152 -2.26813 0
M  V30 4162 C 386.999 -3.43657 -0.608343 0
M  V30 4163 C 388.347 -4.14806 -0.906725 0
M  V30 4164 O 389.371 -3.49366 -0.694408 0
M  V30 4165 O 388.23 -5.30548 -1.31075 0
M  V30 4166 H 385.324 -0.793592 -0.23268 0
M  V30 4167 H 387.87 -1.67288 0.285086 0
M  V30 4168 H 386.642 -3.89927 0.327505 0
M  V30 4169 H 386.265 -3.72918 -1.37906 0
M  V30 4170 N 387.262 0.0317525 -1.57568 0
M  V30 4171 C 388.225 1.01783 -2.0536 0
M  V30 4172 C 389.225 1.29203 -0.957253 0
M  V30 4173 O 390.415 1.24251 -1.22095 0
M  V30 4174 C 387.547 2.35137 -2.46827 0
M  V30 4175 H 388.74 0.605062 -2.93733 0
M  V30 4176 H 386.293 0.278514 -1.53799 0
M  V30 4177 H 387.028 2.81168 -1.61602 0
M  V30 4178 H 386.813 2.16566 -3.26866 0
M  V30 4179 H 388.303 3.05938 -2.84239 0
M  V30 4180 N 388.74 1.54641 0.303973 0
M  V30 4181 C 389.703 1.84646 1.35789 0
M  V30 4182 C 390.703 0.7192 1.4382 0
M  V30 4183 O 391.893 0.987491 1.43507 0
M  V30 4184 C 389.025 2.02407 2.74307 0
M  V30 4185 H 390.218 2.78829 1.10429 0
M  V30 4186 H 387.771 1.46658 0.540487 0
M  V30 4187 H 388.506 1.10502 3.04893 0
M  V30 4188 H 388.291 2.84453 2.69868 0
M  V30 4189 H 389.781 2.27002 3.50514 0
M  V30 4190 N 390.218 -0.567019 1.47046 0
M  V30 4191 C 391.165 -1.67489 1.58796 0
M  V30 4192 C 392.135 -1.60399 0.43144 0
M  V30 4193 O 393.32 -1.79378 0.650233 0
M  V30 4194 C 390.46 -3.05821 1.59899 0
M  V30 4195 C 389.573 -3.2342 2.86397 0
M  V30 4196 C 388.708 -4.52093 2.789 0
M  V30 4197 C 387.747 -4.6309 4.00267 0
M  V30 4198 N 386.884 -5.83106 3.91064 0
M  V30 4199 H 391.724 -1.56785 2.53422 0
M  V30 4200 H 389.261 -0.763896 1.2571 0
M  V30 4201 H 391.219 -3.8591 1.58522 0
M  V30 4202 H 389.849 -3.15384 0.687929 0
M  V30 4203 H 388.901 -2.3683 2.97684 0
M  V30 4204 H 390.213 -3.27412 3.76301 0
M  V30 4205 H 389.367 -5.4043 2.75718 0
M  V30 4206 H 388.106 -4.50565 1.86662 0
M  V30 4207 H 387.111 -3.73168 4.03765 0
M  V30 4208 H 388.336 -4.66386 4.93621 0
M  V30 4209 H 386.282 -5.82546 3.01623 0
M  V30 4210 H 386.199 -5.88434 4.74638 0
M  V30 4211 H 387.467 -6.73831 3.91882 0
M  V30 4212 N 391.696 -1.35014 -0.812953 0
M  V30 4213 C 392.646 -1.23959 -1.91359 0
M  V30 4214 C 393.63 -0.136306 -1.60322 0
M  V30 4215 O 394.822 -0.366925 -1.73155 0
M  V30 4216 C 391.951 -1.00736 -3.28188 0
M  V30 4217 C 391.037 -2.15426 -3.65311 0
M  V30 4218 N 391.428 -3.40612 -3.73921 0
M  V30 4219 C 389.726 -2.06672 -3.95225 0
M  V30 4220 C 390.427 -4.15994 -4.06601 0
M  V30 4221 N 389.403 -3.44685 -4.20349 0
M  V30 4222 H 393.205 -2.18815 -1.96208 0
M  V30 4223 H 390.719 -1.27395 -1.00718 0
M  V30 4224 H 392.716 -0.909052 -4.06868 0
M  V30 4225 H 391.376 -0.067586 -3.2463 0
M  V30 4226 H 392.387 -3.75043 -3.5716 0
M  V30 4227 H 389.064 -1.20511 -3.99729 0
M  V30 4228 H 390.454 -5.24145 -4.20382 0
M  V30 4229 N 393.175 1.03435 -1.18907 0
M  V30 4230 C 394.424 1.76143 -0.982669 0
M  V30 4231 C 394.737 1.89416 0.487953 0
M  V30 4232 O 395.943 2.59041 0.813036 0
M  V30 4233 C 394.399 3.16722 -1.70924 0
M  V30 4234 C 394.007 3.11522 -3.21959 0
M  V30 4235 C 395.751 3.93764 -1.58588 0
M  V30 4236 C 393.658 4.46999 -3.87228 0
M  V30 4237 H 392.588 0.660292 -0.364047 0
M  V30 4238 H 395.239 1.158 -1.42347 0
M  V30 4239 H 393.621 3.775 -1.19623 0
M  V30 4240 H 394.795 2.60158 -3.80335 0
M  V30 4241 H 393.11 2.47978 -3.34508 0
M  V30 4242 H 395.707 4.93963 -2.04707 0
M  V30 4243 H 396.05 4.12794 -0.539142 0
M  V30 4244 H 396.583 3.39576 -2.07203 0
M  V30 4245 H 393.322 4.33174 -4.91976 0
M  V30 4246 H 392.842 4.98441 -3.33642 0
M  V30 4247 H 394.521 5.15898 -3.90459 0
M  V30 4248 N 394.653 0.992116 1.22453 0
M  V30 4249 C 395.6 0.541731 2.24352 0
M  V30 4250 C 396.57 -0.425519 1.60557 0
M  V30 4251 O 397.755 -0.330453 1.87917 0
M  V30 4252 C 394.895 -0.138248 3.44823 0
M  V30 4253 C 394.008 0.870649 4.23136 0
M  V30 4254 C 393.143 0.164269 5.30946 0
M  V30 4255 C 392.182 1.16159 6.00977 0
M  V30 4256 N 391.319 0.483568 7.00433 0
M  V30 4257 H 396.159 1.41541 2.62241 0
M  V30 4258 H 393.696 0.709013 1.28885 0
M  V30 4259 H 395.654 -0.5494 4.13567 0
M  V30 4260 H 394.284 -0.975721 3.077 0
M  V30 4261 H 393.336 1.40013 3.53696 0
M  V30 4262 H 394.648 1.63014 4.7141 0
M  V30 4263 H 393.802 -0.303653 6.0594 0
M  V30 4264 H 392.541 -0.627733 4.83643 0
M  V30 4265 H 391.546 1.64015 5.24766 0
M  V30 4266 H 392.771 1.95445 6.50368 0
M  V30 4267 H 390.717 -0.289012 6.55363 0
M  V30 4268 H 390.634 1.18152 7.4671 0
M  V30 4269 H 391.902 0.0384219 7.79491 0
M  V30 4270 N 396.131 -1.37776 0.765217 0
M  V30 4271 C 397.378 -1.99849 0.326588 0
M  V30 4272 C 397.706 -1.60746 -1.09504 0
M  V30 4273 O 396.961 -0.84202 -1.76659 0
M  V30 4274 C 397.26 -3.5504 0.410053 0
M  V30 4275 C 396.926 -4.13891 1.78899 0
M  V30 4276 C 395.588 -4.29678 2.16635 0
M  V30 4277 C 397.94 -4.46236 2.69301 0
M  V30 4278 C 395.268 -4.7511 3.44221 0
M  V30 4279 C 397.62 -4.93089 3.9629 0
M  V30 4280 C 396.284 -5.07082 4.34078 0
M  V30 4281 H 395.554 -0.7313 0.119507 0
M  V30 4282 H 398.201 -1.64645 0.977968 0
M  V30 4283 H 396.506 -3.90451 -0.324878 0
M  V30 4284 H 398.203 -4.00966 0.0520699 0
M  V30 4285 H 394.793 -4.02026 1.48569 0
M  V30 4286 H 398.977 -4.3363 2.41409 0
M  V30 4287 H 394.233 -4.84129 3.73402 0
M  V30 4288 H 398.407 -5.17084 4.66472 0
M  V30 4289 H 396.034 -5.42046 5.33001 0
M  V30 4290 N 397.609 -0.515225 -1.4894 0
M  V30 4291 C 398.834 0.022727 -2.07388 0
M  V30 4292 C 399.259 1.2876 -1.37122 0
M  V30 4293 O 398.617 1.76067 -0.432431 0
M  V30 4294 C 398.665 0.244869 -3.59768 0
M  V30 4295 O 397.769 1.31667 -3.90817 0
M  V30 4296 H 397.11 -0.0325506 -0.663202 0
M  V30 4297 H 399.64 -0.718918 -1.91553 0
M  V30 4298 H 399.65 0.47205 -4.0526 0
M  V30 4299 H 398.325 -0.679194 -4.10317 0
M  V30 4300 H 396.902 1.07331 -3.5712 0
M  V30 4301 N 399.087 1.5561 -0.249682 0
M  V30 4302 C 400.334 1.99011 0.374287 0
M  V30 4303 C 400.662 1.13785 1.57744 0
M  V30 4304 O 399.917 0.189326 1.94782 0
M  V30 4305 C 400.216 3.4775 0.824887 0
M  V30 4306 C 399.882 4.50086 -0.270819 0
M  V30 4307 C 398.544 4.77791 -0.571746 0
M  V30 4308 C 400.896 5.11312 -1.01041 0
M  V30 4309 C 398.224 5.63997 -1.61629 0
M  V30 4310 C 400.576 5.98651 -2.0445 0
M  V30 4311 C 399.24 6.24688 -2.35204 0
M  V30 4312 H 398.51 0.728233 0.136961 0
M  V30 4313 H 401.157 1.88122 -0.358087 0
M  V30 4314 H 399.462 3.55985 1.63651 0
M  V30 4315 H 401.159 3.78721 1.31799 0
M  V30 4316 H 397.749 4.28592 -0.026136 0
M  V30 4317 H 401.933 4.89953 -0.791177 0
M  V30 4318 H 397.189 5.82425 -1.85988 0
M  V30 4319 H 401.363 6.45135 -2.62248 0
M  V30 4320 H 398.99 6.91281 -3.16282 0
M  V30 4321 N 400.565 -0.0233959 1.57583 0
M  V30 4322 C 401.495 -1.02162 2.09965 0
M  V30 4323 C 402.476 -1.3735 1.00344 0
M  V30 4324 O 403.661 -1.46135 1.27899 0
M  V30 4325 C 400.791 -2.32081 2.58371 0
M  V30 4326 C 399.745 -2.1112 3.72307 0
M  V30 4327 C 399.071 -3.46848 4.06941 0
M  V30 4328 C 400.371 -1.49276 5.00514 0
M  V30 4329 H 402.065 -0.585557 2.93618 0
M  V30 4330 H 399.611 -0.280218 1.41247 0
M  V30 4331 H 401.564 -3.02249 2.93639 0
M  V30 4332 H 400.288 -2.77758 1.71808 0
M  V30 4333 H 398.947 -1.43384 3.37397 0
M  V30 4334 H 398.595 -3.90184 3.17436 0
M  V30 4335 H 398.295 -3.33646 4.83688 0
M  V30 4336 H 399.819 -4.18369 4.44747 0
M  V30 4337 H 401.233 -2.09368 5.33702 0
M  V30 4338 H 399.63 -1.46632 5.8191 0
M  V30 4339 H 400.7 -0.459217 4.82721 0
M  V30 4340 N 402.043 -1.548 -0.295768 0
M  V30 4341 C 403.459 -1.4613 -0.641722 0
M  V30 4342 C 403.659 -0.656771 -1.90496 0
M  V30 4343 O 402.715 -0.166547 -2.5195 0
M  V30 4344 C 404.028 -2.90141 -0.789852 0
M  V30 4345 C 405.576 -3.00216 -0.885396 0
M  V30 4346 C 406.051 -4.45434 -1.06548 0
M  V30 4347 N 407.542 -4.49166 -1.13156 0
M  V30 4348 C 408.277 -5.58717 -1.28929 0
M  V30 4349 N 407.773 -6.78182 -1.41567 0
M  V30 4350 N 409.566 -5.46415 -1.31859 0
M  V30 4351 H 401.717 -2.05574 0.534147 0
M  V30 4352 H 403.98 -0.931259 0.177372 0
M  V30 4353 H 403.686 -3.51635 0.0675598 0
M  V30 4354 H 403.56 -3.37859 -1.67724 0
M  V30 4355 H 405.947 -2.38833 -1.73329 0
M  V30 4356 H 406.028 -2.55787 0.0261185 0
M  V30 4357 H 405.672 -5.07413 -0.222335 0
M  V30 4358 H 405.602 -4.87499 -1.9913 0
M  V30 4359 H 408.093 -3.631 -1.04721 0
M  V30 4360 H 408.406 -7.57428 -1.53372 0
M  V30 4361 H 406.751 -6.81037 -1.38613 0
M  V30 4362 H 409.942 -4.5203 -1.21601 0
M  V30 4363 H 410.115 -6.31841 -1.43808 0
M  V30 4364 N 403.521 0.559213 -1.47345 0
M  V30 4365 C 404.798 1.31997 -1.44348 0
M  V30 4366 C 405.178 2.1064 -0.139358 0
M  V30 4367 O 404.526 2.1091 0.879153 0
M  V30 4368 C 404.736 2.22618 -2.68779 0
M  V30 4369 C 406.084 2.83701 -3.1591 0
M  V30 4370 O 407.108 2.32921 -2.69493 0
M  V30 4371 O 405.967 3.75993 -3.966 0
M  V30 4372 H 403.061 0.594251 -0.575147 0
M  V30 4373 H 405.607 0.578282 -1.59543 0
M  V30 4374 H 404.379 1.64093 -3.55231 0
M  V30 4375 H 404.002 3.04085 -2.5616 0
M  V30 4376 N 404.999 1.35443 0.805782 0
M  V30 4377 C 406.245 1.2996 1.56467 0
M  V30 4378 C 406.6 -0.124742 1.91995 0
M  V30 4379 O 405.893 -1.07533 1.58579 0
M  V30 4380 C 406.087 2.14045 2.86216 0
M  V30 4381 C 405.916 3.64512 2.63365 0
M  V30 4382 C 404.686 4.33744 2.59219 0
M  V30 4383 C 406.884 4.58142 2.33688 0
M  V30 4384 N 404.866 5.69953 2.28094 0
M  V30 4385 C 406.237 5.8248 2.12408 0
M  V30 4386 C 408.292 4.46877 2.19558 0
M  V30 4387 C 406.995 6.96818 1.78429 0
M  V30 4388 C 409.021 5.61065 1.86976 0
M  V30 4389 C 408.383 6.84431 1.66532 0
M  V30 4390 H 404.482 0.530817 0.574245 0
M  V30 4391 H 407.066 1.70333 0.943126 0
M  V30 4392 H 405.237 1.75942 3.46264 0
M  V30 4393 H 406.969 2.00075 3.51784 0
M  V30 4394 H 403.724 3.86365 2.73896 0
M  V30 4395 H 404.148 6.41845 2.15323 0
M  V30 4396 H 408.79 3.52102 2.34061 0
M  V30 4397 H 406.508 7.91559 1.62664 0
M  V30 4398 H 410.094 5.54302 1.7675 0
M  V30 4399 H 408.974 7.71294 1.41688 0
M  V30 4400 N 406.477 -1.02803 1.19454 0
M  V30 4401 C 407.723 -1.76478 0.999171 0
M  V30 4402 C 408.056 -1.88456 -0.468828 0
M  V30 4403 O 407.331 -1.40198 -1.34814 0
M  V30 4404 C 407.614 -3.19044 1.66981 0
M  V30 4405 C 407.467 -3.14932 3.21151 0
M  V30 4406 C 408.786 -4.17456 1.39349 0
M  V30 4407 H 405.905 -0.640614 0.364393 0
M  V30 4408 H 408.547 -1.20005 1.47305 0
M  V30 4409 H 406.697 -3.67263 1.2669 0
M  V30 4410 H 408.369 -2.74605 3.70661 0
M  V30 4411 H 406.612 -2.52625 3.52652 0
M  V30 4412 H 407.283 -4.1566 3.63223 0
M  V30 4413 H 409.759 -3.77842 1.74283 0
M  V30 4414 H 408.635 -5.154 1.88823 0
M  V30 4415 H 408.896 -4.40949 0.318813 0
M  V30 4416 N 407.956 -0.998596 -1.21925 0
M  V30 4417 C 408.888 -0.511879 -2.23411 0
M  V30 4418 C 409.901 0.396094 -1.57908 0
M  V30 4419 O 411.09 0.197316 -1.77406 0
M  V30 4420 C 408.19 0.276802 -3.37768 0
M  V30 4421 C 407.363 -0.628687 -4.32858 0
M  V30 4422 C 406.422 0.109272 -5.26087 0
M  V30 4423 O 405.448 -0.507237 -5.66935 0
M  V30 4424 N 406.65 1.38983 -5.63617 0
M  V30 4425 H 409.415 -1.38457 -2.658 0
M  V30 4426 H 406.976 -0.873981 -1.36283 0
M  V30 4427 H 408.968 0.77928 -3.97126 0
M  V30 4428 H 407.538 1.05063 -2.94415 0
M  V30 4429 H 406.758 -1.31175 -3.71735 0
M  V30 4430 H 408.046 -1.24514 -4.93329 0
M  V30 4431 H 407.444 1.91194 -5.32411 0
M  V30 4432 H 406.001 1.83739 -6.25367 0
M  V30 4433 N 409.434 1.37368 -0.772513 0
M  V30 4434 C 410.397 2.28601 -0.165541 0
M  V30 4435 C 411.397 1.48062 0.627238 0
M  V30 4436 O 412.587 1.68268 0.450715 0
M  V30 4437 C 409.719 3.32023 0.772897 0
M  V30 4438 H 410.912 2.83787 -0.969787 0
M  V30 4439 H 408.465 1.46647 -0.540775 0
M  V30 4440 H 409.2 2.81962 1.60212 0
M  V30 4441 H 408.985 3.91555 0.206585 0
M  V30 4442 H 410.475 4.00197 1.19298 0
M  V30 4443 N 410.912 0.523116 1.48665 0
M  V30 4444 C 412.158 -0.0134963 2.02796 0
M  V30 4445 C 412.491 -1.34582 1.40004 0
M  V30 4446 O 411.766 -1.86756 0.543381 0
M  V30 4447 C 412.049 -0.14276 3.59817 0
M  V30 4448 C 411.902 1.21425 4.331 0
M  V30 4449 C 413.221 -0.872856 4.31357 0
M  V30 4450 H 410.34 -0.00343074 0.736992 0
M  V30 4451 H 412.982 0.678816 1.7746 0
M  V30 4452 H 411.132 -0.732401 3.81534 0
M  V30 4453 H 412.804 1.84447 4.2282 0
M  V30 4454 H 411.047 1.79791 3.94788 0
M  V30 4455 H 411.718 1.07687 5.41394 0
M  V30 4456 H 414.194 -0.372555 4.14429 0
M  V30 4457 H 413.07 -0.932185 5.40927 0
M  V30 4458 H 413.331 -1.92161 3.98154 0
M  V30 4459 N 412.39 -1.55475 0.257931 0
M  V30 4460 C 413.806 -1.59307 -0.0966563 0
M  V30 4461 C 414.006 -1.27514 -1.5602 0
M  V30 4462 O 413.062 -1.02774 -2.30637 0
M  V30 4463 C 414.375 -2.99552 0.262481 0
M  V30 4464 C 415.923 -3.1231 0.207683 0
M  V30 4465 C 416.398 -4.54793 0.541012 0
M  V30 4466 N 417.889 -4.6058 0.491921 0
M  V30 4467 C 418.624 -5.68825 0.722857 0
M  V30 4468 N 418.12 -6.85287 1.0175 0
M  V30 4469 N 419.913 -5.58296 0.652815 0
M  V30 4470 H 412.064 -1.74409 1.21224 0
M  V30 4471 H 414.327 -0.812424 0.48854 0
M  V30 4472 H 414.033 -3.27593 1.27967 0
M  V30 4473 H 413.907 -3.75019 -0.40508 0
M  V30 4474 H 416.294 -2.84044 -0.800195 0
M  V30 4475 H 416.375 -2.39095 0.909255 0
M  V30 4476 H 416.019 -4.83783 1.5465 0
M  V30 4477 H 415.949 -5.26285 -0.18216 0
M  V30 4478 H 418.44 -3.7691 0.273366 0
M  V30 4479 H 418.753 -7.63725 1.18084 0
M  V30 4480 H 417.098 -6.86945 1.05509 0
M  V30 4481 H 420.289 -4.66189 0.422592 0
M  V30 4482 H 420.462 -6.42582 0.836182 0
M  V30 4483 N 413.868 0.0150385 -1.57593 0
M  V30 4484 C 414.8 1.03912 -2.04291 0
M  V30 4485 C 415.813 1.31618 -0.958146 0
M  V30 4486 O 417.002 1.28859 -1.23522 0
M  V30 4487 C 414.102 2.37749 -2.41514 0
M  V30 4488 C 413.275 2.29198 -3.72541 0
M  V30 4489 C 412.334 3.45598 -3.96797 0
M  V30 4490 O 411.36 3.24461 -4.67668 0
M  V30 4491 N 412.562 4.67945 -3.43523 0
M  V30 4492 H 415.327 0.64099 -2.92765 0
M  V30 4493 H 412.888 0.20272 -1.60626 0
M  V30 4494 H 414.88 3.14364 -2.54867 0
M  V30 4495 H 413.45 2.69357 -1.58637 0
M  V30 4496 H 412.67 1.3759 -3.69408 0
M  V30 4497 H 413.958 2.20642 -4.5847 0
M  V30 4498 H 413.356 4.88017 -2.86104 0
M  V30 4499 H 411.913 5.41878 -3.62232 0
M  V30 4500 N 415.346 1.54954 0.287554 0
M  V30 4501 C 416.309 1.86076 1.33823 0
M  V30 4502 C 417.309 0.734414 1.43049 0
M  V30 4503 O 418.499 1.00266 1.42452 0
M  V30 4504 C 415.631 2.05305 2.72144 0
M  V30 4505 H 416.824 2.79984 1.07465 0
M  V30 4506 H 414.377 1.47223 0.524902 0
M  V30 4507 H 415.112 1.1373 3.03704 0
M  V30 4508 H 414.897 2.873 2.66836 0
M  V30 4509 H 416.387 2.30706 3.48087 0
M  V30 4510 N 416.824 -0.551391 1.4764 0
M  V30 4511 C 418.052 -1.33357 1.58189 0
M  V30 4512 C 418.467 -1.87342 0.234199 0
M  V30 4513 O 417.824 -1.65301 -0.77343 0
M  V30 4514 C 417.875 -2.49942 2.61173 0
M  V30 4515 O 417.596 -1.98187 3.90709 0
M  V30 4516 C 419.097 -3.42072 2.8196 0
M  V30 4517 H 416.317 -0.40631 0.533998 0
M  V30 4518 H 418.861 -0.667367 1.93304 0
M  V30 4519 H 417.016 -3.12489 2.28975 0
M  V30 4520 H 417.43 -2.74342 4.47031 0
M  V30 4521 H 418.904 -4.20278 3.57869 0
M  V30 4522 H 419.381 -3.95978 1.89995 0
M  V30 4523 H 419.987 -2.85336 3.15378 0
M  V30 4524 N 418.302 -1.35869 -0.798587 0
M  V30 4525 C 419.55 -1.29332 -1.55298 0
M  V30 4526 C 419.871 0.129729 -1.94568 0
M  V30 4527 O 419.141 1.06796 -1.6423 0
M  V30 4528 H 417.721 -0.475737 -0.57592 0
M  V30 4529 H 420.383 -1.70062 -0.952093 0
M  V30 4530 H 419.479 -1.91458 -2.46476 0
M  V30 4531 N 419.78 1.02168 -1.19998 0
M  V30 4532 C 420.727 2.10601 -0.944228 0
M  V30 4533 C 421.697 1.65639 0.123664 0
M  V30 4534 O 422.882 1.9079 -0.0199941 0
M  V30 4535 C 420.022 3.41504 -0.496865 0
M  V30 4536 C 419.135 3.99973 -1.63234 0
M  V30 4537 C 418.27 5.18915 -1.13579 0
M  V30 4538 C 417.309 5.69456 -2.24468 0
M  V30 4539 N 416.446 6.79665 -1.76068 0
M  V30 4540 H 421.286 2.31814 -1.8726 0
M  V30 4541 H 418.823 1.13686 -0.933483 0
M  V30 4542 H 420.781 4.16626 -0.218843 0
M  V30 4543 H 419.411 3.2038 0.394508 0
M  V30 4544 H 418.463 3.21997 -2.0254 0
M  V30 4545 H 419.775 4.33492 -2.46752 0
M  V30 4546 H 418.929 6.01222 -0.813429 0
M  V30 4547 H 417.668 4.8695 -0.270434 0
M  V30 4548 H 416.673 4.85757 -2.57526 0
M  V30 4549 H 417.898 6.03459 -3.11472 0
M  V30 4550 H 415.844 6.49538 -0.918516 0
M  V30 4551 H 415.761 7.12349 -2.5317 0
M  V30 4552 H 417.029 7.65549 -1.46817 0
M  V30 4553 N 421.258 1.00505 1.21394 0
M  V30 4554 C 422.168 0.574806 2.27449 0
M  V30 4555 C 423.184 -0.382206 1.6975 0
M  V30 4556 O 424.36 -0.246027 1.99892 0
M  V30 4557 C 421.425 -0.0917414 3.46579 0
M  V30 4558 C 420.486 0.909758 4.1955 0
M  V30 4559 C 419.719 0.274924 5.32991 0
M  V30 4560 O 419.942 -0.928254 5.62796 0
M  V30 4561 O 418.876 0.985877 5.93771 0
M  V30 4562 H 422.702 1.45744 2.66444 0
M  V30 4563 H 420.287 0.773923 1.27792 0
M  V30 4564 H 422.169 -0.464551 4.18832 0
M  V30 4565 H 420.844 -0.948755 3.09484 0
M  V30 4566 H 419.751 1.33372 3.49518 0
M  V30 4567 H 421.084 1.73636 4.60555 0
M  V30 4568 N 422.737 -1.36956 0.779787 0
M  V30 4569 C 423.67 -2.27896 0.117681 0
M  V30 4570 C 424.648 -1.46736 -0.700523 0
M  V30 4571 O 425.832 -1.76055 -0.673568 0
M  V30 4572 C 422.959 -3.28136 -0.839296 0
M  V30 4573 C 422.005 -4.26373 -0.10409 0
M  V30 4574 S 422.838 -5.2157 1.21348 0
M  V30 4575 C 423.994 -6.25359 0.260249 0
M  V30 4576 H 424.227 -2.83704 0.888778 0
M  V30 4577 H 421.76 -1.43352 0.57355 0
M  V30 4578 H 423.718 -3.86394 -1.38601 0
M  V30 4579 H 422.379 -2.7126 -1.58356 0
M  V30 4580 H 421.572 -4.97121 -0.82986 0
M  V30 4581 H 421.174 -3.72147 0.371858 0
M  V30 4582 H 423.466 -6.75145 -0.564435 0
M  V30 4583 H 424.409 -7.01885 0.936135 0
M  V30 4584 H 424.817 -5.64345 -0.132127 0
M  V30 4585 N 424.215 -0.530993 -1.48385 0
M  V30 4586 C 425.462 0.0027373 -2.025 0
M  V30 4587 C 425.79 1.34186 -1.40799 0
M  V30 4588 O 425.045 1.88 -0.543544 0
M  V30 4589 C 425.344 0.172742 -3.56982 0
M  V30 4590 C 425.01 -1.09215 -4.37473 0
M  V30 4591 C 423.672 -1.43881 -4.59186 0
M  V30 4592 C 426.024 -1.93153 -4.84088 0
M  V30 4593 C 423.352 -2.62381 -5.2476 0
M  V30 4594 C 425.704 -3.10833 -5.50968 0
M  V30 4595 C 424.368 -3.45843 -5.70919 0
M  V30 4596 H 423.638 0.00100165 -0.740999 0
M  V30 4597 H 426.285 -0.697219 -1.78357 0
M  V30 4598 H 424.59 0.955473 -3.79971 0
M  V30 4599 H 426.287 0.600642 -3.96476 0
M  V30 4600 H 422.877 -0.812177 -4.20834 0
M  V30 4601 H 427.061 -1.67683 -4.67115 0
M  V30 4602 H 422.317 -2.89707 -5.38405 0
M  V30 4603 H 426.491 -3.7618 -5.86056 0
M  V30 4604 H 424.118 -4.37764 -6.21503 0
M  V30 4605 N 425.693 1.55336 -0.266172 0
M  V30 4606 C 426.921 2.03801 0.356756 0
M  V30 4607 C 427.336 1.14485 1.50129 0
M  V30 4608 O 426.693 0.163121 1.8177 0
M  V30 4609 C 426.744 3.51455 0.846281 0
M  V30 4610 O 426.465 4.37371 -0.252663 0
M  V30 4611 C 427.966 4.15767 1.53794 0
M  V30 4612 H 425.186 0.665906 0.0825218 0
M  V30 4613 H 427.73 2.00636 -0.39566 0
M  V30 4614 H 425.885 3.55092 1.54881 0
M  V30 4615 H 426.299 5.24358 0.122173 0
M  V30 4616 H 427.773 5.20714 1.83198 0
M  V30 4617 H 428.25 3.63404 2.46646 0
M  V30 4618 H 428.856 4.16107 0.879488 0
M  V30 4619 N 427.171 -0.0066808 1.57599 0
M  V30 4620 C 428.417 -0.693947 1.90558 0
M  V30 4621 C 428.75 -1.73792 0.866594 0
M  V30 4622 O 428.025 -1.94156 -0.115548 0
M  V30 4623 C 428.308 -1.34317 3.34112 0
M  V30 4624 C 428.161 -0.311189 4.48722 0
M  V30 4625 C 429.48 -2.27116 3.7697 0
M  V30 4626 H 426.599 -0.250803 0.693013 0
M  V30 4627 H 429.241 0.043242 1.89951 0
M  V30 4628 H 427.391 -1.9715 3.3476 0
M  V30 4629 H 429.063 0.316944 4.6021 0
M  V30 4630 H 427.306 0.367253 4.32243 0
M  V30 4631 H 427.977 -0.804366 5.46108 0
M  V30 4632 H 430.453 -1.74306 3.77831 0
M  V30 4633 H 429.329 -2.69511 4.78179 0
M  V30 4634 H 429.59 -3.14743 3.10466 0
M  V30 4635 N 428.649 -1.55105 -0.279332 0
M  V30 4636 C 429.612 -1.86783 -1.32834 0
M  V30 4637 C 430.612 -0.74199 -1.42657 0
M  V30 4638 O 431.802 -1.0102 -1.41918 0
M  V30 4639 C 428.934 -2.06746 -2.71052 0
M  V30 4640 H 430.127 -2.8055 -1.05979 0
M  V30 4641 H 427.68 -1.47499 -0.517087 0
M  V30 4642 H 428.415 -1.15339 -3.03097 0
M  V30 4643 H 428.2 -2.88711 -2.65309 0
M  V30 4644 H 429.69 -2.32549 -3.46858 0
M  V30 4645 N 430.127 0.543554 -1.4793 0
M  V30 4646 C 431.037 1.67657 -1.64098 0
M  V30 4647 C 432.053 1.65934 -0.523622 0
M  V30 4648 O 433.229 1.85133 -0.792943 0
M  V30 4649 C 430.294 3.04146 -1.66421 0
M  V30 4650 C 429.355 3.16831 -2.89684 0
M  V30 4651 C 428.588 4.46809 -2.91886 0
M  V30 4652 O 428.811 5.33095 -2.02895 0
M  V30 4653 O 427.745 4.63573 -3.83906 0
M  V30 4654 H 431.571 1.56957 -2.59997 0
M  V30 4655 H 429.156 0.715116 -1.31173 0
M  V30 4656 H 431.038 3.85346 -1.70548 0
M  V30 4657 H 429.713 3.152 -0.736923 0
M  V30 4658 H 428.62 2.34977 -2.91095 0
M  V30 4659 H 429.953 3.10687 -3.81752 0
M  V30 4660 N 431.605 1.3629 0.791371 0
M  V30 4661 C 432.835 1.33368 1.57786 0
M  V30 4662 C 433.243 -0.0875188 1.88997 0
M  V30 4663 O 432.586 -1.05427 1.50435 0
M  V30 4664 C 432.648 2.08802 2.92646 0
M  V30 4665 C 432.312 3.57903 2.84174 0
M  V30 4666 C 433.309 4.52191 2.56553 0
M  V30 4667 C 430.994 4.00762 3.02812 0
M  V30 4668 C 432.988 5.87315 2.47669 0
M  V30 4669 C 430.675 5.35977 2.93551 0
M  V30 4670 C 431.673 6.29066 2.66017 0
M  V30 4671 O 431.361 7.61798 2.56746 0
M  V30 4672 H 431.093 0.459166 0.496128 0
M  V30 4673 H 433.647 1.79952 0.990269 0
M  V30 4674 H 431.877 1.56878 3.53449 0
M  V30 4675 H 433.566 1.98762 3.53904 0
M  V30 4676 H 434.332 4.20393 2.41858 0
M  V30 4677 H 430.211 3.2868 3.2325 0
M  V30 4678 H 433.755 6.59943 2.26099 0
M  V30 4679 H 429.652 5.67384 3.07808 0
M  V30 4680 H 430.42 7.71898 2.72242 0
M  V30 4681 N 433.083 -1.0153 1.20538 0
M  V30 4682 C 434.329 -1.75517 1.02787 0
M  V30 4683 C 434.684 -1.87411 -0.435289 0
M  V30 4684 O 433.977 -1.38982 -1.31889 0
M  V30 4685 C 434.171 -3.17213 1.64654 0
M  V30 4686 C 434 -3.19134 3.16834 0
M  V30 4687 C 432.77 -3.26301 3.85818 0
M  V30 4688 C 434.968 -3.05077 4.14044 0
M  V30 4689 N 432.95 -3.17739 5.25276 0
M  V30 4690 C 434.321 -3.04299 5.40187 0
M  V30 4691 C 436.376 -2.89303 4.05226 0
M  V30 4692 C 435.079 -2.89365 6.58529 0
M  V30 4693 C 437.105 -2.75723 5.23193 0
M  V30 4694 C 436.467 -2.75612 6.48242 0
M  V30 4695 H 432.566 -0.652919 0.430373 0
M  V30 4696 H 435.15 -1.20755 1.52729 0
M  V30 4697 H 433.321 -3.70266 1.17294 0
M  V30 4698 H 435.053 -3.79637 1.40208 0
M  V30 4699 H 431.808 -3.33078 3.36684 0
M  V30 4700 H 432.232 -3.16829 5.98288 0
M  V30 4701 H 436.874 -2.88201 3.09354 0
M  V30 4702 H 434.592 -2.89216 7.54573 0
M  V30 4703 H 438.178 -2.64533 5.18183 0
M  V30 4704 H 437.058 -2.65224 7.37988 0
M  V30 4705 N 434.561 -1.01147 -1.20859 0
M  V30 4706 C 435.493 -0.535546 -2.22855 0
M  V30 4707 C 436.506 0.379323 -1.58319 0
M  V30 4708 O 437.695 0.178489 -1.77605 0
M  V30 4709 C 434.795 0.240962 -3.38042 0
M  V30 4710 C 433.968 -0.674562 -4.32167 0
M  V30 4711 C 433.027 0.053467 -5.26173 0
M  V30 4712 O 432.053 -0.567339 -5.66366 0
M  V30 4713 N 433.255 1.32997 -5.65059 0
M  V30 4714 H 436.02 -1.41268 -2.64317 0
M  V30 4715 H 433.581 -0.888386 -1.35349 0
M  V30 4716 H 435.573 0.737115 -3.97931 0
M  V30 4717 H 434.143 1.01935 -2.95513 0
M  V30 4718 H 433.363 -1.35111 -3.70322 0
M  V30 4719 H 434.651 -1.2974 -4.91981 0
M  V30 4720 H 434.049 1.85536 -5.34409 0
M  V30 4721 H 432.606 1.77095 -6.2728 0
M  V30 4722 N 436.039 1.36541 -0.78704 0
M  V30 4723 C 436.987 2.31965 -0.171724 0
M  V30 4724 C 437.981 1.55689 0.667631 0
M  V30 4725 O 439.187 1.70969 0.562981 0
M  V30 4726 H 435.562 0.751101 -0.0367545 0
M  V30 4727 H 437.533 2.81428 -0.992017 0
M  V30 4728 C 436.282 3.40968 0.680904 0
M  V30 4729 H 435.605 3.99775 0.0443961 0
M  V30 4730 H 437.045 4.10063 1.07815 0
M  V30 4731 C 435.504 2.82338 1.83813 0
M  V30 4732 O 436.034 2.74311 2.93456 0
M  V30 4733 N 434.24 2.39661 1.6435 0
M  V30 4734 H 433.787 2.46389 0.751668 0
M  V30 4735 H 433.745 2.00779 2.4194 0
M  V30 4736 N 437.518 0.538854 1.48102 0
M  V30 4737 C 438.466 -0.232325 2.31437 0
M  V30 4738 C 439.46 -0.927004 1.41785 0
M  V30 4739 O 440.666 -0.850378 1.58646 0
M  V30 4740 H 437.041 -0.0937916 0.746128 0
M  V30 4741 H 439.012 0.489986 2.9435 0
M  V30 4742 C 437.761 -1.26074 3.24038 0
M  V30 4743 H 437.084 -0.735609 3.92974 0
M  V30 4744 H 438.524 -1.77157 3.85216 0
M  V30 4745 C 436.983 -2.29902 2.46265 0
M  V30 4746 O 437.513 -3.36502 2.19384 0
M  V30 4747 N 435.719 -2.03348 2.07601 0
M  V30 4748 H 435.266 -1.16675 2.29662 0
M  V30 4749 H 435.224 -2.73038 1.55877 0
M  V30 4750 N 438.996 -1.55193 0.274407 0
M  V30 4751 C 439.959 -2.212 -0.600279 0
M  V30 4752 C 440.959 -1.18963 -1.08187 0
M  V30 4753 O 442.149 -1.43873 -0.982158 0
M  V30 4754 C 439.281 -2.87739 -1.82809 0
M  V30 4755 H 440.474 -2.9989 -0.0239682 0
M  V30 4756 H 438.027 -1.5628 0.0250192 0
M  V30 4757 H 438.762 -2.13058 -2.44493 0
M  V30 4758 H 438.547 -3.62658 -1.49069 0
M  V30 4759 H 440.037 -3.38171 -2.45011 0
M  V30 4760 N 440.474 -0.00167713 -1.576 0
M  V30 4761 C 441.722 0.681471 -1.90264 0
M  V30 4762 C 442.043 1.7422 -0.875924 0
M  V30 4763 O 441.313 1.95709 0.0864412 0
M  V30 4764 H 439.893 0.254696 -0.702239 0
M  V30 4765 H 442.555 -0.0429996 -1.94853 0
M  V30 4766 H 441.651 1.15166 -2.90075 0
M  V30 4767 N 441.952 1.55251 0.271103 0
M  V30 4768 C 442.899 1.88261 1.33516 0
M  V30 4769 C 443.869 0.734296 1.48988 0
M  V30 4770 O 445.054 0.985741 1.63364 0
M  V30 4771 C 442.194 2.16168 2.69008 0
M  V30 4772 C 441.307 3.43678 2.61743 0
M  V30 4773 C 440.442 3.61276 3.89427 0
M  V30 4774 C 439.481 4.82472 3.7668 0
M  V30 4775 N 438.618 4.96717 4.96202 0
M  V30 4776 H 443.458 2.79015 1.04665 0
M  V30 4777 H 440.995 1.38137 0.505618 0
M  V30 4778 H 442.953 2.30349 3.47844 0
M  V30 4779 H 441.583 1.28646 2.96057 0
M  V30 4780 H 440.635 3.37959 1.74607 0
M  V30 4781 H 441.947 4.3265 2.48224 0
M  V30 4782 H 441.101 3.75284 4.76704 0
M  V30 4783 H 439.84 2.70492 4.05814 0
M  V30 4784 H 438.845 4.68465 2.87786 0
M  V30 4785 H 440.07 5.74692 3.61809 0
M  V30 4786 H 438.016 4.08865 5.12997 0
M  V30 4787 H 437.933 5.79738 4.85222 0
M  V30 4788 H 439.201 5.15113 5.85046 0
M  V30 4789 N 443.43 -0.535701 1.48216 0
M  V30 4790 C 444.36 -1.65014 1.65204 0
M  V30 4791 C 445.341 -1.62554 0.501011 0
M  V30 4792 O 446.526 -1.7984 0.732886 0
M  V30 4793 C 443.656 -3.03616 1.68626 0
M  V30 4794 C 442.61 -3.20932 2.83172 0
M  V30 4795 C 441.936 -4.60537 2.71679 0
M  V30 4796 C 443.236 -3.04249 4.24535 0
M  V30 4797 H 444.93 -1.51053 2.58502 0
M  V30 4798 H 442.476 -0.725262 1.24402 0
M  V30 4799 H 444.429 -3.81446 1.79099 0
M  V30 4800 H 443.153 -3.18587 0.719026 0
M  V30 4801 H 441.812 -2.45517 2.72244 0
M  V30 4802 H 441.46 -4.72336 1.72937 0
M  V30 4803 H 441.16 -4.73069 3.48538 0
M  V30 4804 H 442.684 -5.40475 2.84112 0
M  V30 4805 H 444.098 -3.71877 4.36326 0
M  V30 4806 H 442.495 -3.28278 5.02348 0
M  V30 4807 H 443.565 -2.00739 4.41397 0
M  V30 4808 N 444.908 -1.36708 -0.784132 0
M  V30 4809 C 445.818 -1.3363 -1.92822 0
M  V30 4810 C 446.834 -0.237686 -1.72369 0
M  V30 4811 O 448.01 -0.470962 -1.95816 0
M  V30 4812 C 445.075 -1.13011 -3.27764 0
M  V30 4813 C 444.136 -2.32397 -3.60957 0
M  V30 4814 C 443.369 -2.12752 -4.89461 0
M  V30 4815 O 443.592 -1.10541 -5.59586 0
M  V30 4816 O 442.526 -3.00653 -5.21432 0
M  V30 4817 H 446.352 -2.29964 -1.98369 0
M  V30 4818 H 443.937 -1.1731 -0.925136 0
M  V30 4819 H 445.819 -1.03451 -4.08504 0
M  V30 4820 H 444.494 -0.19743 -3.23097 0
M  V30 4821 H 443.401 -2.47527 -2.80502 0
M  V30 4822 H 444.734 -3.2419 -3.70354 0
M  V30 4823 N 446.386 1.0089 -1.21074 0
M  V30 4824 C 447.334 2.11707 -0.963476 0
M  V30 4825 C 448.328 1.69172 0.0879032 0
M  V30 4826 O 449.534 1.79889 -0.0631415 0
M  V30 4827 H 445.909 0.692026 -0.294287 0
M  V30 4828 H 447.88 2.29743 -1.90422 0
M  V30 4829 C 446.629 3.43473 -0.540509 0
M  V30 4830 H 445.952 3.76634 -1.34114 0
M  V30 4831 H 447.392 4.22044 -0.406777 0
M  V30 4832 C 445.851 3.2849 0.748079 0
M  V30 4833 O 446.381 3.58883 1.8046 0
M  V30 4834 N 444.587 2.81715 0.713081 0
M  V30 4835 H 444.134 2.5718 -0.146973 0
M  V30 4836 H 444.092 2.72071 1.57558 0
M  V30 4837 N 447.864 1.01787 1.20321 0
M  V30 4838 C 449.094 0.72614 1.93419 0
M  V30 4839 C 449.502 -0.717317 1.75075 0
M  V30 4840 O 448.845 -1.49836 1.06278 0
M  V30 4841 C 448.907 0.983621 3.45782 0
M  V30 4842 C 448.571 2.41645 3.87888 0
M  V30 4843 C 449.568 3.39732 3.93545 0
M  V30 4844 C 447.253 2.75752 4.19841 0
M  V30 4845 C 449.247 4.69988 4.30569 0
M  V30 4846 C 446.934 4.06221 4.56539 0
M  V30 4847 C 447.932 5.0315 4.61876 0
M  V30 4848 O 447.62 6.31284 4.97731 0
M  V30 4849 H 447.352 0.265824 0.621541 0
M  V30 4850 H 449.906 1.3623 1.53722 0
M  V30 4851 H 448.136 0.290301 3.85609 0
M  V30 4852 H 449.825 0.683279 4.00108 0
M  V30 4853 H 450.591 3.14718 3.69022 0
M  V30 4854 H 446.47 2.00993 4.14877 0
M  V30 4855 H 450.014 5.45642 4.3465 0
M  V30 4856 H 445.911 4.31013 4.80518 0
M  V30 4857 H 446.679 6.35591 5.15719 0
M  V30 4858 N 449.342 -1.36122 0.79427 0
M  V30 4859 C 450.272 -2.32551 0.210328 0
M  V30 4860 C 451.253 -1.56884 -0.657386 0
M  V30 4861 O 452.438 -1.85014 -0.590207 0
M  V30 4862 C 449.568 -3.41128 -0.651819 0
M  V30 4863 C 448.522 -4.27842 0.116395 0
M  V30 4864 C 447.848 -5.2763 -0.86666 0
M  V30 4865 C 449.148 -5.05647 1.30837 0
M  V30 4866 H 450.842 -2.81636 1.01594 0
M  V30 4867 H 448.388 -1.35407 0.489981 0
M  V30 4868 H 450.341 -4.07581 -1.07031 0
M  V30 4869 H 449.065 -2.90622 -1.49019 0
M  V30 4870 H 447.724 -3.62952 0.515915 0
M  V30 4871 H 447.372 -4.73395 -1.70019 0
M  V30 4872 H 447.072 -5.86514 -0.35705 0
M  V30 4873 H 448.596 -5.96955 -1.28361 0
M  V30 4874 H 450.01 -5.65113 0.965393 0
M  V30 4875 H 448.407 -5.73967 1.75161 0
M  V30 4876 H 449.477 -4.37006 2.10128 0
M  V30 4877 N 450.82 -0.546701 -1.47814 0
M  V30 4878 C 451.768 0.220048 -2.31557 0
M  V30 4879 C 452.762 0.919472 -1.42275 0
M  V30 4880 O 453.968 0.841953 -1.59095 0
M  V30 4881 H 450.343 0.0898334 -0.746615 0
M  V30 4882 H 452.314 -0.505589 -2.94086 0
M  V30 4883 C 451.063 1.24353 -3.24702 0
M  V30 4884 H 450.386 0.714758 -3.93359 0
M  V30 4885 H 451.826 1.75112 -3.8615 0
M  V30 4886 C 450.285 2.28593 -2.47481 0
M  V30 4887 O 450.815 3.35334 -2.21165 0
M  V30 4888 N 449.021 2.02244 -2.08676 0
M  V30 4889 H 448.568 1.15455 -2.30278 0
M  V30 4890 H 448.526 2.72207 -1.57323 0
M  V30 4891 N 452.299 1.55045 -0.282633 0
M  V30 4892 C 453.246 2.22822 0.601566 0
M  V30 4893 C 454.216 1.20431 1.14392 0
M  V30 4894 O 455.401 1.48996 1.19184 0
M  V30 4895 C 452.541 2.95873 1.77632 0
M  V30 4896 C 451.654 4.12999 1.26711 0
M  V30 4897 C 450.789 4.73676 2.40426 0
M  V30 4898 C 449.828 5.82981 1.86545 0
M  V30 4899 N 448.965 6.3769 2.93762 0
M  V30 4900 H 453.805 2.97995 0.0169528 0
M  V30 4901 H 451.342 1.471 -0.00339964 0
M  V30 4902 H 453.3 3.36447 2.46697 0
M  V30 4903 H 451.93 2.2311 2.33285 0
M  V30 4904 H 450.982 3.77494 0.469314 0
M  V30 4905 H 452.294 4.91803 0.832518 0
M  V30 4906 H 451.448 5.17008 3.17471 0
M  V30 4907 H 450.187 3.94164 2.87203 0
M  V30 4908 H 449.192 5.39092 1.07983 0
M  V30 4909 H 450.417 6.64366 1.40694 0
M  V30 4910 H 448.363 5.61069 3.39908 0
M  V30 4911 H 448.28 7.11788 2.54744 0
M  V30 4912 H 449.548 6.8568 3.7076 0
M  V30 4913 N 453.777 0.010035 1.57597 0
M  V30 4914 C 455.005 -0.683413 1.95287 0
M  V30 4915 C 455.42 -1.66747 0.885481 0
M  V30 4916 O 454.777 -1.82003 -0.134629 0
M  V30 4917 C 454.828 -1.40652 3.33015 0
M  V30 4918 O 454.549 -0.461916 4.35658 0
M  V30 4919 C 456.05 -2.19356 3.85225 0
M  V30 4920 H 453.27 -0.189708 0.643624 0
M  V30 4921 H 455.814 0.0641359 2.04399 0
M  V30 4922 H 453.969 -2.10562 3.2518 0
M  V30 4923 H 454.383 -0.973215 5.15392 0
M  V30 4924 H 455.857 -2.65433 4.83993 0
M  V30 4925 H 456.334 -3.02457 3.18459 0
M  V30 4926 H 456.94 -1.54442 3.96267 0
M  V30 4927 N 455.255 -1.55392 -0.262866 0
M  V30 4928 C 456.48 -1.80847 -1.01533 0
M  V30 4929 C 456.905 -0.584946 -1.78774 0
M  V30 4930 O 456.263 0.465701 -1.75217 0
M  V30 4931 C 456.311 -3.03866 -1.94159 0
M  V30 4932 O 455.415 -2.79662 -3.03089 0
M  V30 4933 H 454.756 -0.597441 -0.289759 0
M  V30 4934 H 457.286 -2.02553 -0.288698 0
M  V30 4935 H 457.296 -3.32872 -2.35924 0
M  V30 4936 H 455.971 -3.92564 -1.37354 0
M  V30 4937 H 454.548 -2.61781 -2.65566 0
M  V30 4938 N 456.733 0.527833 -1.48498 0
M  V30 4939 C 457.98 1.28354 -1.56625 0
M  V30 4940 C 458.308 1.93 -0.241096 0
M  V30 4941 O 457.563 1.79967 0.768798 0
M  V30 4942 C 457.862 2.39275 -2.65485 0
M  V30 4943 C 457.528 1.92268 -4.07853 0
M  V30 4944 C 456.19 1.79166 -4.46602 0
M  V30 4945 C 458.542 1.56771 -4.97064 0
M  V30 4946 C 455.87 1.28905 -5.72364 0
M  V30 4947 C 458.222 1.07972 -6.23318 0
M  V30 4948 C 456.886 0.934887 -6.60921 0
M  V30 4949 H 456.156 0.469682 -0.573131 0
M  V30 4950 H 458.803 0.588781 -1.82224 0
M  V30 4951 H 457.108 3.1443 -2.33754 0
M  V30 4952 H 458.805 2.974 -2.68988 0
M  V30 4953 H 455.395 2.03417 -3.77252 0
M  V30 4954 H 459.579 1.65753 -4.67803 0
M  V30 4955 H 454.835 1.16381 -6.00221 0
M  V30 4956 H 459.009 0.795775 -6.91838 0
M  V30 4957 H 456.636 0.543231 -7.58257 0
M  V30 4958 N 458.211 1.37122 0.776871 0
M  V30 4959 C 459.159 1.32549 1.91138 0
M  V30 4960 C 460.153 0.215119 1.68029 0
M  V30 4961 O 461.359 0.382852 1.75881 0
M  V30 4962 H 457.734 0.412952 0.62847 0
M  V30 4963 H 459.705 2.28332 1.92112 0
M  V30 4964 C 458.454 1.14422 3.28333 0
M  V30 4965 H 457.777 1.99115 3.46689 0
M  V30 4966 H 459.217 1.15272 4.0803 0
M  V30 4967 C 457.676 -0.150434 3.36564 0
M  V30 4968 O 458.206 -1.13584 3.85307 0
M  V30 4969 N 456.412 -0.19939 2.89915 0
M  V30 4970 H 455.959 0.603142 2.5044 0
M  V30 4971 H 455.917 -1.06526 2.95803 0
M  V30 4972 N 459.689 -1.00246 1.21608 0
M  V30 4973 C 460.621 -2.09244 0.935401 0
M  V30 4974 C 461.634 -1.62592 -0.0823594 0
M  V30 4975 O 462.823 -1.77865 0.150456 0
M  V30 4976 C 459.923 -3.36724 0.383453 0
M  V30 4977 C 459.096 -4.1245 1.45615 0
M  V30 4978 C 458.155 -5.18219 0.912991 0
M  V30 4979 O 457.181 -5.46337 1.59701 0
M  V30 4980 N 458.383 -5.7987 -0.270478 0
M  V30 4981 H 461.148 -2.33905 1.87373 0
M  V30 4982 H 458.709 -1.16748 1.12167 0
M  V30 4983 H 460.701 -4.047 0.00562157 0
M  V30 4984 H 459.271 -3.09201 -0.459758 0
M  V30 4985 H 458.491 -3.39241 2.00772 0
M  V30 4986 H 459.779 -4.59819 2.17817 0
M  V30 4987 H 459.177 -5.59381 -0.843195 0
M  V30 4988 H 457.734 -6.49126 -0.589794 0
M  V30 4989 N 461.167 -1.02423 -1.1978 0
M  V30 4990 C 462.392 -0.7373 -1.93852 0
M  V30 4991 C 462.817 0.696923 -1.74713 0
M  V30 4992 O 462.175 1.48056 -1.04638 0
M  V30 4993 C 462.223 -1.08783 -3.438 0
M  V30 4994 O 461.327 -0.20383 -4.11896 0
M  V30 4995 H 460.668 -0.27284 -0.605355 0
M  V30 4996 H 463.198 -1.36966 -1.51992 0
M  V30 4997 H 463.208 -1.04276 -3.9445 0
M  V30 4998 H 461.883 -2.13274 -3.57053 0
M  V30 4999 H 460.46 -0.307091 -3.71633 0
M  V30 5000 N 462.645 1.35699 -0.801477 0
M  V30 5001 C 463.891 1.99208 -0.380022 0
M  V30 5002 C 464.224 1.63445 1.04878 0
M  V30 5003 O 463.499 0.895223 1.72673 0
M  V30 5004 C 463.782 3.55755 -0.557708 0
M  V30 5005 C 463.635 4.01332 -2.03107 0
M  V30 5006 C 464.954 4.40096 0.0197968 0
M  V30 5007 H 462.073 0.723667 -0.139552 0
M  V30 5008 H 464.715 1.60928 -1.01006 0
M  V30 5009 H 462.865 3.88494 -0.0213741 0
M  V30 5010 H 464.537 3.79026 -2.62939 0
M  V30 5011 H 462.78 3.52429 -2.52936 0
M  V30 5012 H 463.451 5.10234 -2.1063 0
M  V30 5013 H 465.927 4.13786 -0.438179 0
M  V30 5014 H 464.803 5.48735 -0.134477 0
M  V30 5015 H 465.064 4.2786 1.11303 0
M  V30 5016 N 464.123 0.554532 1.47522 0
M  V30 5017 C 465.37 0.029479 2.02479 0
M  V30 5018 C 465.698 -1.31929 1.42916 0
M  V30 5019 O 464.953 -1.87112 0.573385 0
M  V30 5020 C 465.252 -0.115927 3.57212 0
M  V30 5021 C 464.918 1.16161 4.3568 0
M  V30 5022 C 463.58 1.51168 4.56839 0
M  V30 5023 C 465.932 2.0083 4.80954 0
M  V30 5024 C 463.26 2.70696 5.2052 0
M  V30 5025 C 465.612 3.19559 5.45953 0
M  V30 5026 C 464.276 3.54882 5.65345 0
M  V30 5027 H 463.546 0.0107871 0.740921 0
M  V30 5028 H 466.193 0.725506 1.77225 0
M  V30 5029 H 464.498 -0.894902 3.81443 0
M  V30 5030 H 466.195 -0.53749 3.97381 0
M  V30 5031 H 462.785 0.879026 4.19489 0
M  V30 5032 H 466.969 1.75093 4.64388 0
M  V30 5033 H 462.225 2.98236 5.33728 0
M  V30 5034 H 466.399 3.85456 5.79997 0
M  V30 5035 H 464.026 4.47596 6.1446 0
M  V30 5036 N 465.601 -1.54893 0.290851 0
M  V30 5037 C 466.878 -1.91991 -0.373989 0
M  V30 5038 C 467.258 -1.21694 -1.72493 0
M  V30 5039 O 466.606 -0.34917 -2.25816 0
M  V30 5040 C 466.816 -3.45419 -0.498703 0
M  V30 5041 C 468.164 -4.1748 -0.774298 0
M  V30 5042 O 469.188 -3.51398 -0.582908 0
M  V30 5043 O 468.047 -5.3445 -1.14129 0
M  V30 5044 H 465.141 -0.800593 -0.207315 0
M  V30 5045 H 467.687 -1.66297 0.338164 0
M  V30 5046 H 466.459 -3.88688 0.451392 0
M  V30 5047 H 466.082 -3.77117 -1.25972 0
M  V30 5048 N 467.08 -0.0183926 -1.57589 0
M  V30 5049 C 468.326 0.663543 -1.91638 0
M  V30 5050 C 468.659 1.72392 -0.894134 0
M  V30 5051 O 467.934 1.94316 0.0846449 0
M  V30 5052 C 468.217 1.28984 -3.36207 0
M  V30 5053 C 468.07 0.239761 -4.49161 0
M  V30 5054 C 469.389 2.2109 -3.80536 0
M  V30 5055 H 466.508 0.239746 -0.696915 0
M  V30 5056 H 469.15 -0.073456 -1.89858 0
M  V30 5057 H 467.3 1.91799 -3.37854 0
M  V30 5058 H 468.972 -0.390119 -4.59647 0
M  V30 5059 H 467.215 -0.435972 -4.31604 0
M  V30 5060 H 467.886 0.717383 -5.47319 0
M  V30 5061 H 470.362 1.68273 -3.80557 0
M  V30 5062 H 469.238 2.61869 -4.82406 0
M  V30 5063 H 469.499 3.09764 -3.15434 0
M  V30 5064 N 468.558 1.5553 0.254621 0
M  V30 5065 C 469.969 1.67518 0.824286 0
M  V30 5066 C 470.32 0.614429 1.86331 0
M  V30 5067 O 469.445 -0.240736 2.15057 0
M  V30 5068 C 470.04 3.03692 1.50189 0
M  V30 5069 C 468.599 3.17646 2.01935 0
M  V30 5070 C 467.746 2.63373 0.867746 0
M  V30 5071 H 470.697 1.58671 0.0305843 0
M  V30 5072 H 470.718 2.97706 2.36962 0
M  V30 5073 H 470.23 3.80874 0.745431 0
M  V30 5074 H 468.331 2.45273 2.80485 0
M  V30 5075 H 468.444 4.24455 2.22204 0
M  V30 5076 H 466.808 2.20999 1.26616 0
M  V30 5077 H 467.591 3.43074 0.124498 0
M  V30 5078 N 470.036 -0.519951 1.48776 0
M  V30 5079 C 470.966 -1.63253 1.66945 0
M  V30 5080 C 471.947 -1.62014 0.518224 0
M  V30 5081 O 473.132 -1.79053 0.751919 0
M  V30 5082 C 470.262 -3.0181 1.71836 0
M  V30 5083 C 469.216 -3.17911 2.8656 0
M  V30 5084 C 468.542 -4.5763 2.76548 0
M  V30 5085 C 469.842 -2.99729 4.27738 0
M  V30 5086 H 471.536 -1.48302 2.6009 0
M  V30 5087 H 469.082 -0.712026 1.25165 0
M  V30 5088 H 471.035 -3.79525 1.83135 0
M  V30 5089 H 469.759 -3.17806 0.752775 0
M  V30 5090 H 468.418 -2.42616 2.74833 0
M  V30 5091 H 468.066 -4.70476 1.77937 0
M  V30 5092 H 467.766 -4.69346 3.53536 0
M  V30 5093 H 469.29 -5.37431 2.89828 0
M  V30 5094 H 470.704 -3.67228 4.40246 0
M  V30 5095 H 469.101 -3.22932 5.05801 0
M  V30 5096 H 470.171 -1.96047 4.43502 0
M  V30 5097 N 471.514 -1.37532 -0.769588 0
M  V30 5098 C 472.464 -1.29984 -1.87318 0
M  V30 5099 C 473.448 -0.187242 -1.59807 0
M  V30 5100 O 474.64 -0.421827 -1.719 0
M  V30 5101 C 471.769 -1.11126 -3.24817 0
M  V30 5102 C 470.855 -2.26939 -3.58273 0
M  V30 5103 N 471.246 -3.52336 -3.62895 0
M  V30 5104 C 469.544 -2.19141 -3.8845 0
M  V30 5105 C 470.245 -4.28719 -3.9316 0
M  V30 5106 N 469.221 -3.57884 -4.0917 0
M  V30 5107 H 473.023 -2.24946 -1.89147 0
M  V30 5108 H 470.537 -1.30535 -0.966143 0
M  V30 5109 H 472.534 -1.03803 -4.0377 0
M  V30 5110 H 471.194 -0.17083 -3.2425 0
M  V30 5111 H 472.205 -3.86216 -3.45048 0
M  V30 5112 H 468.882 -1.33167 -3.95693 0
M  V30 5113 H 470.272 -5.37254 -4.03494 0
M  V30 5114 N 472.992 0.995999 -1.22138 0
M  V30 5115 C 474.239 1.7351 -1.04406 0
M  V30 5116 C 474.567 1.89884 0.421244 0
M  V30 5117 O 473.822 1.43683 1.32867 0
M  V30 5118 C 474.121 3.14553 -1.6968 0
M  V30 5119 C 473.787 3.18102 -3.19565 0
M  V30 5120 C 472.449 3.18778 -3.60464 0
M  V30 5121 C 474.801 3.14636 -4.15516 0
M  V30 5122 C 472.129 3.13684 -4.95801 0
M  V30 5123 C 474.481 3.11084 -5.50826 0
M  V30 5124 C 473.145 3.10074 -5.91109 0
M  V30 5125 H 472.415 0.634916 -0.38205 0
M  V30 5126 H 475.062 1.1667 -1.51857 0
M  V30 5127 H 473.367 3.74682 -1.14546 0
M  V30 5128 H 475.064 3.70477 -1.53454 0
M  V30 5129 H 471.654 3.18324 -2.86998 0
M  V30 5130 H 475.838 3.13266 -3.84939 0
M  V30 5131 H 471.094 3.11245 -5.26247 0
M  V30 5132 H 475.268 3.07357 -6.24904 0
M  V30 5133 H 472.895 3.05882 -6.95946 0
M  V30 5134 N 474.47 1.03057 1.19235 0
M  V30 5135 C 475.418 0.606391 2.24557 0
M  V30 5136 C 476.412 -0.361826 1.65491 0
M  V30 5137 O 477.618 -0.23022 1.78522 0
M  V30 5138 H 473.993 0.177838 0.730669 0
M  V30 5139 H 475.964 1.50529 2.5765 0
M  V30 5140 C 474.713 -0.0252127 3.47691 0
M  V30 5141 H 474.036 0.710838 3.9343 0
M  V30 5142 H 475.476 -0.284931 4.23042 0
M  V30 5143 C 473.935 -1.27229 3.11953 0
M  V30 5144 O 474.465 -2.36416 3.24762 0
M  V30 5145 N 472.671 -1.16169 2.6637 0
M  V30 5146 H 472.218 -0.273189 2.56147 0
M  V30 5147 H 472.176 -1.99703 2.42829 0
M  V30 5148 N 475.948 -1.35272 0.808662 0
M  V30 5149 C 476.878 -2.32315 0.234981 0
M  V30 5150 C 477.859 -1.57572 -0.64071 0
M  V30 5151 O 479.044 -1.8563 -0.570551 0
M  V30 5152 C 476.174 -3.41801 -0.615601 0
M  V30 5153 C 475.128 -4.27694 0.161767 0
M  V30 5154 C 474.454 -5.28519 -0.810649 0
M  V30 5155 C 475.754 -5.04231 1.36193 0
M  V30 5156 H 477.448 -2.80543 1.04575 0
M  V30 5157 H 474.994 -1.3488 0.504315 0
M  V30 5158 H 476.947 -4.08693 -1.02702 0
M  V30 5159 H 475.671 -2.92186 -1.45928 0
M  V30 5160 H 474.33 -3.62384 0.554382 0
M  V30 5161 H 473.978 -4.75171 -1.64988 0
M  V30 5162 H 473.678 -5.8686 -0.294822 0
M  V30 5163 H 475.202 -5.98283 -1.22023 0
M  V30 5164 H 476.616 -5.64058 1.02528 0
M  V30 5165 H 475.013 -5.72077 1.81239 0
M  V30 5166 H 476.083 -4.34753 2.14751 0
M  V30 5167 N 477.426 -0.562348 -1.47226 0
M  V30 5168 C 478.358 0.220011 -2.28142 0
M  V30 5169 C 479.371 0.874596 -1.37312 0
M  V30 5170 O 480.56 0.747583 -1.62091 0
M  V30 5171 C 477.66 1.32953 -3.11732 0
M  V30 5172 C 476.833 0.770759 -4.30556 0
M  V30 5173 C 475.892 1.76541 -4.95701 0
M  V30 5174 O 474.918 1.3095 -5.53932 0
M  V30 5175 N 476.12 3.09896 -4.90861 0
M  V30 5176 H 478.885 -0.474107 -2.95926 0
M  V30 5177 H 476.446 -0.398761 -1.56912 0
M  V30 5178 H 478.438 1.99378 -3.5218 0
M  V30 5179 H 477.008 1.92681 -2.46156 0
M  V30 5180 H 476.228 -0.0704056 -3.94137 0
M  V30 5181 H 477.516 0.376872 -5.07402 0
M  V30 5182 H 476.914 3.49577 -4.44761 0
M  V30 5183 H 475.471 3.71865 -5.35313 0
M  V30 5184 N 478.904 1.54736 -0.299062 0
M  V30 5185 C 479.867 2.22127 0.565012 0
M  V30 5186 C 480.867 1.20669 1.06281 0
M  V30 5187 O 482.057 1.45417 0.959145 0
M  V30 5188 C 479.189 2.90611 1.78208 0
M  V30 5189 H 480.382 2.99891 -0.0237448 0
M  V30 5190 H 477.935 1.5622 -0.0498788 0
M  V30 5191 H 478.67 2.16921 2.41072 0
M  V30 5192 H 478.455 3.64984 1.43281 0
M  V30 5193 H 479.945 3.42026 2.396 0
M  V30 5194 N 480.382 0.0267497 1.57577 0
M  V30 5195 C 481.345 -0.940916 2.08996 0
M  V30 5196 C 482.345 -1.25561 1.00455 0
M  V30 5197 O 483.535 -1.19634 1.26623 0
M  V30 5198 C 480.667 -2.25814 2.55384 0
M  V30 5199 H 481.86 -0.495628 2.95776 0
M  V30 5200 H 479.413 -0.221241 1.54726 0
M  V30 5201 H 480.148 -2.74976 1.71926 0
M  V30 5202 H 479.933 -2.04285 3.34679 0
M  V30 5203 H 481.423 -2.95178 2.95398 0
M  V30 5204 N 481.861 -1.55662 -0.24637 0
M  V30 5205 C 483.086 -1.81914 -0.996093 0
M  V30 5206 C 483.511 -0.603875 -1.78143 0
M  V30 5207 O 482.869 0.447091 -1.75701 0
M  V30 5208 C 482.917 -3.05908 -1.90925 0
M  V30 5209 O 482.021 -2.82861 -3.00105 0
M  V30 5210 H 481.362 -0.600481 -0.283406 0
M  V30 5211 H 483.892 -2.02848 -0.267199 0
M  V30 5212 H 483.902 -3.35356 -2.3238 0
M  V30 5213 H 482.577 -3.93999 -1.33183 0
M  V30 5214 H 481.154 -2.64583 -2.62775 0
M  V30 5215 N 483.339 0.512053 -1.4905 0
M  V30 5216 C 484.564 1.2959 -1.6193 0
M  V30 5217 C 484.989 1.85906 -0.286454 0
M  V30 5218 O 484.347 1.65312 0.744426 0
M  V30 5219 C 484.395 2.40987 -2.68249 0
M  V30 5220 O 483.499 3.44531 -2.26654 0
M  V30 5221 H 482.84 0.383053 -0.542371 0
M  V30 5222 H 485.37 0.614231 -1.95162 0
M  V30 5223 H 485.38 2.86913 -2.90078 0
M  V30 5224 H 484.055 1.99361 -3.65004 0
M  V30 5225 H 482.632 3.046 -2.15112 0
M  V30 5226 N 484.817 1.37938 0.762283 0
M  V30 5227 C 485.749 1.30349 1.88525 0
M  V30 5228 C 486.762 0.217402 1.61342 0
M  V30 5229 O 487.951 0.474291 1.72084 0
M  V30 5230 C 485.051 0.994844 3.23969 0
M  V30 5231 C 484.224 2.18829 3.78725 0
M  V30 5232 C 483.283 1.84844 4.92665 0
M  V30 5233 O 482.309 2.57244 5.07754 0
M  V30 5234 N 483.511 0.798201 5.74986 0
M  V30 5235 H 486.276 2.27114 1.95549 0
M  V30 5236 H 483.837 1.31686 0.941825 0
M  V30 5237 H 485.829 0.748168 3.97724 0
M  V30 5238 H 484.399 0.115446 3.12387 0
M  V30 5239 H 483.619 2.59615 2.96637 0
M  V30 5240 H 484.907 2.98497 4.1204 0
M  V30 5241 H 484.305 0.197611 5.65355 0
M  V30 5242 H 482.862 0.611396 6.48926 0
M  V30 5243 N 486.295 -0.989507 1.22664 0
M  V30 5244 C 487.543 -1.72612 1.05117 0
M  V30 5245 C 487.864 -1.90552 -0.414131 0
M  V30 5246 O 487.134 -1.4676 -1.29762 0
M  V30 5247 H 485.714 -0.639555 0.385977 0
M  V30 5248 H 488.376 -1.19158 1.54232 0
M  V30 5249 H 487.472 -2.71926 1.53175 0
M  V30 5250 N 487.773 -1.03688 -1.18687 0
M  V30 5251 C 489.021 -0.736572 -1.88199 0
M  V30 5252 C 489.342 0.737665 -1.80509 0
M  V30 5253 O 488.612 1.53204 -1.22088 0
M  V30 5254 H 487.192 -0.269466 -0.696704 0
M  V30 5255 H 489.854 -1.31282 -1.44052 0
M  V30 5256 H 488.95 -1.03802 -2.94332 0
M  V30 5257 N 489.251 1.34841 -0.815825 0
M  V30 5258 C 490.499 1.98107 -0.399744 0
M  V30 5259 C 490.82 1.65019 1.03894 0
M  V30 5260 O 490.09 0.937311 1.72021 0
M  V30 5261 H 488.67 0.732827 -0.144823 0
M  V30 5262 H 491.332 1.64599 -1.0437 0
M  V30 5263 H 490.428 3.07856 -0.512965 0
M  V30 5264 N 490.729 0.570148 1.46925 0
M  V30 5265 C 491.959 0.0561151 2.06524 0
M  V30 5266 C 492.367 -1.24874 1.42137 0
M  V30 5267 O 491.71 -1.76292 0.516417 0
M  V30 5268 C 491.772 -0.197035 3.5896 0
M  V30 5269 C 491.436 1.02033 4.45464 0
M  V30 5270 C 492.433 1.92921 4.82781 0
M  V30 5271 C 490.118 1.23864 4.86788 0
M  V30 5272 C 492.112 3.03999 5.60235 0
M  V30 5273 C 489.799 2.35249 5.64004 0
M  V30 5274 C 490.797 3.25146 6.0064 0
M  V30 5275 O 490.485 4.34598 6.76299 0
M  V30 5276 H 490.217 0.0487409 0.674241 0
M  V30 5277 H 492.771 0.786915 1.89728 0
M  V30 5278 H 491.001 -0.982299 3.74016 0
M  V30 5279 H 492.69 -0.658032 4.00531 0
M  V30 5280 H 493.456 1.77265 4.51444 0
M  V30 5281 H 489.335 0.54805 4.57731 0
M  V30 5282 H 492.879 3.74192 5.8875 0
M  V30 5283 H 488.776 2.50873 5.94755 0
M  V30 5284 H 489.544 4.32808 6.94708 0
M  V30 5285 N 492.207 -1.54576 0.307264 0
M  V30 5286 C 493.484 -1.92377 -0.353605 0
M  V30 5287 C 493.864 -1.23517 -1.71192 0
M  V30 5288 O 493.212 -0.373101 -2.25433 0
M  V30 5289 C 493.422 -3.45928 -0.462039 0
M  V30 5290 C 494.77 -4.18278 -0.729975 0
M  V30 5291 O 495.794 -3.51997 -0.545605 0
M  V30 5292 O 494.653 -5.3563 -1.08454 0
M  V30 5293 H 491.747 -0.802747 -0.198812 0
M  V30 5294 H 494.293 -1.65929 0.355783 0
M  V30 5295 H 493.065 -3.88187 0.492592 0
M  V30 5296 H 492.688 -3.78431 -1.21965 0
M  V30 5297 N 493.685 -0.035106 -1.57561 0
M  V30 5298 C 494.618 0.979673 -2.06101 0
M  V30 5299 C 495.596 1.31378 -0.958046 0
M  V30 5300 O 496.78 1.42942 -1.22881 0
M  V30 5301 C 493.907 2.29809 -2.48808 0
M  V30 5302 C 492.953 2.11817 -3.70184 0
M  V30 5303 S 493.786 1.41143 -5.16565 0
M  V30 5304 C 494.942 2.74341 -5.62572 0
M  V30 5305 H 495.175 0.566506 -2.91853 0
M  V30 5306 H 492.708 0.176744 -1.53385 0
M  V30 5307 H 494.666 3.056 -2.74078 0
M  V30 5308 H 493.327 2.68257 -1.63392 0
M  V30 5309 H 492.52 3.09299 -3.97933 0
M  V30 5310 H 492.122 1.44168 -3.45097 0
M  V30 5311 H 494.414 3.70562 -5.67177 0
M  V30 5312 H 495.357 2.51249 -6.62027 0
M  V30 5313 H 495.765 2.79863 -4.90242 0
M  V30 5314 N 495.163 1.55791 0.238111 0
M  V30 5315 C 496.579 1.48411 0.587045 0
M  V30 5316 C 496.779 0.72702 1.87927 0
M  V30 5317 O 495.835 0.259942 2.51158 0
M  V30 5318 C 497.148 2.92873 0.681623 0
M  V30 5319 C 498.696 3.03295 0.773363 0
M  V30 5320 C 499.171 4.49082 0.899428 0
M  V30 5321 N 500.662 4.53056 0.964075 0
M  V30 5322 C 501.397 5.63117 1.08104 0
M  V30 5323 N 500.893 6.82969 1.16299 0
M  V30 5324 N 502.686 5.50933 1.11488 0
M  V30 5325 H 494.837 2.0345 -0.610076 0
M  V30 5326 H 497.1 0.924034 -0.211813 0
M  V30 5327 H 496.806 3.51142 -0.19802 0
M  V30 5328 H 496.68 3.43851 1.55069 0
M  V30 5329 H 499.067 2.45101 1.64346 0
M  V30 5330 H 499.148 2.55513 -0.121034 0
M  V30 5331 H 498.792 5.07889 0.0338586 0
M  V30 5332 H 498.722 4.94553 1.809 0
M  V30 5333 H 501.213 3.66737 0.91173 0
M  V30 5334 H 501.526 7.62598 1.25155 0
M  V30 5335 H 499.871 6.85712 1.13241 0
M  V30 5336 H 503.062 4.56231 1.0474 0
M  V30 5337 H 503.235 6.36743 1.20259 0
M  V30 5338 N 496.642 -0.504142 1.49319 0
M  V30 5339 C 498.058 -0.835039 1.36012 0
M  V30 5340 C 498.258 -1.97674 0.390808 0
M  V30 5341 O 497.314 -2.51867 -0.178655 0
M  V30 5342 C 498.627 -1.17821 2.76656 0
M  V30 5343 C 500.175 -1.2866 2.85334 0
M  V30 5344 C 500.65 -1.66307 4.26739 0
M  V30 5345 N 502.141 -1.73362 4.29534 0
M  V30 5346 C 502.876 -2.0393 5.35911 0
M  V30 5347 N 502.372 -2.32744 6.52535 0
M  V30 5348 N 504.165 -2.05155 5.23324 0
M  V30 5349 H 496.316 0.248764 2.10938 0
M  V30 5350 H 498.579 0.0486962 0.946748 0
M  V30 5351 H 498.285 -0.412682 3.4927 0
M  V30 5352 H 498.159 -2.12239 3.11825 0
M  V30 5353 H 500.546 -2.04285 2.1296 0
M  V30 5354 H 500.627 -0.323004 2.53752 0
M  V30 5355 H 500.271 -0.91234 4.99639 0
M  V30 5356 H 500.201 -2.63761 4.55782 0
M  V30 5357 H 502.692 -1.53268 3.45424 0
M  V30 5358 H 503.005 -2.55248 7.2943 0
M  V30 5359 H 501.35 -2.30207 6.55767 0
M  V30 5360 H 504.541 -1.82119 4.3122 0
M  V30 5361 H 504.714 -2.28644 6.06322 0
M  V30 5362 N 498.12 -1.38341 -0.754957 0
M  V30 5363 C 499.05 -1.38176 -1.88227 0
M  V30 5364 C 500.031 -0.247873 -1.68284 0
M  V30 5365 O 501.216 -0.45075 -1.88896 0
M  V30 5366 C 498.346 -1.20471 -3.25736 0
M  V30 5367 C 497.3 -2.3105 -3.60278 0
M  V30 5368 C 496.626 -1.98452 -4.96509 0
M  V30 5369 C 497.926 -3.73305 -3.65295 0
M  V30 5370 H 499.62 -2.32512 -1.88622 0
M  V30 5371 H 497.166 -1.1192 -0.906082 0
M  V30 5372 H 499.119 -1.18982 -4.04254 0
M  V30 5373 H 497.843 -0.225965 -3.25817 0
M  V30 5374 H 496.502 -2.31723 -2.84078 0
M  V30 5375 H 496.15 -0.990641 -4.93148 0
M  V30 5376 H 495.85 -2.7251 -5.20588 0
M  V30 5377 H 497.374 -1.98578 -5.77407 0
M  V30 5378 H 498.788 -3.7467 -4.3393 0
M  V30 5379 H 497.185 -4.46557 -4.00883 0
M  V30 5380 H 498.255 -4.05719 -2.65556 0
M  V30 5381 N 499.598 0.982988 -1.23187 0
M  V30 5382 C 500.528 2.09301 -1.03515 0
M  V30 5383 C 501.509 1.70035 0.0471136 0
M  V30 5384 O 502.694 1.93847 -0.117029 0
M  V30 5385 C 499.824 3.4167 -0.622791 0
M  V30 5386 C 498.778 3.94828 -1.65211 0
M  V30 5387 C 498.104 5.23362 -1.09527 0
M  V30 5388 C 499.404 4.2439 -3.04451 0
M  V30 5389 H 501.098 2.26016 -1.96359 0
M  V30 5390 H 498.644 1.08611 -0.945501 0
M  V30 5391 H 500.597 4.18746 -0.472233 0
M  V30 5392 H 499.321 3.24811 0.341329 0
M  V30 5393 H 497.98 3.19895 -1.79061 0
M  V30 5394 H 497.628 5.02852 -0.122211 0
M  V30 5395 H 497.328 5.59895 -1.783 0
M  V30 5396 H 498.852 6.03062 -0.956511 0
M  V30 5397 H 500.266 4.92225 -2.93917 0
M  V30 5398 H 498.663 4.72118 -3.70438 0
M  V30 5399 H 499.733 3.31765 -3.53638 0
M  V30 5400 N 501.076 1.04316 1.18135 0
M  V30 5401 C 502.353 0.662166 1.84051 0
M  V30 5402 C 502.733 -0.858169 1.9287 0
M  V30 5403 O 502.081 -1.76062 1.45652 0
M  V30 5404 C 502.291 1.3409 3.22212 0
M  V30 5405 C 503.639 1.4733 3.9822 0
M  V30 5406 O 504.663 1.29921 3.31661 0
M  V30 5407 O 503.522 1.75722 5.17479 0
M  V30 5408 H 500.616 0.232005 0.79379 0
M  V30 5409 H 503.162 1.1422 1.25506 0
M  V30 5410 H 501.934 2.37853 3.10711 0
M  V30 5411 H 501.557 0.849649 3.88416 0
M  V30 5412 N 502.554 -1.34406 0.822964 0
M  V30 5413 C 503.802 -1.97892 0.410245 0
M  V30 5414 C 504.123 -1.65567 -1.03017 0
M  V30 5415 O 503.393 -0.94642 -1.71522 0
M  V30 5416 H 501.973 -0.732049 0.148707 0
M  V30 5417 H 504.635 -1.64043 1.05242 0
M  V30 5418 H 503.731 -3.07579 0.529284 0
M  V30 5419 N 504.032 -0.577932 -1.46621 0
M  V30 5420 C 505.26 -0.0671642 -2.06791 0
M  V30 5421 C 505.675 1.23571 -1.42743 0
M  V30 5422 O 505.032 1.74602 -0.531062 0
M  V30 5423 C 505.083 0.110357 -3.61332 0
M  V30 5424 O 504.804 -1.14095 -4.22982 0
M  V30 5425 C 506.305 0.656025 -4.38419 0
M  V30 5426 H 503.525 -0.0552732 -0.66872 0
M  V30 5427 H 506.069 -0.797242 -1.8832 0
M  V30 5428 H 504.224 0.790637 -3.79246 0
M  V30 5429 H 504.638 -0.951742 -5.15793 0
M  V30 5430 H 506.112 0.729438 -5.47159 0
M  V30 5431 H 506.589 1.67195 -4.06131 0
M  V30 5432 H 507.195 0.0107692 -4.25299 0
M  V30 5433 N 505.51 1.54411 -0.315457 0
M  V30 5434 C 506.756 2.00716 0.289972 0
M  V30 5435 C 507.089 1.2034 1.5242 0
M  V30 5436 O 506.364 0.283579 1.92422 0
M  V30 5437 C 506.647 3.54507 0.632196 0
M  V30 5438 C 506.5 4.45615 -0.61218 0
M  V30 5439 C 507.819 4.15421 1.45305 0
M  V30 5440 H 504.938 0.729637 0.10392 0
M  V30 5441 H 507.58 1.8506 -0.430427 0
M  V30 5442 H 505.73 3.67979 1.24595 0
M  V30 5443 H 507.402 4.44026 -1.25053 0
M  V30 5444 H 505.645 4.15621 -1.24264 0
M  V30 5445 H 506.316 5.51022 -0.328379 0
M  V30 5446 H 508.792 4.05474 0.934331 0
M  V30 5447 H 507.668 5.23157 1.66127 0
M  V30 5448 H 507.929 3.68223 2.44671 0
M  V30 5449 N 506.988 0.0434614 1.5754 0
M  V30 5450 C 508.234 -0.632971 1.92669 0
M  V30 5451 C 508.567 -1.70947 0.921446 0
M  V30 5452 O 507.842 -1.94426 -0.0537202 0
M  V30 5453 C 508.125 -1.23619 3.38216 0
M  V30 5454 C 507.978 -0.168274 4.49485 0
M  V30 5455 C 509.297 -2.15008 3.84005 0
M  V30 5456 H 506.416 -0.228629 0.700641 0
M  V30 5457 H 509.058 0.103651 1.89717 0
M  V30 5458 H 507.208 -1.864 3.40863 0
M  V30 5459 H 508.88 0.463196 4.58969 0
M  V30 5460 H 507.123 0.504581 4.30855 0
M  V30 5461 H 507.794 -0.630218 5.48391 0
M  V30 5462 H 510.27 -1.62198 3.83185 0
M  V30 5463 H 509.146 -2.54161 4.86511 0
M  V30 5464 H 509.407 -3.04707 3.20322 0
M  V30 5465 N 508.466 -1.55915 -0.229846 0
M  V30 5466 C 509.691 -1.8296 -0.976743 0
M  V30 5467 C 510.116 -0.622735 -1.77493 0
M  V30 5468 O 509.474 0.428431 -1.76165 0
M  V30 5469 C 509.522 -3.07916 -1.8767 0
M  V30 5470 O 508.626 -2.86028 -2.97088 0
M  V30 5471 H 507.967 -0.603453 -0.277021 0
M  V30 5472 H 510.497 -2.0312 -0.245669 0
M  V30 5473 H 510.507 -3.37802 -2.2881 0
M  V30 5474 H 509.182 -3.95389 -1.28996 0
M  V30 5475 H 507.759 -2.67355 -2.59954 0
M  V30 5476 N 509.944 0.496216 -1.49584 0
M  V30 5477 C 511.36 0.827814 -1.36453 0
M  V30 5478 C 511.56 1.97464 -0.401285 0
M  V30 5479 O 510.616 2.51958 0.165296 0
M  V30 5480 C 511.929 1.16352 -2.77277 0
M  V30 5481 C 513.477 1.27145 -2.86013 0
M  V30 5482 C 513.952 1.64042 -4.27615 0
M  V30 5483 N 515.443 1.71082 -4.30448 0
M  V30 5484 C 516.178 2.01085 -5.36984 0
M  V30 5485 N 515.674 2.2928 -6.5376 0
M  V30 5486 N 517.467 2.02376 -5.24405 0
M  V30 5487 H 509.618 -0.259947 -2.10803 0
M  V30 5488 H 511.881 -0.0537163 -0.946477 0
M  V30 5489 H 511.587 0.394153 -3.49484 0
M  V30 5490 H 511.461 2.10582 -3.12946 0
M  V30 5491 H 513.848 2.03152 -2.1404 0
M  V30 5492 H 513.929 0.309542 -2.5392 0
M  V30 5493 H 513.573 0.88583 -5.00115 0
M  V30 5494 H 513.503 2.6134 -4.57175 0
M  V30 5495 H 515.994 1.51434 -3.46232 0
M  V30 5496 H 516.307 2.51376 -7.30774 0
M  V30 5497 H 514.652 2.26726 -6.56978 0
M  V30 5498 H 517.843 1.79829 -4.32179 0
M  V30 5499 H 518.016 2.25425 -6.07526 0
M  V30 5500 N 511.423 1.38739 0.74761 0
M  V30 5501 C 512.373 1.32948 1.85226 0
M  V30 5502 C 513.357 0.212642 1.59489 0
M  V30 5503 O 514.549 0.449121 1.71207 0
M  V30 5504 C 511.678 1.16279 3.23008 0
M  V30 5505 C 510.764 2.32611 3.54617 0
M  V30 5506 N 511.155 3.58065 3.57244 0
M  V30 5507 C 509.453 2.25293 3.84914 0
M  V30 5508 C 510.154 4.34919 3.8629 0
M  V30 5509 N 509.13 3.64348 4.03425 0
M  V30 5510 H 512.932 2.27927 1.85544 0
M  V30 5511 H 510.446 1.32056 0.945253 0
M  V30 5512 H 512.443 1.10214 4.02068 0
M  V30 5513 H 511.103 0.222394 3.23937 0
M  V30 5514 H 512.114 3.91656 3.3886 0
M  V30 5515 H 508.791 1.39446 3.93524 0
M  V30 5516 H 510.181 5.43605 3.94896 0
M  V30 5517 N 512.901 -0.976442 1.23707 0
M  V30 5518 C 514.312 -1.53284 1.06587 0
M  V30 5519 C 514.663 -1.92765 -0.365526 0
M  V30 5520 O 513.788 -1.7645 -1.25277 0
M  V30 5521 C 514.383 -2.78548 1.92864 0
M  V30 5522 C 512.942 -3.30574 1.79994 0
M  V30 5523 C 512.089 -2.03538 1.88328 0
M  V30 5524 H 515.04 -0.795692 1.37311 0
M  V30 5525 H 515.061 -3.5155 1.45577 0
M  V30 5526 H 514.573 -2.49782 2.97037 0
M  V30 5527 H 512.674 -3.64211 0.786202 0
M  V30 5528 H 512.787 -4.00065 2.636 0
M  V30 5529 H 511.151 -2.17853 1.31954 0
M  V30 5530 H 511.934 -1.77149 2.94063 0
M  V30 5531 N 514.379 -1.04941 -1.1758 0
M  V30 5532 C 515.289 -0.658826 -2.25159 0
M  V30 5533 C 516.305 0.318941 -1.71052 0
M  V30 5534 O 517.481 0.171669 -2.00667 0
M  V30 5535 C 514.546 -0.0369522 -3.4668 0
M  V30 5536 C 513.607 -1.06484 -4.15884 0
M  V30 5537 C 512.84 -0.472551 -5.31604 0
M  V30 5538 O 513.063 0.718736 -5.65854 0
M  V30 5539 O 511.997 -1.20557 -5.89703 0
M  V30 5540 H 515.823 -1.55533 -2.60851 0
M  V30 5541 H 513.408 -0.820819 -1.24832 0
M  V30 5542 H 515.29 0.308784 -4.20267 0
M  V30 5543 H 513.965 0.833238 -3.12792 0
M  V30 5544 H 512.872 -1.46253 -3.44327 0
M  V30 5545 H 514.205 -1.9061 -4.53794 0
M  V30 5546 N 515.857 1.33968 -0.830081 0
M  V30 5547 C 516.804 2.29387 -0.255008 0
M  V30 5548 C 517.774 1.53923 0.624243 0
M  V30 5549 O 518.959 1.82262 0.564372 0
M  V30 5550 C 516.099 3.4034 0.571209 0
M  V30 5551 C 515.212 4.30729 -0.331083 0
M  V30 5552 C 514.347 5.2879 0.505389 0
M  V30 5553 C 513.386 6.10819 -0.395843 0
M  V30 5554 N 512.523 7.00948 0.401979 0
M  V30 5555 H 517.363 2.77972 -1.07404 0
M  V30 5556 H 514.9 1.36785 -0.541133 0
M  V30 5557 H 516.858 4.03361 1.06562 0
M  V30 5558 H 515.488 2.9297 1.35529 0
M  V30 5559 H 514.54 3.68507 -0.943759 0
M  V30 5560 H 515.852 4.88181 -1.02377 0
M  V30 5561 H 515.006 5.97297 1.06399 0
M  V30 5562 H 513.745 4.71894 1.23155 0
M  V30 5563 H 512.75 5.41238 -0.966529 0
M  V30 5564 H 513.975 6.69797 -1.12023 0
M  V30 5565 H 511.921 6.46512 1.11168 0
M  V30 5566 H 511.838 7.55643 -0.232167 0
M  V30 5567 H 513.106 7.73774 0.943102 0
M  V30 5568 N 517.335 0.585699 1.46312 0
M  V30 5569 C 518.298 -0.135673 2.28798 0
M  V30 5570 C 519.298 -0.815988 1.38558 0
M  V30 5571 O 520.488 -0.667487 1.60904 0
M  V30 5572 C 517.62 -1.20163 3.1902 0
M  V30 5573 H 518.813 0.589257 2.94054 0
M  V30 5574 H 516.366 0.343794 1.52472 0
M  V30 5575 H 517.101 -1.95804 2.58517 0
M  V30 5576 H 516.886 -0.718282 3.85465 0
M  V30 5577 H 518.376 -1.70749 3.81096 0
M  V30 5578 N 518.813 -1.54241 0.323641 0
M  V30 5579 C 520.059 -2.00867 -0.279323 0
M  V30 5580 C 520.392 -1.21146 -1.5178 0
M  V30 5581 O 519.667 -0.29378 -1.92269 0
M  V30 5582 C 519.95 -3.54837 -0.613387 0
M  V30 5583 C 519.803 -4.45284 0.635803 0
M  V30 5584 C 521.122 -4.16186 -1.43099 0
M  V30 5585 H 518.241 -0.730177 -0.100049 0
M  V30 5586 H 520.883 -1.84829 0.440235 0
M  V30 5587 H 519.033 -3.68634 -1.22641 0
M  V30 5588 H 520.705 -4.43357 1.27406 0
M  V30 5589 H 518.948 -4.14956 1.26466 0
M  V30 5590 H 519.619 -5.5084 0.357597 0
M  V30 5591 H 522.095 -4.05964 -0.912814 0
M  V30 5592 H 520.971 -5.24031 -1.6335 0
M  V30 5593 H 521.232 -3.69516 -2.42715 0
M  V30 5594 N 520.291 -0.0518155 -1.57515 0
M  V30 5595 C 521.519 0.631395 -1.9703 0
M  V30 5596 C 521.934 1.64341 -0.92938 0
M  V30 5597 O 521.291 1.82296 0.0863266 0
M  V30 5598 C 521.342 1.31774 -3.36627 0
M  V30 5599 O 521.063 0.346247 -4.3673 0
M  V30 5600 C 522.564 2.09065 -3.90905 0
M  V30 5601 H 519.784 0.172576 -0.648428 0
M  V30 5602 H 522.328 -0.118306 -2.04158 0
M  V30 5603 H 520.483 2.01867 -3.30649 0
M  V30 5604 H 520.897 0.836226 -5.17791 0
M  V30 5605 H 522.371 2.52508 -4.9086 0
M  V30 5606 H 522.848 2.93908 -3.26366 0
M  V30 5607 H 523.454 1.43882 -4.00223 0
M  V30 5608 N 521.769 1.56035 0.221574 0
M  V30 5609 C 523.016 1.79047 0.94597 0
M  V30 5610 C 523.344 0.62057 1.84334 0
M  V30 5611 O 522.599 -0.395053 1.91671 0
M  V30 5612 C 522.898 3.07813 1.8162 0
M  V30 5613 C 522.564 4.3797 1.07206 0
M  V30 5614 C 521.226 4.73334 0.866508 0
M  V30 5615 C 523.578 5.18326 0.546565 0
M  V30 5616 C 520.906 5.8657 0.123549 0
M  V30 5617 C 523.258 6.32335 -0.18305 0
M  V30 5618 C 521.922 6.66301 -0.399861 0
M  V30 5619 H 521.192 0.655178 0.346155 0
M  V30 5620 H 523.839 1.90299 0.214146 0
M  V30 5621 H 522.144 2.91682 2.61589 0
M  V30 5622 H 523.841 3.2282 2.37884 0
M  V30 5623 H 520.431 4.10202 1.24226 0
M  V30 5624 H 524.615 4.9144 0.692847 0
M  V30 5625 H 519.871 6.11376 -0.0546591 0
M  V30 5626 H 524.045 6.9383 -0.59775 0
M  V30 5627 H 521.672 7.53889 -0.977489 0
M  V30 5628 N 523.247 -0.488276 1.49845 0
M  V30 5629 C 524.493 -1.24341 1.6021 0
M  V30 5630 C 524.826 -1.91967 0.293651 0
M  V30 5631 O 524.101 -1.81323 -0.703718 0
M  V30 5632 C 524.384 -2.3005 2.77036 0
M  V30 5633 C 524.237 -1.66842 4.17713 0
M  V30 5634 C 525.556 -3.31509 2.89464 0
M  V30 5635 H 522.675 -0.450704 0.583125 0
M  V30 5636 H 525.317 -0.539673 1.82174 0
M  V30 5637 H 523.467 -2.90071 2.58439 0
M  V30 5638 H 525.139 -1.1055 4.47858 0
M  V30 5639 H 523.382 -0.972079 4.22768 0
M  V30 5640 H 524.053 -2.43576 4.95353 0
M  V30 5641 H 526.529 -2.81493 3.06433 0
M  V30 5642 H 525.405 -4.02822 3.72861 0
M  V30 5643 H 525.666 -3.94603 1.99351 0
M  V30 5644 N 524.725 -1.39134 -0.740242 0
M  V30 5645 C 525.635 -1.39697 -1.88473 0
M  V30 5646 C 526.651 -0.292403 -1.71526 0
M  V30 5647 O 527.827 -0.533021 -1.94219 0
M  V30 5648 C 524.892 -1.23382 -3.24003 0
M  V30 5649 C 523.953 -2.43763 -3.53381 0
M  V30 5650 C 523.186 -2.28216 -4.82445 0
M  V30 5651 O 523.409 -1.28288 -5.55786 0
M  V30 5652 O 522.343 -3.1709 -5.11603 0
M  V30 5653 H 526.169 -2.36159 -1.90952 0
M  V30 5654 H 523.754 -1.20194 -0.887346 0
M  V30 5655 H 525.636 -1.16395 -4.05006 0
M  V30 5656 H 524.311 -0.300121 -3.22306 0
M  V30 5657 H 523.218 -2.56325 -2.72485 0
M  V30 5658 H 524.551 -3.35808 -3.59852 0
M  V30 5659 N 526.204 0.969867 -1.24223 0
M  V30 5660 C 527.152 2.08535 -1.03034 0
M  V30 5661 C 528.146 1.69366 0.0340379 0
M  V30 5662 O 529.352 1.79597 -0.12034 0
M  V30 5663 H 525.727 0.682313 -0.316154 0
M  V30 5664 H 527.698 2.23569 -1.97635 0
M  V30 5665 C 526.447 3.4158 -0.649509 0
M  V30 5666 H 525.77 3.72177 -1.46028 0
M  V30 5667 H 527.21 4.20536 -0.540841 0
M  V30 5668 C 525.669 3.30703 0.643194 0
M  V30 5669 O 526.199 3.64443 1.68951 0
M  V30 5670 N 524.405 2.83841 0.623095 0
M  V30 5671 H 523.952 2.56583 -0.228719 0
M  V30 5672 H 523.91 2.76946 1.48823 0
M  V30 5673 N 527.682 1.05563 1.17022 0
M  V30 5674 C 528.632 0.630007 2.19123 0
M  V30 5675 C 529.616 -0.335472 1.57364 0
M  V30 5676 O 530.808 -0.1521 1.76345 0
M  V30 5677 C 527.937 0.0101676 3.43298 0
M  V30 5678 C 527.023 0.999698 4.12149 0
M  V30 5679 N 527.414 2.17251 4.56766 0
M  V30 5680 C 525.712 0.829 4.38228 0
M  V30 5681 C 526.413 2.79883 5.09942 0
M  V30 5682 N 525.389 2.07656 5.02374 0
M  V30 5683 H 529.191 1.52353 2.51328 0
M  V30 5684 H 526.705 0.926288 1.33393 0
M  V30 5685 H 528.702 -0.312541 4.15727 0
M  V30 5686 H 527.362 -0.878707 3.12584 0
M  V30 5687 H 528.373 2.55067 4.50734 0
M  V30 5688 H 525.05 -0.00850974 4.17499 0
M  V30 5689 H 526.44 3.79362 5.54558 0
M  V30 5690 N 529.16 -1.33526 0.837174 0
M  V30 5691 C 530.437 -1.92369 0.354065 0
M  V30 5692 C 530.817 -1.76348 -1.16038 0
M  V30 5693 O 530.165 -1.15083 -1.97403 0
M  V30 5694 C 530.375 -3.39728 0.799101 0
M  V30 5695 C 531.723 -4.16877 0.806139 0
M  V30 5696 O 532.747 -3.48373 0.742597 0
M  V30 5697 O 531.606 -5.39166 0.892345 0
M  V30 5698 H 528.7 -0.820952 0.0998378 0
M  V30 5699 H 531.246 -1.42409 0.922913 0
M  V30 5700 H 530.018 -3.45254 1.84162 0
M  V30 5701 H 529.641 -3.97062 0.206731 0
M  V30 5702 N 530.638 -0.59345 -1.46 0
M  V30 5703 C 531.866 -0.0890934 -2.06708 0
M  V30 5704 C 532.281 1.2205 -1.44046 0
M  V30 5705 O 531.638 1.74029 -0.549551 0
M  V30 5706 C 531.689 0.0720263 -3.61428 0
M  V30 5707 O 531.41 -1.18574 -4.21748 0
M  V30 5708 C 532.911 0.609487 -4.3909 0
M  V30 5709 H 530.131 -0.0623628 -0.668096 0
M  V30 5710 H 532.675 -0.817171 -1.87464 0
M  V30 5711 H 530.83 0.750369 -3.80063 0
M  V30 5712 H 531.244 -1.0064 -5.14754 0
M  V30 5713 H 532.718 0.671363 -5.47902 0
M  V30 5714 H 533.195 1.62878 -4.07882 0
M  V30 5715 H 533.801 -0.03434 -4.25286 0
M  V30 5716 N 532.116 1.54067 -0.331816 0
M  V30 5717 C 533.048 2.22139 0.564538 0
M  V30 5718 C 534.061 1.22408 1.07332 0
M  V30 5719 O 535.25 1.4883 0.985481 0
M  V30 5720 C 532.35 2.87876 1.78831 0
M  V30 5721 C 531.523 4.13817 1.41682 0
M  V30 5722 C 530.582 4.63072 2.49901 0
M  V30 5723 O 529.608 5.27562 2.13699 0
M  V30 5724 N 530.81 4.38001 3.80967 0
M  V30 5725 H 533.575 2.99694 -0.0183736 0
M  V30 5726 H 531.136 1.61153 -0.155396 0
M  V30 5727 H 533.128 3.17747 2.50637 0
M  V30 5728 H 531.698 2.13977 2.27887 0
M  V30 5729 H 530.918 3.9062 0.530044 0
M  V30 5730 H 532.206 4.95762 1.14443 0
M  V30 5731 H 531.604 3.864 4.13173 0
M  V30 5732 H 530.161 4.72507 4.48977 0
M  V30 5733 N 533.594 0.0601682 1.57485 0
M  V30 5734 C 535.005 -0.474217 1.80577 0
M  V30 5735 C 535.356 -1.70365 0.973147 0
M  V30 5736 O 534.481 -2.15544 0.192306 0
M  V30 5737 C 535.076 -0.867102 3.27516 0
M  V30 5738 C 533.635 -1.34642 3.51495 0
M  V30 5739 C 532.782 -0.32594 2.75378 0
M  V30 5740 H 535.733 0.285973 1.56102 0
M  V30 5741 H 535.754 -1.72938 3.38929 0
M  V30 5742 H 535.266 0.0278927 3.8809 0
M  V30 5743 H 533.367 -2.2603 2.96212 0
M  V30 5744 H 533.48 -1.33237 4.60201 0
M  V30 5745 H 531.844 -0.800749 2.41785 0
M  V30 5746 H 532.627 0.561125 3.38683 0
M  V30 5747 N 535.072 -1.5615 -0.213296 0
M  V30 5748 C 536.32 -1.79191 -0.934612 0
M  V30 5749 C 536.641 -0.630112 -1.84539 0
M  V30 5750 O 535.911 0.35257 -1.92701 0
M  V30 5751 H 534.491 -0.660937 -0.348097 0
M  V30 5752 H 537.153 -1.93618 -0.22317 0
M  V30 5753 H 536.249 -2.71656 -1.53654 0
M  V30 5754 N 536.55 0.480323 -1.50102 0
M  V30 5755 C 537.482 1.59669 -1.64433 0
M  V30 5756 C 538.495 1.54063 -0.52615 0
M  V30 5757 O 539.684 1.59619 -0.798992 0
M  V30 5758 C 536.784 2.98527 -1.6042 0
M  V30 5759 C 535.957 3.291 -2.88117 0
M  V30 5760 C 535.016 4.47468 -2.76873 0
M  V30 5761 O 534.042 4.4823 -3.50825 0
M  V30 5762 N 535.244 5.48593 -1.89806 0
M  V30 5763 H 538.009 1.47795 -2.60723 0
M  V30 5764 H 535.57 0.66858 -1.4745 0
M  V30 5765 H 537.562 3.75666 -1.50523 0
M  V30 5766 H 536.132 3.04218 -0.719036 0
M  V30 5767 H 535.352 2.40662 -3.12211 0
M  V30 5768 H 536.64 3.46334 -3.72734 0
M  V30 5769 H 536.038 5.50791 -1.2902 0
M  V30 5770 H 534.595 6.24752 -1.85819 0
M  V30 5771 N 538.028 1.39524 0.732853 0
M  V30 5772 C 539.253 1.40329 1.52717 0
M  V30 5773 C 539.678 0.000286574 1.881 0
M  V30 5774 O 539.036 -0.987262 1.52062 0
M  V30 5775 C 539.084 2.28464 2.78992 0
M  V30 5776 O 538.188 1.716 3.75003 0
M  V30 5777 H 537.529 0.47778 0.461109 0
M  V30 5778 H 540.059 1.83546 0.903996 0
M  V30 5779 H 540.069 2.43051 3.27705 0
M  V30 5780 H 538.744 3.30425 2.52572 0
M  V30 5781 H 537.321 1.66267 3.33781 0
M  V30 5782 N 539.506 -0.963266 1.24736 0
M  V30 5783 C 540.436 -2.07628 1.06832 0
M  V30 5784 C 541.417 -1.70088 -0.0200566 0
M  V30 5785 O 542.602 -1.93636 0.147854 0
M  V30 5786 C 539.732 -3.40636 0.677069 0
M  V30 5787 C 538.686 -3.9215 1.71471 0
M  V30 5788 C 538.012 -5.21553 1.1784 0
M  V30 5789 C 539.312 -4.19493 3.11164 0
M  V30 5790 H 541.006 -2.22864 1.9993 0
M  V30 5791 H 538.552 -1.07093 0.96266 0
M  V30 5792 H 540.505 -4.17941 0.538792 0
M  V30 5793 H 539.229 -3.25313 -0.289612 0
M  V30 5794 H 537.888 -3.17005 1.84128 0
M  V30 5795 H 537.536 -5.02593 0.202195 0
M  V30 5796 H 537.236 -5.56988 1.87185 0
M  V30 5797 H 538.76 -6.01463 1.05233 0
M  V30 5798 H 540.174 -4.87487 3.01711 0
M  V30 5799 H 538.571 -4.66165 3.77902 0
M  V30 5800 H 539.641 -3.26097 3.58871 0
M  V30 5801 N 540.985 -1.06182 -1.16461 0
M  V30 5802 C 541.895 -0.682671 -2.24448 0
M  V30 5803 C 542.911 0.30078 -1.71381 0
M  V30 5804 O 544.087 0.150376 -2.00838 0
M  V30 5805 C 541.152 -0.0737202 -3.46622 0
M  V30 5806 C 540.213 -1.10889 -4.14731 0
M  V30 5807 C 539.446 -0.528908 -5.31073 0
M  V30 5808 O 539.669 0.65868 -5.66584 0
M  V30 5809 O 538.603 -1.26805 -5.88391 0
M  V30 5810 H 542.429 -1.58291 -2.59187 0
M  V30 5811 H 540.014 -0.834013 -1.23954 0
M  V30 5812 H 541.896 0.264192 -4.20571 0
M  V30 5813 H 540.571 0.800015 -3.13658 0
M  V30 5814 H 539.478 -1.49896 -3.42756 0
M  V30 5815 H 540.811 -1.95412 -4.51747 0
M  V30 5816 N 542.463 1.3308 -0.844243 0
M  V30 5817 C 543.688 2.02341 -0.455282 0
M  V30 5818 C 544.113 1.6308 0.93737 0
M  V30 5819 O 543.471 0.826118 1.61385 0
M  V30 5820 C 543.519 3.55743 -0.58988 0
M  V30 5821 O 542.623 4.1063 0.38166 0
M  V30 5822 H 541.964 0.637898 -0.184343 0
M  V30 5823 H 544.494 1.6986 -1.14056 0
M  V30 5824 H 544.504 4.05243 -0.473522 0
M  V30 5825 H 543.179 3.83662 -1.60549 0
M  V30 5826 H 541.756 3.72236 0.22241 0
M  V30 5827 N 543.941 0.601185 1.45683 0
M  V30 5828 C 545.169 0.100054 2.06658 0
M  V30 5829 C 545.584 -1.21285 1.44691 0
M  V30 5830 O 544.941 -1.73735 0.558772 0
M  V30 5831 C 544.992 -0.0528579 3.61461 0
M  V30 5832 O 544.713 1.20809 4.21114 0
M  V30 5833 C 546.214 -0.586193 4.39407 0
M  V30 5834 H 543.434 0.065905 0.667756 0
M  V30 5835 H 545.978 0.827101 1.87028 0
M  V30 5836 H 544.133 -0.730203 3.80456 0
M  V30 5837 H 544.547 1.03368 5.14213 0
M  V30 5838 H 546.021 -0.642297 5.4825 0
M  V30 5839 H 546.498 -1.60713 4.0874 0
M  V30 5840 H 547.104 0.0568935 4.25262 0
M  V30 5841 N 545.419 -1.53889 0.339982 0
M  V30 5842 C 546.665 -2.01152 -0.258003 0
M  V30 5843 C 546.998 -1.22749 -1.50487 0
M  V30 5844 O 546.273 -0.314156 -1.91946 0
M  V30 5845 C 546.556 -3.55468 -0.575717 0
M  V30 5846 C 546.409 -4.44584 0.682996 0
M  V30 5847 C 547.728 -4.1768 -1.38677 0
M  V30 5848 H 544.847 -0.731198 -0.0922992 0
M  V30 5849 H 547.489 -1.84352 0.459814 0
M  V30 5850 H 545.639 -3.69914 -1.18725 0
M  V30 5851 H 547.311 -4.41981 1.32102 0
M  V30 5852 H 545.554 -4.13592 1.3086 0
M  V30 5853 H 546.225 -5.5043 0.416001 0
M  V30 5854 H 548.701 -4.0691 -0.869705 0
M  V30 5855 H 547.577 -5.25734 -1.57783 0
M  V30 5856 H 547.838 -3.72069 -2.38782 0
M  V30 5857 N 546.897 -0.0685191 -1.57451 0
M  V30 5858 C 547.829 0.929372 -2.09512 0
M  V30 5859 C 548.842 1.26354 -1.02657 0
M  V30 5860 O 550.031 1.2213 -1.30179 0
M  V30 5861 C 547.131 2.24612 -2.53777 0
M  V30 5862 C 546.304 2.09128 -3.84167 0
M  V30 5863 C 545.363 3.24079 -4.14559 0
M  V30 5864 O 544.389 2.99215 -4.8421 0
M  V30 5865 N 545.591 4.49077 -3.67845 0
M  V30 5866 H 548.356 0.484901 -2.95751 0
M  V30 5867 H 545.917 0.11729 -1.61475 0
M  V30 5868 H 547.909 3.00412 -2.71172 0
M  V30 5869 H 546.479 2.60569 -1.72692 0
M  V30 5870 H 545.699 1.17815 -3.76182 0
M  V30 5871 H 546.987 1.9603 -4.69521 0
M  V30 5872 H 546.385 4.72165 -3.11571 0
M  V30 5873 H 544.942 5.21915 -3.90446 0
M  V30 5874 N 548.375 1.56261 0.205012 0
M  V30 5875 C 549.603 1.84141 0.943386 0
M  V30 5876 C 550.018 0.649772 1.77266 0
M  V30 5877 O 549.375 -0.381612 1.78466 0
M  V30 5878 C 549.426 3.10719 1.84759 0
M  V30 5879 O 549.147 4.25286 1.05181 0
M  V30 5880 C 550.648 3.51706 2.69848 0
M  V30 5881 H 547.868 0.611734 0.275721 0
M  V30 5882 H 550.412 2.03364 0.215253 0
M  V30 5883 H 548.567 2.93422 2.52947 0
M  V30 5884 H 548.981 4.97301 1.66709 0
M  V30 5885 H 550.455 4.43266 3.28967 0
M  V30 5886 H 550.932 2.7423 3.43067 0
M  V30 5887 H 551.538 3.71499 2.07047 0
M  V30 5888 N 549.853 -0.472356 1.50355 0
M  V30 5889 C 551.099 -1.22348 1.62488 0
M  V30 5890 C 551.454 -1.89711 0.320574 0
M  V30 5891 O 550.747 -1.79074 -0.68141 0
M  V30 5892 C 550.941 -2.29257 2.74182 0
M  V30 5893 C 550.77 -1.72383 4.15348 0
M  V30 5894 C 549.54 -1.52411 4.81766 0
M  V30 5895 C 551.738 -1.21949 4.99633 0
M  V30 5896 N 549.72 -0.907669 6.07153 0
M  V30 5897 C 551.091 -0.726191 6.15732 0
M  V30 5898 C 553.146 -1.10792 4.85417 0
M  V30 5899 C 551.849 -0.132322 7.19178 0
M  V30 5900 C 553.875 -0.52799 5.89038 0
M  V30 5901 C 553.237 -0.0450604 7.04386 0
M  V30 5902 H 549.336 -0.436631 0.648751 0
M  V30 5903 H 551.92 -0.525698 1.87469 0
M  V30 5904 H 550.091 -2.96464 2.50926 0
M  V30 5905 H 551.823 -2.9628 2.75681 0
M  V30 5906 H 548.578 -1.776 4.39039 0
M  V30 5907 H 549.002 -0.617897 6.74174 0
M  V30 5908 H 553.644 -1.46722 3.96525 0
M  V30 5909 H 551.362 0.239187 8.07746 0
M  V30 5910 H 554.948 -0.444046 5.80103 0
M  V30 5911 H 553.828 0.396659 7.83196 0
M  V30 5912 N 551.331 -1.39911 -0.725443 0
M  V30 5913 C 552.578 -1.37654 -1.48518 0
M  V30 5914 C 552.906 0.0243982 -1.94485 0
M  V30 5915 O 552.161 1.00708 -1.67799 0
M  V30 5916 C 552.46 -2.30368 -2.7325 0
M  V30 5917 C 552.126 -3.77817 -2.461 0
M  V30 5918 C 550.788 -4.17991 -2.38405 0
M  V30 5919 C 553.14 -4.71036 -2.23103 0
M  V30 5920 C 550.468 -5.49433 -2.05768 0
M  V30 5921 C 552.82 -6.02766 -1.9198 0
M  V30 5922 C 551.484 -6.41993 -1.82761 0
M  V30 5923 H 550.754 -0.503713 -0.543465 0
M  V30 5924 H 553.401 -1.7249 -0.831822 0
M  V30 5925 H 551.706 -1.88683 -3.43375 0
M  V30 5926 H 553.403 -2.2591 -3.31309 0
M  V30 5927 H 549.993 -3.45982 -2.52972 0
M  V30 5928 H 554.177 -4.40823 -2.2801 0
M  V30 5929 H 549.433 -5.78738 -1.9716 0
M  V30 5930 H 553.607 -6.74519 -1.73197 0
M  V30 5931 H 551.234 -7.43761 -1.57237 0
M  V30 5932 N 552.809 0.956637 -1.25245 0
M  V30 5933 C 553.756 2.053 -1.05454 0
M  V30 5934 C 554.726 1.66062 0.0356889 0
M  V30 5935 O 555.911 1.90415 -0.121099 0
M  V30 5936 C 553.051 3.38391 -0.677191 0
M  V30 5937 C 552.164 3.90758 -1.84206 0
M  V30 5938 C 551.299 5.12165 -1.40926 0
M  V30 5939 C 550.338 5.56757 -2.54338 0
M  V30 5940 N 549.475 6.69376 -2.11848 0
M  V30 5941 H 554.315 2.21562 -1.99284 0
M  V30 5942 H 551.852 1.08578 -0.992434 0
M  V30 5943 H 553.81 4.1488 -0.43938 0
M  V30 5944 H 552.44 3.22021 0.224127 0
M  V30 5945 H 551.492 3.10808 -2.19323 0
M  V30 5946 H 552.804 4.19802 -2.69383 0
M  V30 5947 H 551.958 5.96065 -1.13098 0
M  V30 5948 H 550.697 4.84832 -0.528175 0
M  V30 5949 H 549.702 4.71423 -2.82913 0
M  V30 5950 H 550.927 5.861 -3.43022 0
M  V30 5951 H 548.873 6.43756 -1.26153 0
M  V30 5952 H 548.79 6.97927 -2.90574 0
M  V30 5953 H 550.058 7.5669 -1.87191 0
M  V30 5954 N 554.287 1.06798 1.15896 0
M  V30 5955 C 555.698 0.811355 1.68149 0
M  V30 5956 C 556.049 -0.664339 1.8461 0
M  V30 5957 O 555.174 -1.51485 1.54535 0
M  V30 5958 C 555.769 1.46624 3.05429 0
M  V30 5959 C 554.328 1.25726 3.54781 0
M  V30 5960 C 553.475 1.53949 2.3064 0
M  V30 5961 H 556.426 1.23078 1.00187 0
M  V30 5962 H 556.447 0.88437 3.7008 0
M  V30 5963 H 555.959 2.54025 2.93416 0
M  V30 5964 H 554.06 0.20322 3.72045 0
M  V30 5965 H 554.173 1.97354 4.36564 0
M  V30 5966 H 552.537 0.96025 2.35905 0
M  V30 5967 H 553.32 2.6252 2.2122 0
M  V30 5968 N 555.766 -1.3263 0.851289 0
M  V30 5969 C 556.696 -2.31449 0.308771 0
M  V30 5970 C 557.677 -1.59531 -0.590255 0
M  V30 5971 O 558.862 -1.87351 -0.511205 0
M  V30 5972 C 555.992 -3.43586 -0.506548 0
M  V30 5973 C 554.946 -4.26963 0.297753 0
M  V30 5974 C 554.272 -5.30831 -0.642094 0
M  V30 5975 C 555.572 -4.99643 1.52166 0
M  V30 5976 H 557.266 -2.77074 1.13447 0
M  V30 5977 H 554.812 -1.33207 0.546971 0
M  V30 5978 H 556.765 -4.11754 -0.896474 0
M  V30 5979 H 555.489 -2.96681 -1.36558 0
M  V30 5980 H 554.148 -3.60437 0.669391 0
M  V30 5981 H 553.796 -4.8018 -1.49788 0
M  V30 5982 H 553.496 -5.87501 -0.107968 0
M  V30 5983 H 555.02 -6.01862 -1.02927 0
M  V30 5984 H 556.434 -5.6051 1.20421 0
M  V30 5985 H 554.831 -5.66022 1.99347 0
M  V30 5986 H 555.901 -4.27701 2.28474 0
M  V30 5987 N 557.244 -0.608902 -1.45362 0
M  V30 5988 C 558.207 0.0992563 -2.28985 0
M  V30 5989 C 559.207 0.793841 -1.39838 0
M  V30 5990 O 560.397 0.641804 -1.61946 0
M  V30 5991 C 557.529 1.15073 -3.20891 0
M  V30 5992 H 558.722 -0.635964 -2.93079 0
M  V30 5993 H 556.275 -0.368007 -1.51906 0
M  V30 5994 H 557.01 1.91667 -2.616 0
M  V30 5995 H 556.795 0.656867 -3.86559 0
M  V30 5996 H 558.285 1.64665 -3.83765 0
M  V30 5997 N 558.722 1.53707 -0.348139 0
M  V30 5998 C 559.952 2.05108 0.247864 0
M  V30 5999 C 560.36 1.22252 1.44399 0
M  V30 6000 O 559.703 0.251853 1.81965 0
M  V30 6001 C 559.765 3.52171 0.722187 0
M  V30 6002 C 559.429 4.5562 -0.354902 0
M  V30 6003 C 560.426 5.05883 -1.19911 0
M  V30 6004 C 558.111 4.99703 -0.510145 0
M  V30 6005 C 560.105 5.98814 -2.18406 0
M  V30 6006 C 557.792 5.92443 -1.49848 0
M  V30 6007 C 558.79 6.41887 -2.33389 0
M  V30 6008 O 558.478 7.32802 -3.3054 0
M  V30 6009 H 558.21 0.674086 0.0508296 0
M  V30 6010 H 560.764 1.99229 -0.49968 0
M  V30 6011 H 558.994 3.55529 1.52105 0
M  V30 6012 H 560.683 3.8652 1.23925 0
M  V30 6013 H 561.449 4.72586 -1.09028 0
M  V30 6014 H 557.328 4.60816 0.130274 0
M  V30 6015 H 560.872 6.3733 -2.83649 0
M  V30 6016 H 556.769 6.25155 -1.60786 0
M  V30 6017 H 557.537 7.50749 -3.26064 0
M  V30 6018 N 560.2 0.0768682 1.57412 0
M  V30 6019 C 561.163 -0.873949 2.11884 0
M  V30 6020 C 562.163 -1.22301 1.04398 0
M  V30 6021 O 563.353 -1.15545 1.30365 0
M  V30 6022 C 560.485 -2.17575 2.62438 0
M  V30 6023 H 561.678 -0.401278 2.97203 0
M  V30 6024 H 559.231 -0.171904 1.55352 0
M  V30 6025 H 559.966 -2.69368 1.80587 0
M  V30 6026 H 559.751 -1.93534 3.41009 0
M  V30 6027 H 561.241 -2.85631 3.04639 0
M  V30 6028 N 561.678 -1.56367 -0.196722 0
M  V30 6029 C 562.925 -1.80529 -0.917366 0
M  V30 6030 C 563.253 -0.649817 -1.83324 0
M  V30 6031 O 562.508 0.36451 -1.92275 0
M  V30 6032 C 562.807 -3.10663 -1.767 0
M  V30 6033 C 562.473 -4.3962 -1.00225 0
M  V30 6034 C 561.135 -4.74653 -0.791095 0
M  V30 6035 C 563.487 -5.1913 -0.464035 0
M  V30 6036 C 560.815 -5.86692 -0.0302155 0
M  V30 6037 C 563.167 -6.31964 0.283625 0
M  V30 6038 C 561.831 -6.65581 0.505813 0
M  V30 6039 H 561.101 -0.660602 -0.335688 0
M  V30 6040 H 563.748 -1.90615 -0.183844 0
M  V30 6041 H 562.053 -2.95807 -2.56915 0
M  V30 6042 H 563.75 -3.26563 -2.32718 0
M  V30 6043 H 560.34 -4.12127 -1.17684 0
M  V30 6044 H 564.524 -4.9248 -0.614575 0
M  V30 6045 H 559.78 -6.11211 0.151917 0
M  V30 6046 H 563.954 -6.92791 0.708057 0
M  V30 6047 H 561.581 -7.52239 1.0973 0
M  V30 6048 N 563.156 0.464375 -1.50603 0
M  V30 6049 C 564.405 1.21277 -1.61167 0
M  V30 6050 C 564.718 1.92953 -0.320704 0
M  V30 6051 O 565.924 2.69778 -0.30534 0
M  V30 6052 C 564.38 2.20403 -2.84518 0
M  V30 6053 C 563.988 1.54499 -4.20516 0
M  V30 6054 C 565.732 2.95843 -3.0443 0
M  V30 6055 C 563.639 2.51951 -5.35047 0
M  V30 6056 H 562.569 0.456367 -0.600204 0
M  V30 6057 H 565.22 0.48254 -1.77042 0
M  V30 6058 H 563.602 2.96746 -2.62217 0
M  V30 6059 H 564.776 0.83899 -4.53098 0
M  V30 6060 H 563.091 0.913152 -4.06264 0
M  V30 6061 H 565.688 3.6879 -3.87167 0
M  V30 6062 H 566.031 3.55622 -2.16423 0
M  V30 6063 H 566.564 2.26611 -3.26944 0
M  V30 6064 H 563.303 1.96901 -6.25228 0
M  V30 6065 H 562.823 3.20683 -5.06875 0
M  V30 6066 H 564.502 3.13643 -5.65895 0
M  V30 6067 N 564.634 1.40294 0.718013 0
M  V30 6068 C 565.564 1.43118 1.84498 0
M  V30 6069 C 566.545 0.292403 1.67568 0
M  V30 6070 O 567.73 0.500675 1.87635 0
M  V30 6071 C 564.86 1.29065 3.22427 0
M  V30 6072 C 563.814 2.40521 3.54025 0
M  V30 6073 C 563.14 2.11546 4.91073 0
M  V30 6074 C 564.44 3.82859 3.55269 0
M  V30 6075 H 566.134 2.37432 1.82391 0
M  V30 6076 H 563.68 1.14283 0.87609 0
M  V30 6077 H 565.633 1.29658 4.00957 0
M  V30 6078 H 564.357 0.312271 3.25104 0
M  V30 6079 H 563.016 2.39173 2.77834 0
M  V30 6080 H 562.664 1.12104 4.90348 0
M  V30 6081 H 562.364 2.86216 5.1318 0
M  V30 6082 H 563.888 2.13817 5.71939 0
M  V30 6083 H 565.302 3.86044 4.23843 0
M  V30 6084 H 563.699 4.57029 3.88902 0
M  V30 6085 H 564.769 4.12617 2.54706 0
M  V30 6086 N 566.112 -0.949982 1.2575 0
M  V30 6087 C 567.34 -1.72972 1.13527 0
M  V30 6088 C 567.755 -1.8623 -0.310453 0
M  V30 6089 O 567.112 -1.36336 -1.2132 0
M  V30 6090 C 567.163 -3.14108 1.78936 0
M  V30 6091 O 566.884 -3.01493 3.17858 0
M  V30 6092 C 568.385 -4.08338 1.72554 0
M  V30 6093 H 565.605 -0.541864 0.395758 0
M  V30 6094 H 568.149 -1.19151 1.66202 0
M  V30 6095 H 566.304 -3.64858 1.30221 0
M  V30 6096 H 566.718 -3.90559 3.50092 0
M  V30 6097 H 568.192 -5.04963 2.22973 0
M  V30 6098 H 568.669 -4.33742 0.690251 0
M  V30 6099 H 569.275 -3.63506 2.2078 0
M  V30 6100 N 567.59 -1.07411 -1.15328 0
M  V30 6101 C 569.006 -0.799759 -1.38116 0
M  V30 6102 C 569.206 0.59572 -1.92493 0
M  V30 6103 O 568.262 1.35433 -2.13106 0
M  V30 6104 C 569.575 -1.87407 -2.35158 0
M  V30 6105 C 571.123 -1.89889 -2.48819 0
M  V30 6106 C 571.598 -2.96406 -3.49153 0
M  V30 6107 N 573.089 -2.95512 -3.56689 0
M  V30 6108 C 573.824 -3.74575 -4.34144 0
M  V30 6109 N 573.32 -4.63488 -5.14928 0
M  V30 6110 N 575.113 -3.62919 -4.29239 0
M  V30 6111 H 567.264 -1.97411 -0.78374 0
M  V30 6112 H 569.527 -0.856113 -0.407154 0
M  V30 6113 H 569.233 -2.8768 -2.0232 0
M  V30 6114 H 569.107 -1.73471 -3.34944 0
M  V30 6115 H 571.494 -0.902677 -2.80955 0
M  V30 6116 H 571.575 -2.07904 -1.49029 0
M  V30 6117 H 571.219 -3.96227 -3.17752 0
M  V30 6118 H 571.149 -2.75638 -4.48699 0
M  V30 6119 H 573.64 -2.31061 -2.99031 0
M  V30 6120 H 573.953 -5.20445 -5.71276 0
M  V30 6121 H 572.298 -4.67537 -5.14232 0
M  V30 6122 H 575.489 -2.92833 -3.65194 0
M  V30 6123 H 575.662 -4.24777 -4.89355 0
M  V30 6124 N 569.068 1.32177 -0.85831 0
M  V30 6125 C 569.978 2.32561 -0.308606 0
M  V30 6126 C 570.994 1.64209 0.575462 0
M  V30 6127 O 572.17 1.95719 0.474961 0
M  V30 6128 C 569.235 3.43207 0.490909 0
M  V30 6129 C 568.296 4.27243 -0.419733 0
M  V30 6130 C 567.529 5.32605 0.341719 0
M  V30 6131 O 567.752 5.48332 1.57125 0
M  V30 6132 O 566.686 6.0118 -0.294379 0
M  V30 6133 H 570.512 2.81477 -1.14037 0
M  V30 6134 H 568.097 1.35866 -0.621349 0
M  V30 6135 H 569.979 4.10677 0.944574 0
M  V30 6136 H 568.654 2.96474 1.29941 0
M  V30 6137 H 567.561 3.62569 -0.921652 0
M  V30 6138 H 568.894 4.7751 -1.19352 0
M  V30 6139 N 570.547 0.616602 1.45037 0
M  V30 6140 C 571.772 0.120192 2.07051 0
M  V30 6141 C 572.197 -1.19008 1.45666 0
M  V30 6142 O 571.555 -1.7267 0.552692 0
M  V30 6143 C 571.603 0.00354901 3.606 0
M  V30 6144 O 570.707 -1.04431 3.98958 0
M  V30 6145 H 570.048 0.0781599 0.659384 0
M  V30 6146 H 572.578 0.849167 1.86146 0
M  V30 6147 H 572.588 -0.191754 4.07549 0
M  V30 6148 H 571.263 0.960239 4.04663 0
M  V30 6149 H 569.84 -0.824749 3.63665 0
M  V30 6150 N 572.025 -1.5352 0.356285 0
M  V30 6151 C 573.273 -2.00719 -0.235837 0
M  V30 6152 C 573.594 -1.24551 -1.5004 0
M  V30 6153 O 572.864 -0.356185 -1.92635 0
M  V30 6154 H 571.444 -0.741542 -0.0901366 0
M  V30 6155 H 574.106 -1.88887 0.480378 0
M  V30 6156 H 573.202 -3.08551 -0.469357 0
M  V30 6157 N 573.503 -0.0852151 -1.57369 0
M  V30 6158 C 574.733 0.588605 -1.98038 0
M  V30 6159 C 575.141 1.62869 -0.962817 0
M  V30 6160 O 574.484 1.83611 0.057134 0
M  V30 6161 C 574.546 1.30303 -3.35054 0
M  V30 6162 C 574.21 0.414855 -4.55113 0
M  V30 6163 C 575.207 -0.333011 -5.18832 0
M  V30 6164 C 572.892 0.335804 -5.01176 0
M  V30 6165 C 574.886 -1.14801 -6.26976 0
M  V30 6166 C 572.573 -0.482857 -6.09189 0
M  V30 6167 C 573.571 -1.22342 -6.71953 0
M  V30 6168 O 573.259 -2.02855 -7.77885 0
M  V30 6169 H 572.991 0.163249 -0.655992 0
M  V30 6170 H 575.545 -0.1582 -2.0479 0
M  V30 6171 H 573.775 2.0962 -3.24956 0
M  V30 6172 H 575.464 1.87041 -3.60237 0
M  V30 6173 H 576.23 -0.281611 -4.84182 0
M  V30 6174 H 572.109 0.901869 -4.52092 0
M  V30 6175 H 575.653 -1.72654 -6.75897 0
M  V30 6176 H 571.55 -0.535773 -6.43273 0
M  V30 6177 H 572.318 -1.95432 -7.94826 0
M  V30 6178 N 574.981 1.5647 0.188427 0
M  V30 6179 C 576.392 1.70864 0.752494 0
M  V30 6180 C 576.743 0.692905 1.83557 0
M  V30 6181 O 575.868 -0.149307 2.15884 0
M  V30 6182 C 576.463 3.09789 1.37173 0
M  V30 6183 C 575.022 3.25925 1.88281 0
M  V30 6184 C 574.169 2.66817 0.755259 0
M  V30 6185 H 577.12 1.58657 -0.0367408 0
M  V30 6186 H 577.141 3.07489 2.24122 0
M  V30 6187 H 576.653 3.83693 0.583219 0
M  V30 6188 H 574.754 2.56948 2.6983 0
M  V30 6189 H 574.867 4.33498 2.04001 0
M  V30 6190 H 573.231 2.2617 1.17128 0
M  V30 6191 H 574.014 3.43294 -0.0211237 0
M  V30 6192 N 576.459 -0.456382 1.50847 0
M  V30 6193 C 577.391 -1.57033 1.66953 0
M  V30 6194 C 578.404 -1.53207 0.550593 0
M  V30 6195 O 579.593 -1.58328 0.824285 0
M  V30 6196 C 576.693 -2.95937 1.65149 0
M  V30 6197 C 575.866 -3.24475 2.93317 0
M  V30 6198 C 574.925 -4.43007 2.83957 0
M  V30 6199 O 573.951 -4.42592 3.57912 0
M  V30 6200 N 575.153 -5.45503 1.9851 0
M  V30 6201 H 577.918 -1.43629 2.63042 0
M  V30 6202 H 575.479 -0.645037 1.48495 0
M  V30 6203 H 577.471 -3.73224 1.56481 0
M  V30 6204 H 576.041 -3.03036 0.767343 0
M  V30 6205 H 575.261 -2.35664 3.16 0
M  V30 6206 H 576.549 -3.4036 3.78196 0
M  V30 6207 H 575.947 -5.48668 1.37766 0
M  V30 6208 H 574.504 -6.21716 1.95735 0
M  V30 6209 N 577.937 -1.40673 -0.710563 0
M  V30 6210 C 579.183 -1.39428 -1.47267 0
M  V30 6211 C 579.516 0.00182129 -1.942 0
M  V30 6212 O 578.791 0.971387 -1.68506 0
M  V30 6213 C 579.074 -2.38812 -2.6952 0
M  V30 6214 C 578.927 -3.87467 -2.28449 0
M  V30 6215 C 580.246 -2.3566 -3.71689 0
M  V30 6216 H 577.365 -0.507768 -0.534173 0
M  V30 6217 H 580.007 -1.71843 -0.810547 0
M  V30 6218 H 578.157 -2.113 -3.26013 0
M  V30 6219 H 579.829 -4.25825 -1.77399 0
M  V30 6220 H 578.072 -4.03058 -1.60395 0
M  V30 6221 H 578.743 -4.5253 -3.16103 0
M  V30 6222 H 581.219 -2.6004 -3.24836 0
M  V30 6223 H 580.095 -3.07237 -4.54859 0
M  V30 6224 H 580.356 -1.36996 -4.20339 0
M  V30 6225 N 579.415 0.9433 -1.26252 0
M  V30 6226 C 580.662 1.68925 -1.11672 0
M  V30 6227 C 580.99 1.91499 0.340329 0
M  V30 6228 O 580.245 1.49189 1.26653 0
M  V30 6229 C 580.544 3.07073 -1.82868 0
M  V30 6230 C 580.21 3.04262 -3.32769 0
M  V30 6231 C 578.872 3.03203 -3.7366 0
M  V30 6232 C 581.224 2.96729 -4.28487 0
M  V30 6233 C 578.552 2.92373 -5.0866 0
M  V30 6234 C 580.904 2.87442 -5.63525 0
M  V30 6235 C 579.568 2.84724 -6.03729 0
M  V30 6236 H 578.838 0.618141 -0.408635 0
M  V30 6237 H 581.485 1.10124 -1.56668 0
M  V30 6238 H 579.79 3.69486 -1.30335 0
M  V30 6239 H 581.487 3.63635 -1.69029 0
M  V30 6240 H 578.077 3.05865 -3.00241 0
M  V30 6241 H 582.261 2.96658 -3.97879 0
M  V30 6242 H 577.517 2.88645 -5.38975 0
M  V30 6243 H 581.691 2.80576 -6.37377 0
M  V30 6244 H 579.318 2.76089 -7.08293 0
M  V30 6245 N 580.893 1.08022 1.14757 0
M  V30 6246 C 582.123 0.827646 1.89298 0
M  V30 6247 C 582.531 -0.623506 1.78631 0
M  V30 6248 O 581.874 -1.43991 1.14071 0
M  V30 6249 C 581.936 1.16553 3.40082 0
M  V30 6250 C 581.6 2.61866 3.74533 0
M  V30 6251 C 582.597 3.60116 3.74984 0
M  V30 6252 C 580.282 2.97619 4.04633 0
M  V30 6253 C 582.276 4.92151 4.05051 0
M  V30 6254 C 579.963 4.2985 4.34364 0
M  V30 6255 C 580.961 5.26926 4.34555 0
M  V30 6256 O 580.649 6.5678 4.63568 0
M  V30 6257 H 580.381 0.298396 0.606577 0
M  V30 6258 H 582.935 1.44187 1.46285 0
M  V30 6259 H 581.165 0.494296 3.83528 0
M  V30 6260 H 582.854 0.894407 3.95923 0
M  V30 6261 H 583.62 3.33837 3.51821 0
M  V30 6262 H 579.499 2.22702 4.03639 0
M  V30 6263 H 583.043 5.67915 4.05115 0
M  V30 6264 H 578.94 4.55879 4.56995 0
M  V30 6265 H 579.708 6.62035 4.81303 0
M  V30 6266 N 582.371 -1.3172 0.865308 0
M  V30 6267 C 583.619 -1.96487 0.472995 0
M  V30 6268 C 583.94 -1.68761 -0.976975 0
M  V30 6269 O 583.21 -1.00051 -1.68424 0
M  V30 6270 H 581.79 -0.726947 0.171922 0
M  V30 6271 H 584.452 -1.60612 1.10407 0
M  V30 6272 H 583.548 -3.0574 0.62687 0
M  V30 6273 N 583.85 -0.624285 -1.44708 0
M  V30 6274 C 585.127 -0.0572781 -1.95516 0
M  V30 6275 C 585.507 1.41516 -1.56641 0
M  V30 6276 O 584.855 2.12614 -0.837111 0
M  V30 6277 C 585.065 -0.272944 -3.47931 0
M  V30 6278 C 586.413 -0.162529 -4.24289 0
M  V30 6279 O 587.437 -0.203946 -3.55616 0
M  V30 6280 O 586.296 -0.0616847 -5.46465 0
M  V30 6281 H 583.389 0.0262219 -0.826584 0
M  V30 6282 H 585.936 -0.695512 -1.54793 0
M  V30 6283 H 584.707 -1.29492 -3.69253 0
M  V30 6284 H 584.331 0.399756 -3.95585 0
M  V30 6285 N 585.328 1.53329 -0.364422 0
M  V30 6286 C 586.261 2.22052 0.526145 0
M  V30 6287 C 587.239 1.21203 1.08391 0
M  V30 6288 O 588.423 1.50101 1.14026 0
M  V30 6289 C 585.55 2.91432 1.72583 0
M  V30 6290 C 584.596 4.06345 1.29562 0
M  V30 6291 S 585.429 5.34671 0.297885 0
M  V30 6292 C 586.585 6.07563 1.50392 0
M  V30 6293 H 586.818 2.97244 -0.0575055 0
M  V30 6294 H 584.351 1.53684 -0.148525 0
M  V30 6295 H 586.309 3.3202 2.41398 0
M  V30 6296 H 584.97 2.15966 2.28073 0
M  V30 6297 H 584.163 4.53901 2.19067 0
M  V30 6298 H 583.765 3.67642 0.686696 0
M  V30 6299 H 586.057 6.32224 2.43513 0
M  V30 6300 H 587 6.99973 1.06977 0
M  V30 6301 H 587.408 5.37994 1.70945 0
M  V30 6302 N 586.806 0.0935595 1.57322 0
M  V30 6303 C 588.036 -0.578095 1.98347 0
M  V30 6304 C 588.444 -1.62357 0.971441 0
M  V30 6305 O 587.787 -1.83639 -0.0473959 0
M  V30 6306 C 587.849 -1.28525 3.3574 0
M  V30 6307 C 587.513 -0.390714 4.55327 0
M  V30 6308 C 588.51 0.360522 5.18648 0
M  V30 6309 C 586.195 -0.309221 5.01347 0
M  V30 6310 C 588.189 1.18125 6.26359 0
M  V30 6311 C 585.876 0.515157 6.08925 0
M  V30 6312 C 586.874 1.25904 6.71295 0
M  V30 6313 O 586.562 2.06978 7.76798 0
M  V30 6314 H 586.294 -0.159767 0.656849 0
M  V30 6315 H 588.848 0.169058 2.04703 0
M  V30 6316 H 587.078 -2.07894 3.26063 0
M  V30 6317 H 588.767 -1.85128 3.61223 0
M  V30 6318 H 589.533 0.307285 4.84026 0
M  V30 6319 H 585.412 -0.877881 4.52564 0
M  V30 6320 H 588.956 1.76236 6.74971 0
M  V30 6321 H 584.853 0.56988 6.42979 0
M  V30 6322 H 585.621 1.99644 7.93779 0
M  V30 6323 N 588.284 -1.56567 -0.180126 0
M  V30 6324 C 589.532 -1.81133 -0.896392 0
M  V30 6325 C 589.853 -0.669114 -1.83161 0
M  V30 6326 O 589.123 0.311616 -1.93406 0
M  V30 6327 H 587.703 -0.668172 -0.333999 0
M  V30 6328 H 590.365 -1.94048 -0.182051 0
M  V30 6329 H 589.461 -2.74854 -1.47857 0
M  V30 6330 N 589.762 0.448376 -1.51087 0
M  V30 6331 C 590.99 1.22143 -1.66999 0
M  V30 6332 C 591.405 1.85283 -0.362699 0
M  V30 6333 O 590.762 1.70236 0.65772 0
M  V30 6334 C 590.813 2.31357 -2.7777 0
M  V30 6335 O 590.534 1.70801 -4.03434 0
M  V30 6336 C 592.035 3.21836 -3.04855 0
M  V30 6337 H 589.255 0.368558 -0.560719 0
M  V30 6338 H 591.799 0.532618 -1.97442 0
M  V30 6339 H 589.954 2.95973 -2.49958 0
M  V30 6340 H 590.368 2.42895 -4.64868 0
M  V30 6341 H 591.842 3.94627 -3.85971 0
M  V30 6342 H 592.319 3.81949 -2.16821 0
M  V30 6343 H 592.925 2.62933 -3.34285 0
M  V30 6344 N 591.24 1.41047 0.703093 0
M  V30 6345 C 592.187 1.42302 1.81711 0
M  V30 6346 C 593.157 0.278336 1.63751 0
M  V30 6347 O 594.342 0.478266 1.84709 0
M  V30 6348 C 591.482 1.30362 3.19531 0
M  V30 6349 C 590.595 2.54638 3.48975 0
M  V30 6350 C 589.73 2.35047 4.76368 0
M  V30 6351 C 588.769 3.54837 4.98756 0
M  V30 6352 N 587.906 3.34363 6.1737 0
M  V30 6353 H 592.746 2.37516 1.79973 0
M  V30 6354 H 590.283 1.1795 0.878983 0
M  V30 6355 H 592.241 1.21443 3.99134 0
M  V30 6356 H 590.871 0.387602 3.20464 0
M  V30 6357 H 589.923 2.74037 2.63833 0
M  V30 6358 H 591.235 3.43766 3.61423 0
M  V30 6359 H 590.389 2.23552 5.64012 0
M  V30 6360 H 589.128 1.43363 4.66153 0
M  V30 6361 H 588.133 3.66795 4.09563 0
M  V30 6362 H 589.358 4.47464 5.10835 0
M  V30 6363 H 587.304 2.45373 6.08382 0
M  V30 6364 H 587.221 4.17063 6.30551 0
M  V30 6365 H 588.489 3.26626 7.07768 0
M  V30 6366 N 592.718 -0.936591 1.26751 0
M  V30 6367 C 593.966 -1.67998 1.12343 0
M  V30 6368 C 594.287 -1.92137 -0.332938 0
M  V30 6369 O 593.557 -1.52132 -1.23421 0
M  V30 6370 H 592.137 -0.622609 0.412756 0
M  V30 6371 H 594.799 -1.12509 1.59147 0
M  V30 6372 H 593.895 -2.65185 1.64571 0
M  V30 6373 N 594.196 -1.08629 -1.14182 0
M  V30 6374 C 595.424 -0.838889 -1.8913 0
M  V30 6375 C 595.839 0.609153 -1.78703 0
M  V30 6376 O 595.196 1.41876 -1.14794 0
M  V30 6377 C 595.247 -1.25477 -3.39025 0
M  V30 6378 O 594.968 -2.64601 -3.49167 0
M  V30 6379 C 596.469 -1.03856 -4.30963 0
M  V30 6380 H 593.689 -0.302377 -0.599007 0
M  V30 6381 H 596.233 -1.44615 -1.44592 0
M  V30 6382 H 594.388 -0.691571 -3.81177 0
M  V30 6383 H 594.802 -2.81922 -4.42289 0
M  V30 6384 H 596.276 -1.37892 -5.345 0
M  V30 6385 H 596.753 0.0242522 -4.39193 0
M  V30 6386 H 597.359 -1.58731 -3.94569 0
M  V30 6387 N 595.674 1.31259 -0.872281 0
M  V30 6388 C 596.899 2.0133 -0.498099 0
M  V30 6389 C 597.324 1.65031 0.902568 0
M  V30 6390 O 596.682 0.860164 1.59596 0
M  V30 6391 C 596.73 3.54411 -0.665205 0
M  V30 6392 O 595.834 4.11347 0.294473 0
M  V30 6393 H 595.175 0.633844 -0.197832 0
M  V30 6394 H 597.705 1.67402 -1.17633 0
M  V30 6395 H 597.715 4.04147 -0.559373 0
M  V30 6396 H 596.39 3.80171 -1.68651 0
M  V30 6397 H 594.967 3.72624 0.143403 0
M  V30 6398 N 597.152 0.631951 1.44375 0
M  V30 6399 C 598.563 0.219036 1.85411 0
M  V30 6400 C 598.914 -1.22974 1.52879 0
M  V30 6401 O 598.039 -1.93579 0.967266 0
M  V30 6402 C 598.634 0.39075 3.36539 0
M  V30 6403 C 597.193 0.0323351 3.76386 0
M  V30 6404 C 596.34 0.703744 2.68221 0
M  V30 6405 H 599.291 0.837056 1.3483 0
M  V30 6406 H 599.312 -0.370056 3.78696 0
M  V30 6407 H 598.824 1.44527 3.60185 0
M  V30 6408 H 596.925 -1.02042 3.58355 0
M  V30 6409 H 597.038 0.442969 4.77048 0
M  V30 6410 H 595.402 0.138974 2.54321 0
M  V30 6411 H 596.185 1.76088 2.947 0
M  V30 6412 N 598.631 -1.53133 0.372548 0
M  V30 6413 C 599.578 -2.25951 -0.470631 0
M  V30 6414 C 600.548 -1.26895 -1.07176 0
M  V30 6415 O 601.733 -1.55691 -1.10294 0
M  V30 6416 C 598.873 -3.05726 -1.6008 0
M  V30 6417 C 597.986 -4.19684 -1.02416 0
M  V30 6418 C 597.121 -4.86888 -2.124 0
M  V30 6419 C 596.16 -5.92866 -1.52238 0
M  V30 6420 N 595.297 -6.53732 -2.56084 0
M  V30 6421 H 600.137 -2.97587 0.156816 0
M  V30 6422 H 597.674 -1.4683 0.0891571 0
M  V30 6423 H 599.632 -3.50258 -2.26661 0
M  V30 6424 H 598.262 -2.36331 -2.1988 0
M  V30 6425 H 597.314 -3.79588 -0.248426 0
M  V30 6426 H 598.626 -4.95821 -0.544366 0
M  V30 6427 H 597.78 -5.34638 -2.86787 0
M  V30 6428 H 596.519 -4.10239 -2.63734 0
M  V30 6429 H 595.524 -5.4447 -0.763685 0
M  V30 6430 H 596.749 -6.71439 -1.0172 0
M  V30 6431 H 594.695 -5.79932 -3.06618 0
M  V30 6432 H 594.612 -7.25429 -2.12811 0
M  V30 6433 H 595.88 -7.0613 -3.30152 0
M  V30 6434 N 600.109 -0.101901 -1.5727 0
M  V30 6435 C 601.019 0.868647 -2.17926 0
M  V30 6436 C 602.035 1.30527 -1.1506 0
M  V30 6437 O 603.211 1.37178 -1.47459 0
M  V30 6438 C 600.276 2.10727 -2.75309 0
M  V30 6439 C 599.337 1.7242 -3.93154 0
M  V30 6440 C 598.57 2.90377 -4.47791 0
M  V30 6441 O 598.793 4.05305 -4.01353 0
M  V30 6442 O 597.727 2.6845 -5.38719 0
M  V30 6443 H 601.553 0.382544 -3.01281 0
M  V30 6444 H 599.138 0.122812 -1.48894 0
M  V30 6445 H 601.02 2.83303 -3.11958 0
M  V30 6446 H 599.695 2.58376 -1.94996 0
M  V30 6447 H 598.602 0.970039 -3.61305 0
M  V30 6448 H 599.935 1.29528 -4.74851 0
M  V30 6449 N 601.587 1.56661 0.17182 0
M  V30 6450 C 602.836 1.81158 0.886831 0
M  V30 6451 C 603.149 0.679072 1.83434 0
M  V30 6452 O 604.355 0.808964 2.59168 0
M  V30 6453 C 602.811 3.20999 1.6275 0
M  V30 6454 C 602.419 4.42117 0.723652 0
M  V30 6455 C 604.163 3.5479 2.33076 0
M  V30 6456 C 602.07 5.7298 1.46452 0
M  V30 6457 H 601 0.675543 0.334899 0
M  V30 6458 H 603.651 1.82967 0.139765 0
M  V30 6459 H 602.033 3.13506 2.4193 0
M  V30 6460 H 603.207 4.60789 -0.0311485 0
M  V30 6461 H 601.522 4.16197 0.130063 0
M  V30 6462 H 604.119 4.49806 2.89099 0
M  V30 6463 H 604.462 2.79646 3.08389 0
M  V30 6464 H 604.995 3.63834 1.6084 0
M  V30 6465 H 601.734 6.51152 0.753729 0
M  V30 6466 H 601.254 5.58285 2.19266 0
M  V30 6467 H 602.933 6.14916 2.01214 0
M  V30 6468 N 603.065 -0.440357 1.51323 0
M  V30 6469 C 604.476 -1.02032 1.56353 0
M  V30 6470 C 604.827 -1.92382 0.385197 0
M  V30 6471 O 603.952 -2.10583 -0.498373 0
M  V30 6472 C 604.547 -1.85723 2.83359 0
M  V30 6473 C 603.106 -2.38774 2.90971 0
M  V30 6474 C 602.253 -1.17908 2.50984 0
M  V30 6475 H 605.204 -0.221744 1.57143 0
M  V30 6476 H 605.225 -2.71141 2.66951 0
M  V30 6477 H 604.737 -1.19939 3.69102 0
M  V30 6478 H 602.838 -3.08021 2.09651 0
M  V30 6479 H 602.951 -2.71778 3.94555 0
M  V30 6480 H 601.315 -1.52347 2.04114 0
M  V30 6481 H 602.098 -0.537393 3.39068 0
M  V30 6482 N 604.543 -1.41418 -0.695603 0
M  V30 6483 C 605.768 -1.44329 -1.48942 0
M  V30 6484 C 606.193 -0.0501579 -1.88033 0
M  V30 6485 O 605.551 0.946598 -1.54626 0
M  V30 6486 C 605.599 -2.3578 -2.72837 0
M  V30 6487 O 604.703 -1.81482 -3.70322 0
M  V30 6488 H 604.044 -0.489838 -0.44828 0
M  V30 6489 H 606.574 -1.85878 -0.855014 0
M  V30 6490 H 606.584 -2.51654 -3.21145 0
M  V30 6491 H 605.259 -3.37005 -2.43722 0
M  V30 6492 H 603.836 -1.75058 -3.29255 0
M  V30 6493 N 606.021 0.929856 -1.27246 0
M  V30 6494 C 606.951 2.04722 -1.12299 0
M  V30 6495 C 607.932 1.70082 -0.0250464 0
M  V30 6496 O 609.117 1.93176 -0.199141 0
M  V30 6497 C 606.247 3.38721 -0.767145 0
M  V30 6498 C 605.201 3.87466 -1.81808 0
M  V30 6499 C 604.527 5.18246 -1.31626 0
M  V30 6500 C 605.827 4.11095 -3.22177 0
M  V30 6501 H 607.521 2.17485 -2.05769 0
M  V30 6502 H 605.067 1.04503 -0.990715 0
M  V30 6503 H 607.02 4.16366 -0.649413 0
M  V30 6504 H 605.744 3.25967 0.203259 0
M  V30 6505 H 604.403 3.12012 -1.92468 0
M  V30 6506 H 604.051 5.01881 -0.335378 0
M  V30 6507 H 603.751 5.51829 -2.01887 0
M  V30 6508 H 605.275 5.98462 -1.21143 0
M  V30 6509 H 606.689 4.79316 -3.1453 0
M  V30 6510 H 605.086 4.55982 -3.90129 0
M  V30 6511 H 606.156 3.16468 -3.67391 0
M  V30 6512 N 607.499 1.09233 1.13605 0
M  V30 6513 C 608.446 0.729921 2.18954 0
M  V30 6514 C 609.416 -0.287916 1.63586 0
M  V30 6515 O 610.601 -0.170003 1.90041 0
M  V30 6516 C 607.741 0.154489 3.44754 0
M  V30 6517 C 606.854 1.22613 4.14234 0
M  V30 6518 C 605.989 0.613657 5.27644 0
M  V30 6519 C 605.028 1.66674 5.8897 0
M  V30 6520 N 604.165 1.07545 6.93814 0
M  V30 6521 H 609.005 1.63257 2.49302 0
M  V30 6522 H 606.542 0.815693 1.22413 0
M  V30 6523 H 608.5 -0.196923 4.16735 0
M  V30 6524 H 607.13 -0.711433 3.14863 0
M  V30 6525 H 606.182 1.69485 3.40557 0
M  V30 6526 H 607.494 2.0238 4.55899 0
M  V30 6527 H 606.648 0.210976 6.06333 0
M  V30 6528 H 605.387 -0.215584 4.87223 0
M  V30 6529 H 604.392 2.07899 5.08978 0
M  V30 6530 H 605.617 2.49861 6.31464 0
M  V30 6531 H 603.563 0.267451 6.55455 0
M  V30 6532 H 603.48 1.81011 7.3401 0
M  V30 6533 H 604.748 0.698906 7.7636 0
M  V30 6534 N 608.977 -1.30795 0.87923 0
M  V30 6535 C 610.254 -1.91145 0.415086 0
M  V30 6536 C 610.634 -1.7995 -1.10368 0
M  V30 6537 O 609.982 -1.21305 -1.93642 0
M  V30 6538 C 610.192 -3.37014 0.906778 0
M  V30 6539 C 611.54 -4.14101 0.938358 0
M  V30 6540 O 612.564 -3.45834 0.853053 0
M  V30 6541 O 611.423 -5.36054 1.06342 0
M  V30 6542 H 608.517 -0.81736 0.125905 0
M  V30 6543 H 611.063 -1.39401 0.967753 0
M  V30 6544 H 609.835 -3.3922 1.95053 0
M  V30 6545 H 609.458 -3.96204 0.332948 0
M  V30 6546 N 610.455 -0.639598 -1.44038 0
M  V30 6547 C 611.403 0.0723409 -2.32487 0
M  V30 6548 C 612.397 0.827129 -1.47834 0
M  V30 6549 O 613.603 0.73907 -1.64127 0
M  V30 6550 H 609.978 0.0421696 -0.750817 0
M  V30 6551 H 611.949 -0.691593 -2.90275 0
M  V30 6552 C 610.698 1.03452 -3.31953 0
M  V30 6553 H 610.021 0.46315 -3.97108 0
M  V30 6554 H 611.461 1.502 -3.96505 0
M  V30 6555 C 609.92 2.12392 -2.61518 0
M  V30 6556 O 610.45 3.2059 -2.42044 0
M  V30 6557 N 608.656 1.88563 -2.21116 0
M  V30 6558 H 608.203 1.00577 -2.37154 0
M  V30 6559 H 608.161 2.61651 -1.74316 0
M  V30 6560 N 611.933 1.52934 -0.380664 0
M  V30 6561 C 613.182 2.00651 0.205477 0
M  V30 6562 C 613.495 1.27164 1.48623 0
M  V30 6563 O 614.701 1.65547 2.15189 0
M  V30 6564 C 613.157 3.57479 0.416726 0
M  V30 6565 C 612.765 4.39857 -0.850268 0
M  V30 6566 C 614.509 4.13509 0.959702 0
M  V30 6567 C 612.416 5.88269 -0.607773 0
M  V30 6568 H 611.346 0.749684 0.0805614 0
M  V30 6569 H 613.997 1.76508 -0.501732 0
M  V30 6570 H 612.379 3.77836 1.18557 0
M  V30 6571 H 613.553 4.31269 -1.62307 0
M  V30 6572 H 611.868 3.95005 -1.31756 0
M  V30 6573 H 614.465 5.22039 1.15669 0
M  V30 6574 H 614.808 3.69054 1.92626 0
M  V30 6575 H 615.341 3.9701 0.250645 0
M  V30 6576 H 612.08 6.3703 -1.54509 0
M  V30 6577 H 611.6 5.99667 0.126247 0
M  V30 6578 H 613.279 6.46558 -0.239014 0
M  V30 6579 N 613.412 0.11024 1.57214 0
M  V30 6580 C 614.322 -0.857077 2.18383 0
M  V30 6581 C 615.338 -1.29915 1.1575 0
M  V30 6582 O 616.514 -1.36394 1.48184 0
M  V30 6583 C 613.579 -2.09264 2.76423 0
M  V30 6584 C 612.64 -1.70333 3.94063 0
M  V30 6585 C 611.873 -2.87999 4.49324 0
M  V30 6586 O 612.096 -4.0317 4.03497 0
M  V30 6587 O 611.03 -2.6559 5.40135 0
M  V30 6588 H 614.856 -0.366561 3.0148 0
M  V30 6589 H 612.441 -0.114914 1.48957 0
M  V30 6590 H 614.323 -2.81644 3.13456 0
M  V30 6591 H 612.998 -2.57339 1.96363 0
M  V30 6592 H 611.905 -0.950864 3.61814 0
M  V30 6593 H 613.238 -1.27007 4.75531 0
M  V30 6594 N 614.89 -1.56749 -0.16351 0
M  V30 6595 C 616.301 -1.72039 -0.725216 0
M  V30 6596 C 616.652 -0.72202 -1.82432 0
M  V30 6597 O 615.777 0.114942 -2.16095 0
M  V30 6598 C 616.372 -3.11932 -1.32227 0
M  V30 6599 C 614.931 -3.28879 -1.83072 0
M  V30 6600 C 614.078 -2.67984 -0.712716 0
M  V30 6601 H 617.029 -1.58579 0.0619772 0
M  V30 6602 H 617.05 -3.11015 -2.19202 0
M  V30 6603 H 616.562 -3.84572 -0.522103 0
M  V30 6604 H 614.663 -2.61209 -2.65708 0
M  V30 6605 H 614.776 -4.36688 -1.97079 0
M  V30 6606 H 613.14 -2.28005 -1.13515 0
M  V30 6607 H 613.923 -3.43216 0.0757361 0
M  V30 6608 N 616.368 0.432326 -1.51554 0
M  V30 6609 C 617.617 1.17831 -1.63703 0
M  V30 6610 C 617.93 1.92229 -0.36156 0
M  V30 6611 O 619.136 2.69069 -0.362495 0
M  V30 6612 C 617.592 2.14318 -2.89129 0
M  V30 6613 C 617.2 1.45544 -4.23699 0
M  V30 6614 C 618.944 2.89319 -3.10636 0
M  V30 6615 C 616.851 2.40545 -5.4027 0
M  V30 6616 H 615.781 0.443533 -0.60975 0
M  V30 6617 H 618.432 0.444878 -1.78026 0
M  V30 6618 H 616.814 2.91117 -2.68452 0
M  V30 6619 H 617.988 0.742693 -4.54775 0
M  V30 6620 H 616.303 0.826772 -4.0811 0
M  V30 6621 H 618.9 3.60495 -3.94902 0
M  V30 6622 H 619.243 3.50951 -2.23918 0
M  V30 6623 H 619.776 2.19625 -3.31677 0
M  V30 6624 H 616.515 1.83594 -6.29264 0
M  V30 6625 H 616.035 3.09859 -5.13563 0
M  V30 6626 H 617.714 3.01569 -5.72421 0
M  V30 6627 N 617.846 1.41785 0.688094 0
M  V30 6628 C 618.776 1.47 1.8142 0
M  V30 6629 C 619.757 0.327881 1.6691 0
M  V30 6630 O 620.942 0.540362 1.86531 0
M  V30 6631 C 618.072 1.35876 3.19617 0
M  V30 6632 C 617.026 2.47976 3.48844 0
M  V30 6633 C 616.352 2.21915 4.86475 0
M  V30 6634 C 617.652 3.90309 3.47068 0
M  V30 6635 H 619.346 2.41247 1.77314 0
M  V30 6636 H 616.892 1.16116 0.851651 0
M  V30 6637 H 618.845 1.38134 3.98117 0
M  V30 6638 H 617.569 0.38116 3.24368 0
M  V30 6639 H 616.228 2.45013 2.72698 0
M  V30 6640 H 615.876 1.2248 4.8786 0
M  V30 6641 H 615.576 2.97037 5.06994 0
M  V30 6642 H 617.1 2.25901 5.67275 0
M  V30 6643 H 618.514 3.94947 4.1556 0
M  V30 6644 H 616.911 4.65175 3.7912 0
M  V30 6645 H 617.981 4.17927 2.45896 0
M  V30 6646 N 619.324 -0.923095 1.27737 0
M  V30 6647 C 620.271 -2.02432 1.1086 0
M  V30 6648 C 621.241 -1.66098 0.00835195 0
M  V30 6649 O 622.426 -1.90027 0.171542 0
M  V30 6650 C 619.566 -3.36476 0.766671 0
M  V30 6651 C 618.679 -3.85737 1.94501 0
M  V30 6652 C 617.814 -5.08249 1.54455 0
M  V30 6653 C 616.853 -5.49818 2.6901 0
M  V30 6654 N 615.99 -6.63524 2.29521 0
M  V30 6655 H 620.83 -2.16201 2.05089 0
M  V30 6656 H 618.367 -1.05909 1.02087 0
M  V30 6657 H 620.325 -4.13569 0.549223 0
M  V30 6658 H 618.955 -3.22502 -0.13867 0
M  V30 6659 H 618.007 -3.04883 2.27487 0
M  V30 6660 H 619.319 -4.12513 2.80419 0
M  V30 6661 H 618.473 -5.92857 1.28862 0
M  V30 6662 H 617.212 -4.83261 0.656534 0
M  V30 6663 H 616.217 -4.63757 2.95313 0
M  V30 6664 H 617.442 -5.76799 3.5844 0
M  V30 6665 H 615.388 -6.40185 1.43177 0
M  V30 6666 H 615.305 -6.89978 3.08977 0
M  V30 6667 H 616.573 -7.51461 2.07187 0
M  V30 6668 N 620.802 -1.09834 -1.13024 0
M  V30 6669 C 621.765 -0.745058 -2.16752 0
M  V30 6670 C 622.765 0.227435 -1.59183 0
M  V30 6671 O 623.955 0.0050786 -1.74199 0
M  V30 6672 C 621.087 -0.102543 -3.40746 0
M  V30 6673 H 622.28 -1.66375 -2.49518 0
M  V30 6674 H 619.833 -0.898061 -1.27924 0
M  V30 6675 H 620.568 0.827177 -3.13573 0
M  V30 6676 H 620.353 -0.80235 -3.83803 0
M  V30 6677 H 621.843 0.129082 -4.174 0
M  V30 6678 N 622.28 1.30327 -0.886154 0
M  V30 6679 C 623.696 1.48676 -0.580323 0
M  V30 6680 C 623.896 1.81189 0.881639 0
M  V30 6681 O 622.952 1.90021 1.66278 0
M  V30 6682 C 624.265 2.60932 -1.49449 0
M  V30 6683 C 625.813 2.74812 -1.49824 0
M  V30 6684 C 626.288 3.90183 -2.39836 0
M  V30 6685 N 627.779 3.97495 -2.37806 0
M  V30 6686 C 628.514 4.86078 -3.04165 0
M  V30 6687 N 628.01 5.79448 -3.79753 0
M  V30 6688 N 629.803 4.79456 -2.93391 0
M  V30 6689 H 621.954 1.07495 -1.8319 0
M  V30 6690 H 624.217 0.532661 -0.784204 0
M  V30 6691 H 623.923 2.43731 -2.5355 0
M  V30 6692 H 623.797 3.57437 -1.20494 0
M  V30 6693 H 626.184 2.91418 -0.464731 0
M  V30 6694 H 626.265 1.78924 -1.82811 0
M  V30 6695 H 625.909 3.74334 -3.43273 0
M  V30 6696 H 625.839 4.85411 -2.04166 0
M  V30 6697 H 628.33 3.30703 -1.82877 0
M  V30 6698 H 628.643 6.43805 -4.27475 0
M  V30 6699 H 626.988 5.79376 -3.8386 0
M  V30 6700 H 630.179 4.05494 -2.33864 0
M  V30 6701 H 630.352 5.48283 -3.45383 0
M  V30 6702 N 623.758 0.647228 1.43697 0
M  V30 6703 C 624.705 -0.0480092 2.3075 0
M  V30 6704 C 625.675 -0.820705 1.44408 0
M  V30 6705 O 626.86 -0.798515 1.73287 0
M  V30 6706 C 624 -1.01259 3.2991 0
M  V30 6707 C 623.113 -0.236629 4.31351 0
M  V30 6708 C 622.248 -1.19447 5.17596 0
M  V30 6709 C 621.287 -0.408595 6.10735 0
M  V30 6710 N 620.424 -1.31772 6.89623 0
M  V30 6711 H 625.264 0.700238 2.89656 0
M  V30 6712 H 622.801 0.357082 1.427 0
M  V30 6713 H 624.759 -1.58538 3.85903 0
M  V30 6714 H 623.389 -1.72778 2.72667 0
M  V30 6715 H 622.441 0.452353 3.77701 0
M  V30 6716 H 623.753 0.374731 4.9739 0
M  V30 6717 H 622.907 -1.83809 5.78186 0
M  V30 6718 H 621.646 -1.83975 4.51669 0
M  V30 6719 H 620.651 0.24841 5.49239 0
M  V30 6720 H 621.876 0.232188 6.78703 0
M  V30 6721 H 619.822 -1.94991 6.2635 0
M  V30 6722 H 619.739 -0.760779 7.52162 0
M  V30 6723 H 621.007 -1.94967 7.54724 0
M  V30 6724 N 625.236 -1.5273 0.388769 0
M  V30 6725 C 626.146 -2.30165 -0.453993 0
M  V30 6726 C 627.162 -1.37058 -1.07197 0
M  V30 6727 O 628.338 -1.70127 -1.0779 0
M  V30 6728 C 625.403 -3.09303 -1.56628 0
M  V30 6729 C 624.464 -4.18117 -0.973467 0
M  V30 6730 C 623.697 -4.93472 -2.03275 0
M  V30 6731 O 623.92 -4.68913 -3.24772 0
M  V30 6732 O 622.854 -5.78833 -1.65034 0
M  V30 6733 H 626.68 -3.03185 0.176816 0
M  V30 6734 H 624.265 -1.4862 0.152501 0
M  V30 6735 H 626.147 -3.58648 -2.21246 0
M  V30 6736 H 624.822 -2.39098 -2.18206 0
M  V30 6737 H 623.729 -3.7297 -0.290556 0
M  V30 6738 H 625.062 -4.90556 -0.401908 0
M  V30 6739 N 626.714 -0.118576 -1.57153 0
M  V30 6740 C 627.944 0.546466 -1.99242 0
M  V30 6741 C 628.352 1.60791 -0.997148 0
M  V30 6742 O 627.695 1.83691 0.0181745 0
M  V30 6743 C 627.757 1.23167 -3.37743 0
M  V30 6744 C 627.421 0.318226 -4.55891 0
M  V30 6745 C 628.418 -0.442988 -5.18009 0
M  V30 6746 C 626.103 0.229421 -5.01776 0
M  V30 6747 C 628.097 -1.28074 -6.244 0
M  V30 6748 C 625.784 -0.611966 -6.08028 0
M  V30 6749 C 626.782 -1.36568 -6.69207 0
M  V30 6750 O 626.47 -2.1931 -7.73407 0
M  V30 6751 H 626.202 0.149297 -0.659307 0
M  V30 6752 H 628.756 -0.201603 -2.04408 0
M  V30 6753 H 626.986 2.0268 -3.29329 0
M  V30 6754 H 628.675 1.79358 -3.64123 0
M  V30 6755 H 629.441 -0.38425 -4.83475 0
M  V30 6756 H 625.32 0.805771 -4.53903 0
M  V30 6757 H 628.864 -1.86952 -6.72082 0
M  V30 6758 H 624.761 -0.6721 -6.41991 0
M  V30 6759 H 625.529 -2.12247 -7.90502 0
M  V30 6760 N 628.193 1.56834 0.155195 0
M  V30 6761 C 629.156 1.96748 1.17571 0
M  V30 6762 C 630.156 0.853006 1.3631 0
M  V30 6763 O 631.346 1.11978 1.33441 0
M  V30 6764 C 628.478 2.27631 2.53765 0
M  V30 6765 H 629.671 2.88085 0.833498 0
M  V30 6766 H 627.224 1.51141 0.398242 0
M  V30 6767 H 627.959 1.39059 2.92973 0
M  V30 6768 H 627.744 3.0888 2.41527 0
M  V30 6769 H 629.234 2.59377 3.27282 0
M  V30 6770 N 629.671 -0.424282 1.51781 0
M  V30 6771 C 630.901 -1.19297 1.68677 0
M  V30 6772 C 631.309 -1.85152 0.389258 0
M  V30 6773 O 630.652 -1.72067 -0.643311 0
M  V30 6774 C 630.714 -2.30929 2.75521 0
M  V30 6775 C 630.378 -1.85335 4.17732 0
M  V30 6776 C 631.375 -1.34951 5.0208 0
M  V30 6777 C 629.06 -1.92629 4.63896 0
M  V30 6778 C 631.054 -0.924636 6.30658 0
M  V30 6779 C 628.741 -1.49754 5.92467 0
M  V30 6780 C 629.739 -0.997543 6.75676 0
M  V30 6781 O 629.427 -0.57492 8.01842 0
M  V30 6782 H 629.159 -0.36512 0.568914 0
M  V30 6783 H 631.713 -0.507327 1.99036 0
M  V30 6784 H 629.943 -3.02811 2.40505 0
M  V30 6785 H 631.632 -2.92748 2.81165 0
M  V30 6786 H 632.398 -1.287 4.67612 0
M  V30 6787 H 628.277 -2.30491 3.99243 0
M  V30 6788 H 631.821 -0.533682 6.95556 0
M  V30 6789 H 627.718 -1.55679 6.26446 0
M  V30 6790 H 628.486 -0.699597 8.15505 0
M  V30 6791 N 631.149 -1.42148 -0.680565 0
M  V30 6792 C 632.397 -1.42029 -1.43779 0
M  V30 6793 C 632.718 -0.0356347 -1.94967 0
M  V30 6794 O 631.988 0.924936 -1.7269 0
M  V30 6795 H 630.568 -0.522835 -0.533529 0
M  V30 6796 H 633.23 -1.7752 -0.804538 0
M  V30 6797 H 632.326 -2.11658 -2.29363 0
M  V30 6798 N 632.627 0.916307 -1.28225 0
M  V30 6799 C 634.038 1.48024 -1.13779 0
M  V30 6800 C 634.389 1.94289 0.273139 0
M  V30 6801 O 633.514 1.82226 1.16716 0
M  V30 6802 C 634.109 2.69029 -2.05935 0
M  V30 6803 C 632.668 3.2161 -1.95561 0
M  V30 6804 C 631.815 1.94321 -1.97825 0
M  V30 6805 H 634.766 0.729272 -1.40951 0
M  V30 6806 H 634.787 3.44204 -1.62184 0
M  V30 6807 H 634.299 2.35325 -3.08616 0
M  V30 6808 H 632.4 3.60045 -0.959076 0
M  V30 6809 H 632.513 3.87032 -2.82388 0
M  V30 6810 H 630.877 2.1131 -1.42198 0
M  V30 6811 H 631.66 1.62917 -3.0218 0
M  V30 6812 N 634.105 1.10431 1.1244 0
M  V30 6813 C 635.037 0.710945 2.17895 0
M  V30 6814 C 636.05 -0.252315 1.60833 0
M  V30 6815 O 637.239 -0.03679 1.78462 0
M  V30 6816 C 634.339 0.0284262 3.38888 0
M  V30 6817 C 633.512 1.01585 4.2544 0
M  V30 6818 C 632.571 0.364826 5.24934 0
M  V30 6819 O 631.597 1.01561 5.60066 0
M  V30 6820 N 632.799 -0.87674 5.73841 0
M  V30 6821 H 635.564 1.61826 2.52255 0
M  V30 6822 H 633.125 0.993132 1.27861 0
M  V30 6823 H 635.117 -0.418568 4.0253 0
M  V30 6824 H 633.687 -0.781294 3.02679 0
M  V30 6825 H 632.907 1.64111 3.58415 0
M  V30 6826 H 634.195 1.68425 4.80115 0
M  V30 6827 H 633.593 -1.42483 5.47462 0
M  V30 6828 H 632.15 -1.26688 6.39369 0
M  V30 6829 N 635.583 -1.29855 0.893053 0
M  V30 6830 C 636.533 -2.25493 0.337211 0
M  V30 6831 C 637.517 -1.51606 -0.53894 0
M  V30 6832 O 638.709 -1.72828 -0.382043 0
M  V30 6833 C 635.838 -3.40467 -0.440117 0
M  V30 6834 C 634.924 -4.217 0.450578 0
M  V30 6835 N 635.315 -4.81312 1.55476 0
M  V30 6836 C 633.613 -4.45315 0.247154 0
M  V30 6837 C 634.314 -5.42241 2.10593 0
M  V30 6838 N 633.29 -5.25267 1.39982 0
M  V30 6839 H 637.092 -2.69137 1.18079 0
M  V30 6840 H 634.606 -1.44388 0.743359 0
M  V30 6841 H 636.603 -4.08038 -0.855021 0
M  V30 6842 H 635.263 -2.98361 -1.28104 0
M  V30 6843 H 636.274 -4.80291 1.93755 0
M  V30 6844 H 632.951 -4.13782 -0.555939 0
M  V30 6845 H 634.341 -5.99517 3.03362 0
M  V30 6846 N 637.061 -0.65484 -1.43351 0
M  V30 6847 C 638.338 -0.0987371 -1.95351 0
M  V30 6848 C 638.718 1.38161 -1.59608 0
M  V30 6849 O 638.066 2.10791 -0.882021 0
M  V30 6850 C 638.276 -0.346684 -3.47274 0
M  V30 6851 C 639.624 -0.25249 -4.23849 0
M  V30 6852 O 640.648 -0.279332 -3.55103 0
M  V30 6853 O 639.507 -0.177584 -5.46211 0
M  V30 6854 H 636.601 0.0086829 -0.826954 0
M  V30 6855 H 639.147 -0.728189 -1.53282 0
M  V30 6856 H 637.919 -1.37296 -3.66423 0
M  V30 6857 H 637.542 0.315757 -3.96344 0
M  V30 6858 N 638.539 1.52521 -0.396863 0
M  V30 6859 C 639.769 2.05792 0.182485 0
M  V30 6860 C 640.177 1.26784 1.40436 0
M  V30 6861 O 639.52 0.309617 1.81072 0
M  V30 6862 C 639.582 3.54291 0.609781 0
M  V30 6863 C 639.246 4.5426 -0.499674 0
M  V30 6864 C 640.243 5.01812 -1.35944 0
M  V30 6865 C 637.928 4.97827 -0.668864 0
M  V30 6866 C 639.922 5.91562 -2.37346 0
M  V30 6867 C 637.609 5.87376 -1.68621 0
M  V30 6868 C 638.607 6.34137 -2.53692 0
M  V30 6869 O 638.295 7.21915 -3.53686 0
M  V30 6870 H 638.027 0.675362 0.0293583 0
M  V30 6871 H 640.581 1.97539 -0.56281 0
M  V30 6872 H 638.811 3.60188 1.40717 0
M  V30 6873 H 640.5 3.90267 1.11565 0
M  V30 6874 H 641.266 4.68879 -1.24008 0
M  V30 6875 H 637.145 4.60997 -0.0163971 0
M  V30 6876 H 640.689 6.27983 -3.03782 0
M  V30 6877 H 636.586 6.19723 -1.80593 0
M  V30 6878 H 637.354 7.39996 -3.49784 0
M  V30 6879 N 640.017 0.126909 1.57088 0
M  V30 6880 C 641.266 -0.529024 1.94639 0
M  V30 6881 C 641.579 -1.67323 1.01304 0
M  V30 6882 O 642.785 -2.39245 1.28352 0
M  V30 6883 C 641.241 -0.992483 3.45945 0
M  V30 6884 C 640.849 0.123691 4.47829 0
M  V30 6885 C 642.593 -1.61934 3.924 0
M  V30 6886 C 640.5 -0.356911 5.90322 0
M  V30 6887 H 639.43 -0.201397 0.726605 0
M  V30 6888 H 642.081 0.208032 1.82317 0
M  V30 6889 H 640.463 -1.7842 3.53528 0
M  V30 6890 H 641.637 0.900168 4.51922 0
M  V30 6891 H 639.952 0.657699 4.11173 0
M  V30 6892 H 642.549 -1.9902 4.96281 0
M  V30 6893 H 642.892 -2.50075 3.32819 0
M  V30 6894 H 643.425 -0.892894 3.8765 0
M  V30 6895 H 640.164 0.488636 6.53676 0
M  V30 6896 H 639.684 -1.0997 5.89633 0
M  V30 6897 H 641.363 -0.815547 6.41839 0
M  V30 6898 N 641.495 -1.56914 -0.146875 0
M  V30 6899 C 642.772 -1.74273 -0.888165 0
M  V30 6900 C 643.152 -0.69496 -1.99333 0
M  V30 6901 O 642.5 0.286093 -2.26702 0
M  V30 6902 C 642.71 -3.18336 -1.43051 0
M  V30 6903 C 644.058 -3.80024 -1.89387 0
M  V30 6904 O 645.082 -3.21765 -1.52792 0
M  V30 6905 O 643.941 -4.82367 -2.56874 0
M  V30 6906 H 641.035 -0.712565 -0.419738 0
M  V30 6907 H 643.581 -1.6918 -0.132791 0
M  V30 6908 H 642.353 -3.86092 -0.636274 0
M  V30 6909 H 641.976 -3.27854 -2.24938 0
M  V30 6910 N 642.974 0.416227 -1.52004 0
M  V30 6911 C 643.924 1.50558 -1.7122 0
M  V30 6912 C 644.908 1.50613 -0.56609 0
M  V30 6913 O 646.1 1.56709 -0.822874 0
M  V30 6914 C 643.229 2.88556 -1.85984 0
M  V30 6915 C 642.315 2.93177 -3.06445 0
M  V30 6916 N 642.706 2.67505 -4.29272 0
M  V30 6917 C 641.004 3.24343 -3.06133 0
M  V30 6918 C 641.705 2.78511 -5.10692 0
M  V30 6919 N 640.681 3.11087 -4.45787 0
M  V30 6920 H 644.483 1.29494 -2.63834 0
M  V30 6921 H 641.997 0.62384 -1.4994 0
M  V30 6922 H 643.994 3.66954 -1.97865 0
M  V30 6923 H 642.654 3.10624 -0.945654 0
M  V30 6924 H 643.665 2.42033 -4.57865 0
M  V30 6925 H 640.342 3.52051 -2.24425 0
M  V30 6926 H 641.732 2.62438 -6.18527 0
M  V30 6927 N 644.452 1.42507 0.673017 0
M  V30 6928 C 645.863 1.38347 1.25367 0
M  V30 6929 C 646.214 0.0776327 1.96046 0
M  V30 6930 O 645.339 -0.823571 2.00116 0
M  V30 6931 C 645.934 2.506 2.28002 0
M  V30 6932 C 644.493 2.49767 2.81591 0
M  V30 6933 C 643.64 2.293 1.55938 0
M  V30 6934 H 646.591 1.51695 0.466288 0
M  V30 6935 H 646.612 2.20953 3.09774 0
M  V30 6936 H 646.124 3.45627 1.76532 0
M  V30 6937 H 644.225 1.58563 3.37177 0
M  V30 6938 H 644.338 3.46867 3.30485 0
M  V30 6939 H 642.702 1.77594 1.82572 0
M  V30 6940 H 643.485 3.26385 1.06431 0
M  V30 6941 N 645.93 -0.909495 1.28709 0
M  V30 6942 C 647.207 -1.63865 1.06806 0
M  V30 6943 C 647.587 -2.07445 -0.391143 0
M  V30 6944 O 646.935 -1.82269 -1.37805 0
M  V30 6945 C 647.145 -2.82692 2.04661 0
M  V30 6946 C 648.493 -3.5361 2.35042 0
M  V30 6947 O 649.517 -2.92847 2.02779 0
M  V30 6948 O 648.376 -4.63131 2.90124 0
M  V30 6949 H 645.47 -0.719065 0.408502 0
M  V30 6950 H 648.016 -0.958424 1.40044 0
M  V30 6951 H 646.788 -2.47614 3.0299 0
M  V30 6952 H 646.411 -3.58426 1.72095 0
M  V30 6953 N 647.408 -1.11026 -1.11852 0
M  V30 6954 C 648.654 -0.857729 -1.83768 0
M  V30 6955 C 648.987 0.615143 -1.842 0
M  V30 6956 O 648.262 1.45391 -1.29196 0
M  V30 6957 C 648.545 -1.41453 -3.31154 0
M  V30 6958 C 648.398 -2.95471 -3.39142 0
M  V30 6959 C 649.717 -1.0619 -4.27097 0
M  V30 6960 H 646.836 -0.313044 -0.667212 0
M  V30 6961 H 649.478 -1.37443 -1.31185 0
M  V30 6962 H 647.628 -0.975052 -3.76065 0
M  V30 6963 H 649.3 -3.4799 -3.02821 0
M  V30 6964 H 647.543 -3.31759 -2.79497 0
M  V30 6965 H 648.214 -3.29515 -4.42859 0
M  V30 6966 H 650.69 -1.44122 -3.90344 0
M  V30 6967 H 649.566 -1.47832 -5.28618 0
M  V30 6968 H 649.827 0.0278912 -4.42091 0
M  V30 6969 N 648.886 1.2938 -0.899927 0
M  V30 6970 C 650.135 1.9483 -0.521937 0
M  V30 6971 C 650.448 1.71725 0.936473 0
M  V30 6972 O 651.654 2.31282 1.42199 0
M  V30 6973 C 650.11 3.48911 -0.88255 0
M  V30 6974 C 649.718 3.80815 -2.35974 0
M  V30 6975 C 651.462 4.20595 -0.57448 0
M  V30 6976 C 649.369 5.28142 -2.66121 0
M  V30 6977 H 648.299 0.729285 -0.191468 0
M  V30 6978 H 650.95 1.47103 -1.09695 0
M  V30 6979 H 649.332 3.95293 -0.236459 0
M  V30 6980 H 650.506 3.45291 -3.05141 0
M  V30 6981 H 648.821 3.22271 -2.63686 0
M  V30 6982 H 651.418 5.29031 -0.776556 0
M  V30 6983 H 651.761 4.13442 0.487005 0
M  V30 6984 H 652.294 3.79945 -1.17842 0
M  V30 6985 H 649.033 5.4036 -3.71068 0
M  V30 6986 H 648.553 5.64913 -2.01578 0
M  V30 6987 H 650.232 5.95738 -2.52399 0
M  V30 6988 N 650.364 0.662433 1.43002 0
M  V30 6989 C 651.612 0.179237 2.01304 0
M  V30 6990 C 651.933 -1.21428 1.52579 0
M  V30 6991 O 651.203 -1.81294 0.742252 0
M  V30 6992 H 649.783 0.0632725 0.744316 0
M  V30 6993 H 652.445 0.856169 1.75088 0
M  V30 6994 H 651.541 0.170957 3.11631 0
M  V30 6995 N 651.842 -1.52309 0.404946 0
M  V30 6996 C 653.088 -2.02731 -0.164857 0
M  V30 6997 C 653.443 -1.28543 -1.43159 0
M  V30 6998 O 652.736 -0.381883 -1.87756 0
M  V30 6999 C 652.93 -3.54284 -0.470895 0
M  V30 7000 C 652.759 -4.43152 0.764625 0
M  V30 7001 C 651.529 -4.88594 1.28858 0
M  V30 7002 C 653.727 -4.874 1.64152 0
M  V30 7003 N 651.709 -5.61577 2.48001 0
M  V30 7004 C 653.08 -5.59121 2.67924 0
M  V30 7005 C 655.135 -4.69421 1.65978 0
M  V30 7006 C 653.838 -6.14772 3.73427 0
M  V30 7007 C 655.864 -5.25966 2.70396 0
M  V30 7008 C 655.226 -5.97606 3.7289 0
M  V30 7009 H 651.325 -0.78169 -0.0220025 0
M  V30 7010 H 653.909 -1.86522 0.558354 0
M  V30 7011 H 652.08 -3.70574 -1.16315 0
M  V30 7012 H 653.812 -3.91394 -1.02921 0
M  V30 7013 H 650.567 -4.6596 0.847232 0
M  V30 7014 H 650.991 -6.02712 3.08329 0
M  V30 7015 H 655.633 -4.13524 0.88079 0
M  V30 7016 H 653.351 -6.69743 4.52184 0
M  V30 7017 H 656.937 -5.13926 2.72711 0
M  V30 7018 H 655.817 -6.40577 4.52361 0
M  V30 7019 N 653.32 -0.135238 -1.57019 0
M  V30 7020 C 654.548 0.526066 -2.001 0
M  V30 7021 C 654.963 1.59184 -1.01519 0
M  V30 7022 O 654.32 1.82497 -0.0104258 0
M  V30 7023 C 654.371 1.13744 -3.43139 0
M  V30 7024 O 654.092 0.114259 -4.37951 0
M  V30 7025 C 655.593 1.8805 -4.01438 0
M  V30 7026 H 652.813 0.137962 -0.656664 0
M  V30 7027 H 655.357 -0.226359 -2.03243 0
M  V30 7028 H 653.512 1.84056 -3.40885 0
M  V30 7029 H 653.926 0.56058 -5.21496 0
M  V30 7030 H 655.4 2.26133 -5.03555 0
M  V30 7031 H 655.877 2.76194 -3.41487 0
M  V30 7032 H 656.483 1.22464 -4.07287 0
M  V30 7033 N 654.798 1.5699 0.138552 0
M  V30 7034 C 656.214 1.51844 0.491472 0
M  V30 7035 C 656.414 0.845063 1.82923 0
M  V30 7036 O 655.47 0.419143 2.48997 0
M  V30 7037 C 656.783 2.96615 0.493987 0
M  V30 7038 C 658.331 3.076 0.578913 0
M  V30 7039 C 658.806 4.53893 0.612009 0
M  V30 7040 N 660.297 4.5827 0.673997 0
M  V30 7041 C 661.032 5.68852 0.720729 0
M  V30 7042 N 660.528 6.88982 0.726292 0
M  V30 7043 N 662.321 5.56908 0.762253 0
M  V30 7044 H 654.472 1.99158 -0.738228 0
M  V30 7045 H 656.735 0.908693 -0.270149 0
M  V30 7046 H 656.441 3.49172 -0.420933 0
M  V30 7047 H 656.315 3.53017 1.32887 0
M  V30 7048 H 658.702 2.55057 1.48425 0
M  V30 7049 H 658.783 2.54227 -0.283286 0
M  V30 7050 H 658.427 5.07076 -0.289208 0
M  V30 7051 H 658.357 5.05057 1.49082 0
M  V30 7052 H 660.848 3.71793 0.676654 0
M  V30 7053 H 661.161 7.69014 0.764032 0
M  V30 7054 H 659.506 6.91526 0.69403 0
M  V30 7055 H 662.697 4.61969 0.755135 0
M  V30 7056 H 662.87 6.43102 0.795207 0
M  V30 7057 N 656.276 -0.40816 1.52223 0
M  V30 7058 C 657.186 -1.52202 1.78526 0
M  V30 7059 C 658.202 -1.60546 0.670892 0
M  V30 7060 O 659.378 -1.77242 0.956404 0
M  V30 7061 C 656.443 -2.87928 1.93128 0
M  V30 7062 C 655.504 -2.89463 3.17033 0
M  V30 7063 C 654.737 -4.18715 3.30929 0
M  V30 7064 O 654.96 -5.12662 2.50067 0
M  V30 7065 O 653.894 -4.27125 4.24084 0
M  V30 7066 H 657.72 -1.32911 2.73072 0
M  V30 7067 H 655.305 -0.594112 1.37079 0
M  V30 7068 H 657.187 -3.68426 2.04549 0
M  V30 7069 H 655.862 -3.07285 1.01772 0
M  V30 7070 H 654.769 -2.07815 3.11069 0
M  V30 7071 H 656.102 -2.75055 4.08174 0
M  V30 7072 N 657.755 -1.42862 -0.66545 0
M  V30 7073 C 659.003 -1.43546 -1.42264 0
M  V30 7074 C 659.324 -0.0563116 -1.94919 0
M  V30 7075 O 658.594 0.906568 -1.73661 0
M  V30 7076 H 657.174 -0.528464 -0.527953 0
M  V30 7077 H 659.836 -1.78363 -0.785665 0
M  V30 7078 H 658.932 -2.14079 -2.27105 0
M  V30 7079 N 659.233 0.902656 -1.29189 0
M  V30 7080 C 660.51 1.63296 -1.07674 0
M  V30 7081 C 660.89 2.07649 0.380137 0
M  V30 7082 O 660.238 1.82997 1.36837 0
M  V30 7083 C 660.448 2.81603 -2.06158 0
M  V30 7084 C 661.796 3.52359 -2.36914 0
M  V30 7085 O 662.82 2.91767 -2.04329 0
M  V30 7086 O 661.679 4.61586 -2.92576 0
M  V30 7087 H 658.773 0.716889 -0.41231 0
M  V30 7088 H 661.319 0.950984 -1.4055 0
M  V30 7089 H 660.091 2.46004 -3.04299 0
M  V30 7090 H 659.714 3.57508 -1.73993 0
M  V30 7091 N 660.711 1.11618 1.11262 0
M  V30 7092 C 661.936 0.889013 1.8738 0
M  V30 7093 C 662.361 -0.555884 1.79698 0
M  V30 7094 O 661.719 -1.39272 1.16073 0
M  V30 7095 C 661.767 1.35759 3.34069 0
M  V30 7096 O 660.871 0.530499 4.08974 0
M  V30 7097 H 660.212 0.320082 0.581759 0
M  V30 7098 H 662.742 1.48611 1.40627 0
M  V30 7099 H 662.752 1.35291 3.84916 0
M  V30 7100 H 661.427 2.40973 3.38976 0
M  V30 7101 H 660.004 0.601439 3.68018 0
M  V30 7102 N 662.189 -1.289 0.906776 0
M  V30 7103 C 663.414 -1.99939 0.551303 0
M  V30 7104 C 663.839 -1.67366 -0.858496 0
M  V30 7105 O 663.197 -0.902176 -1.57259 0
M  V30 7106 C 663.245 -3.52523 0.758937 0
M  V30 7107 O 662.349 -4.11983 -0.185308 0
M  V30 7108 H 661.69 -0.628376 0.214568 0
M  V30 7109 H 664.22 -1.64225 1.2203 0
M  V30 7110 H 664.23 -4.02522 0.666329 0
M  V30 7111 H 662.905 -3.75566 1.78671 0
M  V30 7112 H 661.482 -3.72873 -0.0445577 0
M  V30 7113 N 663.667 -0.670007 -1.42649 0
M  V30 7114 C 664.63 0.00204659 -2.292 0
M  V30 7115 C 665.63 0.733817 -1.4308 0
M  V30 7116 O 666.82 0.57254 -1.64522 0
M  V30 7117 C 663.952 1.01359 -3.25483 0
M  V30 7118 H 665.145 -0.759696 -2.90118 0
M  V30 7119 H 662.698 -0.432105 -1.50208 0
M  V30 7120 H 663.433 1.80399 -2.69493 0
M  V30 7121 H 663.218 0.492323 -3.88997 0
M  V30 7122 H 664.708 1.4824 -3.90403 0
M  V30 7123 N 665.145 1.52092 -0.413018 0
M  V30 7124 C 666.108 2.25706 0.398687 0
M  V30 7125 C 667.108 1.28221 0.970368 0
M  V30 7126 O 668.298 1.52131 0.848635 0
M  V30 7127 C 665.43 3.03029 1.5616 0
M  V30 7128 H 666.623 2.98888 -0.246131 0
M  V30 7129 H 664.176 1.5542 -0.165622 0
M  V30 7130 H 664.911 2.34205 2.24317 0
M  V30 7131 H 664.696 3.74606 1.15812 0
M  V30 7132 H 666.186 3.58857 2.13569 0
M  V30 7133 N 666.623 0.143563 1.56945 0
M  V30 7134 C 667.57 -0.797433 2.16586 0
M  V30 7135 C 668.54 -1.24654 1.09775 0
M  V30 7136 O 669.725 -1.31968 1.37801 0
M  V30 7137 C 666.865 -2.03253 2.78895 0
M  V30 7138 C 665.978 -1.62954 4.00087 0
M  V30 7139 C 665.113 -2.81617 4.50406 0
M  V30 7140 C 664.152 -2.37675 5.64072 0
M  V30 7141 N 663.289 -3.49335 6.09023 0
M  V30 7142 H 668.129 -0.282023 2.96662 0
M  V30 7143 H 665.666 -0.127494 1.46546 0
M  V30 7144 H 667.624 -2.75653 3.13163 0
M  V30 7145 H 666.254 -2.52211 2.01469 0
M  V30 7146 H 665.306 -0.803322 3.71821 0
M  V30 7147 H 666.618 -1.26679 4.82446 0
M  V30 7148 H 665.772 -3.62212 4.86711 0
M  V30 7149 H 664.511 -3.21134 3.67048 0
M  V30 7150 H 663.516 -1.55519 5.27346 0
M  V30 7151 H 664.741 -1.99247 6.49213 0
M  V30 7152 H 662.687 -3.8848 5.28601 0
M  V30 7153 H 662.604 -3.17064 6.86299 0
M  V30 7154 H 663.872 -4.30297 6.49973 0
M  V30 7155 N 668.101 -1.57061 -0.130224 0
M  V30 7156 C 669.326 -1.88802 -0.858409 0
M  V30 7157 C 669.751 -0.734353 -1.73173 0
M  V30 7158 O 669.109 0.315529 -1.78533 0
M  V30 7159 C 669.157 -3.19228 -1.67708 0
M  V30 7160 O 668.261 -3.04343 -2.78297 0
M  V30 7161 H 667.602 -0.619849 -0.238083 0
M  V30 7162 H 670.132 -2.04271 -0.115995 0
M  V30 7163 H 670.142 -3.51669 -2.06864 0
M  V30 7164 H 668.817 -4.02793 -1.0359 0
M  V30 7165 H 667.394 -2.83346 -2.42425 0
M  V30 7166 N 669.579 0.400081 -1.52437 0
M  V30 7167 C 670.827 1.14392 -1.6661 0
M  V30 7168 C 671.148 1.90792 -0.402927 0
M  V30 7169 O 670.418 1.87042 0.582425 0
M  V30 7170 H 668.998 0.425275 -0.614125 0
M  V30 7171 H 671.66 0.455076 -1.89513 0
M  V30 7172 H 670.756 1.85298 -2.51139 0
M  V30 7173 N 671.057 1.43213 0.657864 0
M  V30 7174 C 671.987 1.50815 1.78262 0
M  V30 7175 C 672.968 0.363211 1.66177 0
M  V30 7176 O 674.153 0.579806 1.85343 0
M  V30 7177 C 671.283 1.42625 3.16663 0
M  V30 7178 C 670.237 2.5532 3.43505 0
M  V30 7179 C 669.563 2.32184 4.81658 0
M  V30 7180 C 670.863 3.97583 3.38711 0
M  V30 7181 H 672.557 2.44954 1.72157 0
M  V30 7182 H 670.103 1.17896 0.82683 0
M  V30 7183 H 672.056 1.46548 3.95097 0
M  V30 7184 H 670.78 0.449877 3.23487 0
M  V30 7185 H 669.439 2.50742 2.6744 0
M  V30 7186 H 669.087 1.32801 4.85153 0
M  V30 7187 H 668.787 3.07724 5.00579 0
M  V30 7188 H 670.311 2.37883 5.62356 0
M  V30 7189 H 671.725 4.03673 4.07089 0
M  V30 7190 H 670.122 4.73112 3.69168 0
M  V30 7191 H 671.192 4.23049 2.36976 0
M  V30 7192 N 672.536 -0.895792 1.29666 0
M  V30 7193 C 673.499 -1.98189 1.15124 0
M  V30 7194 C 674.499 -1.60572 0.0855717 0
M  V30 7195 O 675.689 -1.70991 0.332826 0
M  V30 7196 C 672.821 -3.32289 0.761372 0
M  V30 7197 H 674.014 -2.12518 2.11603 0
M  V30 7198 H 671.567 -1.0808 1.12908 0
M  V30 7199 H 672.302 -3.23662 -0.203393 0
M  V30 7200 H 672.087 -3.60958 1.53139 0
M  V30 7201 H 673.577 -4.1198 0.682792 0
M  V30 7202 N 674.014 -1.12206 -1.10668 0
M  V30 7203 C 674.977 -0.790867 -2.15123 0
M  V30 7204 C 675.977 0.193618 -1.5963 0
M  V30 7205 O 677.167 -0.0318728 -1.74171 0
M  V30 7206 C 674.299 -0.174797 -3.40452 0
M  V30 7207 H 675.492 -1.7163 -2.45933 0
M  V30 7208 H 673.045 -0.924993 -1.2599 0
M  V30 7209 H 673.78 0.760478 -3.15257 0
M  V30 7210 H 673.565 -0.88358 -3.82015 0
M  V30 7211 H 675.055 0.0405162 -4.1758 0
M  V30 7212 N 675.492 1.28418 -0.913599 0
M  V30 7213 C 676.422 2.29713 -0.418847 0
M  V30 7214 C 677.403 1.62165 0.513469 0
M  V30 7215 O 678.588 1.89576 0.421235 0
M  V30 7216 C 675.718 3.45612 0.342042 0
M  V30 7217 C 674.672 4.25056 -0.501123 0
M  V30 7218 C 673.998 5.3329 0.388097 0
M  V30 7219 C 675.298 4.91814 -1.75831 0
M  V30 7220 H 676.992 2.71346 -1.26538 0
M  V30 7221 H 674.538 1.30446 -0.609903 0
M  V30 7222 H 676.491 4.15562 0.699 0
M  V30 7223 H 675.215 3.02858 1.22248 0
M  V30 7224 H 673.874 3.56833 -0.840598 0
M  V30 7225 H 673.522 4.8678 1.26707 0
M  V30 7226 H 673.222 5.87347 -0.172459 0
M  V30 7227 H 674.746 6.06088 0.74094 0
M  V30 7228 H 676.16 5.54126 -1.47026 0
M  V30 7229 H 674.557 5.55866 -2.26126 0
M  V30 7230 H 675.627 4.16313 -2.4862 0
M  V30 7231 N 676.97 0.677563 1.42291 0
M  V30 7232 C 678.219 0.198173 2.00724 0
M  V30 7233 C 678.532 -1.20325 1.54211 0
M  V30 7234 O 679.738 -1.77916 2.05081 0
M  V30 7235 C 678.194 0.303432 3.58619 0
M  V30 7236 C 677.802 1.70909 4.14119 0
M  V30 7237 C 679.546 -0.117103 4.24338 0
M  V30 7238 C 677.453 1.76696 5.64387 0
M  V30 7239 H 676.383 0.070329 0.750713 0
M  V30 7240 H 679.034 0.843147 1.62982 0
M  V30 7241 H 677.416 -0.409482 3.93877 0
M  V30 7242 H 678.59 2.44931 3.90315 0
M  V30 7243 H 676.905 2.07771 3.6086 0
M  V30 7244 H 679.502 -0.0940471 5.34617 0
M  V30 7245 H 679.845 -1.15283 4.00019 0
M  V30 7246 H 680.378 0.5449 3.9405 0
M  V30 7247 H 677.117 2.7826 5.93508 0
M  V30 7248 H 676.637 1.07034 5.90173 0
M  V30 7249 H 678.316 1.52166 6.28852 0
M  V30 7250 N 678.448 -1.51871 0.421078 0
M  V30 7251 C 679.676 -2.06356 -0.14994 0
M  V30 7252 C 680.091 -1.29006 -1.37851 0
M  V30 7253 O 679.448 -0.345139 -1.79207 0
M  V30 7254 C 679.499 -3.58185 -0.488454 0
M  V30 7255 O 679.22 -4.32611 0.691341 0
M  V30 7256 C 680.721 -4.29129 -1.11191 0
M  V30 7257 H 677.941 -0.67083 -0.0151186 0
M  V30 7258 H 680.485 -1.95638 0.595476 0
M  V30 7259 H 678.64 -3.68871 -1.18376 0
M  V30 7260 H 679.054 -5.22927 0.405906 0
M  V30 7261 H 680.528 -5.36501 -1.29889 0
M  V30 7262 H 681.005 -3.86371 -2.0884 0
M  V30 7263 H 681.611 -4.22843 -0.456458 0
M  V30 7264 N 679.926 -0.151884 -1.56866 0
M  V30 7265 C 681.203 0.543328 -1.87902 0
M  V30 7266 C 681.583 1.82636 -1.05864 0
M  V30 7267 O 680.931 2.28028 -0.146868 0
M  V30 7268 C 681.141 0.804056 -3.39611 0
M  V30 7269 C 682.489 1.14267 -4.08935 0
M  V30 7270 O 683.513 0.893248 -3.44818 0
M  V30 7271 O 682.372 1.61229 -5.22176 0
M  V30 7272 H 679.466 0.277724 -0.778973 0
M  V30 7273 H 682.012 -0.188862 -1.68646 0
M  V30 7274 H 680.784 -0.103772 -3.91162 0
M  V30 7275 H 680.407 1.59025 -3.64413 0
M  V30 7276 N 681.404 1.57128 0.121893 0
M  V30 7277 C 682.652 1.84335 0.828548 0
M  V30 7278 C 682.973 0.736632 1.80551 0
M  V30 7279 O 682.243 -0.23962 1.94429 0
M  V30 7280 H 680.823 0.680108 0.30897 0
M  V30 7281 H 683.485 1.9459 0.109906 0
M  V30 7282 H 682.581 2.80152 1.37554 0
M  V30 7283 N 682.882 -0.391992 1.52647 0
M  V30 7284 C 684.293 -0.970064 1.5952 0
M  V30 7285 C 684.644 -1.91059 0.446207 0
M  V30 7286 O 683.769 -2.12062 -0.431125 0
M  V30 7287 C 684.364 -1.76614 2.89125 0
M  V30 7288 C 682.923 -2.29396 2.9842 0
M  V30 7289 C 682.07 -1.09864 2.54608 0
M  V30 7290 H 685.021 -0.171638 1.57769 0
M  V30 7291 H 685.042 -2.62511 2.75442 0
M  V30 7292 H 684.554 -1.08135 3.72731 0
M  V30 7293 H 682.655 -3.01196 2.19344 0
M  V30 7294 H 682.768 -2.59088 4.03002 0
M  V30 7295 H 681.132 -1.45777 2.08857 0
M  V30 7296 H 681.915 -0.429249 3.40606 0
M  V30 7297 N 684.36 -1.4356 -0.65026 0
M  V30 7298 C 685.608 -1.45046 -1.40734 0
M  V30 7299 C 685.929 -0.0769822 -1.94848 0
M  V30 7300 O 685.199 0.888098 -1.74613 0
M  V30 7301 H 683.779 -0.534034 -0.522318 0
M  V30 7302 H 686.441 -1.79186 -0.766703 0
M  V30 7303 H 685.537 -2.16476 -2.24822 0
M  V30 7304 N 685.838 0.888903 -1.30139 0
M  V30 7305 C 687.086 1.63713 -1.18501 0
M  V30 7306 C 687.407 1.9324 0.261399 0
M  V30 7307 O 686.677 1.56608 1.17689 0
M  V30 7308 H 685.257 0.606861 -0.435579 0
M  V30 7309 H 687.919 1.06525 -1.63213 0
M  V30 7310 H 687.015 2.58894 -1.743 0
M  V30 7311 N 687.317 1.12792 1.10072 0
M  V30 7312 C 688.542 0.908838 1.86427 0
M  V30 7313 C 688.967 -0.536793 1.80278 0
M  V30 7314 O 688.325 -1.38033 1.17543 0
M  V30 7315 C 688.373 1.39295 3.3261 0
M  V30 7316 O 687.477 0.573846 4.08388 0
M  V30 7317 H 686.818 0.326234 0.578331 0
M  V30 7318 H 689.348 1.50094 1.39043 0
M  V30 7319 H 689.358 1.39366 3.83459 0
M  V30 7320 H 688.033 2.44555 3.36401 0
M  V30 7321 H 686.61 0.640438 3.67359 0
M  V30 7322 N 688.795 -1.27931 0.920396 0
M  V30 7323 C 689.742 -2.27085 0.412422 0
M  V30 7324 C 690.712 -1.57858 -0.516725 0
M  V30 7325 O 691.897 -1.85717 -0.437475 0
M  V30 7326 C 689.037 -3.43466 -0.335399 0
M  V30 7327 C 688.15 -4.27425 0.627017 0
M  V30 7328 C 687.285 -5.31016 -0.139916 0
M  V30 7329 C 686.324 -6.06641 0.815683 0
M  V30 7330 N 685.461 -7.02052 0.0818439 0
M  V30 7331 H 690.301 -2.69913 1.26298 0
M  V30 7332 H 687.838 -1.32732 0.634076 0
M  V30 7333 H 689.796 -4.09744 -0.785226 0
M  V30 7334 H 688.426 -3.01611 -1.15025 0
M  V30 7335 H 687.478 -3.6113 1.19537 0
M  V30 7336 H 688.79 -4.79969 1.35763 0
M  V30 7337 H 687.944 -6.03208 -0.649998 0
M  V30 7338 H 686.683 -4.79257 -0.903543 0
M  V30 7339 H 685.688 -5.33294 1.33708 0
M  V30 7340 H 686.913 -6.60489 1.57897 0
M  V30 7341 H 684.859 -6.52634 -0.663671 0
M  V30 7342 H 684.776 -7.52249 0.752163 0
M  V30 7343 H 686.044 -7.78432 -0.407825 0
M  V30 7344 N 690.273 -0.685099 -1.4193 0
M  V30 7345 C 691.689 -0.355632 -1.55587 0
M  V30 7346 C 691.889 1.13823 -1.66273 0
M  V30 7347 O 690.945 1.92387 -1.63534 0
M  V30 7348 C 692.258 -1.09498 -2.80055 0
M  V30 7349 C 693.806 -1.07831 -2.93839 0
M  V30 7350 C 694.281 -1.79919 -4.21181 0
M  V30 7351 N 695.772 -1.76837 -4.28115 0
M  V30 7352 C 696.507 -2.29463 -5.25485 0
M  V30 7353 N 696.003 -2.90516 -6.28945 0
M  V30 7354 N 697.796 -2.19779 -5.17353 0
M  V30 7355 H 689.947 -1.65412 -1.33239 0
M  V30 7356 H 692.21 -0.697453 -0.642078 0
M  V30 7357 H 691.916 -2.14997 -2.78333 0
M  V30 7358 H 691.79 -0.666813 -3.71259 0
M  V30 7359 H 694.177 -0.0316152 -2.95083 0
M  V30 7360 H 694.258 -1.54545 -2.03837 0
M  V30 7361 H 693.902 -2.84562 -4.20698 0
M  V30 7362 H 693.832 -1.30647 -5.10136 0
M  V30 7363 H 696.323 -1.32315 -3.53979 0
M  V30 7364 H 696.636 -3.28266 -6.99615 0
M  V30 7365 H 694.981 -2.94589 -6.29478 0
M  V30 7366 H 698.172 -1.71763 -4.35448 0
M  V30 7367 H 698.345 -2.61097 -5.9307 0
M  V30 7368 N 691.751 1.51645 -0.429126 0
M  V30 7369 C 692.684 2.24083 0.431492 0
M  V30 7370 C 693.662 1.25691 1.03153 0
M  V30 7371 O 694.846 1.54802 1.07557 0
M  V30 7372 C 691.973 2.9849 1.60067 0
M  V30 7373 C 691.019 4.11474 1.12211 0
M  V30 7374 S 691.852 5.35453 0.0708449 0
M  V30 7375 C 693.008 6.13395 1.24488 0
M  V30 7376 H 693.241 2.96733 -0.183525 0
M  V30 7377 H 690.774 1.52916 -0.213574 0
M  V30 7378 H 692.732 3.4196 2.27099 0
M  V30 7379 H 691.393 2.25445 2.18708 0
M  V30 7380 H 690.586 4.62784 1.99618 0
M  V30 7381 H 690.188 3.70223 0.530149 0
M  V30 7382 H 692.48 6.41984 2.16479 0
M  V30 7383 H 693.423 7.0388 0.771921 0
M  V30 7384 H 693.831 5.44761 1.47973 0
M  V30 7385 N 693.229 0.160201 1.56784 0
M  V30 7386 C 694.459 -0.493449 2.00621 0
M  V30 7387 C 694.867 -1.5809 1.03943 0
M  V30 7388 O 694.21 -1.83675 0.0305343 0
M  V30 7389 C 694.272 -1.14169 3.4089 0
M  V30 7390 C 693.936 -0.197243 4.56574 0
M  V30 7391 C 694.933 0.580174 5.16653 0
M  V30 7392 C 692.618 -0.0963038 5.02208 0
M  V30 7393 C 694.612 1.44584 6.20785 0
M  V30 7394 C 692.299 0.772959 6.06192 0
M  V30 7395 C 693.297 1.54263 6.65351 0
M  V30 7396 O 692.985 2.39738 7.67321 0
M  V30 7397 H 692.717 -0.131764 0.663034 0
M  V30 7398 H 695.271 0.255728 2.03802 0
M  V30 7399 H 693.501 -1.93877 3.34587 0
M  V30 7400 H 695.19 -1.69641 3.6875 0
M  V30 7401 H 695.956 0.5123 4.82287 0
M  V30 7402 H 691.835 -0.685143 4.5588 0
M  V30 7403 H 695.379 2.04706 6.66889 0
M  V30 7404 H 691.276 0.842077 6.39984 0
M  V30 7405 H 692.044 2.33131 7.84597 0
M  V30 7406 N 694.707 -1.5719 -0.113559 0
M  V30 7407 C 695.67 -1.99796 -1.12314 0
M  V30 7408 C 696.67 -0.888847 -1.34001 0
M  V30 7409 O 697.86 -1.15476 -1.30426 0
M  V30 7410 C 694.992 -2.34279 -2.47641 0
M  V30 7411 H 696.185 -2.90193 -0.756825 0
M  V30 7412 H 693.738 -1.52144 -0.358029 0
M  V30 7413 H 694.473 -1.46778 -2.89183 0
M  V30 7414 H 694.258 -3.15175 -2.33253 0
M  V30 7415 H 695.748 -2.67963 -3.2029 0
M  V30 7416 N 696.185 0.383891 -1.52853 0
M  V30 7417 C 697.433 1.12619 -1.67814 0
M  V30 7418 C 697.754 1.90354 -0.423141 0
M  V30 7419 O 697.024 1.87649 0.562554 0
M  V30 7420 H 695.604 0.418738 -0.618601 0
M  V30 7421 H 698.266 0.43495 -1.89985 0
M  V30 7422 H 697.362 1.82624 -2.5309 0
M  V30 7423 N 697.663 1.43903 0.642637 0
M  V30 7424 C 698.593 1.52697 1.76652 0
M  V30 7425 C 699.574 0.380816 1.65782 0
M  V30 7426 O 700.759 0.599432 1.84717 0
M  V30 7427 C 697.889 1.45975 3.15133 0
M  V30 7428 C 696.843 2.58949 3.40778 0
M  V30 7429 C 696.169 2.37279 4.79169 0
M  V30 7430 C 697.469 4.01153 3.34475 0
M  V30 7431 H 699.163 2.46766 1.69549 0
M  V30 7432 H 696.709 1.18767 0.814279 0
M  V30 7433 H 698.662 1.5073 3.93521 0
M  V30 7434 H 697.386 0.484162 3.22991 0
M  V30 7435 H 696.045 2.53564 2.64765 0
M  V30 7436 H 695.693 1.37939 4.83717 0
M  V30 7437 H 695.393 3.13016 4.97287 0
M  V30 7438 H 696.917 2.43834 5.59801 0
M  V30 7439 H 698.331 4.07968 4.02784 0
M  V30 7440 H 696.728 4.77001 3.64129 0
M  V30 7441 H 697.798 4.25539 2.32475 0
M  V30 7442 N 699.141 -0.881989 1.30609 0
M  V30 7443 C 700.088 -1.98803 1.17244 0
M  V30 7444 C 701.058 -1.65987 0.0611905 0
M  V30 7445 O 702.243 -1.89385 0.231911 0
M  V30 7446 C 699.383 -3.33867 0.87333 0
M  V30 7447 C 698.496 -3.79354 2.06675 0
M  V30 7448 C 697.631 -5.03078 1.70547 0
M  V30 7449 C 696.67 -5.40981 2.86366 0
M  V30 7450 N 695.807 -6.55886 2.50514 0
M  V30 7451 H 700.647 -2.09566 2.11863 0
M  V30 7452 H 698.184 -1.02607 1.05405 0
M  V30 7453 H 700.142 -4.11612 0.680519 0
M  V30 7454 H 698.772 -3.2278 -0.0359983 0
M  V30 7455 H 697.824 -2.97492 2.37071 0
M  V30 7456 H 699.136 -4.03382 2.93401 0
M  V30 7457 H 698.29 -5.88457 1.47658 0
M  V30 7458 H 697.029 -4.80927 0.809947 0
M  V30 7459 H 696.034 -4.54127 3.09917 0
M  V30 7460 H 697.259 -5.65104 3.76609 0
M  V30 7461 H 695.205 -6.35306 1.63471 0
M  V30 7462 H 695.122 -6.79799 3.30771 0
M  V30 7463 H 696.39 -7.44489 2.30989 0
M  V30 7464 N 700.619 -1.13374 -1.09472 0
M  V30 7465 C 701.567 -0.806105 -2.18185 0
M  V30 7466 C 702.561 0.21136 -1.68076 0
M  V30 7467 O 703.767 0.0685558 -1.79869 0
M  V30 7468 H 700.142 -0.242901 -0.71169 0
M  V30 7469 H 702.113 -1.73115 -2.43051 0
M  V30 7470 C 700.862 -0.287928 -3.46506 0
M  V30 7471 H 700.185 -1.06217 -3.85432 0
M  V30 7472 H 701.625 -0.0971054 -4.23889 0
M  V30 7473 C 700.084 0.986256 -3.22141 0
M  V30 7474 O 700.614 2.06217 -3.44728 0
M  V30 7475 N 698.82 0.917153 -2.75747 0
M  V30 7476 H 698.367 0.0414609 -2.57567 0
M  V30 7477 H 698.325 1.77029 -2.59823 0
M  V30 7478 N 702.098 1.27442 -0.927168 0
M  V30 7479 C 703.061 2.2512 -0.430525 0
M  V30 7480 C 704.061 1.54357 0.450619 0
M  V30 7481 O 705.251 1.72371 0.251774 0
M  V30 7482 C 702.383 3.38763 0.381144 0
M  V30 7483 H 703.576 2.70569 -1.29354 0
M  V30 7484 H 701.129 1.39355 -0.707806 0
M  V30 7485 H 701.864 2.98695 1.263 0
M  V30 7486 H 701.649 3.91298 -0.250618 0
M  V30 7487 H 703.139 4.11364 0.719012 0
M  V30 7488 N 703.576 0.692616 1.41565 0
M  V30 7489 C 704.824 0.221896 2.00878 0
M  V30 7490 C 705.145 -1.18164 1.5512 0
M  V30 7491 O 704.415 -1.79679 0.78054 0
M  V30 7492 H 702.995 0.0790463 0.742806 0
M  V30 7493 H 705.657 0.893115 1.73232 0
M  V30 7494 H 704.753 0.23702 3.11199 0
M  V30 7495 N 705.054 -1.51416 0.437162 0
M  V30 7496 C 705.964 -2.31493 -0.380537 0
M  V30 7497 C 706.98 -1.40399 -1.02782 0
M  V30 7498 O 708.156 -1.73471 -1.02323 0
M  V30 7499 C 705.221 -3.1413 -1.46709 0
M  V30 7500 C 704.282 -4.21003 -0.839953 0
M  V30 7501 C 703.515 -4.9969 -1.87473 0
M  V30 7502 O 703.738 -4.79008 -3.09689 0
M  V30 7503 O 702.672 -5.8379 -1.46536 0
M  V30 7504 H 706.498 -3.02469 0.273183 0
M  V30 7505 H 704.083 -1.48059 0.199706 0
M  V30 7506 H 705.965 -3.65505 -2.09724 0
M  V30 7507 H 704.64 -2.45919 -2.10489 0
M  V30 7508 H 703.547 -3.73706 -0.171752 0
M  V30 7509 H 704.88 -4.91587 -0.245638 0
M  V30 7510 N 706.532 -0.168513 -1.56696 0
M  V30 7511 C 707.76 0.483503 -2.01171 0
M  V30 7512 C 708.175 1.56994 -1.04872 0
M  V30 7513 O 707.532 1.82434 -0.0491337 0
M  V30 7514 C 707.583 1.0644 -3.45475 0
M  V30 7515 O 707.304 0.0213375 -4.38095 0
M  V30 7516 C 708.805 1.79493 -4.05336 0
M  V30 7517 H 706.025 0.124002 -0.659443 0
M  V30 7518 H 708.569 -0.269419 -2.02717 0
M  V30 7519 H 706.724 1.76784 -3.44712 0
M  V30 7520 H 707.138 0.449837 -5.22567 0
M  V30 7521 H 708.612 2.15401 -5.08238 0
M  V30 7522 H 709.089 2.68889 -3.47269 0
M  V30 7523 H 709.695 1.13798 -4.09793 0
M  V30 7524 N 708.01 1.57248 0.105221 0
M  V30 7525 C 709.256 1.86719 0.806692 0
M  V30 7526 C 709.611 0.758061 1.76837 0
M  V30 7527 O 708.904 -0.240812 1.90081 0
M  V30 7528 C 709.098 3.20437 1.58287 0
M  V30 7529 C 708.927 4.44252 0.697864 0
M  V30 7530 C 707.697 5.04104 0.347444 0
M  V30 7531 C 709.895 5.14299 0.00933014 0
M  V30 7532 N 707.877 6.1146 -0.546786 0
M  V30 7533 C 709.248 6.15528 -0.74336 0
M  V30 7534 C 711.303 4.97857 -0.0656505 0
M  V30 7535 C 710.006 7.02091 -1.56401 0
M  V30 7536 C 712.032 5.84919 -0.873167 0
M  V30 7537 C 711.394 6.8566 -1.61401 0
M  V30 7538 H 707.493 0.73329 0.271679 0
M  V30 7539 H 710.077 1.94575 0.0697152 0
M  V30 7540 H 708.248 3.13651 2.29079 0
M  V30 7541 H 709.98 3.37668 2.23075 0
M  V30 7542 H 706.735 4.68505 0.692817 0
M  V30 7543 H 707.159 6.69779 -0.986157 0
M  V30 7544 H 711.801 4.19919 0.492768 0
M  V30 7545 H 709.519 7.79427 -2.13353 0
M  V30 7546 H 713.105 5.74259 -0.933724 0
M  V30 7547 H 711.985 7.5186 -2.2288 0
M  V30 7548 N 709.488 -0.375779 1.53054 0
M  V30 7549 C 710.718 -1.1387 1.72386 0
M  V30 7550 C 711.126 -1.8382 0.447966 0
M  V30 7551 O 710.469 -1.74027 -0.588244 0
M  V30 7552 C 710.531 -2.22047 2.82728 0
M  V30 7553 C 710.195 -1.71951 4.23417 0
M  V30 7554 C 711.192 -1.18909 5.06119 0
M  V30 7555 C 708.877 -1.77773 4.69789 0
M  V30 7556 C 710.871 -0.723529 6.3328 0
M  V30 7557 C 708.558 -1.30829 5.96931 0
M  V30 7558 C 709.556 -0.782077 6.78508 0
M  V30 7559 O 709.244 -0.319529 8.03265 0
M  V30 7560 H 708.976 -0.346835 0.580242 0
M  V30 7561 H 711.53 -0.443748 2.00549 0
M  V30 7562 H 709.76 -2.95006 2.50017 0
M  V30 7563 H 711.449 -2.83654 2.90336 0
M  V30 7564 H 712.215 -1.13758 4.7147 0
M  V30 7565 H 708.094 -2.17673 4.06373 0
M  V30 7566 H 711.638 -0.312126 6.96901 0
M  V30 7567 H 707.535 -1.3567 6.31081 0
M  V30 7568 H 708.303 -0.439796 8.17318 0
M  V30 7569 N 710.966 -1.44241 -0.634997 0
M  V30 7570 C 712.243 -1.37296 -1.39317 0
M  V30 7571 C 712.623 -0.0297532 -2.11079 0
M  V30 7572 O 711.971 0.987524 -2.06059 0
M  V30 7573 C 712.181 -2.56853 -2.36279 0
M  V30 7574 C 713.529 -3.00747 -2.99728 0
M  V30 7575 O 714.553 -2.5703 -2.46605 0
M  V30 7576 O 713.412 -3.76533 -3.96087 0
M  V30 7577 H 710.506 -0.543503 -0.623325 0
M  V30 7578 H 713.052 -1.56324 -0.660376 0
M  V30 7579 H 711.824 -3.46228 -1.82324 0
M  V30 7580 H 711.447 -2.40019 -3.16981 0
M  V30 7581 N 712.444 0.87505 -1.31075 0
M  V30 7582 C 713.693 1.62245 -1.19831 0
M  V30 7583 C 714.006 1.94078 0.24357 0
M  V30 7584 O 715.212 2.67265 0.477646 0
M  V30 7585 C 713.668 2.92464 -2.09744 0
M  V30 7586 C 713.276 2.68134 -3.58898 0
M  V30 7587 C 715.02 3.70449 -2.07287 0
M  V30 7588 C 712.927 3.9423 -4.40836 0
M  V30 7589 H 711.857 0.608741 -0.444916 0
M  V30 7590 H 714.508 0.967947 -1.55894 0
M  V30 7591 H 712.89 3.59262 -1.66574 0
M  V30 7592 H 714.064 2.09776 -4.10281 0
M  V30 7593 H 712.379 2.03511 -3.6328 0
M  V30 7594 H 714.976 4.63983 -2.65752 0
M  V30 7595 H 715.319 4.02611 -1.05876 0
M  V30 7596 H 715.852 3.10528 -2.48631 0
M  V30 7597 H 712.591 3.67221 -5.42982 0
M  V30 7598 H 712.111 4.52058 -3.94213 0
M  V30 7599 H 713.79 4.62162 -4.52786 0
M  V30 7600 N 713.922 1.13953 1.08869 0
M  V30 7601 C 715.15 0.92817 1.84912 0
M  V30 7602 C 715.565 -0.523197 1.81406 0
M  V30 7603 O 714.922 -1.36237 1.21432 0
M  V30 7604 C 714.973 1.41509 3.32652 0
M  V30 7605 O 714.694 2.80959 3.36145 0
M  V30 7606 C 716.195 1.243 4.25517 0
M  V30 7607 H 713.415 0.330612 0.583898 0
M  V30 7608 H 715.959 1.51349 1.37527 0
M  V30 7609 H 714.114 0.872648 3.77444 0
M  V30 7610 H 714.528 3.02704 4.28335 0
M  V30 7611 H 716.002 1.63237 5.27312 0
M  V30 7612 H 716.479 0.18532 4.38809 0
M  V30 7613 H 717.085 1.77375 3.86546 0
M  V30 7614 N 715.4 -1.26948 0.933913 0
M  V30 7615 C 716.648 -1.93704 0.576484 0
M  V30 7616 C 716.969 -1.73702 -0.886145 0
M  V30 7617 O 716.239 -1.08838 -1.62884 0
M  V30 7618 H 714.819 -0.716812 0.210214 0
M  V30 7619 H 717.481 -1.54534 1.18766 0
M  V30 7620 H 716.577 -3.01987 0.788055 0
M  V30 7621 N 716.879 -0.700114 -1.41195 0
M  V30 7622 C 717.827 -0.0263301 -2.32585 0
M  V30 7623 C 718.821 0.763683 -1.51209 0
M  V30 7624 O 720.027 0.668793 -1.67114 0
M  V30 7625 H 716.402 0.0102869 -0.75193 0
M  V30 7626 H 718.373 -0.814087 -2.8708 0
M  V30 7627 C 717.122 0.892793 -3.36042 0
M  V30 7628 H 716.445 0.294306 -3.98715 0
M  V30 7629 H 717.885 1.33247 -4.02518 0
M  V30 7630 C 716.344 2.01109 -2.7029 0
M  V30 7631 O 716.874 3.10035 -2.55423 0
M  V30 7632 N 715.08 1.79015 -2.28915 0
M  V30 7633 H 714.627 0.904275 -2.41207 0
M  V30 7634 H 714.585 2.54022 -1.85257 0
M  V30 7635 N 718.357 1.51182 -0.445186 0
M  V30 7636 C 719.773 1.59299 -0.0978954 0
M  V30 7637 C 719.973 1.4555 1.39346 0
M  V30 7638 O 719.029 1.30073 2.16419 0
M  V30 7639 C 720.342 2.94133 -0.625005 0
M  V30 7640 C 721.89 3.07463 -0.586137 0
M  V30 7641 C 722.365 4.44832 -1.09035 0
M  V30 7642 N 723.856 4.51173 -1.04867 0
M  V30 7643 C 724.591 5.55804 -1.40959 0
M  V30 7644 N 724.087 6.67816 -1.84375 0
M  V30 7645 N 725.88 5.46205 -1.32726 0
M  V30 7646 H 718.031 1.58363 -1.41544 0
M  V30 7647 H 720.294 0.746946 -0.58376 0
M  V30 7648 H 720 3.09589 -1.66876 0
M  V30 7649 H 719.874 3.77161 -0.0542262 0
M  V30 7650 H 722.261 2.9167 0.448646 0
M  V30 7651 H 722.342 2.26255 -1.19341 0
M  V30 7652 H 721.986 4.61372 -2.12364 0
M  V30 7653 H 721.916 5.24591 -0.459539 0
M  V30 7654 H 724.407 3.70783 -0.729932 0
M  V30 7655 H 724.72 7.43683 -2.10131 0
M  V30 7656 H 723.065 6.69003 -1.88308 0
M  V30 7657 H 726.256 4.57583 -0.986678 0
M  V30 7658 H 726.429 6.27634 -1.61182 0
M  V30 7659 N 719.835 0.176821 1.56605 0
M  V30 7660 C 721.06 -0.47599 2.01864 0
M  V30 7661 C 721.485 -1.55645 1.05623 0
M  V30 7662 O 720.843 -1.81263 0.0366729 0
M  V30 7663 C 720.891 -1.02619 3.4569 0
M  V30 7664 O 719.995 -2.13996 3.52533 0
M  V30 7665 H 719.336 -0.113363 0.654251 0
M  V30 7666 H 721.866 0.28233 2.02643 0
M  V30 7667 H 721.876 -1.34742 3.85109 0
M  V30 7668 H 720.551 -0.235138 4.15235 0
M  V30 7669 H 719.128 -1.82876 3.24978 0
M  V30 7670 N 721.313 -1.57302 -0.09688 0
M  V30 7671 C 722.59 -1.7701 -0.832272 0
M  V30 7672 C 722.97 -0.758025 -1.97021 0
M  V30 7673 O 722.318 0.213824 -2.27497 0
M  V30 7674 C 722.528 -3.22725 -1.32851 0
M  V30 7675 C 723.876 -3.85856 -1.772 0
M  V30 7676 O 724.9 -3.26464 -1.42478 0
M  V30 7677 O 723.759 -4.90295 -2.41398 0
M  V30 7678 H 720.853 -0.725558 -0.396856 0
M  V30 7679 H 723.399 -1.69516 -0.0789005 0
M  V30 7680 H 722.171 -3.87921 -0.51312 0
M  V30 7681 H 721.794 -3.34845 -2.14394 0
M  V30 7682 N 722.791 0.367657 -1.53252 0
M  V30 7683 C 724.019 1.13119 -1.73239 0
M  V30 7684 C 724.434 1.831 -0.460404 0
M  V30 7685 O 723.791 1.73483 0.566557 0
M  V30 7686 C 723.842 2.16308 -2.89643 0
M  V30 7687 O 723.563 1.49175 -4.1192 0
M  V30 7688 C 725.064 3.05224 -3.21486 0
M  V30 7689 H 722.284 0.338318 -0.579467 0
M  V30 7690 H 724.828 0.42721 -1.99988 0
M  V30 7691 H 722.983 2.82307 -2.65295 0
M  V30 7692 H 723.397 2.17912 -4.7709 0
M  V30 7693 H 724.871 3.73613 -4.06346 0
M  V30 7694 H 725.348 3.69919 -2.36763 0
M  V30 7695 H 725.954 2.44843 -3.47753 0
M  V30 7696 N 724.269 1.44576 0.627338 0
M  V30 7697 C 725.515 1.47777 1.38888 0
M  V30 7698 C 725.848 0.111406 1.9388 0
M  V30 7699 O 725.123 -0.87149 1.73883 0
M  V30 7700 C 725.406 2.54119 2.55138 0
M  V30 7701 C 725.259 4.00128 2.0547 0
M  V30 7702 C 726.578 2.56929 3.57317 0
M  V30 7703 H 723.697 0.538048 0.50366 0
M  V30 7704 H 726.339 1.76277 0.708978 0
M  V30 7705 H 724.489 2.29948 3.13139 0
M  V30 7706 H 726.161 4.35444 1.5227 0
M  V30 7707 H 724.404 4.11724 1.36623 0
M  V30 7708 H 725.075 4.7019 2.89181 0
M  V30 7709 H 727.551 2.78536 3.09122 0
M  V30 7710 H 726.427 3.33234 4.36173 0
M  V30 7711 H 726.688 1.6127 4.11636 0
M  V30 7712 N 725.747 -0.868086 1.31537 0
M  V30 7713 C 726.694 -1.97548 1.19346 0
M  V30 7714 C 727.664 -1.65913 0.0787922 0
M  V30 7715 O 728.849 -1.89129 0.251985 0
M  V30 7716 C 725.989 -3.32922 0.908692 0
M  V30 7717 C 725.102 -3.77141 2.10687 0
M  V30 7718 C 724.237 -5.01241 1.75873 0
M  V30 7719 C 723.276 -5.37914 2.92088 0
M  V30 7720 N 722.413 -6.53192 2.57457 0
M  V30 7721 H 727.253 -2.07307 2.14074 0
M  V30 7722 H 724.79 -1.01483 1.06487 0
M  V30 7723 H 726.748 -4.10867 0.724138 0
M  V30 7724 H 725.378 -3.228 -0.0017611 0
M  V30 7725 H 724.43 -2.94961 2.40213 0
M  V30 7726 H 725.742 -4.00248 2.97663 0
M  V30 7727 H 724.896 -5.86858 1.53891 0
M  V30 7728 H 723.635 -4.80041 0.86091 0
M  V30 7729 H 722.64 -4.50814 3.14717 0
M  V30 7730 H 723.865 -5.61077 3.82582 0
M  V30 7731 H 721.811 -6.33536 1.702 0
M  V30 7732 H 721.728 -6.76252 3.37963 0
M  V30 7733 H 722.996 -7.41997 2.38873 0
M  V30 7734 N 727.225 -1.14528 -1.08264 0
M  V30 7735 C 728.474 -0.908992 -1.80056 0
M  V30 7736 C 728.787 0.565859 -1.87236 0
M  V30 7737 O 729.993 0.919454 -2.55457 0
M  V30 7738 C 728.449 -1.57681 -3.23519 0
M  V30 7739 C 728.057 -3.08803 -3.24569 0
M  V30 7740 C 729.801 -1.4217 -3.99985 0
M  V30 7741 C 727.708 -3.68414 -4.62629 0
M  V30 7742 H 726.638 -0.336432 -0.674781 0
M  V30 7743 H 729.289 -1.37437 -1.21587 0
M  V30 7744 H 727.671 -1.03911 -3.82124 0
M  V30 7745 H 728.845 -3.69252 -2.75663 0
M  V30 7746 H 727.16 -3.23968 -2.61598 0
M  V30 7747 H 729.757 -1.84106 -5.02005 0
M  V30 7748 H 730.1 -0.367989 -4.1467 0
M  V30 7749 H 730.633 -1.92984 -3.47853 0
M  V30 7750 H 727.372 -4.73644 -4.53147 0
M  V30 7751 H 726.892 -3.12746 -5.11811 0
M  V30 7752 H 728.571 -3.68793 -5.31602 0
M  V30 7753 N 728.703 1.26451 -0.940633 0
M  V30 7754 C 729.951 1.93395 -0.586748 0
M  V30 7755 C 730.272 1.7417 0.876921 0
M  V30 7756 O 729.542 1.097 1.62304 0
M  V30 7757 H 728.122 0.715687 -0.214012 0
M  V30 7758 H 730.784 1.53902 -1.19584 0
M  V30 7759 H 729.88 3.01565 -0.804059 0
M  V30 7760 N 730.181 0.707592 1.40822 0
M  V30 7761 C 731.406 0.251626 2.05868 0
M  V30 7762 C 731.831 -1.09503 1.5294 0
M  V30 7763 O 731.189 -1.68806 0.661385 0
M  V30 7764 C 731.237 0.23287 3.59847 0
M  V30 7765 O 730.341 -0.788477 4.04792 0
M  V30 7766 H 729.682 0.119936 0.653078 0
M  V30 7767 H 732.212 0.96583 1.80369 0
M  V30 7768 H 732.222 0.0678204 4.07944 0
M  V30 7769 H 730.897 1.21565 3.97737 0
M  V30 7770 H 729.474 -0.591802 3.68174 0
M  V30 7771 N 731.66 -1.50943 0.453197 0
M  V30 7772 C 732.937 -1.94872 -0.168633 0
M  V30 7773 C 733.317 -1.39272 -1.5864 0
M  V30 7774 O 732.665 -0.586272 -2.20851 0
M  V30 7775 C 732.875 -3.48757 -0.130217 0
M  V30 7776 C 734.223 -4.23331 -0.327975 0
M  V30 7777 O 735.247 -3.55594 -0.207619 0
M  V30 7778 O 734.106 -5.43529 -0.569077 0
M  V30 7779 H 731.2 -0.818042 -0.121394 0
M  V30 7780 H 733.746 -1.61782 0.512316 0
M  V30 7781 H 732.518 -3.81725 0.860346 0
M  V30 7782 H 732.141 -3.88333 -0.853397 0
M  V30 7783 N 733.138 -0.185124 -1.56509 0
M  V30 7784 C 734.386 0.455357 -1.96903 0
M  V30 7785 C 734.707 1.62839 -1.07277 0
M  V30 7786 O 733.977 1.95385 -0.141966 0
M  V30 7787 H 732.557 0.171218 -0.727113 0
M  V30 7788 H 735.219 -0.26953 -1.93027 0
M  V30 7789 H 734.315 0.80616 -3.01509 0
M  V30 7790 N 734.616 1.57351 0.0885366 0
M  V30 7791 C 735.862 1.87564 0.786842 0
M  V30 7792 C 736.217 0.776774 1.76023 0
M  V30 7793 O 735.51 -0.220637 1.90325 0
M  V30 7794 C 735.704 3.22098 1.5488 0
M  V30 7795 C 735.533 4.44967 0.650706 0
M  V30 7796 C 734.303 5.04444 0.293957 0
M  V30 7797 C 736.501 5.1428 -0.0452187 0
M  V30 7798 N 734.483 6.10846 -0.611609 0
M  V30 7799 C 735.854 6.14704 -0.808603 0
M  V30 7800 C 737.909 4.97759 -0.118451 0
M  V30 7801 C 736.612 7.00392 -1.63839 0
M  V30 7802 C 738.638 5.8396 -0.935157 0
M  V30 7803 C 738 6.83909 -1.68664 0
M  V30 7804 H 734.099 0.73613 0.263887 0
M  V30 7805 H 736.683 1.94638 0.049074 0
M  V30 7806 H 734.854 3.16064 2.2574 0
M  V30 7807 H 736.586 3.40015 2.19481 0
M  V30 7808 H 733.341 4.69214 0.643086 0
M  V30 7809 H 733.765 6.68695 -1.05714 0
M  V30 7810 H 738.407 4.20418 0.448202 0
M  V30 7811 H 736.125 7.7712 -2.21608 0
M  V30 7812 H 739.711 5.73236 -0.994579 0
M  V30 7813 H 738.591 7.49454 -2.30842 0
M  V30 7814 N 736.094 -0.359525 1.53444 0
M  V30 7815 C 737.342 -1.09935 1.69584 0
M  V30 7816 C 737.663 -1.89656 0.453371 0
M  V30 7817 O 736.933 -1.8852 -0.53263 0
M  V30 7818 H 735.513 -0.408843 0.625185 0
M  V30 7819 H 738.175 -0.40467 1.90653 0
M  V30 7820 H 737.271 -1.78575 2.55964 0
M  V30 7821 N 737.572 -1.44907 -0.619662 0
M  V30 7822 C 738.482 -1.55168 -1.75955 0
M  V30 7823 C 739.498 -0.43672 -1.6843 0
M  V30 7824 O 740.674 -0.695704 -1.89002 0
M  V30 7825 C 737.739 -1.50397 -3.12381 0
M  V30 7826 C 736.8 -2.72835 -3.31451 0
M  V30 7827 C 736.033 -2.68283 -4.61368 0
M  V30 7828 O 736.256 -1.74929 -5.42914 0
M  V30 7829 O 735.19 -3.59308 -4.82889 0
M  V30 7830 H 739.016 -2.51493 -1.7025 0
M  V30 7831 H 736.601 -1.27282 -0.782289 0
M  V30 7832 H 738.483 -1.50301 -3.93685 0
M  V30 7833 H 737.158 -0.572197 -3.18603 0
M  V30 7834 H 736.065 -2.78496 -2.49781 0
M  V30 7835 H 737.398 -3.65098 -3.30098 0
M  V30 7836 N 739.05 0.861098 -1.31996 0
M  V30 7837 C 740.297 1.61481 -1.22188 0
M  V30 7838 C 740.625 1.93276 0.217853 0
M  V30 7839 O 739.88 1.56942 1.16909 0
M  V30 7840 C 740.179 2.94822 -2.02027 0
M  V30 7841 C 739.845 2.82483 -3.51446 0
M  V30 7842 C 738.507 2.78825 -3.92186 0
M  V30 7843 C 740.859 2.68878 -4.46491 0
M  V30 7844 C 738.187 2.59433 -5.26224 0
M  V30 7845 C 740.539 2.51022 -5.80664 0
M  V30 7846 C 739.203 2.45753 -6.20614 0
M  V30 7847 H 738.473 0.590902 -0.447119 0
M  V30 7848 H 741.12 0.999376 -1.63355 0
M  V30 7849 H 739.425 3.6045 -1.53569 0
M  V30 7850 H 741.122 3.52149 -1.91812 0
M  V30 7851 H 737.712 2.86152 -3.19085 0
M  V30 7852 H 741.896 2.70754 -4.1594 0
M  V30 7853 H 737.152 2.53784 -5.5624 0
M  V30 7854 H 741.326 2.39473 -6.53931 0
M  V30 7855 H 738.953 2.30485 -7.24417 0
M  V30 7856 N 740.528 1.15101 1.07655 0
M  V30 7857 C 741.478 0.813448 2.12995 0
M  V30 7858 C 742.462 -0.200899 1.59641 0
M  V30 7859 O 743.654 -0.00209918 1.77 0
M  V30 7860 C 740.783 0.301078 3.41977 0
M  V30 7861 C 739.869 1.3454 4.02194 0
M  V30 7862 N 740.26 2.55181 4.36711 0
M  V30 7863 C 738.558 1.19742 4.29625 0
M  V30 7864 C 739.259 3.22094 4.84387 0
M  V30 7865 N 738.235 2.49486 4.82968 0
M  V30 7866 H 742.037 1.73105 2.37511 0
M  V30 7867 H 739.551 1.03601 1.25063 0
M  V30 7868 H 741.548 0.040914 4.1688 0
M  V30 7869 H 740.208 -0.610629 3.18907 0
M  V30 7870 H 741.219 2.92349 4.27496 0
M  V30 7871 H 737.896 0.345353 4.16069 0
M  V30 7872 H 739.286 4.24996 5.20411 0
M  V30 7873 N 742.006 -1.2595 0.947325 0
M  V30 7874 C 743.252 -1.9375 0.599064 0
M  V30 7875 C 743.585 -1.74088 -0.860632 0
M  V30 7876 O 742.86 -1.08158 -1.61654 0
M  V30 7877 C 743.143 -3.47353 0.949634 0
M  V30 7878 C 742.996 -3.76273 2.46452 0
M  V30 7879 C 744.315 -4.37589 0.469442 0
M  V30 7880 H 741.434 -0.703674 0.219115 0
M  V30 7881 H 744.076 -1.48705 1.18266 0
M  V30 7882 H 742.226 -3.8585 0.453008 0
M  V30 7883 H 743.898 -3.47455 3.03435 0
M  V30 7884 H 742.141 -3.22135 2.90537 0
M  V30 7885 H 742.812 -4.83664 2.66032 0
M  V30 7886 H 745.288 -4.06353 0.89534 0
M  V30 7887 H 744.164 -5.43841 0.7435 0
M  V30 7888 H 744.425 -4.37579 -0.630618 0
M  V30 7889 N 743.484 -0.715051 -1.40445 0
M  V30 7890 C 744.432 -0.0509974 -2.32544 0
M  V30 7891 C 745.426 0.747602 -1.52011 0
M  V30 7892 O 746.632 0.651031 -1.67814 0
M  V30 7893 H 743.007 0.00231113 -0.751996 0
M  V30 7894 H 744.978 -0.84449 -2.86201 0
M  V30 7895 C 743.727 0.857101 -3.3697 0
M  V30 7896 H 743.05 0.252 -3.99005 0
M  V30 7897 H 744.49 1.28971 -4.03909 0
M  V30 7898 C 742.949 1.98231 -2.72408 0
M  V30 7899 O 743.479 3.07309 -2.58697 0
M  V30 7900 N 741.685 1.76577 -2.308 0
M  V30 7901 H 741.232 0.878641 -2.42152 0
M  V30 7902 H 741.19 2.52043 -1.87941 0
M  V30 7903 N 744.962 1.50701 -0.461195 0
M  V30 7904 C 746.239 1.94958 0.158296 0
M  V30 7905 C 746.619 1.40111 1.57899 0
M  V30 7906 O 745.967 0.597976 2.20537 0
M  V30 7907 C 746.177 3.48821 0.11172 0
M  V30 7908 C 747.525 4.23499 0.30552 0
M  V30 7909 O 748.549 3.557 0.188758 0
M  V30 7910 O 747.408 5.43823 0.540244 0
M  V30 7911 H 744.502 0.818674 0.117054 0
M  V30 7912 H 747.048 1.61508 -0.520888 0
M  V30 7913 H 745.82 3.81263 -0.880577 0
M  V30 7914 H 745.443 3.88781 0.832791 0
M  V30 7915 N 746.441 0.193421 1.56409 0
M  V30 7916 C 747.689 -0.444908 1.97142 0
M  V30 7917 C 748.01 -1.62268 1.08139 0
M  V30 7918 O 747.28 -1.95307 0.152326 0
M  V30 7919 H 745.86 -0.16736 0.728011 0
M  V30 7920 H 748.522 0.279763 1.92882 0
M  V30 7921 H 747.618 -0.790159 3.01932 0
M  V30 7922 N 747.919 -1.57396 -0.0801906 0
M  V30 7923 C 749.144 -1.91437 -0.797909 0
M  V30 7924 C 749.569 -0.789075 -1.70749 0
M  V30 7925 O 748.927 0.25857 -1.79447 0
M  V30 7926 C 748.975 -3.24402 -1.57467 0
M  V30 7927 O 748.079 -3.13043 -2.68473 0
M  V30 7928 H 747.42 -0.627109 -0.218243 0
M  V30 7929 H 749.95 -2.04537 -0.050949 0
M  V30 7930 H 749.96 -3.58072 -1.95571 0
M  V30 7931 H 748.635 -4.05884 -0.907229 0
M  V30 7932 H 747.212 -2.90915 -2.33287 0
M  V30 7933 N 749.397 0.351382 -1.53633 0
M  V30 7934 C 750.643 1.09411 -1.70754 0
M  V30 7935 C 750.976 1.88544 -0.465293 0
M  V30 7936 O 750.251 1.86923 0.537608 0
M  V30 7937 C 750.534 2.04173 -2.96623 0
M  V30 7938 C 750.387 1.28556 -4.31038 0
M  V30 7939 C 751.706 3.04102 -3.18136 0
M  V30 7940 H 748.825 0.396373 -0.621335 0
M  V30 7941 H 751.467 0.373464 -1.86293 0
M  V30 7942 H 749.617 2.65625 -2.83506 0
M  V30 7943 H 751.289 0.697786 -4.55992 0
M  V30 7944 H 749.532 0.587498 -4.29803 0
M  V30 7945 H 750.203 1.97989 -5.15271 0
M  V30 7946 H 752.679 2.5276 -3.30532 0
M  V30 7947 H 751.555 3.67616 -4.07615 0
M  V30 7948 H 751.816 3.75053 -2.34068 0
M  V30 7949 N 750.875 1.45233 0.611969 0
M  V30 7950 C 752.1 1.52767 1.40274 0
M  V30 7951 C 752.525 0.159701 1.87421 0
M  V30 7952 O 751.883 -0.854837 1.59882 0
M  V30 7953 C 751.931 2.51286 2.58626 0
M  V30 7954 O 751.035 2.02764 3.59111 0
M  V30 7955 H 750.376 0.515141 0.418958 0
M  V30 7956 H 752.906 1.90547 0.745188 0
M  V30 7957 H 752.916 2.69949 3.05927 0
M  V30 7958 H 751.591 3.50641 2.23659 0
M  V30 7959 H 750.168 1.93957 3.18489 0
M  V30 7960 N 752.353 -0.854086 1.3245 0
M  V30 7961 C 753.602 -1.60318 1.22397 0
M  V30 7962 C 753.915 -1.9444 -0.212664 0
M  V30 7963 O 755.121 -2.67991 -0.435066 0
M  V30 7964 C 753.577 -2.8909 2.1437 0
M  V30 7965 C 753.185 -2.62391 3.63119 0
M  V30 7966 C 754.929 -3.67104 2.13155 0
M  V30 7967 C 752.836 -3.87167 4.47052 0
M  V30 7968 H 751.766 -0.601586 0.454544 0
M  V30 7969 H 754.417 -0.943023 1.57415 0
M  V30 7970 H 752.799 -3.56567 1.72268 0
M  V30 7971 H 753.973 -2.03222 4.13567 0
M  V30 7972 H 752.288 -1.97706 3.66471 0
M  V30 7973 H 754.885 -4.59696 2.731 0
M  V30 7974 H 755.228 -4.00876 1.12268 0
M  V30 7975 H 755.761 -3.06533 2.5354 0
M  V30 7976 H 752.5 -3.58536 5.48755 0
M  V30 7977 H 752.02 -4.45729 4.01355 0
M  V30 7978 H 753.699 -4.549 4.60081 0
M  V30 7979 N 753.831 -1.1567 -1.07043 0
M  V30 7980 C 755.061 -0.956083 -1.83146 0
M  V30 7981 C 755.469 0.498969 -1.82502 0
M  V30 7982 O 754.812 1.35791 -1.23719 0
M  V30 7983 C 754.874 -1.39704 -3.31245 0
M  V30 7984 C 754.538 -2.87045 -3.55604 0
M  V30 7985 C 755.535 -3.85092 -3.49285 0
M  V30 7986 C 753.22 -3.24787 -3.8317 0
M  V30 7987 C 755.214 -5.18885 -3.70185 0
M  V30 7988 C 752.901 -4.58751 -4.03721 0
M  V30 7989 C 753.899 -5.55609 -3.97224 0
M  V30 7990 O 753.587 -6.87154 -4.17223 0
M  V30 7991 H 753.319 -0.339473 -0.58458 0
M  V30 7992 H 755.873 -1.53922 -1.36005 0
M  V30 7993 H 754.103 -0.757326 -3.79212 0
M  V30 7994 H 755.792 -1.16503 -3.88821 0
M  V30 7995 H 756.558 -3.5728 -3.27988 0
M  V30 7996 H 752.437 -2.49979 -3.87339 0
M  V30 7997 H 755.981 -5.94473 -3.6503 0
M  V30 7998 H 751.878 -4.86277 -4.24505 0
M  V30 7999 H 752.646 -6.93618 -4.34553 0
M  V30 8000 N 755.309 1.25446 -0.953992 0
M  V30 8001 C 756.555 1.9343 -0.60933 0
M  V30 8002 C 756.888 1.74542 0.851388 0
M  V30 8003 O 756.163 1.09014 1.61078 0
M  V30 8004 C 756.446 3.46844 -0.968041 0
M  V30 8005 C 756.299 3.74961 -2.48444 0
M  V30 8006 C 757.618 4.37334 -0.492641 0
M  V30 8007 H 754.737 0.702502 -0.222844 0
M  V30 8008 H 757.379 1.48076 -1.19053 0
M  V30 8009 H 755.529 3.85604 -0.473465 0
M  V30 8010 H 757.201 3.45841 -3.05273 0
M  V30 8011 H 755.444 3.20589 -2.92241 0
M  V30 8012 H 756.115 4.82246 -2.68594 0
M  V30 8013 H 758.591 4.05873 -0.916878 0
M  V30 8014 H 757.467 5.43439 -0.772331 0
M  V30 8015 H 757.728 4.37908 0.607403 0
M  V30 8016 N 756.787 0.722489 1.40064 0
M  V30 8017 C 757.719 0.0349057 2.29173 0
M  V30 8018 C 758.732 -0.716571 1.46182 0
M  V30 8019 O 759.921 -0.562806 1.69395 0
M  V30 8020 C 757.021 -0.974839 3.24577 0
M  V30 8021 C 756.194 -0.287471 4.36454 0
M  V30 8022 C 755.253 -1.20356 5.12251 0
M  V30 8023 O 754.279 -0.685753 5.65054 0
M  V30 8024 N 755.481 -2.53422 5.22262 0
M  V30 8025 H 758.246 0.800058 2.88824 0
M  V30 8026 H 755.807 0.57068 1.51509 0
M  V30 8027 H 757.799 -1.59002 3.72157 0
M  V30 8028 H 756.369 -1.6413 2.66046 0
M  V30 8029 H 755.589 0.508008 3.90913 0
M  V30 8030 H 756.877 0.189382 5.08447 0
M  V30 8031 H 756.275 -2.97981 4.80857 0
M  V30 8032 H 754.832 -3.10067 5.73325 0
M  V30 8033 N 758.265 -1.50454 0.469181 0
M  V30 8034 C 759.212 -2.28486 -0.325982 0
M  V30 8035 C 760.182 -1.33455 -0.988893 0
M  V30 8036 O 761.367 -1.6239 -1.0017 0
M  V30 8037 C 758.507 -3.15288 -1.40313 0
M  V30 8038 C 757.62 -4.25348 -0.755183 0
M  V30 8039 C 756.755 -4.9941 -1.81006 0
M  V30 8040 C 755.794 -6.01348 -1.14226 0
M  V30 8041 N 754.931 -6.68695 -2.1399 0
M  V30 8042 H 759.771 -2.95987 0.345753 0
M  V30 8043 H 757.308 -1.45965 0.182355 0
M  V30 8044 H 759.266 -3.63964 -2.03927 0
M  V30 8045 H 757.896 -2.49837 -2.04405 0
M  V30 8046 H 756.948 -3.80399 -0.00651901 0
M  V30 8047 H 758.26 -4.98279 -0.227941 0
M  V30 8048 H 757.414 -5.51794 -2.52206 0
M  V30 8049 H 756.153 -4.26181 -2.3711 0
M  V30 8050 H 755.158 -5.48225 -0.415876 0
M  V30 8051 H 756.383 -6.76548 -0.588135 0
M  V30 8052 H 754.329 -5.98258 -2.69115 0
M  V30 8053 H 754.246 -7.37495 -1.66246 0
M  V30 8054 H 755.514 -7.25697 -2.84576 0
M  V30 8055 O 759.782 -0.343108 -1.57813 0
M  V30 8056 H 760.473 0.212482 -1.92531 0
M  V30 END ATOM
M  V30 BEGIN BOND
M  V30 END BOND
M  V30 END CTAB
M  END
$$$$
