drugbank_target|P03234 Capsid scaffolding protein (DB03976)
 OpenBabel12092120023D

  0  0  0     0  0            999 V3000
M  V30 BEGIN CTAB
M  V30 COUNTS 8923 9068 0 0 0
M  V30 BEGIN ATOM
M  V30 1 H -0.908 1.98254 -0.117106 0
M  V30 2 N 0 1.576 0 0
M  V30 3 C 0.933 2.03868 1.02534 0
M  V30 4 C 1.911 0.928543 1.3348 0
M  V30 5 O 3.095 1.19667 1.45644 0
M  V30 6 C 0.222 2.43627 2.35294 0
M  V30 7 C -0.732 3.65373 2.2001 0
M  V30 8 S 0.101 5.13292 1.52614 0
M  V30 9 C 1.257 5.56322 2.86805 0
M  V30 10 H 1.49 2.90518 0.631377 0
M  V30 11 H -0.977 1.52953 0.210867 0
M  V30 12 H 0.981 2.67203 3.11629 0
M  V30 13 H -0.358 1.57376 2.7183 0
M  V30 14 H -1.165 3.90944 3.18086 0
M  V30 15 H -1.563 3.418 1.51819 0
M  V30 16 H 0.729 5.58782 3.83104 0
M  V30 17 H 1.672 6.56266 2.65933 0
M  V30 18 H 2.08 4.83886 2.90714 0
M  V30 19 N 1.4781 -0.272755 1.55222 0
M  V30 20 C 2.7241 -1.00581 1.761 0
M  V30 21 C 3.0571 -1.85932 0.560625 0
M  V30 22 O 2.3321 -1.89416 -0.441801 0
M  V30 23 C 2.6151 -1.88816 3.06628 0
M  V30 24 C 2.4681 -1.06457 4.37021 0
M  V30 25 C 3.7871 -2.8752 3.33197 0
M  V30 26 H 0.9061 -0.364244 0.640699 0
M  V30 27 H 3.5481 -0.278189 1.87952 0
M  V30 28 H 1.6981 -2.50856 2.96654 0
M  V30 29 H 3.3701 -0.464863 4.58952 0
M  V30 30 H 1.6131 -0.368043 4.32236 0
M  V30 31 H 2.2841 -1.71514 5.24678 0
M  V30 32 H 4.7601 -2.35615 3.42965 0
M  V30 33 H 3.6361 -3.46399 4.25792 0
M  V30 34 H 3.8971 -3.62657 2.52849 0
M  V30 35 N 2.9562 -1.48159 -0.537278 0
M  V30 36 C 3.8882 -1.58218 -1.65831 0
M  V30 37 C 4.9012 -0.466948 -1.5596 0
M  V30 38 O 6.0902 -0.73747 -1.62553 0
M  V30 39 C 3.1902 -1.48906 -3.04434 0
M  V30 40 C 2.3632 -2.75343 -3.3986 0
M  V30 41 C 1.4222 -2.59588 -4.57712 0
M  V30 42 O 0.4482 -3.33457 -4.61297 0
M  V30 43 N 1.6502 -1.68724 -5.55439 0
M  V30 44 H 4.4152 -2.54891 -1.57641 0
M  V30 45 H 1.9762 -1.4479 -0.724386 0
M  V30 46 H 3.9682 -1.36072 -3.81139 0
M  V30 47 H 2.5382 -0.602368 -3.06741 0
M  V30 48 H 1.7582 -3.02795 -2.52406 0
M  V30 49 H 3.0462 -3.5924 -3.60311 0
M  V30 50 H 2.4442 -1.07898 -5.55315 0
M  V30 51 H 1.0012 -1.61832 -6.3139 0
M  V30 52 N 4.4343 0.785586 -1.36625 0
M  V30 53 C 5.3973 1.87999 -1.31107 0
M  V30 54 C 6.3973 1.59316 -0.217959 0
M  V30 55 O 7.5873 1.67656 -0.472977 0
M  V30 56 C 4.7193 3.24861 -1.03334 0
M  V30 57 H 5.9123 1.94307 -2.2844 0
M  V30 58 H 3.4653 0.983813 -1.21453 0
M  V30 59 H 4.2003 3.24235 -0.0647432 0
M  V30 60 H 3.9853 3.4707 -1.82441 0
M  V30 61 H 5.4753 4.04929 -1.02088 0
M  V30 62 N 5.9124 1.20967 1.01018 0
M  V30 63 C 7.3234 1.02319 1.56165 0
M  V30 64 C 7.6744 -0.418546 1.91684 0
M  V30 65 O 6.7994 -1.30096 1.72928 0
M  V30 66 C 7.3944 1.85109 2.8376 0
M  V30 67 C 5.9534 1.70809 3.35412 0
M  V30 68 C 5.1004 1.82643 2.08655 0
M  V30 69 H 8.0514 1.35065 0.833255 0
M  V30 70 H 8.0724 1.35827 3.55431 0
M  V30 71 H 7.5844 2.90035 2.57878 0
M  V30 72 H 5.6854 0.685464 3.66241 0
M  V30 73 H 5.7984 2.52467 4.07182 0
M  V30 74 H 4.1624 1.25896 2.21409 0
M  V30 75 H 4.9454 2.89066 1.85191 0
M  V30 76 N 7.3905 -1.2043 1.01659 0
M  V30 77 C 8.6155 -1.94318 0.724942 0
M  V30 78 C 9.0405 -1.74266 -0.708034 0
M  V30 79 O 8.3985 -1.03694 -1.48719 0
M  V30 80 C 8.4465 -3.44486 1.06591 0
M  V30 81 O 7.5505 -4.12017 0.177599 0
M  V30 82 H 6.8915 -0.60708 0.26898 0
M  V30 83 H 9.4215 -1.52861 1.35995 0
M  V30 84 H 9.4315 -3.95106 1.01762 0
M  V30 85 H 8.1065 -3.58404 2.10997 0
M  V30 86 H 6.6835 -3.71821 0.283421 0
M  V30 87 N 8.8686 -0.792821 -1.36206 0
M  V30 88 C 10.1146 -0.36733 -1.99446 0
M  V30 89 C 10.4476 1.05917 -1.62774 0
M  V30 90 O 9.7226 1.7324 -0.88421 0
M  V30 91 C 10.0056 -0.535044 -3.56103 0
M  V30 92 C 9.8586 -2.00548 -4.02617 0
M  V30 93 C 11.1776 0.0478191 -4.40074 0
M  V30 94 H 8.2966 -0.134941 -0.724541 0
M  V30 95 H 10.9386 -0.999794 -1.61568 0
M  V30 96 H 9.0886 0.00336329 -3.885 0
M  V30 97 H 10.7606 -2.60521 -3.80692 0
M  V30 98 H 9.0036 -2.50686 -3.54032 0
M  V30 99 H 9.6746 -2.07377 -5.11565 0
M  V30 100 H 12.1506 -0.411822 -4.14057 0
M  V30 101 H 11.0266 -0.0995336 -5.4881 0
M  V30 102 H 11.2876 1.14025 -4.27142 0
M  V30 103 N 10.3467 1.47872 -0.545128 0
M  V30 104 C 11.5767 2.06589 -0.0210534 0
M  V30 105 C 11.9847 1.39997 1.27269 0
M  V30 106 O 11.3277 0.486421 1.77143 0
M  V30 107 C 11.3897 3.58574 0.257933 0
M  V30 108 C 11.0537 4.47132 -0.944573 0
M  V30 109 C 12.0507 4.85986 -1.84699 0
M  V30 110 C 9.7357 4.88821 -1.15584 0
M  V30 111 C 11.7297 5.65314 -2.94446 0
M  V30 112 C 9.4167 5.67916 -2.25642 0
M  V30 113 C 10.4147 6.06073 -3.14905 0
M  V30 114 O 10.1027 6.83578 -4.23057 0
M  V30 115 H 9.8347 0.674971 -0.0372899 0
M  V30 116 H 12.3887 1.91037 -0.754599 0
M  V30 117 H 10.6187 3.72295 1.04564 0
M  V30 118 H 12.3077 3.99356 0.72592 0
M  V30 119 H 13.0737 4.54388 -1.69577 0
M  V30 120 H 8.9527 4.58595 -0.470279 0
M  V30 121 H 12.4967 5.95016 -3.64145 0
M  V30 122 H 8.3937 5.98927 -2.40742 0
M  V30 123 H 9.1617 7.01954 -4.20954 0
M  V30 124 N 11.8248 0.280983 1.55075 0
M  V30 125 C 13.0708 -0.33461 2.00021 0
M  V30 126 C 13.4038 -1.55063 1.16915 0
M  V30 127 O 12.6788 -1.93006 0.240646 0
M  V30 128 C 12.9618 -0.711007 3.53011 0
M  V30 129 C 12.8148 0.512766 4.46868 0
M  V30 130 C 14.1338 -1.54522 4.12081 0
M  V30 131 H 11.2528 -0.120147 0.727141 0
M  V30 132 H 13.8948 0.389097 1.85973 0
M  V30 133 H 12.0448 -1.32761 3.65112 0
M  V30 134 H 13.7168 1.15131 4.46702 0
M  V30 135 H 11.9598 1.14975 4.18286 0
M  V30 136 H 12.6308 0.205556 5.51617 0
M  V30 137 H 15.1068 -1.02442 4.03293 0
M  V30 138 H 13.9828 -1.77739 5.19327 0
M  V30 139 H 14.2438 -2.52813 3.62682 0
M  V30 140 N 13.3029 -1.57598 0.00835791 0
M  V30 141 C 14.5429 -1.92788 -0.679136 0
M  V30 142 C 14.9069 -0.883378 -1.70471 0
M  V30 143 O 16.1079 -1.12079 -2.44319 0
M  V30 144 C 14.3789 -3.32994 -1.29807 0
M  V30 145 S 15.9379 -3.90082 -2.00952 0
M  V30 146 H 12.7559 -0.67475 -0.224127 0
M  V30 147 H 15.3579 -1.95385 0.0670497 0
M  V30 148 H 14.0619 -4.06846 -0.538922 0
M  V30 149 H 13.5929 -3.33791 -2.082 0
M  V30 150 H 15.6079 -3.71834 -3.28563 0
M  V30 151 N 14.781 0.264519 -1.55364 0
M  V30 152 C 16.029 0.993021 -1.76021 0
M  V30 153 C 16.35 1.86511 -0.569099 0
M  V30 154 O 15.62 1.91438 0.415735 0
M  V30 155 H 14.2 0.369639 -0.649135 0
M  V30 156 H 16.862 0.286707 -1.9278 0
M  V30 157 H 15.958 1.62502 -2.66457 0
M  V30 158 N 16.2591 1.48442 0.529413 0
M  V30 159 C 17.5061 1.56488 1.28521 0
M  V30 160 C 17.8341 0.239042 1.93025 0
M  V30 161 O 17.0891 -0.770713 1.79885 0
M  V30 162 C 17.3881 2.6523 2.39558 0
M  V30 163 C 17.0541 4.07648 1.92702 0
M  V30 164 C 15.7161 4.46411 1.79641 0
M  V30 165 C 18.0681 4.96896 1.573 0
M  V30 166 C 15.3961 5.72226 1.29514 0
M  V30 167 C 17.7481 6.23202 1.08636 0
M  V30 168 C 16.4121 6.60821 0.941919 0
M  V30 169 H 15.6821 0.572631 0.470292 0
M  V30 170 H 18.3291 1.82161 0.59072 0
M  V30 171 H 16.6341 2.33419 3.14679 0
M  V30 172 H 18.3311 2.68671 2.97686 0
M  V30 173 H 14.9211 3.77036 2.03819 0
M  V30 174 H 19.1051 4.67626 1.66251 0
M  V30 175 H 14.3611 6.00097 1.17019 0
M  V30 176 H 18.5351 6.91753 0.803136 0
M  V30 177 H 16.1621 7.58198 0.5513 0
M  V30 178 N 17.7372 -0.778329 1.37039 0
M  V30 179 C 18.9832 -1.53892 1.32079 0
M  V30 180 C 19.3162 -1.9396 -0.0965386 0
M  V30 181 O 18.5912 -1.63568 -1.05242 0
M  V30 182 C 18.8742 -2.80847 2.25382 0
M  V30 183 C 18.7272 -2.47076 3.75864 0
M  V30 184 C 20.0462 -3.82741 2.1725 0
M  V30 185 H 17.1652 -0.558303 0.48111 0
M  V30 186 H 19.8072 -0.893397 1.67685 0
M  V30 187 H 17.9572 -3.35931 1.95148 0
M  V30 188 H 19.6292 -1.97957 4.16666 0
M  V30 189 H 17.8722 -1.79863 3.94755 0
M  V30 190 H 18.5432 -3.37798 4.36574 0
M  V30 191 H 21.0192 -3.37133 2.43887 0
M  V30 192 H 19.8952 -4.69303 2.84686 0
M  V30 193 H 20.1562 -4.2652 1.16331 0
M  V30 194 N 19.2153 -1.21501 -1.00376 0
M  V30 195 C 20.1253 -0.991447 -2.12621 0
M  V30 196 C 21.1413 0.0568446 -1.73907 0
M  V30 197 O 22.3173 -0.13348 -2.00957 0
M  V30 198 C 19.3823 -0.560312 -3.42142 0
M  V30 199 C 18.4433 -1.68096 -3.95022 0
M  V30 200 C 17.6763 -1.2703 -5.18362 0
M  V30 201 O 17.8993 -0.144438 -5.70217 0
M  V30 202 O 16.8333 -2.08269 -5.64719 0
M  V30 203 H 20.6593 -1.93158 -2.34358 0
M  V30 204 H 18.2443 -0.999999 -1.10997 0
M  V30 205 H 20.1263 -0.329724 -4.20108 0
M  V30 206 H 18.8013 0.351089 -3.2179 0
M  V30 207 H 17.7083 -1.96597 -3.18278 0
M  V30 208 H 19.0413 -2.56983 -4.19786 0
M  V30 209 N 20.6934 1.19889 -1.02296 0
M  V30 210 C 22.1094 1.41462 -0.738954 0
M  V30 211 C 22.3094 1.89721 0.678846 0
M  V30 212 O 21.3654 2.07016 1.4457 0
M  V30 213 C 22.6784 2.43083 -1.77005 0
M  V30 214 C 24.2264 2.5684 -1.78892 0
M  V30 215 C 24.7014 3.61709 -2.80945 0
M  V30 216 N 26.1924 3.69199 -2.79725 0
M  V30 217 C 26.9274 4.50019 -3.55345 0
M  V30 218 N 26.4234 5.34592 -4.40662 0
M  V30 219 N 28.2164 4.44612 -3.43914 0
M  V30 220 H 20.3674 0.868827 -1.93817 0
M  V30 221 H 22.6304 0.44399 -0.837602 0
M  V30 222 H 22.3364 2.14636 -2.78612 0
M  V30 223 H 22.2104 3.4217 -1.58744 0
M  V30 224 H 24.5974 2.84614 -0.779674 0
M  V30 225 H 24.6784 1.57927 -2.01228 0
M  V30 226 H 24.3224 3.34678 -3.82038 0
M  V30 227 H 24.2524 4.60259 -2.5587 0
M  V30 228 H 26.7434 3.08794 -2.17842 0
M  V30 229 H 27.0564 5.93363 -4.95116 0
M  V30 230 H 25.4014 5.34073 -4.44737 0
M  V30 231 H 28.5924 3.7758 -2.76679 0
M  V30 232 H 28.7654 5.0736 -4.031 0
M  V30 233 N 22.1715 0.800033 1.35784 0
M  V30 234 C 23.5825 0.439142 1.81462 0
M  V30 235 C 23.9335 -1.03813 1.66485 0
M  V30 236 O 23.0585 -1.80626 1.19177 0
M  V30 237 C 23.6535 0.790314 3.29453 0
M  V30 238 C 22.2125 0.482111 3.733 0
M  V30 239 C 21.3595 1.01938 2.57883 0
M  V30 240 H 24.3105 0.992254 1.23855 0
M  V30 241 H 24.3315 0.0853677 3.80404 0
M  V30 242 H 23.8435 1.86554 3.40322 0
M  V30 243 H 21.9445 -0.584652 3.67984 0
M  V30 244 H 22.0575 1.01015 4.6833 0
M  V30 245 H 20.4215 0.442043 2.50835 0
M  V30 246 H 21.2045 2.10059 2.71533 0
M  V30 247 N 23.6496 -1.47581 0.552962 0
M  V30 248 C 24.9266 -1.95563 -0.0381515 0
M  V30 249 C 25.3066 -1.49552 -1.48988 0
M  V30 250 O 24.6546 -0.732414 -2.16444 0
M  V30 251 C 24.8646 -3.48848 0.102919 0
M  V30 252 C 26.2126 -4.24577 -0.0446082 0
M  V30 253 O 27.2366 -3.56187 0.0302548 0
M  V30 254 O 26.0956 -5.46116 -0.204923 0
M  V30 255 H 23.1896 -0.824321 -0.0665067 0
M  V30 256 H 25.7356 -1.58001 0.619186 0
M  V30 257 H 24.5076 -3.75129 1.11328 0
M  V30 258 H 24.1306 -3.93165 -0.592224 0
M  V30 259 N 25.1277 -0.289203 -1.54924 0
M  V30 260 C 26.0907 0.579144 -2.21762 0
M  V30 261 C 27.0907 1.07047 -1.1999 0
M  V30 262 O 28.2807 0.968384 -1.44803 0
M  V30 263 C 25.4127 1.80055 -2.8947 0
M  V30 264 H 26.6057 -0.00464908 -2.999 0
M  V30 265 H 24.1587 -0.0399306 -1.56249 0
M  V30 266 H 24.8937 2.42449 -2.15381 0
M  V30 267 H 24.6787 1.45602 -3.64064 0
M  V30 268 H 26.1687 2.41773 -3.40493 0
M  V30 269 N 26.6058 1.57591 -0.0167156 0
M  V30 270 C 28.0168 1.79201 0.523834 0
M  V30 271 C 28.3678 0.925796 1.72984 0
M  V30 272 O 27.4928 0.132792 2.15992 0
M  V30 273 C 28.0878 3.25 0.957091 0
M  V30 274 C 26.6468 3.47648 1.44283 0
M  V30 275 C 25.7938 2.74374 0.401757 0
M  V30 276 H 28.7448 1.56831 -0.242816 0
M  V30 277 H 28.7658 3.34031 1.82219 0
M  V30 278 H 28.2778 3.88019 0.0791415 0
M  V30 279 H 26.3788 2.89866 2.34113 0
M  V30 280 H 26.4918 4.56352 1.45877 0
M  V30 281 H 24.8558 2.39485 0.867121 0
M  V30 282 H 25.6388 3.40102 -0.467513 0
M  V30 283 N 28.0839 -0.256276 1.55502 0
M  V30 284 C 29.4949 -0.826068 1.67431 0
M  V30 285 C 29.8459 -1.86396 0.612446 0
M  V30 286 O 28.9709 -2.15031 -0.243025 0
M  V30 287 C 29.5659 -1.50512 3.03532 0
M  V30 288 C 28.1249 -2.02273 3.17431 0
M  V30 289 C 27.2719 -0.870548 2.63281 0
M  V30 290 H 30.2229 -0.0322728 1.58667 0
M  V30 291 H 30.2439 -2.37279 2.97454 0
M  V30 292 H 29.7559 -0.749484 3.80794 0
M  V30 293 H 27.8569 -2.80746 2.44974 0
M  V30 294 H 27.9699 -2.22655 4.24219 0
M  V30 295 H 26.3339 -1.26851 2.20864 0
M  V30 296 H 27.1169 -0.128149 3.43061 0
M  V30 297 N 29.562 -1.4872 -0.521534 0
M  V30 298 C 30.509 -1.63871 -1.62527 0
M  V30 299 C 31.479 -0.480559 -1.58996 0
M  V30 300 O 32.664 -0.705085 -1.77294 0
M  V30 301 C 29.804 -1.69227 -3.00759 0
M  V30 302 C 28.917 -2.96207 -3.14461 0
M  V30 303 C 28.052 -2.92671 -4.43303 0
M  V30 304 C 27.091 -4.14318 -4.50563 0
M  V30 305 N 26.228 -4.0881 -5.70805 0
M  V30 306 H 31.068 -2.58123 -1.48918 0
M  V30 307 H 28.605 -1.28 -0.724878 0
M  V30 308 H 30.563 -1.70314 -3.80853 0
M  V30 309 H 29.193 -0.784586 -3.1312 0
M  V30 310 H 28.245 -3.04826 -2.27564 0
M  V30 311 H 29.557 -3.86192 -3.15686 0
M  V30 312 H 28.711 -2.92206 -5.31696 0
M  V30 313 H 27.45 -2.00429 -4.44612 0
M  V30 314 H 26.455 -4.15049 -3.60575 0
M  V30 315 H 27.68 -5.07729 -4.50986 0
M  V30 316 H 25.626 -3.19394 -5.72995 0
M  V30 317 H 25.543 -4.92509 -5.7356 0
M  V30 318 H 26.811 -4.12418 -6.61462 0
M  V30 319 N 31.0401 0.771051 -1.3745 0
M  V30 320 C 32.3171 1.519 -1.23231 0
M  V30 321 C 32.6971 2.10383 0.173809 0
M  V30 322 O 32.0451 1.95583 1.18151 0
M  V30 323 C 32.2551 2.59933 -2.32886 0
M  V30 324 C 33.6031 3.27316 -2.70461 0
M  V30 325 O 34.6271 2.70228 -2.32068 0
M  V30 326 O 33.4861 4.30531 -3.36608 0
M  V30 327 H 30.5801 0.672803 -0.480901 0
M  V30 328 H 33.1261 0.807957 -1.49232 0
M  V30 329 H 31.8981 2.14842 -3.27045 0
M  V30 330 H 31.5211 3.38637 -2.08353 0
M  V30 331 N 32.5182 1.22032 0.997298 0
M  V30 332 C 33.4812 0.987909 2.06816 0
M  V30 333 C 34.4812 -0.0440084 1.6074 0
M  V30 334 O 35.6712 0.194053 1.73116 0
M  V30 335 C 32.8032 0.49132 3.37341 0
M  V30 336 H 33.9962 1.93803 2.28868 0
M  V30 337 H 31.5492 1.03838 1.16822 0
M  V30 338 H 32.2842 -0.463364 3.20973 0
M  V30 339 H 32.0692 1.23575 3.72118 0
M  V30 340 H 33.5592 0.348824 4.16141 0
M  V30 341 N 33.9963 -1.19345 1.0293 0
M  V30 342 C 35.2363 -1.90738 0.734727 0
M  V30 343 C 35.6003 -1.7785 -0.723414 0
M  V30 344 O 36.8013 -2.43844 -1.13108 0
M  V30 345 C 35.0723 -3.37569 1.17396 0
M  V30 346 S 36.6313 -4.27176 1.00329 0
M  V30 347 H 33.4493 -0.658771 0.267474 0
M  V30 348 H 36.0513 -1.4428 1.31922 0
M  V30 349 H 34.7553 -3.44475 2.23081 0
M  V30 350 H 34.2863 -3.8906 0.582772 0
M  V30 351 H 36.3013 -4.96126 -0.0859152 0
M  V30 352 N 35.4744 -0.807222 -1.35358 0
M  V30 353 C 36.4044 -0.232509 -2.3234 0
M  V30 354 C 37.3854 0.642386 -1.57504 0
M  V30 355 O 38.5704 0.572526 -1.85569 0
M  V30 356 C 35.7004 0.619238 -3.41735 0
M  V30 357 C 34.6544 -0.157215 -4.27711 0
M  V30 358 C 33.9804 0.816273 -5.28433 0
M  V30 359 C 35.2804 -1.35656 -5.04376 0
M  V30 360 H 36.9744 -1.04276 -2.80654 0
M  V30 361 H 34.5204 -0.50288 -1.34934 0
M  V30 362 H 36.4734 1.03137 -4.08584 0
M  V30 363 H 35.1974 1.46239 -2.92031 0
M  V30 364 H 33.8564 -0.550525 -3.62443 0
M  V30 365 H 33.5044 1.65494 -4.74996 0
M  V30 366 H 33.2044 0.301067 -5.86828 0
M  V30 367 H 34.7284 1.22659 -5.98153 0
M  V30 368 H 36.1424 -1.01927 -5.64166 0
M  V30 369 H 34.5394 -1.8063 -5.7227 0
M  V30 370 H 35.6094 -2.14288 -4.34981 0
M  V30 371 N 36.9525 1.47285 -0.560781 0
M  V30 372 C 37.9025 2.27073 0.205384 0
M  V30 373 C 38.8865 1.34569 0.882044 0
M  V30 374 O 40.0785 1.58899 0.77976 0
M  V30 375 C 37.2075 3.20414 1.23247 0
M  V30 376 C 36.2935 4.20399 0.559041 0
M  V30 377 N 36.6845 5.04423 -0.372927 0
M  V30 378 C 34.9825 4.38536 0.812522 0
M  V30 379 C 35.6835 5.76655 -0.764446 0
M  V30 380 N 34.6595 5.43471 -0.11848 0
M  V30 381 H 38.4615 2.89422 -0.511117 0
M  V30 382 H 35.9755 1.57868 -0.380975 0
M  V30 383 H 37.9725 3.76262 1.79534 0
M  V30 384 H 36.6325 2.59623 1.95002 0
M  V30 385 H 37.6435 5.1248 -0.747287 0
M  V30 386 H 34.3205 3.88913 1.51832 0
M  V30 387 H 35.7105 6.54238 -1.53045 0
M  V30 388 N 38.4306 0.297415 1.54768 0
M  V30 389 C 39.3606 -0.573494 2.26348 0
M  V30 390 C 40.3416 -1.14085 1.26169 0
M  V30 391 O 41.5266 -1.17086 1.54934 0
M  V30 392 C 38.6566 -1.74716 3.00153 0
M  V30 393 C 37.6106 -1.31032 4.07449 0
M  V30 394 C 36.9366 -2.56887 4.68949 0
M  V30 395 C 38.2366 -0.444183 5.20408 0
M  V30 396 H 39.9306 0.0235131 2.99391 0
M  V30 397 H 37.4766 0.0127488 1.43994 0
M  V30 398 H 39.4296 -2.3625 3.48947 0
M  V30 399 H 38.1536 -2.37035 2.24682 0
M  V30 400 H 36.8126 -0.718066 3.59499 0
M  V30 401 H 36.4606 -3.17512 3.90122 0
M  V30 402 H 36.1606 -2.2836 5.41411 0
M  V30 403 H 37.6846 -3.19229 5.20505 0
M  V30 404 H 39.0986 -0.9651 5.65118 0
M  V30 405 H 37.4956 -0.252846 5.99567 0
M  V30 406 H 38.5656 0.531609 4.81977 0
M  V30 407 N 39.9087 -1.5758 0.0250728 0
M  V30 408 C 41.1857 -1.82917 -0.692873 0
M  V30 409 C 41.5657 -0.908137 -1.90568 0
M  V30 410 O 40.9137 0.0372298 -2.2847 0
M  V30 411 C 41.1237 -3.32034 -1.07492 0
M  V30 412 C 42.4717 -3.98406 -1.46826 0
M  V30 413 O 43.4957 -3.36505 -1.16801 0
M  V30 414 O 42.3547 -5.07497 -2.02754 0
M  V30 415 H 39.4487 -0.754079 -0.33955 0
M  V30 416 H 41.9947 -1.69619 0.0524456 0
M  V30 417 H 40.7667 -3.90728 -0.211552 0
M  V30 418 H 40.3897 -3.50424 -1.87854 0
M  V30 419 N 41.3868 0.248026 -1.55636 0
M  V30 420 C 42.7978 0.817177 -1.67866 0
M  V30 421 C 43.1488 1.86069 -0.622322 0
M  V30 422 O 42.2738 2.15157 0.231618 0
M  V30 423 C 42.8688 1.489 -3.04326 0
M  V30 424 C 41.4278 2.00587 -3.185 0
M  V30 425 C 40.5748 0.856573 -2.63739 0
M  V30 426 H 43.5258 0.0238579 -1.58682 0
M  V30 427 H 43.5468 2.35698 -2.98708 0
M  V30 428 H 43.0588 0.729279 -3.81186 0
M  V30 429 H 41.1598 2.79443 -2.4646 0
M  V30 430 H 41.2728 2.20402 -4.25393 0
M  V30 431 H 39.6368 1.25678 -2.21534 0
M  V30 432 H 40.4198 0.109953 -3.43124 0
M  V30 433 N 42.8649 1.48995 0.513639 0
M  V30 434 C 43.7949 1.67636 1.62544 0
M  V30 435 C 44.7759 0.525087 1.61793 0
M  V30 436 O 45.9609 0.759502 1.78732 0
M  V30 437 C 43.0909 1.73114 3.01079 0
M  V30 438 C 42.0449 2.87905 3.16693 0
M  V30 439 C 41.3709 2.78486 4.56453 0
M  V30 440 C 42.6709 4.29005 2.97913 0
M  V30 441 H 44.3649 2.60716 1.47198 0
M  V30 442 H 41.9109 1.25465 0.706714 0
M  V30 443 H 43.8639 1.84742 3.78746 0
M  V30 444 H 42.5879 0.766241 3.17484 0
M  V30 445 H 41.2469 2.75859 2.41448 0
M  V30 446 H 40.8949 1.7993 4.69717 0
M  V30 447 H 40.5949 3.55523 4.67843 0
M  V30 448 H 42.1189 2.92104 5.36197 0
M  V30 449 H 43.5329 4.41798 3.65359 0
M  V30 450 H 41.9299 5.07166 3.20785 0
M  V30 451 H 42.9999 4.44329 1.94165 0
M  V30 452 N 44.343 -0.763751 1.37857 0
M  V30 453 C 45.571 -1.55293 1.36718 0
M  V30 454 C 45.986 -1.88745 -0.0455434 0
M  V30 455 O 45.343 -1.52039 -1.00947 0
M  V30 456 C 45.394 -2.85831 2.2132 0
M  V30 457 O 45.115 -2.5381 3.57089 0
M  V30 458 C 46.616 -3.80023 2.28249 0
M  V30 459 H 43.836 -0.480841 0.468009 0
M  V30 460 H 46.38 -0.946009 1.81303 0
M  V30 461 H 44.535 -3.42926 1.80223 0
M  V30 462 H 44.949 -3.37459 4.01524 0
M  V30 463 H 46.423 -4.68599 2.91752 0
M  V30 464 H 46.9 -4.1973 1.2932 0
M  V30 465 H 47.506 -3.28855 2.69693 0
M  V30 466 N 45.8211 -1.22559 -0.990812 0
M  V30 467 C 47.0671 -1.05297 -1.73322 0
M  V30 468 C 47.4001 0.410655 -1.89808 0
M  V30 469 O 46.6751 1.30439 -1.44277 0
M  V30 470 C 46.9581 -1.76713 -3.13759 0
M  V30 471 C 46.8111 -3.30684 -3.04907 0
M  V30 472 C 48.1301 -1.52121 -4.12974 0
M  V30 473 H 45.2491 -0.38392 -0.629106 0
M  V30 474 H 47.8911 -1.50926 -1.15418 0
M  V30 475 H 46.0411 -1.37924 -3.63193 0
M  V30 476 H 47.7131 -3.7893 -2.63077 0
M  V30 477 H 45.9561 -3.60253 -2.41661 0
M  V30 478 H 46.6271 -3.75833 -4.04294 0
M  V30 479 H 49.1031 -1.85819 -3.72304 0
M  V30 480 H 47.9791 -2.04582 -5.0935 0
M  V30 481 H 48.2401 -0.454257 -4.3976 0
M  V30 482 N 47.2992 1.18797 -1.03562 0
M  V30 483 C 48.2462 2.22253 -0.622259 0
M  V30 484 C 49.2162 1.61987 0.36736 0
M  V30 485 O 50.4012 1.88986 0.262492 0
M  V30 486 C 47.5412 3.45097 0.0138462 0
M  V30 487 C 46.6542 4.19722 -1.02263 0
M  V30 488 C 45.7892 5.30009 -0.355573 0
M  V30 489 C 44.8282 5.96399 -1.37749 0
M  V30 490 N 43.9652 6.98234 -0.735766 0
M  V30 491 H 48.8052 2.56968 -1.50903 0
M  V30 492 H 46.3422 1.26245 -0.755017 0
M  V30 493 H 48.3002 4.15279 0.399948 0
M  V30 494 H 46.9302 3.11018 0.864158 0
M  V30 495 H 45.9822 3.48418 -1.52673 0
M  V30 496 H 47.2942 4.65227 -1.79903 0
M  V30 497 H 46.4482 6.0664 0.0850095 0
M  V30 498 H 45.1872 4.85592 0.452967 0
M  V30 499 H 44.1922 5.18512 -1.82826 0
M  V30 500 H 45.4172 6.42899 -2.18764 0
M  V30 501 H 43.3632 6.55979 0.0525597 0
M  V30 502 H 43.2802 7.41965 -1.44995 0
M  V30 503 H 44.5482 7.78845 -0.31941 0
M  V30 504 N 48.7773 0.814389 1.34928 0
M  V30 505 C 50.0023 0.410097 2.03305 0
M  V30 506 C 50.4273 -0.973464 1.60951 0
M  V30 507 O 49.7853 -1.63185 0.789964 0
M  V30 508 C 49.8333 0.51049 3.56968 0
M  V30 509 O 48.9373 -0.473035 4.09678 0
M  V30 510 H 48.2783 0.170088 0.641846 0
M  V30 511 H 50.8083 1.10244 1.72358 0
M  V30 512 H 50.8183 0.383135 4.06197 0
M  V30 513 H 49.4933 1.51963 3.87144 0
M  V30 514 H 48.0703 -0.305272 3.71648 0
M  V30 515 N 50.2554 -1.46986 0.568584 0
M  V30 516 C 51.1874 -2.28233 -0.210337 0
M  V30 517 C 52.2004 -1.37682 -0.868767 0
M  V30 518 O 53.3894 -1.62406 -0.740705 0
M  V30 519 C 50.4894 -3.12293 -1.3163 0
M  V30 520 C 49.6624 -4.30878 -0.7525 0
M  V30 521 C 48.7214 -4.96445 -1.74439 0
M  V30 522 O 47.7474 -5.54482 -1.286 0
M  V30 523 N 48.9494 -4.92171 -3.07812 0
M  V30 524 H 51.7144 -2.95723 0.486648 0
M  V30 525 H 49.2754 -1.56742 0.405409 0
M  V30 526 H 51.2674 -3.53022 -1.97883 0
M  V30 527 H 49.8374 -2.46971 -1.91636 0
M  V30 528 H 49.0574 -3.94104 0.0871128 0
M  V30 529 H 50.3454 -5.07558 -0.35536 0
M  V30 530 H 49.7434 -4.46239 -3.47688 0
M  V30 531 H 48.3004 -5.36884 -3.69592 0
M  V30 532 N 51.7335 -0.305618 -1.54608 0
M  V30 533 C 52.6635 0.561482 -2.26649 0
M  V30 534 C 53.6445 1.13415 -1.26772 0
M  V30 535 O 54.8295 1.16262 -1.55553 0
M  V30 536 C 51.9595 1.73122 -3.01075 0
M  V30 537 C 50.9135 1.2887 -4.08138 0
M  V30 538 C 50.2395 2.54396 -4.70305 0
M  V30 539 C 51.5395 0.416578 -5.20636 0
M  V30 540 H 53.2335 -0.0393902 -2.99374 0
M  V30 541 H 50.7795 -0.020385 -1.43986 0
M  V30 542 H 52.7325 2.34396 -3.50195 0
M  V30 543 H 51.4565 2.3584 -2.25936 0
M  V30 544 H 50.1155 0.698991 -3.59875 0
M  V30 545 H 49.7635 3.15439 -3.918 0
M  V30 546 H 49.4635 2.25486 -5.42614 0
M  V30 547 H 50.9875 3.16464 -5.2219 0
M  V30 548 H 52.4015 0.935116 -5.65622 0
M  V30 549 H 50.7985 0.221046 -5.99693 0
M  V30 550 H 51.8685 -0.557162 -4.81688 0
M  V30 551 N 53.2116 1.57565 -0.0334293 0
M  V30 552 C 54.6226 1.79746 0.504798 0
M  V30 553 C 54.9736 0.944091 1.71992 0
M  V30 554 O 54.0986 0.155694 2.15839 0
M  V30 555 C 54.6936 3.25997 0.922567 0
M  V30 556 C 53.2526 3.49159 1.40588 0
M  V30 557 C 52.3996 2.74785 0.372633 0
M  V30 558 H 55.3506 1.56565 -0.259436 0
M  V30 559 H 55.3716 3.35945 1.78666 0
M  V30 560 H 54.8836 3.88081 0.0379825 0
M  V30 561 H 52.9846 2.92332 2.31025 0
M  V30 562 H 53.0976 4.57873 1.41028 0
M  V30 563 H 51.4616 2.40391 0.841672 0
M  V30 564 H 52.2446 3.39587 -0.503559 0
M  V30 565 N 54.6897 -0.239769 1.55765 0
M  V30 566 C 55.6197 -1.30052 1.9393 0
M  V30 567 C 56.6007 -1.49839 0.805132 0
M  V30 568 O 57.7857 -1.62328 1.06599 0
M  V30 569 C 54.9157 -2.65391 2.2402 0
M  V30 570 C 53.8697 -2.60289 3.39755 0
M  V30 571 C 53.1957 -3.99489 3.55405 0
M  V30 572 C 54.4957 -2.16654 4.75246 0
M  V30 573 H 56.1897 -0.983573 2.82783 0
M  V30 574 H 53.7357 -0.471701 1.36055 0
M  V30 575 H 55.6887 -3.3974 2.49308 0
M  V30 576 H 54.4127 -2.98736 1.32 0
M  V30 577 H 53.0717 -1.88398 3.14487 0
M  V30 578 H 52.7197 -4.30112 2.60793 0
M  V30 579 H 52.4197 -3.96962 4.33238 0
M  V30 580 H 53.9437 -4.75528 3.83022 0
M  V30 581 H 55.3577 -2.80737 4.99859 0
M  V30 582 H 53.7547 -2.25223 5.56232 0
M  V30 583 H 54.8247 -1.11835 4.71827 0
M  V30 584 N 56.1678 -1.49265 -0.50573 0
M  V30 585 C 57.1148 -1.65585 -1.6078 0
M  V30 586 C 58.0848 -0.497396 -1.58478 0
M  V30 587 O 59.2698 -0.72385 -1.76536 0
M  V30 588 C 56.4098 -1.72408 -2.98948 0
M  V30 589 C 55.5228 -2.99525 -3.11301 0
M  V30 590 C 54.6578 -2.97356 -4.40174 0
M  V30 591 C 53.6968 -4.19074 -4.46143 0
M  V30 592 N 52.8338 -4.14841 -5.66437 0
M  V30 593 H 57.6738 -2.59688 -1.46172 0
M  V30 594 H 55.2108 -1.28761 -0.711261 0
M  V30 595 H 57.1688 -1.74344 -3.79025 0
M  V30 596 H 55.7988 -0.817753 -3.1227 0
M  V30 597 H 54.8508 -3.07222 -2.24318 0
M  V30 598 H 56.1628 -3.89518 -3.11572 0
M  V30 599 H 55.3168 -2.97829 -5.28567 0
M  V30 600 H 54.0558 -2.05133 -4.42461 0
M  V30 601 H 53.0608 -4.1885 -3.56153 0
M  V30 602 H 54.2858 -5.12483 -4.45575 0
M  V30 603 H 52.2318 -3.25453 -5.69575 0
M  V30 604 H 52.1488 -4.98564 -5.68304 0
M  V30 605 H 53.4168 -4.1941 -6.57051 0
M  V30 606 N 57.6459 0.756429 -1.3826 0
M  V30 607 C 58.5929 1.87011 -1.35261 0
M  V30 608 C 59.5629 1.64695 -0.215616 0
M  V30 609 O 60.7479 1.864 -0.407399 0
M  V30 610 C 57.8879 3.24275 -1.18068 0
M  V30 611 C 57.0009 3.58442 -2.41129 0
M  V30 612 C 56.1359 4.84994 -2.16689 0
M  V30 613 C 55.1749 5.11939 -3.35537 0
M  V30 614 N 54.3119 6.29685 -3.10549 0
M  V30 615 H 59.1519 1.8891 -2.30472 0
M  V30 616 H 56.6889 0.923373 -1.14509 0
M  V30 617 H 58.6469 4.03479 -1.06116 0
M  V30 618 H 57.2769 3.21711 -0.264973 0
M  V30 619 H 56.3289 2.74103 -2.63764 0
M  V30 620 H 57.6409 3.74283 -3.29717 0
M  V30 621 H 56.7949 5.72135 -2.01857 0
M  V30 622 H 55.5339 4.71286 -1.25462 0
M  V30 623 H 54.5389 4.23268 -3.50891 0
M  V30 624 H 55.7639 5.27546 -4.27635 0
M  V30 625 H 53.7099 6.17306 -2.21967 0
M  V30 626 H 53.6269 6.46014 -3.92686 0
M  V30 627 H 54.8949 7.19722 -2.99367 0
M  V30 628 N 59.124 1.23083 0.984299 0
M  V30 629 C 60.535 1.05609 1.5396 0
M  V30 630 C 60.886 -0.377793 1.92528 0
M  V30 631 O 60.011 -1.26398 1.75649 0
M  V30 632 C 60.606 1.91087 2.7977 0
M  V30 633 C 59.165 1.77885 3.31713 0
M  V30 634 C 58.312 1.87028 2.04733 0
M  V30 635 H 61.263 1.36802 0.804419 0
M  V30 636 H 61.284 1.43336 3.5247 0
M  V30 637 H 60.796 2.9544 2.51668 0
M  V30 638 H 58.897 0.762995 3.64704 0
M  V30 639 H 59.01 2.61047 4.01735 0
M  V30 640 H 57.374 1.30565 2.18689 0
M  V30 641 H 58.157 2.92929 1.79017 0
M  V30 642 N 60.6021 -1.18246 1.0419 0
M  V30 643 C 61.5321 -2.24127 0.654914 0
M  V30 644 C 62.5131 -1.66617 -0.342451 0
M  V30 645 O 63.6981 -1.92924 -0.222277 0
M  V30 646 C 60.8281 -3.47295 0.0183757 0
M  V30 647 C 59.7821 -4.17563 0.939414 0
M  V30 648 C 59.1081 -5.34438 0.167286 0
M  V30 649 C 60.4081 -4.70917 2.25908 0
M  V30 650 H 62.1021 -2.56753 1.54007 0
M  V30 651 H 59.6481 -1.23414 0.74195 0
M  V30 652 H 61.6011 -4.20572 -0.264082 0
M  V30 653 H 60.3251 -3.13907 -0.901664 0
M  V30 654 H 58.9841 -3.46186 1.20628 0
M  V30 655 H 58.6321 -4.97298 -0.7552 0
M  V30 656 H 58.3321 -5.82388 0.780901 0
M  V30 657 H 59.8561 -6.10504 -0.108125 0
M  V30 658 H 61.2701 -5.35882 2.03724 0
M  V30 659 H 59.6671 -5.29406 2.82577 0
M  V30 660 H 60.7371 -3.88272 2.9047 0
M  V30 661 N 62.0802 -0.821533 -1.34494 0
M  V30 662 C 63.4912 -0.467956 -1.8074 0
M  V30 663 C 63.8422 1.01151 -1.68116 0
M  V30 664 O 62.9672 1.78707 -1.22036 0
M  V30 665 C 63.5622 -0.842627 -3.28154 0
M  V30 666 C 62.1212 -0.541439 -3.72485 0
M  V30 667 C 61.2682 -1.06028 -2.56229 0
M  V30 668 H 64.2192 -1.01183 -1.22261 0
M  V30 669 H 64.2402 -0.145876 -3.8022 0
M  V30 670 H 63.7522 -1.91945 -3.37311 0
M  V30 671 H 61.8532 0.526034 -3.68868 0
M  V30 672 H 61.9662 -1.08453 -4.66663 0
M  V30 673 H 60.3302 -0.481892 -2.501 0
M  V30 674 H 61.1132 -2.14352 -2.68157 0
M  V30 675 N 63.5583 1.46682 -0.576371 0
M  V30 676 C 64.4883 2.33028 0.148397 0
M  V30 677 C 65.4693 1.44961 0.889956 0
M  V30 678 O 66.6543 1.73789 0.866662 0
M  V30 679 C 63.7843 3.27117 1.1667 0
M  V30 680 C 62.7383 4.24575 0.540386 0
M  V30 681 C 62.0643 5.08126 1.6647 0
M  V30 682 C 63.3643 5.19722 -0.518331 0
M  V30 683 H 65.0583 2.93875 -0.572509 0
M  V30 684 H 62.6043 1.41315 -0.276768 0
M  V30 685 H 64.5573 3.86374 1.68204 0
M  V30 686 H 63.2813 2.64364 1.9178 0
M  V30 687 H 61.9403 3.66571 0.0461769 0
M  V30 688 H 61.5883 4.41762 2.40531 0
M  V30 689 H 61.2883 5.74122 1.25131 0
M  V30 690 H 62.8123 5.70246 2.18293 0
M  V30 691 H 64.2263 5.73232 -0.0883058 0
M  V30 692 H 62.6233 5.94026 -0.851679 0
M  V30 693 H 63.6933 4.64037 -1.40703 0
M  V30 694 N 65.0364 0.313813 1.54444 0
M  V30 695 C 66.2644 -0.293918 2.04802 0
M  V30 696 C 66.6794 -1.46537 1.19047 0
M  V30 697 O 66.0364 -1.81182 0.218939 0
M  V30 698 C 66.0874 -0.737806 3.53891 0
M  V30 699 O 65.8084 0.387038 4.36387 0
M  V30 700 C 67.3094 -1.40936 4.203 0
M  V30 701 H 64.5294 -0.0620057 0.668129 0
M  V30 702 H 67.0734 0.457169 1.99324 0
M  V30 703 H 65.2284 -1.43889 3.59687 0
M  V30 704 H 65.6424 0.0391274 5.24485 0
M  V30 705 H 67.1164 -1.67099 5.26101 0
M  V30 706 H 67.5934 -2.35355 3.70816 0
M  V30 707 H 68.1994 -0.751117 4.18615 0
M  V30 708 N 66.5145 -1.57545 0.0417849 0
M  V30 709 C 67.7605 -1.92601 -0.635021 0
M  V30 710 C 68.0935 -0.919627 -1.71045 0
M  V30 711 O 67.3685 0.0557892 -1.9442 0
M  V30 712 C 67.6515 -3.38085 -1.23979 0
M  V30 713 C 67.5045 -4.49467 -0.173057 0
M  V30 714 C 68.8235 -3.83776 -2.15416 0
M  V30 715 H 65.9425 -0.700397 -0.229374 0
M  V30 716 H 68.5845 -1.89728 0.101633 0
M  V30 717 H 66.7345 -3.40664 -1.86762 0
M  V30 718 H 68.4065 -4.59018 0.458312 0
M  V30 719 H 66.6495 -4.30909 0.499996 0
M  V30 720 H 67.3205 -5.48323 -0.636054 0
M  V30 721 H 69.7965 -3.83013 -1.62605 0
M  V30 722 H 68.6725 -4.8624 -2.54679 0
M  V30 723 H 68.9335 -3.19998 -3.05047 0
M  V30 724 N 67.9926 0.231505 -1.5589 0
M  V30 725 C 68.9026 1.308 -1.94752 0
M  V30 726 C 69.9186 1.51826 -0.849989 0
M  V30 727 O 71.0946 1.6515 -1.15271 0
M  V30 728 C 68.1596 2.63968 -2.24771 0
M  V30 729 C 67.2206 2.51331 -3.48039 0
M  V30 730 C 66.4536 3.78148 -3.76616 0
M  V30 731 O 66.6766 4.80722 -3.07022 0
M  V30 732 O 65.6106 3.75857 -4.70123 0
M  V30 733 H 69.4366 1.0083 -2.86474 0
M  V30 734 H 67.0216 0.433547 -1.42971 0
M  V30 735 H 68.9036 3.42633 -2.45318 0
M  V30 736 H 67.5786 2.9364 -1.36225 0
M  V30 737 H 66.4856 1.709 -3.32782 0
M  V30 738 H 67.8186 2.26601 -4.36936 0
M  V30 739 N 69.4707 1.49531 0.497807 0
M  V30 740 C 70.4207 1.62829 1.59596 0
M  V30 741 C 71.4047 0.483824 1.53453 0
M  V30 742 O 72.5967 0.736937 1.60929 0
M  V30 743 C 69.7257 1.7011 2.98191 0
M  V30 744 C 68.8117 2.90144 3.09317 0
M  V30 745 N 69.2027 4.1418 2.90324 0
M  V30 746 C 67.5007 2.88148 3.40422 0
M  V30 747 C 68.2017 4.94886 3.05717 0
M  V30 748 N 67.1777 4.28314 3.34736 0
M  V30 749 H 70.9797 2.56446 1.4357 0
M  V30 750 H 68.4937 1.46347 0.704001 0
M  V30 751 H 70.4907 1.77735 3.77115 0
M  V30 752 H 69.1507 0.776315 3.15283 0
M  V30 753 H 70.1617 4.44109 2.66436 0
M  V30 754 H 66.8387 2.05061 3.63671 0
M  V30 755 H 68.2287 6.03432 2.95499 0
M  V30 756 N 70.9488 -0.749086 1.3866 0
M  V30 757 C 71.8788 -1.8764 1.38973 0
M  V30 758 C 72.8598 -1.68178 0.255004 0
M  V30 759 O 74.0448 -1.88704 0.458754 0
M  V30 760 C 71.1748 -3.25222 1.21851 0
M  V30 761 C 70.1288 -3.59295 2.32575 0
M  V30 762 C 69.4548 -4.95663 2.00555 0
M  V30 763 C 70.7548 -3.63709 3.7485 0
M  V30 764 H 72.4488 -1.87635 2.3331 0
M  V30 765 H 69.9948 -0.901329 1.12303 0
M  V30 766 H 71.9478 -4.03746 1.20695 0
M  V30 767 H 70.6718 -3.25719 0.239775 0
M  V30 768 H 69.3308 -2.83093 2.32925 0
M  V30 769 H 68.9788 -4.92724 1.01154 0
M  V30 770 H 68.6788 -5.19429 2.74714 0
M  V30 771 H 70.2028 -5.7656 2.01024 0
M  V30 772 H 71.6168 -4.32338 3.76506 0
M  V30 773 H 70.0138 -3.98986 4.48252 0
M  V30 774 H 71.0838 -2.63834 4.06841 0
M  V30 775 N 72.4269 -1.23603 -0.977757 0
M  V30 776 C 73.8379 -1.06424 -1.53398 0
M  V30 777 C 74.1889 0.367578 -1.92726 0
M  V30 778 O 73.3139 1.25465 -1.76316 0
M  V30 779 C 73.9089 -1.92568 -2.78753 0
M  V30 780 C 72.4679 -1.79642 -3.30765 0
M  V30 781 C 71.6149 -1.88111 -2.03739 0
M  V30 782 H 74.5659 -1.37227 -0.797152 0
M  V30 783 H 74.5869 -1.45203 -3.51705 0
M  V30 784 H 74.0989 -2.96771 -2.50098 0
M  V30 785 H 72.1999 -0.782325 -3.64294 0
M  V30 786 H 72.3129 -2.63174 -4.00345 0
M  V30 787 H 70.6769 -1.31723 -2.17994 0
M  V30 788 H 71.4599 -2.93875 -1.77461 0
M  V30 789 N 73.905 1.17692 -1.04816 0
M  V30 790 C 75.182 1.83768 -0.669963 0
M  V30 791 C 75.562 1.93232 0.849986 0
M  V30 792 O 74.91 1.46397 1.75443 0
M  V30 793 C 75.12 3.21641 -1.35455 0
M  V30 794 C 76.468 3.97592 -1.49017 0
M  V30 795 O 77.492 3.31107 -1.31326 0
M  V30 796 O 76.351 5.16729 -1.77914 0
M  V30 797 H 73.445 0.792799 -0.235368 0
M  V30 798 H 75.991 1.25021 -1.14751 0
M  V30 799 H 74.763 3.097 -2.39168 0
M  V30 800 H 74.386 3.88052 -0.866107 0
M  V30 801 N 75.3831 0.828654 1.34056 0
M  V30 802 C 76.3461 0.259927 2.27721 0
M  V30 803 C 77.3461 -0.565478 1.50529 0
M  V30 804 O 78.5361 -0.38075 1.69988 0
M  V30 805 C 75.6681 -0.634944 3.34935 0
M  V30 806 H 76.8611 1.0863 2.79534 0
M  V30 807 H 74.4141 0.600951 1.44285 0
M  V30 808 H 75.1491 -1.48416 2.88346 0
M  V30 809 H 74.9341 -0.0444999 3.92075 0
M  V30 810 H 76.4241 -1.02648 4.04788 0
M  V30 811 N 76.8612 -1.46375 0.584142 0
M  V30 812 C 78.2722 -1.86031 0.157959 0
M  V30 813 C 78.6232 -1.48753 -1.27933 0
M  V30 814 O 77.7482 -0.903098 -1.96655 0
M  V30 815 C 78.3432 -3.37642 0.279892 0
M  V30 816 C 76.9022 -3.76289 -0.09143 0
M  V30 817 C 76.0492 -2.7039 0.615178 0
M  V30 818 H 79.0002 -1.37509 0.792274 0
M  V30 819 H 79.0212 -3.77275 -0.494364 0
M  V30 820 H 78.5332 -3.64742 1.32607 0
M  V30 821 H 76.6342 -3.54806 -1.13769 0
M  V30 822 H 76.7472 -4.78246 0.285886 0
M  V30 823 H 75.1112 -2.5464 0.0552833 0
M  V30 824 H 75.8942 -3.0033 1.66303 0
M  V30 825 N 78.3393 -0.321999 -1.54275 0
M  V30 826 C 79.5853 0.281461 -2.00837 0
M  V30 827 C 79.9183 1.51909 -1.20985 0
M  V30 828 O 79.1933 1.923 -0.291733 0
M  V30 829 C 79.4763 0.617162 -3.54772 0
M  V30 830 C 79.3293 -0.631064 -4.45351 0
M  V30 831 C 80.6483 1.43542 -4.16033 0
M  V30 832 H 77.7673 0.100826 -0.730071 0
M  V30 833 H 80.4093 -0.438268 -1.84876 0
M  V30 834 H 78.5593 1.23034 -3.68504 0
M  V30 835 H 80.2313 -1.26934 -4.43492 0
M  V30 836 H 78.4743 -1.26025 -4.15091 0
M  V30 837 H 79.1453 -0.351735 -5.50878 0
M  V30 838 H 81.6213 0.917134 -4.05867 0
M  V30 839 H 80.4973 1.63907 -5.23856 0
M  V30 840 H 80.7583 2.43108 -3.69257 0
M  V30 841 N 79.8174 1.5752 -0.0501392 0
M  V30 842 C 81.0654 1.9227 0.622642 0
M  V30 843 C 81.3864 0.929083 1.71444 0
M  V30 844 O 80.6564 -0.0262186 1.95882 0
M  V30 845 H 79.2364 0.709739 0.232981 0
M  V30 846 H 81.8984 1.94628 -0.102898 0
M  V30 847 H 80.9944 2.93479 1.06191 0
M  V30 848 N 81.2955 -0.223234 1.56011 0
M  V30 849 C 82.5205 -0.968978 1.83373 0
M  V30 850 C 82.9455 -1.77227 0.630254 0
M  V30 851 O 82.3035 -1.76345 -0.420959 0
M  V30 852 C 82.3515 -1.86363 3.08709 0
M  V30 853 O 81.4555 -2.95873 2.87285 0
M  V30 854 H 80.7965 -0.274461 0.604622 0
M  V30 855 H 83.3265 -0.237056 2.03222 0
M  V30 856 H 83.3365 -2.27376 3.38768 0
M  V30 857 H 82.0115 -1.27319 3.95933 0
M  V30 858 H 80.5885 -2.58818 2.68454 0
M  V30 859 N 82.7736 -1.49793 -0.48987 0
M  V30 860 C 84.0196 -1.60078 -1.24511 0
M  V30 861 C 84.3526 -0.291608 -1.91998 0
M  V30 862 O 83.6276 0.705647 -1.81248 0
M  V30 863 C 83.9106 -2.76791 -2.30345 0
M  V30 864 C 83.7636 -4.17535 -1.67286 0
M  V30 865 C 85.0826 -2.89111 -3.31817 0
M  V30 866 H 82.2016 -0.582645 -0.451324 0
M  V30 867 H 84.8436 -1.82117 -0.541612 0
M  V30 868 H 82.9936 -2.5813 -2.90346 0
M  V30 869 H 84.6656 -4.4774 -1.11026 0
M  V30 870 H 82.9086 -4.22665 -0.976577 0
M  V30 871 H 83.5796 -4.95094 -2.44103 0
M  V30 872 H 86.0556 -3.06133 -2.81819 0
M  V30 873 H 84.9316 -3.72433 -4.03219 0
M  V30 874 H 85.1926 -1.9893 -3.94815 0
M  V30 875 N 84.2517 0.741722 -1.39055 0
M  V30 876 C 85.4987 1.50114 -1.35912 0
M  V30 877 C 85.8267 1.94443 0.0470937 0
M  V30 878 O 85.0817 1.66612 1.02659 0
M  V30 879 C 85.3807 2.7592 -2.27163 0
M  V30 880 C 85.0467 2.50493 -3.74919 0
M  V30 881 C 83.7087 2.43267 -4.1518 0
M  V30 882 C 86.0607 2.28585 -4.684 0
M  V30 883 C 83.3887 2.12166 -5.46994 0
M  V30 884 C 85.7407 1.99002 -6.00484 0
M  V30 885 C 84.4047 1.90241 -6.39816 0
M  V30 886 H 83.6747 0.549306 -0.497336 0
M  V30 887 H 86.3217 0.851896 -1.71508 0
M  V30 888 H 84.6267 3.45553 -1.84663 0
M  V30 889 H 86.3237 3.33923 -2.22028 0
M  V30 890 H 82.9137 2.56992 -3.43006 0
M  V30 891 H 87.0977 2.33139 -4.38132 0
M  V30 892 H 82.3537 2.03901 -5.76398 0
M  V30 893 H 86.5277 1.81057 -6.72452 0
M  V30 894 H 84.1547 1.65907 -7.41875 0
M  V30 895 N 85.7298 1.2412 0.971189 0
M  V30 896 C 86.9778 1.07668 1.71032 0
M  V30 897 C 87.2988 -0.385797 1.91146 0
M  V30 898 O 86.5688 -1.27569 1.4867 0
M  V30 899 H 85.1488 0.395429 0.633755 0
M  V30 900 H 87.8108 1.55984 1.16855 0
M  V30 901 H 86.9068 1.57195 2.69622 0
M  V30 902 N 87.2079 -1.17134 1.05439 0
M  V30 903 C 88.1379 -2.2342 0.678649 0
M  V30 904 C 89.1189 -1.66971 -0.32476 0
M  V30 905 O 90.3039 -1.93149 -0.201802 0
M  V30 906 C 87.4339 -3.47256 0.0552099 0
M  V30 907 C 86.3879 -4.16543 0.98365 0
M  V30 908 C 85.7139 -5.34231 0.223961 0
M  V30 909 C 87.0139 -4.68495 2.3089 0
M  V30 910 H 88.7079 -2.55105 1.56722 0
M  V30 911 H 86.2539 -1.2262 0.754998 0
M  V30 912 H 88.2069 -4.20828 -0.21946 0
M  V30 913 H 86.9309 -3.14846 -0.868319 0
M  V30 914 H 85.5899 -3.44887 1.24293 0
M  V30 915 H 85.2379 -4.98071 -0.702412 0
M  V30 916 H 84.9379 -5.81527 0.842627 0
M  V30 917 H 86.4619 -6.10585 -0.0433671 0
M  V30 918 H 87.8759 -5.33691 2.09396 0
M  V30 919 H 86.2729 -5.26379 2.88176 0
M  V30 920 H 87.3429 -3.85169 2.94572 0
M  V30 921 N 88.686 -0.835752 -1.33615 0
M  V30 922 C 89.916 -0.442701 -2.01801 0
M  V30 923 C 90.324 0.959807 -1.63047 0
M  V30 924 O 89.667 1.63468 -0.838088 0
M  V30 925 C 89.729 -0.480125 -3.56279 0
M  V30 926 C 89.393 -1.8382 -4.18401 0
M  V30 927 C 90.39 -2.80097 -4.37998 0
M  V30 928 C 88.075 -2.13019 -4.54894 0
M  V30 929 C 90.069 -4.03736 -4.9323 0
M  V30 930 C 87.756 -3.36916 -5.09834 0
M  V30 931 C 88.754 -4.32091 -5.28948 0
M  V30 932 O 88.442 -5.53797 -5.82721 0
M  V30 933 H 88.174 -0.17441 -0.653114 0
M  V30 934 H 90.728 -1.129 -1.71589 0
M  V30 935 H 88.958 0.262931 -3.85805 0
M  V30 936 H 90.647 -0.105335 -4.05763 0
M  V30 937 H 91.413 -2.58838 -4.10156 0
M  V30 938 H 87.292 -1.39733 -4.39313 0
M  V30 939 H 90.836 -4.78034 -5.08064 0
M  V30 940 H 86.733 -3.58033 -5.37106 0
M  V30 941 H 87.501 -5.55494 -6.0114 0
M  V30 942 N 90.1641 1.46063 -0.591896 0
M  V30 943 C 91.0961 2.28539 0.174001 0
M  V30 944 C 92.1091 1.39047 0.846753 0
M  V30 945 O 93.2981 1.63564 0.714774 0
M  V30 946 C 90.3981 3.14347 1.26645 0
M  V30 947 C 89.5711 4.32021 0.683856 0
M  V30 948 C 88.6301 4.99157 1.66518 0
M  V30 949 O 87.6561 5.56458 1.19763 0
M  V30 950 N 88.8581 4.97005 2.99943 0
M  V30 951 H 91.6231 2.94911 -0.533633 0
M  V30 952 H 89.1841 1.56077 -0.430294 0
M  V30 953 H 91.1761 3.56125 1.92242 0
M  V30 954 H 89.7461 2.49988 1.87682 0
M  V30 955 H 88.9661 3.93915 -0.1498 0
M  V30 956 H 90.2541 5.08059 0.274567 0
M  V30 957 H 89.6521 4.51714 3.40545 0
M  V30 958 H 88.2091 5.42696 3.61004 0
M  V30 959 N 91.6422 0.330177 1.54103 0
M  V30 960 C 92.8672 -0.274893 2.0557 0
M  V30 961 C 93.2922 -1.44487 1.20437 0
M  V30 962 O 92.6502 -1.80021 0.214991 0
M  V30 963 C 92.6982 -0.68079 3.54115 0
M  V30 964 O 91.8022 -1.7824 3.71893 0
M  V30 965 H 91.1432 -0.0483849 0.662235 0
M  V30 966 H 93.6732 0.480508 1.98878 0
M  V30 967 H 93.6832 -0.961635 3.96505 0
M  V30 968 H 92.3582 0.174903 4.15532 0
M  V30 969 H 90.9352 -1.49985 3.41407 0
M  V30 970 N 93.1203 -1.57491 0.0584922 0
M  V30 971 C 94.5363 -1.56792 -0.298091 0
M  V30 972 C 94.7363 -1.06679 -1.70944 0
M  V30 973 O 93.7923 -0.726672 -2.41818 0
M  V30 974 C 95.1053 -3.00461 -0.119879 0
M  V30 975 C 96.6533 -3.1242 -0.190428 0
M  V30 976 C 97.1283 -4.57982 -0.0406567 0
M  V30 977 N 98.6193 -4.63099 -0.0966958 0
M  V30 978 C 99.3543 -5.734 -0.00502943 0
M  V30 979 N 98.8503 -6.9266 0.139402 0
M  V30 980 N 100.643 -5.62067 -0.0611391 0
M  V30 981 H 92.7943 -1.88386 0.98105 0
M  V30 982 H 95.0573 -0.867865 0.381463 0
M  V30 983 H 94.7633 -3.41187 0.85349 0
M  V30 984 H 94.6373 -3.66843 -0.877833 0
M  V30 985 H 97.0243 -2.71589 -1.15427 0
M  V30 986 H 97.1053 -2.48702 0.598405 0
M  V30 987 H 96.7493 -4.995 0.919897 0
M  V30 988 H 96.6793 -5.19715 -0.848727 0
M  V30 989 H 99.1703 -3.77331 -0.207277 0
M  V30 990 H 99.4833 -7.72536 0.201855 0
M  V30 991 H 97.8283 -6.94781 0.174586 0
M  V30 992 H 101.019 -4.67782 -0.172583 0
M  V30 993 H 101.192 -6.47999 0.0137562 0
M  V30 994 N 94.5984 0.214957 -1.56127 0
M  V30 995 C 95.5614 1.24997 -1.92116 0
M  V30 996 C 96.5614 1.39467 -0.800344 0
M  V30 997 O 97.7514 1.37619 -1.06802 0
M  V30 998 C 94.8834 2.62271 -2.17777 0
M  V30 999 H 96.0764 0.942875 -2.84693 0
M  V30 1000 H 93.6294 0.455654 -1.49511 0
M  V30 1001 H 94.3644 2.98068 -1.27773 0
M  V30 1002 H 94.1494 2.53143 -2.99434 0
M  V30 1003 H 95.6394 3.36946 -2.46693 0
M  V30 1004 N 96.0765 1.50051 0.48192 0
M  V30 1005 C 97.3245 1.60181 1.23234 0
M  V30 1006 C 97.6455 0.299176 1.92691 0
M  V30 1007 O 96.9155 -0.682708 1.83619 0
M  V30 1008 H 95.4955 0.590232 0.457859 0
M  V30 1009 H 98.1575 1.86775 0.556881 0
M  V30 1010 H 97.2535 2.40753 1.98607 0
M  V30 1011 N 97.5546 -0.734337 1.39446 0
M  V30 1012 C 98.4846 -1.86155 1.40955 0
M  V30 1013 C 99.4656 -1.67898 0.272827 0
M  V30 1014 O 100.651 -1.88207 0.478743 0
M  V30 1015 C 97.7806 -3.23912 1.25294 0
M  V30 1016 C 96.7346 -3.56808 2.36373 0
M  V30 1017 C 96.0606 -4.93508 2.058 0
M  V30 1018 C 97.3606 -3.59713 3.78687 0
M  V30 1019 H 99.0546 -1.8515 2.35287 0
M  V30 1020 H 96.6006 -0.889367 1.13253 0
M  V30 1021 H 98.5536 -4.02443 1.2497 0
M  V30 1022 H 97.2776 -3.25446 0.274308 0
M  V30 1023 H 95.9366 -2.80606 2.35914 0
M  V30 1024 H 95.5846 -4.91623 1.06374 0
M  V30 1025 H 95.2846 -5.16486 2.80208 0
M  V30 1026 H 96.8086 -5.74396 2.07128 0
M  V30 1027 H 98.2226 -4.2832 3.81071 0
M  V30 1028 H 96.6196 -3.94209 4.52459 0
M  V30 1029 H 97.6896 -2.59504 4.09617 0
M  V30 1030 N 99.0327 -1.24633 -0.964593 0
M  V30 1031 C 100.28 -1.08788 -1.70796 0
M  V30 1032 C 100.608 0.372783 -1.90894 0
M  V30 1033 O 99.8627 1.29167 -1.47018 0
M  V30 1034 C 100.162 -1.7763 -3.10133 0
M  V30 1035 C 99.8277 -3.27557 -3.09866 0
M  V30 1036 C 98.4897 -3.6846 -3.09501 0
M  V30 1037 C 100.842 -4.23389 -3.03959 0
M  V30 1038 C 98.1697 -5.03624 -3.00965 0
M  V30 1039 C 100.522 -5.58565 -2.96965 0
M  V30 1040 C 99.1857 -5.98809 -2.9493 0
M  V30 1041 H 98.4557 -0.398084 -0.624988 0
M  V30 1042 H 101.103 -1.54777 -1.12767 0
M  V30 1043 H 99.4077 -1.24044 -3.71645 0
M  V30 1044 H 101.105 -1.62832 -3.66451 0
M  V30 1045 H 97.6947 -2.95006 -3.10917 0
M  V30 1046 H 101.879 -3.92787 -3.03368 0
M  V30 1047 H 97.1347 -5.33998 -2.97752 0
M  V30 1048 H 101.309 -6.32523 -2.91354 0
M  V30 1049 H 98.9357 -7.03505 -2.88071 0
M  V30 1050 N 100.511 1.16574 -1.06058 0
M  V30 1051 C 101.736 1.91493 -0.796562 0
M  V30 1052 C 102.161 1.76773 0.642868 0
M  V30 1053 O 101.519 1.09142 1.44768 0
M  V30 1054 C 101.567 3.40293 -1.19303 0
M  V30 1055 O 100.671 4.11074 -0.330394 0
M  V30 1056 H 100.012 0.596678 -0.291326 0
M  V30 1057 H 102.542 1.47708 -1.41575 0
M  V30 1058 H 102.552 3.91057 -1.16356 0
M  V30 1059 H 101.227 3.50326 -2.24153 0
M  V30 1060 H 99.8038 3.70513 -0.421225 0
M  V30 1061 N 101.989 0.842826 1.3317 0
M  V30 1062 C 102.952 0.284065 2.27433 0
M  V30 1063 C 103.952 -0.54948 1.5112 0
M  V30 1064 O 105.142 -0.362699 1.70382 0
M  V30 1065 C 102.274 -0.599384 3.35589 0
M  V30 1066 H 103.467 1.11589 2.78366 0
M  V30 1067 H 101.02 0.616221 1.4364 0
M  V30 1068 H 101.755 -1.45349 2.89904 0
M  V30 1069 H 101.54 -0.00291266 3.921 0
M  V30 1070 H 103.03 -0.983488 4.05854 0
M  V30 1071 N 103.467 -1.45747 0.599634 0
M  V30 1072 C 104.43 -2.28917 -0.113835 0
M  V30 1073 C 105.43 -1.3933 -0.802729 0
M  V30 1074 O 106.62 -1.61534 -0.652103 0
M  V30 1075 C 103.752 -3.20152 -1.17114 0
M  V30 1076 H 104.945 -2.93478 0.617289 0
M  V30 1077 H 102.498 -1.52137 0.358327 0
M  V30 1078 H 103.233 -2.60374 -1.93329 0
M  V30 1079 H 103.018 -3.86133 -0.681468 0
M  V30 1080 H 104.508 -3.82708 -1.67105 0
M  V30 1081 N 104.945 -0.338344 -1.53925 0
M  V30 1082 C 106.17 0.263987 -2.05713 0
M  V30 1083 C 106.595 1.43847 -1.21201 0
M  V30 1084 O 105.953 1.79904 -0.224535 0
M  V30 1085 C 106.001 0.662 -3.54471 0
M  V30 1086 O 105.105 1.76265 -3.72833 0
M  V30 1087 H 104.446 0.0448722 -0.662482 0
M  V30 1088 H 106.976 -0.491048 -1.9862 0
M  V30 1089 H 106.986 0.940594 -3.9701 0
M  V30 1090 H 105.661 -0.196937 -4.15433 0
M  V30 1091 H 104.238 1.48173 -3.42198 0
M  V30 1092 N 106.423 1.57458 -0.0668435 0
M  V30 1093 C 107.672 1.92477 0.602947 0
M  V30 1094 C 107.985 0.948419 1.71068 0
M  V30 1095 O 109.191 1.19124 2.43971 0
M  V30 1096 C 107.647 3.41903 1.12383 0
M  V30 1097 C 107.255 4.47975 0.04737 0
M  V30 1098 C 108.999 3.85931 1.76797 0
M  V30 1099 C 106.906 5.88529 0.582022 0
M  V30 1100 H 105.836 0.718387 0.22899 0
M  V30 1101 H 108.487 1.82978 -0.138276 0
M  V30 1102 H 106.869 3.46459 1.91787 0
M  V30 1103 H 108.043 4.55029 -0.726978 0
M  V30 1104 H 106.358 4.13384 -0.500243 0
M  V30 1105 H 108.955 4.88322 2.17821 0
M  V30 1106 H 109.298 3.23029 2.62599 0
M  V30 1107 H 109.831 3.83958 1.04024 0
M  V30 1108 H 106.57 6.55065 -0.238721 0
M  V30 1109 H 106.09 5.85004 1.324 0
M  V30 1110 H 107.769 6.38258 1.05999 0
M  V30 1111 N 107.901 -0.206675 1.56239 0
M  V30 1112 C 109.129 -0.945345 1.8404 0
M  V30 1113 C 109.544 -1.77336 0.647885 0
M  V30 1114 O 108.901 -1.78425 -0.383511 0
M  V30 1115 C 108.952 -1.8509 3.10522 0
M  V30 1116 O 108.673 -1.05634 4.25174 0
M  V30 1117 C 110.174 -2.70222 3.51418 0
M  V30 1118 H 107.394 -0.276372 0.61144 0
M  V30 1119 H 109.938 -0.217417 2.03341 0
M  V30 1120 H 108.093 -2.53259 2.93153 0
M  V30 1121 H 108.507 -1.67238 4.97124 0
M  V30 1122 H 109.981 -3.29438 4.42916 0
M  V30 1123 H 110.458 -3.43358 2.73864 0
M  V30 1124 H 111.064 -2.07443 3.71278 0
M  V30 1125 N 109.379 -1.50304 -0.473955 0
M  V30 1126 C 110.604 -1.65175 -1.25427 0
M  V30 1127 C 111.029 -0.333673 -1.85117 0
M  V30 1128 O 110.387 0.702114 -1.67153 0
M  V30 1129 C 110.435 -2.74295 -2.34082 0
M  V30 1130 O 109.539 -2.35349 -3.38651 0
M  V30 1131 H 108.88 -0.551944 -0.369126 0
M  V30 1132 H 111.41 -1.96662 -0.564364 0
M  V30 1133 H 111.42 -2.97285 -2.79438 0
M  V30 1134 H 110.095 -3.69959 -1.90008 0
M  V30 1135 H 108.672 -2.22794 -2.99027 0
M  V30 1136 N 110.857 0.726932 -1.39834 0
M  V30 1137 C 112.105 1.4837 -1.37225 0
M  V30 1138 C 112.426 1.94979 0.0284857 0
M  V30 1139 O 111.696 1.69555 0.981213 0
M  V30 1140 H 110.276 0.55043 -0.505011 0
M  V30 1141 H 112.938 0.862468 -1.74778 0
M  V30 1142 H 112.034 2.36198 -2.04003 0
M  V30 1143 N 112.336 1.25143 0.95797 0
M  V30 1144 C 113.613 1.00472 1.67823 0
M  V30 1145 C 113.993 -0.470056 2.058 0
M  V30 1146 O 113.341 -1.44663 1.76875 0
M  V30 1147 C 113.551 1.9372 2.90299 0
M  V30 1148 C 114.899 2.21371 3.62326 0
M  V30 1149 O 115.923 1.91451 3.00375 0
M  V30 1150 O 114.782 2.72231 4.7387 0
M  V30 1151 H 111.876 0.380752 0.734137 0
M  V30 1152 H 114.422 1.36283 1.01119 0
M  V30 1153 H 113.194 2.93316 2.59001 0
M  V30 1154 H 112.817 1.58286 3.64735 0
M  V30 1155 N 113.814 -1.1601 1.06675 0
M  V30 1156 C 115.061 -1.86633 0.785781 0
M  V30 1157 C 115.389 -1.81929 -0.687896 0
M  V30 1158 O 114.644 -1.23253 -1.52011 0
M  V30 1159 C 114.943 -3.35547 1.23057 0
M  V30 1160 C 114.609 -3.60448 2.70902 0
M  V30 1161 C 113.271 -3.66954 3.11285 0
M  V30 1162 C 115.623 -3.7071 3.66365 0
M  V30 1163 C 112.951 -3.81225 4.45965 0
M  V30 1164 C 115.303 -3.86503 5.00797 0
M  V30 1165 C 113.967 -3.91252 5.40813 0
M  V30 1166 H 113.237 -0.682937 0.287538 0
M  V30 1167 H 115.884 -1.37146 1.33654 0
M  V30 1168 H 114.189 -3.87193 0.59907 0
M  V30 1169 H 115.886 -3.88583 0.990163 0
M  V30 1170 H 112.476 -3.56021 2.38636 0
M  V30 1171 H 116.66 -3.64991 3.36296 0
M  V30 1172 H 111.916 -3.83155 4.76447 0
M  V30 1173 H 116.09 -3.93385 5.74649 0
M  V30 1174 H 113.717 -4.02062 6.45174 0
M  V30 1175 N 115.292 -0.849877 -1.32721 0
M  V30 1176 C 116.222 -0.306308 -2.31482 0
M  V30 1177 C 117.203 0.591952 -1.59468 0
M  V30 1178 O 118.388 0.513199 -1.87296 0
M  V30 1179 C 115.518 0.510204 -3.43532 0
M  V30 1180 C 114.472 -0.293209 -4.26994 0
M  V30 1181 C 113.798 0.647743 -5.30762 0
M  V30 1182 C 115.098 -1.51634 -4.99804 0
M  V30 1183 H 116.792 -1.13153 -2.77195 0
M  V30 1184 H 114.338 -0.545553 -1.33266 0
M  V30 1185 H 116.291 0.900856 -4.11658 0
M  V30 1186 H 115.015 1.36874 -2.96535 0
M  V30 1187 H 113.674 -0.665555 -3.60508 0
M  V30 1188 H 113.322 1.50299 -4.8002 0
M  V30 1189 H 113.022 0.11422 -5.87489 0
M  V30 1190 H 114.546 1.03567 -6.01753 0
M  V30 1191 H 115.96 -1.19824 -5.60638 0
M  V30 1192 H 114.357 -1.98745 -5.66234 0
M  V30 1193 H 115.427 -2.28018 -4.27943 0
M  V30 1194 N 116.77 1.45427 -0.607355 0
M  V30 1195 C 117.995 2.07124 -0.107006 0
M  V30 1196 C 118.42 1.44906 1.19933 0
M  V30 1197 O 117.778 0.541687 1.73019 0
M  V30 1198 C 117.826 3.60595 0.0194119 0
M  V30 1199 O 116.93 3.98285 1.0697 0
M  V30 1200 H 116.271 0.659868 -0.0739597 0
M  V30 1201 H 118.801 1.86683 -0.837297 0
M  V30 1202 H 118.811 4.07419 0.2177 0
M  V30 1203 H 117.486 4.05266 -0.934453 0
M  V30 1204 H 116.063 3.63133 0.847889 0
M  V30 1205 N 118.248 0.346503 1.53744 0
M  V30 1206 C 119.178 -0.501193 2.28058 0
M  V30 1207 C 120.159 -1.10014 1.29734 0
M  V30 1208 O 121.344 -1.12097 1.58581 0
M  V30 1209 C 118.474 -1.65078 3.05559 0
M  V30 1210 C 117.428 -1.18003 4.11411 0
M  V30 1211 C 116.754 -2.41837 4.76884 0
M  V30 1212 C 118.054 -0.278394 5.21558 0
M  V30 1213 H 119.748 0.11875 2.99164 0
M  V30 1214 H 117.294 0.0585531 1.43881 0
M  V30 1215 H 119.247 -2.25028 3.56287 0
M  V30 1216 H 117.971 -2.29767 2.32109 0
M  V30 1217 H 116.63 -0.603331 3.61601 0
M  V30 1218 H 116.278 -3.0494 4.00026 0
M  V30 1219 H 115.978 -2.1102 5.48402 0
M  V30 1220 H 117.502 -3.02508 5.30397 0
M  V30 1221 H 118.916 -0.784823 5.67903 0
M  V30 1222 H 117.313 -0.0619707 6.00068 0
M  V30 1223 H 118.383 0.684677 4.80042 0
M  V30 1224 N 119.726 -1.57421 0.075193 0
M  V30 1225 C 120.656 -2.15942 -0.888324 0
M  V30 1226 C 121.637 -1.08737 -1.30806 0
M  V30 1227 O 122.822 -1.36787 -1.37851 0
M  V30 1228 C 119.952 -2.72379 -2.1547 0
M  V30 1229 C 118.906 -3.8478 -1.87425 0
M  V30 1230 C 118.232 -4.27834 -3.20721 0
M  V30 1231 C 119.532 -5.08869 -1.17684 0
M  V30 1232 H 121.226 -2.96705 -0.400799 0
M  V30 1233 H 118.772 -1.42723 -0.191342 0
M  V30 1234 H 120.725 -3.11965 -2.83295 0
M  V30 1235 H 119.449 -1.88841 -2.6647 0
M  V30 1236 H 118.108 -3.45703 -1.22004 0
M  V30 1237 H 117.756 -3.41214 -3.6957 0
M  V30 1238 H 117.456 -5.03605 -3.02746 0
M  V30 1239 H 118.98 -4.70039 -3.89738 0
M  V30 1240 H 120.394 -5.4575 -1.75584 0
M  V30 1241 H 118.791 -5.8994 -1.09956 0
M  V30 1242 H 119.861 -4.84648 -0.156453 0
M  V30 1243 N 121.204 0.198386 -1.56346 0
M  V30 1244 C 122.481 0.944982 -1.71258 0
M  V30 1245 C 122.861 2.0151 -0.629048 0
M  V30 1246 O 122.209 2.25639 0.360473 0
M  V30 1247 C 122.419 1.5344 -3.1346 0
M  V30 1248 C 123.767 2.01778 -3.73591 0
M  V30 1249 O 124.791 1.63288 -3.16568 0
M  V30 1250 O 123.65 2.72594 -4.73661 0
M  V30 1251 H 120.744 0.442939 -0.69838 0
M  V30 1252 H 123.29 0.188342 -1.68652 0
M  V30 1253 H 122.062 0.762869 -3.83792 0
M  V30 1254 H 121.685 2.35596 -3.20282 0
M  V30 1255 N 122.682 1.50554 0.465978 0
M  V30 1256 C 123.907 1.65838 1.24549 0
M  V30 1257 C 124.332 0.343486 1.84937 0
M  V30 1258 O 123.69 -0.69324 1.67523 0
M  V30 1259 C 123.738 2.75533 2.32624 0
M  V30 1260 O 122.842 2.37142 3.37398 0
M  V30 1261 H 122.183 0.553893 0.366194 0
M  V30 1262 H 124.713 1.96959 0.553927 0
M  V30 1263 H 124.723 2.98763 2.77857 0
M  V30 1264 H 123.398 3.70962 1.88043 0
M  V30 1265 H 121.975 2.24377 2.97841 0
M  V30 1266 N 124.16 -0.719506 1.40217 0
M  V30 1267 C 125.409 -1.47486 1.37589 0
M  V30 1268 C 125.722 -1.9559 -0.0201568 0
M  V30 1269 O 126.928 -2.70973 -0.169049 0
M  V30 1270 C 125.384 -2.66575 2.41796 0
M  V30 1271 C 124.992 -2.25358 3.87192 0
M  V30 1272 C 126.736 -3.4433 2.48269 0
M  V30 1273 C 124.643 -3.41262 4.83005 0
M  V30 1274 H 123.573 -0.553901 0.511576 0
M  V30 1275 H 126.224 -0.783427 1.65936 0
M  V30 1276 H 124.606 -3.3787 2.06543 0
M  V30 1277 H 125.78 -1.61509 4.31569 0
M  V30 1278 H 124.095 -1.60657 3.84159 0
M  V30 1279 H 126.692 -4.30569 3.17041 0
M  V30 1280 H 127.035 -3.87872 1.51198 0
M  V30 1281 H 127.568 -2.80076 2.82493 0
M  V30 1282 H 124.307 -3.02755 5.81394 0
M  V30 1283 H 123.827 -4.0404 4.43297 0
M  V30 1284 H 125.506 -4.07383 5.02641 0
M  V30 1285 N 125.638 -1.25649 -0.95132 0
M  V30 1286 C 126.868 -1.13179 -1.72841 0
M  V30 1287 C 127.276 0.316827 -1.86528 0
M  V30 1288 O 126.619 1.22948 -1.3649 0
M  V30 1289 C 126.681 -1.71644 -3.15878 0
M  V30 1290 C 126.345 -3.20667 -3.25609 0
M  V30 1291 C 127.342 -4.17616 -3.09666 0
M  V30 1292 C 125.027 -3.6094 -3.49324 0
M  V30 1293 C 127.021 -5.52817 -3.17289 0
M  V30 1294 C 124.708 -4.96278 -3.56584 0
M  V30 1295 C 125.706 -5.92025 -3.40581 0
M  V30 1296 O 125.394 -7.24899 -3.47528 0
M  V30 1297 H 125.126 -0.395389 -0.54831 0
M  V30 1298 H 127.68 -1.66566 -1.20187 0
M  V30 1299 H 125.91 -1.12707 -3.69911 0
M  V30 1300 H 127.599 -1.54225 -3.75459 0
M  V30 1301 H 128.365 -3.87842 -2.91211 0
M  V30 1302 H 124.244 -2.86907 -3.6084 0
M  V30 1303 H 127.788 -6.2753 -3.04716 0
M  V30 1304 H 123.685 -5.25716 -3.74556 0
M  V30 1305 H 124.453 -7.33039 -3.64138 0
M  V30 1306 N 127.117 1.15442 -1.07289 0
M  V30 1307 C 128.067 2.18164 -0.662467 0
M  V30 1308 C 129.051 1.57845 0.312074 0
M  V30 1309 O 130.243 1.76552 0.125905 0
M  V30 1310 C 127.372 3.43246 -0.0611295 0
M  V30 1311 C 126.458 4.1062 -1.06077 0
M  V30 1312 N 126.849 4.53491 -2.24008 0
M  V30 1313 C 125.147 4.36949 -0.893964 0
M  V30 1314 C 125.848 5.05731 -2.87422 0
M  V30 1315 N 124.824 4.99236 -2.15091 0
M  V30 1316 H 128.626 2.49038 -1.56068 0
M  V30 1317 H 126.14 1.32003 -0.945988 0
M  V30 1318 H 128.137 4.16145 0.250792 0
M  V30 1319 H 126.797 3.13854 0.832207 0
M  V30 1320 H 127.808 4.46898 -2.6173 0
M  V30 1321 H 124.485 4.17466 -0.0534693 0
M  V30 1322 H 125.875 5.48865 -3.87553 0
M  V30 1323 N 128.595 0.856903 1.32268 0
M  V30 1324 C 129.872 0.382583 1.91822 0
M  V30 1325 C 130.252 -1.13407 1.78051 0
M  V30 1326 O 129.6 -1.95673 1.18001 0
M  V30 1327 C 129.81 0.849446 3.38505 0
M  V30 1328 C 131.158 0.867936 4.15634 0
M  V30 1329 O 132.182 0.794232 3.47232 0
M  V30 1330 O 131.041 0.972286 5.37781 0
M  V30 1331 H 128.135 0.112014 0.819379 0
M  V30 1332 H 130.681 0.943952 1.41024 0
M  V30 1333 H 129.453 1.89267 3.42482 0
M  V30 1334 H 129.076 0.265652 3.96712 0
M  V30 1335 N 130.073 -1.45103 0.615059 0
M  V30 1336 C 131.313 -2.04069 0.116282 0
M  V30 1337 C 131.677 -1.4721 -1.2326 0
M  V30 1338 O 132.878 -1.97577 -1.82255 0
M  V30 1339 C 131.149 -3.57298 0.085482 0
M  V30 1340 S 132.708 -4.37394 -0.351015 0
M  V30 1341 H 129.526 -0.709006 0.0532183 0
M  V30 1342 H 132.128 -1.77709 0.81484 0
M  V30 1343 H 130.832 -3.9619 1.0706 0
M  V30 1344 H 130.363 -3.88244 -0.634835 0
M  V30 1345 H 132.378 -4.69734 -1.59889 0
M  V30 1346 N 131.551 -0.354651 -1.53558 0
M  V30 1347 C 132.828 0.294281 -1.93374 0
M  V30 1348 C 133.208 1.67313 -1.28723 0
M  V30 1349 O 132.556 2.24179 -0.442247 0
M  V30 1350 C 132.766 0.355445 -3.47185 0
M  V30 1351 C 134.114 0.601007 -4.20325 0
M  V30 1352 O 135.138 0.437106 -3.53508 0
M  V30 1353 O 133.997 0.919322 -5.38712 0
M  V30 1354 H 131.091 0.174033 -0.808481 0
M  V30 1355 H 133.637 -0.406638 -1.64756 0
M  V30 1356 H 132.409 -0.611729 -3.86489 0
M  V30 1357 H 132.032 1.1027 -3.82003 0
M  V30 1358 N 133.029 1.57378 -0.0835403 0
M  V30 1359 C 134.278 1.93106 0.582498 0
M  V30 1360 C 134.591 0.96651 1.70053 0
M  V30 1361 O 135.797 1.21705 2.42693 0
M  V30 1362 C 134.253 3.43076 1.08751 0
M  V30 1363 C 133.861 4.48 -0.000146404 0
M  V30 1364 C 135.605 3.87785 1.72694 0
M  V30 1365 C 133.512 5.89113 0.519568 0
M  V30 1366 H 132.442 0.720775 0.221358 0
M  V30 1367 H 135.093 1.82821 -0.157675 0
M  V30 1368 H 133.475 3.48474 1.88101 0
M  V30 1369 H 134.649 4.54233 -0.775199 0
M  V30 1370 H 132.964 4.1283 -0.54406 0
M  V30 1371 H 135.561 4.90604 2.1263 0
M  V30 1372 H 135.904 3.25796 2.59158 0
M  V30 1373 H 136.437 3.8504 0.999457 0
M  V30 1374 H 133.176 6.54775 -0.308186 0
M  V30 1375 H 132.696 5.86376 1.26188 0
M  V30 1376 H 134.375 6.39346 0.992237 0
M  V30 1377 N 134.507 -0.190092 1.56449 0
M  V30 1378 C 135.47 -1.21925 1.9408 0
M  V30 1379 C 136.47 -1.38176 0.822431 0
M  V30 1380 O 137.66 -1.35903 1.08977 0
M  V30 1381 C 134.792 -2.58773 2.21922 0
M  V30 1382 H 135.985 -0.897464 2.86157 0
M  V30 1383 H 133.538 -0.43181 1.50217 0
M  V30 1384 H 134.273 -2.95998 1.32499 0
M  V30 1385 H 134.058 -2.48348 3.03424 0
M  V30 1386 H 135.548 -3.32978 2.52022 0
M  V30 1387 N 135.985 -1.50799 -0.457987 0
M  V30 1388 C 136.917 -1.66786 -1.57211 0
M  V30 1389 C 137.93 -0.548962 -1.53265 0
M  V30 1390 O 139.119 -0.8226 -1.58416 0
M  V30 1391 C 136.219 -1.64834 -2.96113 0
M  V30 1392 C 135.392 -2.92971 -3.24787 0
M  V30 1393 C 134.451 -2.83485 -4.43309 0
M  V30 1394 O 133.477 -3.5744 -4.42973 0
M  V30 1395 N 134.679 -1.97929 -5.45714 0
M  V30 1396 H 137.444 -2.62889 -1.43909 0
M  V30 1397 H 135.005 -1.48427 -0.646617 0
M  V30 1398 H 136.997 -1.56084 -3.7339 0
M  V30 1399 H 135.567 -0.764118 -3.03117 0
M  V30 1400 H 134.787 -3.15749 -2.36 0
M  V30 1401 H 136.075 -3.77834 -3.40762 0
M  V30 1402 H 135.473 -1.37182 -5.48815 0
M  V30 1403 H 134.03 -1.95073 -6.21924 0
M  V30 1404 N 137.463 0.71206 -1.40597 0
M  V30 1405 C 138.688 1.50617 -1.42581 0
M  V30 1406 C 139.113 1.88079 -0.0282102 0
M  V30 1407 O 138.471 1.53511 0.964579 0
M  V30 1408 C 138.519 2.7557 -2.3258 0
M  V30 1409 O 137.623 3.72414 -1.77148 0
M  V30 1410 H 136.964 0.453966 -0.484573 0
M  V30 1411 H 139.494 0.876649 -1.84868 0
M  V30 1412 H 139.504 3.2406 -2.47889 0
M  V30 1413 H 138.179 2.47639 -3.34138 0
M  V30 1414 H 136.756 3.31276 -1.71204 0
M  V30 1415 N 138.941 1.26152 0.944643 0
M  V30 1416 C 139.873 1.03199 2.04652 0
M  V30 1417 C 140.886 -0.00642356 1.62799 0
M  V30 1418 O 142.075 0.233263 1.76969 0
M  V30 1419 C 139.175 0.540111 3.34568 0
M  V30 1420 C 138.348 1.64697 4.05208 0
M  V30 1421 C 137.407 1.15374 5.13396 0
M  V30 1422 O 136.433 1.85013 5.38293 0
M  V30 1423 N 137.635 0.00031529 5.805 0
M  V30 1424 H 140.4 1.9808 2.2491 0
M  V30 1425 H 137.961 1.17491 1.11389 0
M  V30 1426 H 139.953 0.194401 4.04233 0
M  V30 1427 H 138.523 -0.315021 3.11009 0
M  V30 1428 H 137.743 2.16379 3.29506 0
M  V30 1429 H 139.031 2.3903 4.49157 0
M  V30 1430 H 138.429 -0.581336 5.62705 0
M  V30 1431 H 136.986 -0.286346 6.51171 0
M  V30 1432 N 140.419 -1.14872 1.07899 0
M  V30 1433 C 141.835 -1.37776 0.805606 0
M  V30 1434 C 142.035 -1.92743 -0.587555 0
M  V30 1435 O 141.091 -2.13678 -1.34528 0
M  V30 1436 C 142.404 -2.34361 1.88402 0
M  V30 1437 C 143.952 -2.48012 1.90942 0
M  V30 1438 C 144.427 -3.47893 2.97883 0
M  V30 1439 N 145.918 -3.55433 2.97021 0
M  V30 1440 C 146.653 -4.32553 3.76412 0
M  V30 1441 N 146.149 -5.12959 4.65666 0
M  V30 1442 N 147.942 -4.27697 3.64735 0
M  V30 1443 H 140.093 -0.775365 1.97742 0
M  V30 1444 H 142.356 -0.403521 0.857831 0
M  V30 1445 H 142.062 -2.01098 2.88535 0
M  V30 1446 H 141.936 -3.34206 1.74889 0
M  V30 1447 H 144.323 -2.8057 0.914579 0
M  V30 1448 H 144.404 -1.48147 2.08534 0
M  V30 1449 H 144.048 -3.16069 3.97571 0
M  V30 1450 H 143.978 -4.47527 2.77538 0
M  V30 1451 H 146.469 -2.98048 2.32326 0
M  V30 1452 H 146.782 -5.69065 5.22862 0
M  V30 1453 H 145.127 -5.12245 4.69712 0
M  V30 1454 H 148.318 -3.63949 2.94378 0
M  V30 1455 H 148.491 -4.8755 4.26848 0
M  V30 1456 N 141.898 -0.863906 -1.31812 0
M  V30 1457 C 142.828 -0.330843 -2.31144 0
M  V30 1458 C 143.809 0.575005 -1.60087 0
M  V30 1459 O 144.994 0.493304 -1.8783 0
M  V30 1460 C 142.124 0.47374 -3.44054 0
M  V30 1461 C 141.078 -0.338481 -4.26659 0
M  V30 1462 C 140.404 0.591412 -5.31419 0
M  V30 1463 C 141.704 -1.56926 -4.98168 0
M  V30 1464 H 143.398 -1.16086 -2.75979 0
M  V30 1465 H 140.944 -0.559657 -1.32679 0
M  V30 1466 H 142.897 0.857143 -4.12591 0
M  V30 1467 H 141.621 1.33721 -2.9797 0
M  V30 1468 H 140.28 -0.703754 -3.59782 0
M  V30 1469 H 139.928 1.45199 -4.81587 0
M  V30 1470 H 139.628 0.0519022 -5.87577 0
M  V30 1471 H 141.152 0.97179 -6.02817 0
M  V30 1472 H 142.566 -1.25764 -5.59336 0
M  V30 1473 H 140.963 -2.04739 -5.64094 0
M  V30 1474 H 142.033 -2.32544 -4.25501 0
M  V30 1475 N 143.376 1.44774 -0.622745 0
M  V30 1476 C 144.787 1.85546 -0.207226 0
M  V30 1477 C 145.138 1.52093 1.23944 0
M  V30 1478 O 144.263 0.95492 1.94191 0
M  V30 1479 C 144.858 3.36781 -0.369313 0
M  V30 1480 C 143.417 3.76399 -0.00836847 0
M  V30 1481 C 142.564 2.68664 -0.686651 0
M  V30 1482 H 145.515 1.3536 -0.828454 0
M  V30 1483 H 145.536 3.78453 0.394162 0
M  V30 1484 H 145.048 3.61098 -1.42231 0
M  V30 1485 H 143.149 3.57698 1.04322 0
M  V30 1486 H 143.262 4.7732 -0.412584 0
M  V30 1487 H 141.626 2.54404 -0.122777 0
M  V30 1488 H 142.409 2.95815 -1.74208 0
M  V30 1489 N 144.854 0.36279 1.53368 0
M  V30 1490 C 145.784 -0.476976 2.28576 0
M  V30 1491 C 146.765 -1.08631 1.30894 0
M  V30 1492 O 147.95 -1.10409 1.59761 0
M  V30 1493 C 145.08 -1.61828 3.07293 0
M  V30 1494 C 144.034 -1.13633 4.1264 0
M  V30 1495 C 143.36 -2.36766 4.79423 0
M  V30 1496 C 144.66 -0.223061 5.21823 0
M  V30 1497 H 146.354 0.150474 2.99022 0
M  V30 1498 H 143.9 0.0738103 1.43811 0
M  V30 1499 H 145.853 -2.21237 3.58653 0
M  V30 1500 H 144.577 -2.27292 2.34533 0
M  V30 1501 H 143.236 -0.564945 3.62221 0
M  V30 1502 H 142.884 -3.0068 4.03238 0
M  V30 1503 H 142.584 -2.05192 5.50609 0
M  V30 1504 H 144.108 -2.96865 5.33576 0
M  V30 1505 H 145.522 -0.724545 5.68703 0
M  V30 1506 H 143.919 0.001678 6.001 0
M  V30 1507 H 144.989 0.735553 4.79289 0
M  V30 1508 N 146.332 -1.57332 0.0918853 0
M  V30 1509 C 147.743 -1.81496 -0.437739 0
M  V30 1510 C 148.094 -1.00727 -1.6837 0
M  V30 1511 O 147.219 -0.235694 -2.15113 0
M  V30 1512 C 147.814 -3.29197 -0.800939 0
M  V30 1513 C 146.373 -3.54136 -1.27532 0
M  V30 1514 C 145.52 -2.75979 -0.270392 0
M  V30 1515 H 148.471 -1.55494 0.317366 0
M  V30 1516 H 148.492 -3.42344 -1.66074 0
M  V30 1517 H 148.004 -3.87955 0.106078 0
M  V30 1518 H 146.105 -3.00705 -2.20016 0
M  V30 1519 H 146.218 -4.62792 -1.23938 0
M  V30 1520 H 144.582 -2.43349 -0.751872 0
M  V30 1521 H 145.365 -3.37484 0.629248 0
M  V30 1522 N 147.81 0.181792 -1.56548 0
M  V30 1523 C 149.226 0.53316 -1.50431 0
M  V30 1524 C 149.426 1.85184 -0.794297 0
M  V30 1525 O 148.482 2.50058 -0.350318 0
M  V30 1526 C 149.795 0.575597 -2.9514 0
M  V30 1527 C 151.343 0.663519 -3.05886 0
M  V30 1528 C 151.818 0.736946 -4.52032 0
M  V30 1529 N 153.309 0.800118 -4.56237 0
M  V30 1530 C 154.044 0.877327 -5.66649 0
M  V30 1531 N 153.54 0.916016 -6.86718 0
M  V30 1532 N 155.333 0.915542 -5.54594 0
M  V30 1533 H 147.484 -0.683025 -2.01118 0
M  V30 1534 H 149.747 -0.244988 -0.915797 0
M  V30 1535 H 149.453 -0.324482 -3.502 0
M  V30 1536 H 149.327 1.42572 -3.49218 0
M  V30 1537 H 151.714 1.55403 -2.50867 0
M  V30 1538 H 151.795 -0.21307 -2.54911 0
M  V30 1539 H 151.439 -0.149262 -5.07681 0
M  V30 1540 H 151.369 1.62953 -5.00753 0
M  V30 1541 H 153.86 0.778926 -3.69785 0
M  V30 1542 H 154.173 0.975813 -7.66614 0
M  V30 1543 H 152.518 0.884469 -6.89349 0
M  V30 1544 H 155.709 0.882245 -4.59711 0
M  V30 1545 H 155.882 0.972253 -6.40665 0
M  V30 1546 N 149.288 1.51039 0.449983 0
M  V30 1547 C 150.198 1.74261 1.57067 0
M  V30 1548 C 151.214 0.626363 1.62335 0
M  V30 1549 O 152.39 0.907162 1.79812 0
M  V30 1550 C 149.455 1.85114 2.93144 0
M  V30 1551 C 148.516 3.0893 2.98095 0
M  V30 1552 C 147.749 3.19256 4.27681 0
M  V30 1553 O 147.972 2.35835 5.19363 0
M  V30 1554 O 146.906 4.12144 4.38658 0
M  V30 1555 H 150.732 2.69303 1.40391 0
M  V30 1556 H 148.317 1.35389 0.631688 0
M  V30 1557 H 150.199 1.94311 3.73926 0
M  V30 1558 H 148.874 0.932588 3.09975 0
M  V30 1559 H 147.781 3.0522 2.16314 0
M  V30 1560 H 149.114 4.00433 2.86206 0
M  V30 1561 N 150.766 -0.704594 1.40972 0
M  V30 1562 C 152.177 -1.28418 1.3552 0
M  V30 1563 C 152.528 -1.96171 0.0339434 0
M  V30 1564 O 151.653 -1.98231 -0.867944 0
M  V30 1565 C 152.248 -2.33528 2.45459 0
M  V30 1566 C 150.807 -2.87085 2.43433 0
M  V30 1567 C 149.954 -1.61007 2.2577 0
M  V30 1568 H 152.905 -0.499963 1.50619 0
M  V30 1569 H 152.926 -3.14619 2.13998 0
M  V30 1570 H 152.438 -1.84187 3.41609 0
M  V30 1571 H 150.539 -3.40626 1.51013 0
M  V30 1572 H 150.652 -3.3813 3.39419 0
M  V30 1573 H 149.016 -1.86482 1.73483 0
M  V30 1574 H 149.799 -1.13675 3.23933 0
M  V30 1575 N 152.244 -1.26651 -0.937939 0
M  V30 1576 C 153.191 -1.0849 -2.03712 0
M  V30 1577 C 154.161 0.011033 -1.66096 0
M  V30 1578 O 155.346 -0.149353 -1.90215 0
M  V30 1579 C 152.486 -0.72735 -3.37348 0
M  V30 1580 C 151.599 -1.89986 -3.87981 0
M  V30 1581 C 150.734 -1.48513 -5.10017 0
M  V30 1582 C 149.773 -2.62575 -5.5292 0
M  V30 1583 N 148.91 -2.21762 -6.66158 0
M  V30 1584 H 153.75 -2.02551 -2.18579 0
M  V30 1585 H 151.287 -1.00844 -1.07093 0
M  V30 1586 H 153.245 -0.50092 -4.14182 0
M  V30 1587 H 151.875 0.176298 -3.22318 0
M  V30 1588 H 150.927 -2.23913 -3.07518 0
M  V30 1589 H 152.239 -2.75586 -4.15757 0
M  V30 1590 H 151.393 -1.21934 -5.94321 0
M  V30 1591 H 150.132 -0.60009 -4.83994 0
M  V30 1592 H 149.137 -2.8988 -4.67172 0
M  V30 1593 H 150.362 -3.51685 -5.80943 0
M  V30 1594 H 148.308 -1.35696 -6.41812 0
M  V30 1595 H 148.225 -3.00903 -6.93537 0
M  V30 1596 H 149.493 -1.98403 -7.53828 0
M  V30 1597 N 153.722 1.14298 -1.08507 0
M  V30 1598 C 154.968 1.85633 -0.816581 0
M  V30 1599 C 155.301 1.82784 0.656021 0
M  V30 1600 O 154.576 1.25926 1.48233 0
M  V30 1601 C 154.859 3.34223 -1.34041 0
M  V30 1602 C 154.712 3.45639 -2.87843 0
M  V30 1603 C 156.031 4.29356 -0.9665 0
M  V30 1604 H 153.15 0.67402 -0.298104 0
M  V30 1605 H 155.792 1.34214 -1.34487 0
M  V30 1606 H 153.942 3.78144 -0.89104 0
M  V30 1607 H 155.614 3.10498 -3.41158 0
M  V30 1608 H 153.857 2.86817 -3.25451 0
M  V30 1609 H 154.528 4.50089 -3.19569 0
M  V30 1610 H 157.004 3.93457 -1.35391 0
M  V30 1611 H 155.88 5.3178 -1.3602 0
M  V30 1612 H 156.141 4.41919 0.126362 0
M  V30 1613 N 155.201 0.870884 1.31352 0
M  V30 1614 C 156.111 0.330783 2.32256 0
M  V30 1615 C 157.127 -0.559767 1.6475 0
M  V30 1616 O 158.303 -0.456263 1.96164 0
M  V30 1617 C 155.368 -0.458137 3.4366 0
M  V30 1618 C 154.429 0.460482 4.26823 0
M  V30 1619 C 153.662 -0.290881 5.32907 0
M  V30 1620 O 153.885 -1.51885 5.49806 0
M  V30 1621 O 152.819 0.351732 6.00871 0
M  V30 1622 H 156.645 1.16718 2.80376 0
M  V30 1623 H 154.23 0.634285 1.35267 0
M  V30 1624 H 156.112 -0.905343 4.1156 0
M  V30 1625 H 154.787 -1.27106 2.97701 0
M  V30 1626 H 153.694 0.956207 3.61673 0
M  V30 1627 H 155.027 1.23903 4.7635 0
M  V30 1628 N 156.679 -1.44442 0.630414 0
M  V30 1629 C 157.642 -2.29107 -0.0652523 0
M  V30 1630 C 158.642 -1.41002 -0.772995 0
M  V30 1631 O 159.832 -1.62881 -0.617692 0
M  V30 1632 C 156.964 -3.22564 -1.10296 0
M  V30 1633 H 158.157 -2.92103 0.679401 0
M  V30 1634 H 155.71 -1.51343 0.390517 0
M  V30 1635 H 156.445 -2.64416 -1.87762 0
M  V30 1636 H 156.23 -3.87491 -0.59941 0
M  V30 1637 H 157.72 -3.86167 -1.5895 0
M  V30 1638 N 158.157 -0.370918 -1.53173 0
M  V30 1639 C 159.087 0.464847 -2.28826 0
M  V30 1640 C 160.068 1.07936 -1.31468 0
M  V30 1641 O 161.253 1.0956 -1.60344 0
M  V30 1642 C 158.383 1.60196 -3.08147 0
M  V30 1643 C 157.337 1.11443 -4.13237 0
M  V30 1644 C 156.663 2.3422 -4.80672 0
M  V30 1645 C 157.963 0.195384 -5.21934 0
M  V30 1646 H 159.657 -0.166329 -2.98938 0
M  V30 1647 H 157.203 -0.0814359 -1.4377 0
M  V30 1648 H 159.156 2.19332 -3.59822 0
M  V30 1649 H 157.88 2.26045 -2.35735 0
M  V30 1650 H 156.539 0.545727 -3.62515 0
M  V30 1651 H 156.187 2.98537 -4.04827 0
M  V30 1652 H 155.887 2.02269 -5.51689 0
M  V30 1653 H 157.411 2.94032 -5.35143 0
M  V30 1654 H 158.825 0.694375 -5.69079 0
M  V30 1655 H 157.222 -0.0335027 -6.00091 0
M  V30 1656 H 158.292 -0.760961 -4.78892 0
M  V30 1657 N 159.635 1.57281 -0.100228 0
M  V30 1658 C 160.585 2.10848 0.86759 0
M  V30 1659 C 161.569 1.02473 1.24049 0
M  V30 1660 O 162.761 1.28739 1.21471 0
M  V30 1661 C 159.89 2.69648 2.12474 0
M  V30 1662 C 158.976 3.85074 1.77704 0
M  V30 1663 N 159.367 4.92897 1.13518 0
M  V30 1664 C 157.665 3.94905 2.07282 0
M  V30 1665 C 158.366 5.73475 0.974735 0
M  V30 1666 N 157.342 5.22675 1.4937 0
M  V30 1667 H 161.144 2.91594 0.367471 0
M  V30 1668 H 158.658 1.62074 0.102829 0
M  V30 1669 H 160.655 3.06356 2.82757 0
M  V30 1670 H 159.315 1.90359 2.63047 0
M  V30 1671 H 160.326 5.11662 0.801381 0
M  V30 1672 H 157.003 3.26633 2.60033 0
M  V30 1673 H 158.393 6.70238 0.472364 0
M  V30 1674 N 161.113 -0.173488 1.56642 0
M  V30 1675 C 162.076 -1.19859 1.95362 0
M  V30 1676 C 163.076 -1.37296 0.83704 0
M  V30 1677 O 164.266 -1.34739 1.10413 0
M  V30 1678 C 161.398 -2.56405 2.24654 0
M  V30 1679 H 162.591 -0.867062 2.87092 0
M  V30 1680 H 160.144 -0.415853 1.50666 0
M  V30 1681 H 160.879 -2.94576 1.35631 0
M  V30 1682 H 160.664 -2.45115 3.06041 0
M  V30 1683 H 162.154 -3.30287 2.5554 0
M  V30 1684 N 162.591 -1.51276 -0.441967 0
M  V30 1685 C 163.837 -1.6492 -1.1905 0
M  V30 1686 C 164.192 -0.358731 -1.89026 0
M  V30 1687 O 163.485 0.645193 -1.8041 0
M  V30 1688 C 163.679 -2.78746 -2.23686 0
M  V30 1689 C 163.508 -4.18737 -1.63979 0
M  V30 1690 C 162.278 -4.84739 -1.42674 0
M  V30 1691 C 164.476 -5.01988 -1.11858 0
M  V30 1692 N 162.458 -6.08858 -0.785159 0
M  V30 1693 C 163.829 -6.17071 -0.601989 0
M  V30 1694 C 165.884 -4.87551 -1.0099 0
M  V30 1695 C 164.587 -7.19299 0.0126012 0
M  V30 1696 C 166.613 -5.89983 -0.409206 0
M  V30 1697 C 165.975 -7.04333 0.0968651 0
M  V30 1698 H 162.074 -0.657416 -0.423471 0
M  V30 1699 H 164.658 -1.8849 -0.48782 0
M  V30 1700 H 162.829 -2.56848 -2.91348 0
M  V30 1701 H 164.561 -2.81595 -2.90666 0
M  V30 1702 H 161.316 -4.42528 -1.68719 0
M  V30 1703 H 161.74 -6.75282 -0.481942 0
M  V30 1704 H 166.382 -3.99401 -1.38703 0
M  V30 1705 H 164.1 -8.071 0.401879 0
M  V30 1706 H 167.686 -5.8088 -0.327079 0
M  V30 1707 H 166.566 -7.82238 0.554373 0
M  V30 1708 N 164.069 0.697108 -1.41344 0
M  V30 1709 C 164.999 1.82353 -1.45841 0
M  V30 1710 C 165.98 1.67115 -0.317247 0
M  V30 1711 O 167.165 1.86871 -0.528474 0
M  V30 1712 C 164.295 3.20476 -1.33838 0
M  V30 1713 C 163.249 3.50415 -2.4575 0
M  V30 1714 C 162.575 4.87878 -2.18813 0
M  V30 1715 C 163.875 3.49546 -3.88091 0
M  V30 1716 H 165.569 1.78846 -2.40113 0
M  V30 1717 H 163.115 0.859028 -1.15571 0
M  V30 1718 H 165.068 3.98988 -1.35596 0
M  V30 1719 H 163.792 3.24604 -0.360498 0
M  V30 1720 H 162.451 2.74253 -2.43271 0
M  V30 1721 H 162.099 4.8863 -1.19371 0
M  V30 1722 H 161.799 5.08875 -2.93803 0
M  V30 1723 H 163.323 5.68702 -2.22284 0
M  V30 1724 H 164.737 4.18066 -3.92293 0
M  V30 1725 H 163.134 3.82075 -4.62751 0
M  V30 1726 H 164.204 2.48552 -4.16353 0
M  V30 1727 N 165.547 1.27147 0.931209 0
M  V30 1728 C 166.958 1.12044 1.49342 0
M  V30 1729 C 167.309 -0.295795 1.93957 0
M  V30 1730 O 166.434 -1.18835 1.80852 0
M  V30 1731 C 167.029 2.02781 2.71414 0
M  V30 1732 C 165.588 1.91794 3.2387 0
M  V30 1733 C 164.735 1.95543 1.96617 0
M  V30 1734 H 167.686 1.40091 0.745672 0
M  V30 1735 H 167.707 1.58156 3.46074 0
M  V30 1736 H 167.219 3.05848 2.38911 0
M  V30 1737 H 165.32 0.916992 3.6114 0
M  V30 1738 H 165.433 2.77852 3.90302 0
M  V30 1739 H 163.797 1.39722 2.12955 0
M  V30 1740 H 164.58 3.00259 1.66432 0
M  V30 1741 N 167.025 -1.13721 1.09112 0
M  V30 1742 C 168.25 -1.89314 0.847053 0
M  V30 1743 C 168.675 -1.78416 -0.595774 0
M  V30 1744 O 168.033 -1.12942 -1.41823 0
M  V30 1745 C 168.081 -3.3701 1.28284 0
M  V30 1746 O 167.185 -4.10054 0.439267 0
M  V30 1747 H 166.526 -0.588745 0.307044 0
M  V30 1748 H 169.056 -1.43902 1.45442 0
M  V30 1749 H 169.066 -3.87834 1.26683 0
M  V30 1750 H 167.741 -3.4426 2.33363 0
M  V30 1751 H 166.318 -3.69266 0.519312 0
M  V30 1752 N 168.503 -0.877838 -1.30888 0
M  V30 1753 C 169.433 -0.35534 -2.3078 0
M  V30 1754 C 170.414 0.557994 -1.60687 0
M  V30 1755 O 171.599 0.473355 -1.88343 0
M  V30 1756 C 168.729 0.437221 -3.44537 0
M  V30 1757 C 167.683 -0.383715 -4.26276 0
M  V30 1758 C 167.009 0.535014 -5.32017 0
M  V30 1759 C 168.309 -1.62201 -4.96476 0
M  V30 1760 H 170.003 -1.19007 -2.74732 0
M  V30 1761 H 167.549 -0.573698 -1.32078 0
M  V30 1762 H 169.502 0.813334 -4.13477 0
M  V30 1763 H 168.226 1.30553 -2.99372 0
M  V30 1764 H 166.885 -0.741874 -3.59015 0
M  V30 1765 H 166.533 1.40083 -4.831 0
M  V30 1766 H 166.233 -0.0104211 -5.87599 0
M  V30 1767 H 167.757 0.907799 -6.03814 0
M  V30 1768 H 169.171 -1.31689 -5.5797 0
M  V30 1769 H 167.568 -2.10711 -5.61891 0
M  V30 1770 H 168.638 -2.37044 -4.23011 0
M  V30 1771 N 169.982 1.44106 -0.638065 0
M  V30 1772 C 171.207 2.0685 -0.150916 0
M  V30 1773 C 171.632 1.47417 1.16833 0
M  V30 1774 O 170.99 0.578264 1.71831 0
M  V30 1775 C 171.038 3.60555 -0.05708 0
M  V30 1776 O 170.142 4.00465 0.984972 0
M  V30 1777 H 169.483 0.658151 -0.0879399 0
M  V30 1778 H 172.013 1.84865 -0.876707 0
M  V30 1779 H 172.023 4.07789 0.131232 0
M  V30 1780 H 170.698 4.03193 -1.02021 0
M  V30 1781 H 169.275 3.64849 0.770672 0
M  V30 1782 N 171.46 0.379036 1.52974 0
M  V30 1783 C 172.39 -0.452706 2.29069 0
M  V30 1784 C 173.371 -1.07237 1.32039 0
M  V30 1785 O 174.556 -1.08708 1.60923 0
M  V30 1786 C 171.686 -1.5856 3.08992 0
M  V30 1787 C 170.64 -1.0925 4.13822 0
M  V30 1788 C 169.966 -2.31668 4.81907 0
M  V30 1789 C 171.266 -0.167702 5.22031 0
M  V30 1790 H 172.96 0.182181 2.98845 0
M  V30 1791 H 170.506 0.0890592 1.43724 0
M  V30 1792 H 172.459 -2.1742 3.6098 0
M  V30 1793 H 171.183 -2.24792 2.36931 0
M  V30 1794 H 169.842 -0.526494 3.628 0
M  V30 1795 H 169.49 -2.96386 4.06404 0
M  V30 1796 H 169.19 -1.9934 5.52754 0
M  V30 1797 H 170.714 -2.91189 5.36695 0
M  V30 1798 H 172.128 -0.664186 5.6944 0
M  V30 1799 H 170.525 0.0653265 6.00064 0
M  V30 1800 H 171.595 0.786347 4.78482 0
M  V30 1801 N 172.938 -1.57226 0.108567 0
M  V30 1802 C 173.901 -2.13602 -0.831082 0
M  V30 1803 C 174.901 -1.06841 -1.20173 0
M  V30 1804 O 176.091 -1.32666 -1.12895 0
M  V30 1805 C 173.223 -2.66769 -2.12243 0
M  V30 1806 H 174.416 -2.97951 -0.341317 0
M  V30 1807 H 171.969 -1.55667 -0.14057 0
M  V30 1808 H 172.704 -1.85977 -2.65675 0
M  V30 1809 H 172.489 -3.44839 -1.86625 0
M  V30 1810 H 173.979 -3.10332 -2.79435 0
M  V30 1811 N 174.416 0.165178 -1.56732 0
M  V30 1812 C 175.641 0.900253 -1.86843 0
M  V30 1813 C 176.066 1.74766 -0.695596 0
M  V30 1814 O 175.424 1.77786 0.35522 0
M  V30 1815 C 175.472 1.74777 -3.15413 0
M  V30 1816 O 174.576 2.85007 -2.98068 0
M  V30 1817 H 173.917 0.251832 -0.614391 0
M  V30 1818 H 176.447 0.161468 -2.03962 0
M  V30 1819 H 176.457 2.14646 -3.46974 0
M  V30 1820 H 175.132 1.12537 -4.00385 0
M  V30 1821 H 173.709 2.48676 -2.77875 0
M  V30 1822 N 175.894 1.51508 0.433938 0
M  V30 1823 C 176.824 1.76016 1.53429 0
M  V30 1824 C 177.805 0.610112 1.58782 0
M  V30 1825 O 178.99 0.853177 1.74455 0
M  V30 1826 C 176.12 1.88831 2.9148 0
M  V30 1827 C 175.074 3.04288 3.00987 0
M  V30 1828 C 174.4 3.0229 4.4105 0
M  V30 1829 C 175.7 4.44193 2.74754 0
M  V30 1830 H 177.394 2.68152 1.33171 0
M  V30 1831 H 174.94 1.29035 0.639214 0
M  V30 1832 H 176.893 2.04559 3.6842 0
M  V30 1833 H 175.617 0.933455 3.12976 0
M  V30 1834 H 174.276 2.8827 2.26486 0
M  V30 1835 H 173.924 2.04576 4.59519 0
M  V30 1836 H 173.624 3.79822 4.4834 0
M  V30 1837 H 175.148 3.20116 5.1996 0
M  V30 1838 H 176.562 4.60544 3.41426 0
M  V30 1839 H 174.959 5.23457 2.9345 0
M  V30 1840 H 176.029 4.53996 1.70339 0
M  V30 1841 N 177.372 -0.689602 1.41712 0
M  V30 1842 C 178.322 -1.79571 1.40493 0
M  V30 1843 C 179.306 -1.58473 0.278409 0
M  V30 1844 O 180.498 -1.69204 0.519532 0
M  V30 1845 C 177.627 -3.17923 1.29536 0
M  V30 1846 C 176.713 -3.44695 2.47075 0
M  V30 1847 N 177.104 -3.42132 3.72531 0
M  V30 1848 C 175.402 -3.75269 2.41017 0
M  V30 1849 C 176.103 -3.67976 4.50521 0
M  V30 1850 N 175.079 -3.88014 3.80718 0
M  V30 1851 H 178.881 -1.75961 2.35404 0
M  V30 1852 H 176.395 -0.889839 1.35851 0
M  V30 1853 H 178.392 -3.97167 1.26745 0
M  V30 1854 H 177.052 -3.22741 0.356153 0
M  V30 1855 H 178.063 -3.22375 4.05333 0
M  V30 1856 H 174.74 -3.87421 1.55599 0
M  V30 1857 H 176.13 -3.7208 5.59469 0
M  V30 1858 N 178.85 -1.27639 -0.924453 0
M  V30 1859 C 180.261 -1.12834 -1.48746 0
M  V30 1860 C 180.612 0.285505 -1.94112 0
M  V30 1861 O 179.737 1.17874 -1.81479 0
M  V30 1862 C 180.332 -2.04217 -2.70334 0
M  V30 1863 C 178.891 -1.93509 -3.22848 0
M  V30 1864 C 178.038 -1.96583 -1.95577 0
M  V30 1865 H 180.989 -1.40484 -0.738233 0
M  V30 1866 H 181.01 -1.59989 -3.4523 0
M  V30 1867 H 180.522 -3.07111 -2.37285 0
M  V30 1868 H 178.623 -0.936131 -3.60649 0
M  V30 1869 H 178.736 -2.79917 -3.88823 0
M  V30 1870 H 177.1 -1.4085 -2.12211 0
M  V30 1871 H 177.883 -3.01137 -1.64837 0
M  V30 1872 N 180.328 1.1314 -1.09713 0
M  V30 1873 C 181.605 1.80762 -0.747302 0
M  V30 1874 C 181.985 1.96663 0.767265 0
M  V30 1875 O 181.333 1.53706 1.69076 0
M  V30 1876 C 181.543 3.15606 -1.48975 0
M  V30 1877 C 182.891 3.90914 -1.65746 0
M  V30 1878 O 183.915 3.25239 -1.45251 0
M  V30 1879 O 182.774 5.08718 -1.9967 0
M  V30 1880 H 179.868 0.782103 -0.268782 0
M  V30 1881 H 182.414 1.20041 -1.19951 0
M  V30 1882 H 181.186 2.99278 -2.52088 0
M  V30 1883 H 180.809 3.84029 -1.02991 0
M  V30 1884 N 181.806 0.884767 1.30421 0
M  V30 1885 C 183.055 0.499164 1.95426 0
M  V30 1886 C 183.368 -0.95645 1.70621 0
M  V30 1887 O 184.574 -1.44889 2.29607 0
M  V30 1888 C 183.03 0.84177 3.49917 0
M  V30 1889 C 182.638 2.31514 3.83543 0
M  V30 1890 C 184.382 0.525355 4.21237 0
M  V30 1891 C 182.289 2.59939 5.31212 0
M  V30 1892 H 181.219 0.182944 0.73147 0
M  V30 1893 H 183.87 1.07971 1.48373 0
M  V30 1894 H 182.252 0.190311 3.95542 0
M  V30 1895 H 183.426 3.0109 3.48829 0
M  V30 1896 H 181.741 2.59907 3.25326 0
M  V30 1897 H 184.338 0.714762 5.29901 0
M  V30 1898 H 184.681 -0.535222 4.12845 0
M  V30 1899 H 185.214 1.134 3.81294 0
M  V30 1900 H 181.953 3.64736 5.44654 0
M  V30 1901 H 181.473 1.94972 5.67227 0
M  V30 1902 H 183.152 2.45429 5.98643 0
M  V30 1903 N 183.284 -1.43765 0.645699 0
M  V30 1904 C 184.695 -1.85193 0.236719 0
M  V30 1905 C 185.046 -1.54045 -1.21509 0
M  V30 1906 O 184.171 -0.985694 -1.92647 0
M  V30 1907 C 184.766 -3.36151 0.422845 0
M  V30 1908 C 183.325 -3.76338 0.0682492 0
M  V30 1909 C 182.472 -2.67538 0.729306 0
M  V30 1910 H 185.423 -1.34025 0.849883 0
M  V30 1911 H 185.444 -3.79032 -0.333904 0
M  V30 1912 H 184.956 -3.5879 1.47958 0
M  V30 1913 H 183.057 -3.59312 -0.986179 0
M  V30 1914 H 183.17 -4.76603 0.488469 0
M  V30 1915 H 181.534 -2.54176 0.163235 0
M  V30 1916 H 182.317 -2.93006 1.78892 0
M  V30 1917 N 184.763 -0.387143 -1.52771 0
M  V30 1918 C 185.695 0.484089 -2.2403 0
M  V30 1919 C 186.708 1.02849 -1.26198 0
M  V30 1920 O 187.897 0.931186 -1.52286 0
M  V30 1921 C 184.997 1.68337 -2.94136 0
M  V30 1922 C 184.17 1.26672 -4.18656 0
M  V30 1923 C 183.229 2.33045 -4.7178 0
M  V30 1924 O 182.255 1.94541 -5.34923 0
M  V30 1925 N 183.457 3.64929 -4.5145 0
M  V30 1926 H 186.222 -0.126404 -2.99433 0
M  V30 1927 H 183.783 -0.213392 -1.60488 0
M  V30 1928 H 185.775 2.39019 -3.26577 0
M  V30 1929 H 184.345 2.20025 -2.22053 0
M  V30 1930 H 183.565 0.388878 -3.92277 0
M  V30 1931 H 184.853 0.964964 -4.99566 0
M  V30 1932 H 184.251 3.98974 -4.01044 0
M  V30 1933 H 182.808 4.31651 -4.88386 0
M  V30 1934 N 186.241 1.57166 -0.116904 0
M  V30 1935 C 187.469 1.99473 0.549383 0
M  V30 1936 C 187.884 0.996541 1.60357 0
M  V30 1937 O 187.241 -0.0108731 1.82497 0
M  V30 1938 C 187.292 3.41788 1.17741 0
M  V30 1939 O 187.013 4.37788 0.165362 0
M  V30 1940 C 188.514 3.99216 1.92722 0
M  V30 1941 H 185.734 0.655009 0.145616 0
M  V30 1942 H 188.278 2.03494 -0.202625 0
M  V30 1943 H 186.433 3.38713 1.88021 0
M  V30 1944 H 186.847 5.20806 0.621403 0
M  V30 1945 H 188.321 5.00882 2.31995 0
M  V30 1946 H 188.798 3.3824 2.80161 0
M  V30 1947 H 189.404 4.0583 1.27209 0
M  V30 1948 N 187.719 -0.156864 1.56817 0
M  V30 1949 C 188.947 -0.886316 1.86955 0
M  V30 1950 C 189.362 -1.75185 0.703975 0
M  V30 1951 O 188.719 -1.79555 -0.326552 0
M  V30 1952 C 188.77 -1.75117 3.16253 0
M  V30 1953 O 188.491 -0.920537 4.2832 0
M  V30 1954 C 189.992 -2.58905 3.59837 0
M  V30 1955 H 187.212 -0.25678 0.619923 0
M  V30 1956 H 189.756 -0.152615 2.0393 0
M  V30 1957 H 187.911 -2.43805 3.01062 0
M  V30 1958 H 188.325 -1.51337 5.02192 0
M  V30 1959 H 189.799 -3.1518 4.53172 0
M  V30 1960 H 190.276 -3.34472 2.84649 0
M  V30 1961 H 190.882 -1.95526 3.7769 0
M  V30 1962 N 189.197 -1.51736 -0.425897 0
M  V30 1963 C 190.16 -1.73271 -1.50032 0
M  V30 1964 C 191.16 -0.602639 -1.4908 0
M  V30 1965 O 192.35 -0.87033 -1.509 0
M  V30 1966 C 189.482 -1.79969 -2.89523 0
M  V30 1967 H 190.675 -2.69172 -1.32237 0
M  V30 1968 H 188.228 -1.41899 -0.65532 0
M  V30 1969 H 188.963 -0.859241 -3.1271 0
M  V30 1970 H 188.748 -2.62109 -2.91619 0
M  V30 1971 H 190.238 -1.9843 -3.67444 0
M  V30 1972 N 190.675 0.682077 -1.42076 0
M  V30 1973 C 191.952 1.43755 -1.32642 0
M  V30 1974 C 192.332 2.11063 0.0396611 0
M  V30 1975 O 191.68 2.02701 1.05474 0
M  V30 1976 C 191.89 2.44596 -2.48946 0
M  V30 1977 C 193.238 3.09454 -2.9073 0
M  V30 1978 O 194.262 2.54922 -2.48783 0
M  V30 1979 O 193.121 4.08253 -3.63307 0
M  V30 1980 H 190.215 0.640857 -0.522715 0
M  V30 1981 H 192.761 0.711415 -1.54068 0
M  V30 1982 H 191.533 1.93609 -3.40046 0
M  V30 1983 H 191.156 3.24701 -2.29467 0
M  V30 1984 N 192.153 1.28127 0.917671 0
M  V30 1985 C 193.401 1.14825 1.66312 0
M  V30 1986 C 193.722 -0.304379 1.9261 0
M  V30 1987 O 192.992 -1.21149 1.53947 0
M  V30 1988 H 191.572 0.421953 0.616413 0
M  V30 1989 H 194.234 1.608 1.10134 0
M  V30 1990 H 193.33 1.68489 2.62712 0
M  V30 1991 N 193.631 -1.12557 1.10312 0
M  V30 1992 C 194.879 -1.83675 0.843091 0
M  V30 1993 C 195.2 -1.84435 -0.633131 0
M  V30 1994 O 194.47 -1.30657 -1.45964 0
M  V30 1995 H 193.05 -0.680138 0.308904 0
M  V30 1996 H 195.712 -1.36301 1.39313 0
M  V30 1997 H 194.808 -2.87908 1.2048 0
M  V30 1998 N 195.109 -0.891671 -1.2995 0
M  V30 1999 C 196.056 -0.361736 -2.27948 0
M  V30 2000 C 197.026 0.551761 -1.56668 0
M  V30 2001 O 198.211 0.478736 -1.84696 0
M  V30 2002 C 195.351 0.411825 -3.42634 0
M  V30 2003 C 194.464 -0.531651 -4.28716 0
M  V30 2004 C 193.599 0.258167 -5.30572 0
M  V30 2005 C 192.638 -0.680349 -6.08307 0
M  V30 2006 N 191.775 0.0745613 -7.0206 0
M  V30 2007 H 196.615 -1.20254 -2.72659 0
M  V30 2008 H 194.152 -0.604352 -1.34112 0
M  V30 2009 H 196.11 0.876304 -4.07893 0
M  V30 2010 H 194.74 1.21715 -2.98974 0
M  V30 2011 H 193.792 -1.11463 -3.63703 0
M  V30 2012 H 195.104 -1.25038 -4.82874 0
M  V30 2013 H 194.258 0.784204 -6.0161 0
M  V30 2014 H 192.997 1.01008 -4.77126 0
M  V30 2015 H 192.002 -1.21796 -5.3614 0
M  V30 2016 H 193.227 -1.43145 -6.63842 0
M  V30 2017 H 191.173 0.808883 -6.50994 0
M  V30 2018 H 191.09 -0.584409 -7.53738 0
M  V30 2019 H 192.358 0.581123 -7.77331 0
M  V30 2020 N 196.587 1.43421 -0.653314 0
M  V30 2021 C 197.517 2.33487 0.0246656 0
M  V30 2022 C 198.498 1.49475 0.811863 0
M  V30 2023 O 199.683 1.78139 0.773322 0
M  V30 2024 C 196.813 3.32841 0.99166 0
M  V30 2025 C 195.767 4.26842 0.314568 0
M  V30 2026 C 195.093 5.16236 1.39302 0
M  V30 2027 C 196.393 5.16243 -0.793095 0
M  V30 2028 H 198.087 2.90427 -0.727481 0
M  V30 2029 H 195.633 1.39649 -0.351287 0
M  V30 2030 H 197.586 3.94747 1.47487 0
M  V30 2031 H 196.31 2.74158 1.77497 0
M  V30 2032 H 194.969 3.663 -0.148199 0
M  V30 2033 H 194.617 4.53891 2.16776 0
M  V30 2034 H 194.317 5.79948 0.945223 0
M  V30 2035 H 195.841 5.81015 1.87759 0
M  V30 2036 H 197.255 5.71958 -0.392039 0
M  V30 2037 H 195.652 5.88676 -1.16536 0
M  V30 2038 H 196.722 4.55927 -1.65103 0
M  V30 2039 N 198.065 0.39524 1.52563 0
M  V30 2040 C 199.29 -0.187456 2.06551 0
M  V30 2041 C 199.715 -1.39249 1.26457 0
M  V30 2042 O 199.073 -1.78947 0.291151 0
M  V30 2043 C 199.121 -0.529985 3.56684 0
M  V30 2044 O 198.225 -1.62307 3.79118 0
M  V30 2045 H 197.566 -0.0202537 0.663691 0
M  V30 2046 H 200.096 0.564426 1.96661 0
M  V30 2047 H 200.106 -0.792598 4.00227 0
M  V30 2048 H 198.781 0.350987 4.14416 0
M  V30 2049 H 197.358 -1.3537 3.47461 0
M  V30 2050 N 199.544 -1.57102 0.125237 0
M  V30 2051 C 200.791 -1.95407 -0.531248 0
M  V30 2052 C 201.119 -1.0089 -1.66287 0
M  V30 2053 O 200.374 -0.0339431 -1.95671 0
M  V30 2054 C 200.673 -3.40096 -1.09862 0
M  V30 2055 C 200.339 -4.50815 -0.0876989 0
M  V30 2056 C 199.001 -4.80824 0.19026 0
M  V30 2057 C 201.353 -5.17724 0.600902 0
M  V30 2058 C 198.681 -5.75058 1.163 0
M  V30 2059 C 201.033 -6.13005 1.56231 0
M  V30 2060 C 199.697 -6.41403 1.8482 0
M  V30 2061 H 198.967 -0.715046 -0.194397 0
M  V30 2062 H 201.614 -1.90373 0.207463 0
M  V30 2063 H 199.919 -3.41855 -1.91422 0
M  V30 2064 H 201.616 -3.6705 -1.61478 0
M  V30 2065 H 198.206 -4.27444 -0.314528 0
M  V30 2066 H 202.39 -4.94691 0.399333 0
M  V30 2067 H 197.646 -5.95362 1.39117 0
M  V30 2068 H 201.82 -6.63934 2.10153 0
M  V30 2069 H 199.447 -7.14229 2.60349 0
M  V30 2070 N 201.022 0.148545 -1.56898 0
M  V30 2071 C 202.269 0.861418 -1.83264 0
M  V30 2072 C 202.597 1.81239 -0.705883 0
M  V30 2073 O 201.852 1.93305 0.305212 0
M  V30 2074 C 202.151 1.67064 -3.1595 0
M  V30 2075 C 201.817 0.866591 -4.42494 0
M  V30 2076 C 200.479 0.644762 -4.76861 0
M  V30 2077 C 202.831 0.30418 -5.20312 0
M  V30 2078 C 200.159 -0.15021 -5.86508 0
M  V30 2079 C 202.511 -0.477824 -6.30793 0
M  V30 2080 C 201.175 -0.710244 -6.63711 0
M  V30 2081 H 200.445 0.315215 -0.670612 0
M  V30 2082 H 203.092 0.125142 -1.91091 0
M  V30 2083 H 201.397 2.47698 -3.03567 0
M  V30 2084 H 203.094 2.22566 -3.33565 0
M  V30 2085 H 199.684 1.04955 -4.15551 0
M  V30 2086 H 203.868 0.462844 -4.94137 0
M  V30 2087 H 199.124 -0.339796 -6.10455 0
M  V30 2088 H 203.298 -0.92076 -6.90286 0
M  V30 2089 H 200.925 -1.3281 -7.48509 0
M  V30 2090 N 202.5 1.5196 0.417844 0
M  V30 2091 C 203.777 1.56146 1.17803 0
M  V30 2092 C 204.157 0.337275 2.08388 0
M  V30 2093 O 203.505 -0.676447 2.18258 0
M  V30 2094 C 203.715 2.88566 1.96293 0
M  V30 2095 C 205.063 3.41244 2.52662 0
M  V30 2096 O 206.087 2.90247 2.06483 0
M  V30 2097 O 204.946 4.30273 3.36938 0
M  V30 2098 H 202.04 0.628598 0.537395 0
M  V30 2099 H 204.586 1.64283 0.425331 0
M  V30 2100 H 203.358 3.69116 1.2988 0
M  V30 2101 H 202.981 2.83681 2.78587 0
M  V30 2102 N 203.978 -0.674533 1.42435 0
M  V30 2103 C 204.928 -1.7807 1.4239 0
M  V30 2104 C 205.912 -1.58169 0.295202 0
M  V30 2105 O 207.104 -1.68643 0.537449 0
M  V30 2106 C 204.233 -3.16532 1.32901 0
M  V30 2107 C 203.319 -3.42055 2.50717 0
M  V30 2108 N 203.71 -3.38162 3.76139 0
M  V30 2109 C 202.008 -3.72692 2.44983 0
M  V30 2110 C 202.709 -3.63177 4.54398 0
M  V30 2111 N 201.685 -3.83954 3.84812 0
M  V30 2112 H 205.487 -1.73454 2.37257 0
M  V30 2113 H 203.001 -0.875381 1.36788 0
M  V30 2114 H 204.998 -3.958 1.30951 0
M  V30 2115 H 203.658 -3.22345 0.390363 0
M  V30 2116 H 204.669 -3.18057 4.0873 0
M  V30 2117 H 201.346 -3.85749 1.59699 0
M  V30 2118 H 202.736 -3.66125 5.63384 0
M  V30 2119 N 205.456 -1.28612 -0.910864 0
M  V30 2120 C 206.702 -1.16106 -1.66274 0
M  V30 2121 C 207.035 0.289113 -1.92036 0
M  V30 2122 O 206.31 1.21 -1.52281 0
M  V30 2123 C 206.593 -1.96309 -3.01885 0
M  V30 2124 C 206.446 -3.49405 -2.8326 0
M  V30 2125 C 207.765 -1.78076 -4.02463 0
M  V30 2126 H 204.884 -0.423152 -0.603417 0
M  V30 2127 H 207.526 -1.57961 -1.05586 0
M  V30 2128 H 205.676 -1.60742 -3.53687 0
M  V30 2129 H 207.348 -3.94894 -2.38446 0
M  V30 2130 H 205.591 -3.74893 -2.18261 0
M  V30 2131 H 206.262 -4.00784 -3.79574 0
M  V30 2132 H 208.738 -2.0912 -3.59733 0
M  V30 2133 H 207.614 -2.36561 -4.95308 0
M  V30 2134 H 207.875 -0.733008 -4.35981 0
M  V30 2135 N 206.934 1.1197 -1.10907 0
M  V30 2136 C 208.159 1.87942 -0.877064 0
M  V30 2137 C 208.584 1.79341 0.567314 0
M  V30 2138 O 207.942 1.15184 1.40009 0
M  V30 2139 C 207.99 3.34926 -1.33629 0
M  V30 2140 O 207.094 4.09303 -0.504447 0
M  V30 2141 H 206.435 0.583785 -0.316371 0
M  V30 2142 H 208.965 1.4157 -1.47712 0
M  V30 2143 H 208.975 3.8577 -1.32837 0
M  V30 2144 H 207.65 3.40504 -2.3881 0
M  V30 2145 H 206.227 3.68393 -0.577993 0
M  V30 2146 N 208.412 0.89855 1.29475 0
M  V30 2147 C 209.661 0.519863 1.94885 0
M  V30 2148 C 209.974 -0.9383 1.71625 0
M  V30 2149 O 211.18 -1.42445 2.31131 0
M  V30 2150 C 209.636 0.878836 3.49005 0
M  V30 2151 C 209.244 2.35569 3.81066 0
M  V30 2152 C 210.988 0.570004 4.20656 0
M  V30 2153 C 208.895 2.65558 5.28425 0
M  V30 2154 H 207.825 0.190692 0.729488 0
M  V30 2155 H 210.476 1.09539 1.47219 0
M  V30 2156 H 208.858 0.232253 3.95318 0
M  V30 2157 H 210.032 3.04773 3.45616 0
M  V30 2158 H 208.347 2.63343 3.22552 0
M  V30 2159 H 210.944 0.770925 5.29113 0
M  V30 2160 H 211.287 -0.491404 4.1339 0
M  V30 2161 H 211.82 1.17438 3.8007 0
M  V30 2162 H 208.559 3.70493 5.40754 0
M  V30 2163 H 208.079 2.00977 5.65127 0
M  V30 2164 H 209.758 2.51765 5.96006 0
M  V30 2165 N 209.89 -1.43072 0.660911 0
M  V30 2166 C 211.13 -2.03596 0.181146 0
M  V30 2167 C 211.494 -1.51057 -1.18515 0
M  V30 2168 O 212.695 -2.03275 -1.75877 0
M  V30 2169 C 210.966 -3.56845 0.19911 0
M  V30 2170 S 212.525 -4.38289 -0.211684 0
M  V30 2171 H 209.343 -0.706954 0.0757479 0
M  V30 2172 H 211.945 -1.75027 0.870965 0
M  V30 2173 H 210.649 -3.92583 1.1961 0
M  V30 2174 H 210.18 -3.90067 -0.510996 0
M  V30 2175 H 212.195 -4.74583 -1.44863 0
M  V30 2176 N 211.368 -0.403325 -1.52352 0
M  V30 2177 C 212.331 0.413051 -2.25447 0
M  V30 2178 C 213.331 0.978513 -1.276 0
M  V30 2179 O 214.521 0.858305 -1.51587 0
M  V30 2180 C 211.653 1.58087 -3.02029 0
M  V30 2181 H 212.846 -0.227094 -2.99039 0
M  V30 2182 H 210.399 -0.155722 -1.55522 0
M  V30 2183 H 211.134 2.25804 -2.32772 0
M  V30 2184 H 210.919 1.18195 -3.73861 0
M  V30 2185 H 212.409 2.1585 -3.57489 0
M  V30 2186 N 212.846 1.57033 -0.133567 0
M  V30 2187 C 213.776 2.1909 0.807567 0
M  V30 2188 C 214.757 1.13517 1.26681 0
M  V30 2189 O 215.942 1.41809 1.32679 0
M  V30 2190 C 213.072 2.80188 2.05212 0
M  V30 2191 C 212.026 3.91471 1.73015 0
M  V30 2192 C 211.352 4.39443 3.04622 0
M  V30 2193 C 212.652 5.12886 0.987168 0
M  V30 2194 H 214.346 2.97988 0.290403 0
M  V30 2195 H 211.892 1.43335 0.138239 0
M  V30 2196 H 213.845 3.22264 2.71521 0
M  V30 2197 H 212.569 1.98601 2.59278 0
M  V30 2198 H 211.228 3.49993 1.0909 0
M  V30 2199 H 210.876 3.54695 3.56651 0
M  V30 2200 H 210.576 5.14495 2.83847 0
M  V30 2201 H 212.1 4.8418 3.72024 0
M  V30 2202 H 213.514 5.51891 1.55208 0
M  V30 2203 H 211.911 5.93615 0.87985 0
M  V30 2204 H 212.981 4.84894 -0.0235286 0
M  V30 2205 N 214.325 -0.140222 1.56975 0
M  V30 2206 C 215.573 -0.850005 1.83356 0
M  V30 2207 C 215.894 -1.81399 0.71551 0
M  V30 2208 O 215.164 -1.94136 -0.262294 0
M  V30 2209 H 213.744 -0.316886 0.676456 0
M  V30 2210 H 216.406 -0.132608 1.94448 0
M  V30 2211 H 215.502 -1.40814 2.78528 0
M  V30 2212 N 215.803 -1.52179 -0.40978 0
M  V30 2213 C 217.219 -1.40968 -0.74835 0
M  V30 2214 C 217.419 -0.513657 -1.94843 0
M  V30 2215 O 216.475 0.0208026 -2.52491 0
M  V30 2216 C 217.788 -2.83483 -1.0029 0
M  V30 2217 C 219.336 -2.92821 -1.10565 0
M  V30 2218 C 219.811 -4.36303 -1.39296 0
M  V30 2219 N 221.302 -4.39535 -1.46162 0
M  V30 2220 C 222.037 -5.47614 -1.70018 0
M  V30 2221 N 221.533 -6.65812 -1.91483 0
M  V30 2222 N 223.326 -5.35129 -1.72027 0
M  V30 2223 H 215.477 -2.0897 0.380186 0
M  V30 2224 H 217.74 -0.94185 0.107805 0
M  V30 2225 H 217.446 -3.51168 -0.193461 0
M  V30 2226 H 217.32 -3.24487 -1.92323 0
M  V30 2227 H 219.707 -2.25318 -1.90568 0
M  V30 2228 H 219.788 -2.55276 -0.16369 0
M  V30 2229 H 219.432 -5.04366 -0.598109 0
M  V30 2230 H 219.362 -4.71385 -2.34743 0
M  V30 2231 H 221.853 -3.54332 -1.31367 0
M  V30 2232 H 222.166 -7.43964 -2.09134 0
M  V30 2233 H 220.511 -6.68879 -1.88749 0
M  V30 2234 H 223.702 -4.41764 -1.54796 0
M  V30 2235 H 223.875 -6.19433 -1.9028 0
M  V30 2236 N 217.281 0.66697 -1.42791 0
M  V30 2237 C 218.697 0.981027 -1.25889 0
M  V30 2238 C 218.897 2.00793 -0.168695 0
M  V30 2239 O 217.953 2.48321 0.45747 0
M  V30 2240 C 219.266 1.47838 -2.61848 0
M  V30 2241 C 220.814 1.59575 -2.69267 0
M  V30 2242 C 221.289 2.12704 -4.05612 0
M  V30 2243 N 222.78 2.20026 -4.07606 0
M  V30 2244 C 223.515 2.62227 -5.09926 0
M  V30 2245 N 223.011 3.03824 -6.22626 0
M  V30 2246 N 224.804 2.62045 -4.97281 0
M  V30 2247 H 216.955 -0.0127891 -2.12396 0
M  V30 2248 H 219.218 0.0568258 -0.946295 0
M  V30 2249 H 218.924 0.798299 -3.4252 0
M  V30 2250 H 218.798 2.45579 -2.86305 0
M  V30 2251 H 221.185 2.26687 -1.88936 0
M  V30 2252 H 221.266 0.60302 -2.48591 0
M  V30 2253 H 220.91 1.46198 -4.86404 0
M  V30 2254 H 220.84 3.12782 -4.23645 0
M  V30 2255 H 223.331 1.90708 -3.2625 0
M  V30 2256 H 223.644 3.34734 -6.96544 0
M  V30 2257 H 221.989 3.01662 -6.26119 0
M  V30 2258 H 225.18 2.28916 -4.08308 0
M  V30 2259 H 225.353 2.94613 -5.77154 0
M  V30 2260 N 218.759 1.29093 0.90403 0
M  V30 2261 C 220.175 1.07011 1.1841 0
M  V30 2262 C 220.375 -0.181358 2.00682 0
M  V30 2263 O 219.431 -0.880331 2.36657 0
M  V30 2264 C 220.744 2.32311 1.90924 0
M  V30 2265 C 222.292 2.37587 2.03768 0
M  V30 2266 C 222.767 3.62679 2.79693 0
M  V30 2267 N 224.258 3.63376 2.87249 0
M  V30 2268 C 224.993 4.56848 3.46522 0
M  V30 2269 N 224.489 5.60648 4.06996 0
M  V30 2270 N 226.282 4.44426 3.44154 0
M  V30 2271 H 218.433 2.09412 0.354993 0
M  V30 2272 H 220.696 0.922181 0.219742 0
M  V30 2273 H 220.402 3.23536 1.37905 0
M  V30 2274 H 220.276 2.39483 2.91424 0
M  V30 2275 H 222.663 1.46853 2.55965 0
M  V30 2276 H 222.744 2.34403 1.02415 0
M  V30 2277 H 222.388 4.53762 2.28173 0
M  V30 2278 H 222.318 3.63119 3.81381 0
M  V30 2279 H 224.809 2.88321 2.44293 0
M  V30 2280 H 225.122 6.28101 4.50232 0
M  V30 2281 H 223.467 5.64463 4.05471 0
M  V30 2282 H 226.658 3.62529 2.96126 0
M  V30 2283 H 226.831 5.17457 3.90054 0
M  V30 2284 N 220.237 -1.11381 1.11499 0
M  V30 2285 C 221.485 -1.8277 0.862524 0
M  V30 2286 C 221.806 -1.85097 -0.613534 0
M  V30 2287 O 221.076 -1.32198 -1.4457 0
M  V30 2288 H 219.656 -0.676823 0.316101 0
M  V30 2289 H 222.318 -1.34816 1.4075 0
M  V30 2290 H 221.414 -2.86614 1.23527 0
M  V30 2291 N 221.715 -0.905404 -1.28997 0
M  V30 2292 C 222.943 -0.549846 -1.9946 0
M  V30 2293 C 223.358 0.866834 -1.67724 0
M  V30 2294 O 222.715 1.57298 -0.925404 0
M  V30 2295 C 222.766 -0.739387 -3.53858 0
M  V30 2296 O 222.487 -2.10031 -3.84472 0
M  V30 2297 C 223.988 -0.389541 -4.41585 0
M  V30 2298 H 221.208 -0.210429 -0.637151 0
M  V30 2299 H 223.752 -1.21632 -1.64396 0
M  V30 2300 H 221.907 -0.120023 -3.87214 0
M  V30 2301 H 222.321 -2.13385 -4.79132 0
M  V30 2302 H 223.795 -0.572972 -5.49018 0
M  V30 2303 H 224.272 0.673756 -4.34001 0
M  V30 2304 H 224.878 -0.986089 -4.1371 0
M  V30 2305 N 223.193 1.4272 -0.668489 0
M  V30 2306 C 224.421 2.05966 -0.196348 0
M  V30 2307 C 224.836 1.50191 1.14403 0
M  V30 2308 O 224.193 0.639208 1.7094 0
M  V30 2309 C 224.244 3.61314 -0.115815 0
M  V30 2310 O 223.965 4.1502 -1.40322 0
M  V30 2311 C 225.466 4.41663 0.380579 0
M  V30 2312 H 222.686 0.663954 -0.0969829 0
M  V30 2313 H 225.23 1.82966 -0.913446 0
M  V30 2314 H 223.385 3.83448 0.551931 0
M  V30 2315 H 223.799 5.08832 -1.27243 0
M  V30 2316 H 225.273 5.5065 0.385848 0
M  V30 2317 H 225.75 4.15792 1.41471 0
M  V30 2318 H 226.356 4.24534 -0.255209 0
M  V30 2319 N 224.671 0.411399 1.52136 0
M  V30 2320 C 225.634 -0.401089 2.25663 0
M  V30 2321 C 226.634 -0.971732 1.28117 0
M  V30 2322 O 227.824 -0.850254 1.52041 0
M  V30 2323 C 224.956 -1.56483 3.02863 0
M  V30 2324 H 226.149 0.24295 2.98914 0
M  V30 2325 H 223.702 0.163968 1.55438 0
M  V30 2326 H 224.437 -2.24567 2.33967 0
M  V30 2327 H 224.222 -1.16211 3.74483 0
M  V30 2328 H 225.712 -2.13951 3.58629 0
M  V30 2329 N 226.149 -1.5696 0.141893 0
M  V30 2330 C 227.395 -1.9625 -0.511248 0
M  V30 2331 C 227.728 -1.02654 -1.64851 0
M  V30 2332 O 227.003 -0.0679676 -1.94381 0
M  V30 2333 C 227.286 -3.45285 -1.02227 0
M  V30 2334 C 227.139 -4.49658 0.113138 0
M  V30 2335 C 228.458 -3.96698 -1.90574 0
M  V30 2336 H 225.577 -0.713567 -0.184367 0
M  V30 2337 H 228.219 -1.88698 0.222087 0
M  V30 2338 H 226.369 -3.51852 -1.64719 0
M  V30 2339 H 228.041 -4.55174 0.749302 0
M  V30 2340 H 226.284 -4.26857 0.773026 0
M  V30 2341 H 226.955 -5.51258 -0.286053 0
M  V30 2342 H 229.431 -3.92578 -1.37918 0
M  V30 2343 H 228.307 -5.01453 -2.2324 0
M  V30 2344 H 228.568 -3.3875 -2.84079 0
M  V30 2345 N 227.627 0.131896 -1.57047 0
M  V30 2346 C 228.857 0.855219 -1.88068 0
M  V30 2347 C 229.265 1.74557 -0.729817 0
M  V30 2348 O 228.608 1.81083 0.308962 0
M  V30 2349 C 228.67 1.75119 -3.13964 0
M  V30 2350 C 228.334 1.03646 -4.45091 0
M  V30 2351 C 229.331 0.383276 -5.18485 0
M  V30 2352 C 227.016 1.02148 -4.91804 0
M  V30 2353 C 229.01 -0.275347 -6.36805 0
M  V30 2354 C 226.697 0.359047 -6.10044 0
M  V30 2355 C 227.695 -0.288222 -6.82392 0
M  V30 2356 O 227.383 -0.94011 -7.98384 0
M  V30 2357 H 227.115 0.251864 -0.627328 0
M  V30 2358 H 229.669 0.124782 -2.05021 0
M  V30 2359 H 227.899 2.52295 -2.9306 0
M  V30 2360 H 229.588 2.3478 -3.31109 0
M  V30 2361 H 230.354 0.386562 -4.83457 0
M  V30 2362 H 226.233 1.5147 -4.35405 0
M  V30 2363 H 229.777 -0.781148 -6.93213 0
M  V30 2364 H 225.674 0.35348 -6.44531 0
M  V30 2365 H 226.442 -0.84329 -8.14144 0
M  V30 2366 N 229.106 1.52395 0.401703 0
M  V30 2367 C 230.354 1.66488 1.14569 0
M  V30 2368 C 230.675 0.400897 1.90835 0
M  V30 2369 O 229.945 -0.584415 1.8698 0
M  V30 2370 H 228.525 0.613672 0.425929 0
M  V30 2371 H 231.187 1.89464 0.457093 0
M  V30 2372 H 230.283 2.50942 1.85566 0
M  V30 2373 N 230.584 -0.659388 1.43143 0
M  V30 2374 C 231.812 -1.44723 1.47861 0
M  V30 2375 C 232.227 -1.88563 0.0945886 0
M  V30 2376 O 231.584 -1.59108 -0.893915 0
M  V30 2377 C 231.635 -2.68627 2.41913 0
M  V30 2378 O 231.356 -2.26623 3.74932 0
M  V30 2379 C 232.857 -3.62045 2.55809 0
M  V30 2380 H 230.077 -0.444801 0.502387 0
M  V30 2381 H 232.621 -0.808916 1.87821 0
M  V30 2382 H 230.776 -3.28613 2.05164 0
M  V30 2383 H 231.19 -3.06745 4.2545 0
M  V30 2384 H 232.664 -4.45666 3.25708 0
M  V30 2385 H 233.141 -4.08981 1.60099 0
M  V30 2386 H 233.747 -3.07944 2.93344 0
M  V30 2387 N 232.062 -1.29571 -0.897171 0
M  V30 2388 C 233.339 -1.08365 -1.62839 0
M  V30 2389 C 233.719 0.371331 -2.07808 0
M  V30 2390 O 233.067 1.3606 -1.83576 0
M  V30 2391 C 233.277 -2.0735 -2.80726 0
M  V30 2392 C 234.625 -2.38406 -3.51351 0
M  V30 2393 O 235.649 -2.05564 -2.90898 0
M  V30 2394 O 234.508 -2.9453 -4.60341 0
M  V30 2395 H 231.602 -0.415345 -0.715134 0
M  V30 2396 H 234.148 -1.40952 -0.945018 0
M  V30 2397 H 232.92 -3.05339 -2.44711 0
M  V30 2398 H 232.543 -1.75507 -3.56767 0
M  V30 2399 N 233.54 1.10788 -1.12088 0
M  V30 2400 C 234.47 2.19083 -0.807755 0
M  V30 2401 C 235.451 1.6858 0.226859 0
M  V30 2402 O 236.636 1.93997 0.0888475 0
M  V30 2403 C 233.766 3.46344 -0.257576 0
M  V30 2404 C 232.72 4.101 -1.22483 0
M  V30 2405 C 232.046 5.32016 -0.535052 0
M  V30 2406 C 233.346 4.54236 -2.57811 0
M  V30 2407 H 235.04 2.45534 -1.71328 0
M  V30 2408 H 232.586 1.1801 -0.825205 0
M  V30 2409 H 234.539 4.21392 -0.0262679 0
M  V30 2410 H 233.263 3.19373 0.683278 0
M  V30 2411 H 231.922 3.37054 -1.44189 0
M  V30 2412 H 231.57 5.01319 0.410827 0
M  V30 2413 H 231.27 5.75625 -1.18024 0
M  V30 2414 H 232.794 6.09799 -0.312695 0
M  V30 2415 H 234.208 5.20575 -2.40155 0
M  V30 2416 H 232.605 5.08682 -3.18375 0
M  V30 2417 H 233.675 3.6734 -3.16528 0
M  V30 2418 N 235.018 0.912232 1.28515 0
M  V30 2419 C 235.981 0.404223 2.25607 0
M  V30 2420 C 236.981 -0.468602 1.53821 0
M  V30 2421 O 238.171 -0.271873 1.72065 0
M  V30 2422 C 235.303 -0.420653 3.38295 0
M  V30 2423 H 236.496 1.26188 2.7206 0
M  V30 2424 H 234.049 0.691495 1.40171 0
M  V30 2425 H 234.784 -1.29777 2.97201 0
M  V30 2426 H 234.569 0.204935 3.91564 0
M  V30 2427 H 236.059 -0.766971 4.10496 0
M  V30 2428 N 236.496 -1.42363 0.676048 0
M  V30 2429 C 237.742 -2.02336 0.207809 0
M  V30 2430 C 238.097 -1.52506 -1.17302 0
M  V30 2431 O 237.39 -0.718048 -1.77636 0
M  V30 2432 C 237.584 -3.56929 0.183431 0
M  V30 2433 C 237.413 -4.21762 1.56036 0
M  V30 2434 C 236.183 -4.56881 2.15842 0
M  V30 2435 C 238.381 -4.49267 2.50327 0
M  V30 2436 N 236.363 -5.069 3.46303 0
M  V30 2437 C 237.734 -5.00851 3.65443 0
M  V30 2438 C 239.789 -4.31257 2.48841 0
M  V30 2439 C 238.492 -5.36317 4.79329 0
M  V30 2440 C 240.518 -4.678 3.61824 0
M  V30 2441 C 239.88 -5.19537 4.75668 0
M  V30 2442 H 235.979 -0.772583 0.120993 0
M  V30 2443 H 238.563 -1.73203 0.889306 0
M  V30 2444 H 236.734 -3.85576 -0.467483 0
M  V30 2445 H 238.466 -4.03603 -0.297808 0
M  V30 2446 H 235.221 -4.4268 1.68319 0
M  V30 2447 H 235.645 -5.36338 4.13123 0
M  V30 2448 H 240.287 -3.90511 1.62051 0
M  V30 2449 H 238.005 -5.75995 5.66794 0
M  V30 2450 H 241.591 -4.55541 3.61903 0
M  V30 2451 H 240.471 -5.47287 5.61646 0
M  V30 2452 N 237.974 -0.419461 -1.51915 0
M  V30 2453 C 239.22 0.153166 -2.02221 0
M  V30 2454 C 239.553 1.43907 -1.30401 0
M  V30 2455 O 238.828 1.90055 -0.413438 0
M  V30 2456 C 239.111 0.390291 -3.57979 0
M  V30 2457 C 238.964 -0.913014 -4.40436 0
M  V30 2458 C 240.283 1.16794 -4.2432 0
M  V30 2459 H 237.402 0.0541924 -0.735005 0
M  V30 2460 H 240.044 -0.554955 -1.81715 0
M  V30 2461 H 238.194 0.993491 -3.75582 0
M  V30 2462 H 239.866 -1.54882 -4.34522 0
M  V30 2463 H 238.109 -1.52168 -4.06236 0
M  V30 2464 H 238.78 -0.701361 -5.47526 0
M  V30 2465 H 241.256 0.657161 -4.10878 0
M  V30 2466 H 240.132 1.3026 -5.3322 0
M  V30 2467 H 240.393 2.19132 -3.83971 0
M  V30 2468 N 239.452 1.56882 -0.150215 0
M  V30 2469 C 240.382 2.19935 0.784284 0
M  V30 2470 C 241.363 1.14854 1.25469 0
M  V30 2471 O 242.548 1.43209 1.31168 0
M  V30 2472 C 239.678 2.82349 2.02229 0
M  V30 2473 C 238.632 3.93285 1.68853 0
M  V30 2474 C 237.958 4.42649 2.99944 0
M  V30 2475 C 239.258 5.13904 0.932714 0
M  V30 2476 H 240.952 2.9828 0.258781 0
M  V30 2477 H 238.498 1.43473 0.123029 0
M  V30 2478 H 240.451 3.25126 2.68088 0
M  V30 2479 H 239.175 2.0134 2.57157 0
M  V30 2480 H 237.834 3.5113 1.05371 0
M  V30 2481 H 237.482 3.58458 3.52869 0
M  V30 2482 H 237.182 5.17476 2.78374 0
M  V30 2483 H 238.706 4.88099 3.66868 0
M  V30 2484 H 240.12 5.53506 1.49345 0
M  V30 2485 H 238.517 5.94515 0.81684 0
M  V30 2486 H 239.587 4.84842 -0.0749568 0
M  V30 2487 N 240.93 -0.123565 1.57115 0
M  V30 2488 C 241.877 -1.15177 2.00007 0
M  V30 2489 C 242.847 -1.41403 0.871454 0
M  V30 2490 O 244.032 -1.53346 1.13533 0
M  V30 2491 C 241.172 -2.47436 2.40561 0
M  V30 2492 C 240.285 -2.28184 3.66819 0
M  V30 2493 C 239.42 -3.53641 3.96373 0
M  V30 2494 C 238.459 -3.29528 5.15827 0
M  V30 2495 N 237.596 -4.47175 5.41275 0
M  V30 2496 H 242.436 -0.779008 2.87638 0
M  V30 2497 H 239.973 -0.373166 1.42288 0
M  V30 2498 H 241.931 -3.24584 2.62109 0
M  V30 2499 H 240.561 -2.82614 1.55978 0
M  V30 2500 H 239.613 -1.41976 3.52912 0
M  V30 2501 H 240.925 -2.0634 4.5412 0
M  V30 2502 H 240.079 -4.39209 4.18545 0
M  V30 2503 H 238.818 -3.78512 3.07538 0
M  V30 2504 H 237.823 -2.42349 4.93505 0
M  V30 2505 H 239.048 -3.06031 6.06236 0
M  V30 2506 H 236.994 -4.72175 4.55397 0
M  V30 2507 H 236.911 -4.28419 6.22891 0
M  V30 2508 H 238.179 -5.3389 5.67963 0
M  V30 2509 N 242.408 -1.52605 -0.393616 0
M  V30 2510 C 243.358 -1.73436 -1.48 0
M  V30 2511 C 244.342 -0.588386 -1.49756 0
M  V30 2512 O 245.534 -0.846047 -1.5547 0
M  V30 2513 C 242.663 -1.90247 -2.85764 0
M  V30 2514 C 241.749 -3.10763 -2.88595 0
M  V30 2515 N 242.14 -4.33196 -2.61103 0
M  V30 2516 C 240.438 -3.10914 -3.19763 0
M  V30 2517 C 241.139 -5.1477 -2.70899 0
M  V30 2518 N 240.115 -4.50356 -3.04435 0
M  V30 2519 H 243.917 -2.65727 -1.25563 0
M  V30 2520 H 241.431 -1.5085 -0.601513 0
M  V30 2521 H 243.428 -2.03291 -3.63976 0
M  V30 2522 H 242.088 -0.991663 -3.09186 0
M  V30 2523 H 243.099 -4.61408 -2.35209 0
M  V30 2524 H 239.776 -2.29626 -3.4868 0
M  V30 2525 H 241.166 -6.22355 -2.53227 0
M  V30 2526 N 243.887 0.651787 -1.4349 0
M  V30 2527 C 245.134 1.41167 -1.45183 0
M  V30 2528 C 245.462 1.94349 -0.0766601 0
M  V30 2529 O 244.717 1.72804 0.918555 0
M  V30 2530 C 245.016 2.60914 -2.44251 0
M  V30 2531 C 244.682 2.26142 -3.9009 0
M  V30 2532 C 243.344 2.16371 -4.2981 0
M  V30 2533 C 245.696 1.98334 -4.81989 0
M  V30 2534 C 243.024 1.7695 -5.5938 0
M  V30 2535 C 245.376 1.6041 -6.11924 0
M  V30 2536 C 244.04 1.49166 -6.5062 0
M  V30 2537 H 243.31 0.516566 -0.531263 0
M  V30 2538 H 245.957 0.741099 -1.76579 0
M  V30 2539 H 244.262 3.3311 -2.06265 0
M  V30 2540 H 245.959 3.19127 -2.42815 0
M  V30 2541 H 242.549 2.34658 -3.58655 0
M  V30 2542 H 246.733 2.04803 -4.52072 0
M  V30 2543 H 241.989 1.66831 -5.88198 0
M  V30 2544 H 246.163 1.37925 -6.82605 0
M  V30 2545 H 243.79 1.1839 -7.50925 0
M  V30 2546 N 245.365 1.30045 0.890287 0
M  V30 2547 C 246.59 1.21598 1.68014 0
M  V30 2548 C 247.015 -0.218678 1.86825 0
M  V30 2549 O 246.373 -1.15756 1.39536 0
M  V30 2550 C 246.421 1.94434 3.03691 0
M  V30 2551 O 245.525 1.2678 3.92429 0
M  V30 2552 H 244.866 0.420856 0.513592 0
M  V30 2553 H 247.396 1.71775 1.11151 0
M  V30 2554 H 247.406 2.03251 3.5377 0
M  V30 2555 H 246.081 2.98777 2.89318 0
M  V30 2556 H 244.658 1.26282 3.50866 0
M  V30 2557 N 246.843 -1.10192 1.12674 0
M  V30 2558 C 248.12 -1.78717 0.794965 0
M  V30 2559 C 248.5 -1.98628 -0.714853 0
M  V30 2560 O 247.848 -1.58135 -1.64941 0
M  V30 2561 C 248.058 -3.11546 1.5729 0
M  V30 2562 C 249.406 -3.86382 1.76052 0
M  V30 2563 O 250.43 -3.21274 1.53823 0
M  V30 2564 O 249.289 -5.03246 2.13087 0
M  V30 2565 H 246.383 -0.774702 0.289423 0
M  V30 2566 H 248.929 -1.16819 1.23091 0
M  V30 2567 H 247.701 -2.92489 2.59935 0
M  V30 2568 H 247.324 -3.81164 1.13137 0
M  V30 2569 N 248.321 -0.919034 -1.28029 0
M  V30 2570 C 249.251 -0.428581 -2.29533 0
M  V30 2571 C 250.232 0.50659 -1.62381 0
M  V30 2572 O 251.417 0.413195 -1.89753 0
M  V30 2573 C 248.547 0.327388 -3.45753 0
M  V30 2574 C 247.501 -0.519137 -4.2484 0
M  V30 2575 C 246.827 0.365486 -5.33449 0
M  V30 2576 C 248.127 -1.77914 -4.91064 0
M  V30 2577 H 249.821 -1.27687 -2.70807 0
M  V30 2578 H 247.367 -0.615428 -1.30186 0
M  V30 2579 H 249.32 0.681378 -4.15855 0
M  V30 2580 H 248.044 1.20963 -3.03374 0
M  V30 2581 H 246.703 -0.855717 -3.56473 0
M  V30 2582 H 246.351 1.24642 -4.87312 0
M  V30 2583 H 246.051 -0.197356 -5.87268 0
M  V30 2584 H 247.575 0.715241 -6.06396 0
M  V30 2585 H 248.989 -1.49374 -5.53498 0
M  V30 2586 H 247.386 -2.2848 -5.54903 0
M  V30 2587 H 248.456 -2.50382 -4.15255 0
M  V30 2588 N 249.799 1.42003 -0.683588 0
M  V30 2589 C 250.709 2.34597 -0.0109075 0
M  V30 2590 C 251.725 1.55576 0.779245 0
M  V30 2591 O 252.901 1.88107 0.719555 0
M  V30 2592 C 249.966 3.34199 0.922588 0
M  V30 2593 C 249.027 4.29115 0.125984 0
M  V30 2594 C 248.26 5.23959 1.01502 0
M  V30 2595 O 248.483 5.23952 2.25456 0
M  V30 2596 O 247.417 6.00053 0.47111 0
M  V30 2597 H 251.243 2.93675 -0.773853 0
M  V30 2598 H 248.828 1.42654 -0.443861 0
M  V30 2599 H 250.71 3.95365 1.45823 0
M  V30 2600 H 249.385 2.77582 1.66523 0
M  V30 2601 H 248.292 3.71335 -0.453969 0
M  V30 2602 H 249.625 4.88798 -0.577736 0
M  V30 2603 N 251.277 0.427512 1.51691 0
M  V30 2604 C 252.688 -0.0378867 1.86662 0
M  V30 2605 C 253.039 -1.42819 1.34525 0
M  V30 2606 O 252.164 -2.05037 0.692014 0
M  V30 2607 C 252.759 -0.0755266 3.38716 0
M  V30 2608 C 251.318 -0.485309 3.73258 0
M  V30 2609 C 250.465 0.328399 2.75349 0
M  V30 2610 H 253.416 0.64379 1.45055 0
M  V30 2611 H 253.437 -0.887056 3.70016 0
M  V30 2612 H 252.949 0.936487 3.76632 0
M  V30 2613 H 251.05 -1.50329 3.40928 0
M  V30 2614 H 251.163 -0.21693 4.78609 0
M  V30 2615 H 249.527 -0.211905 2.53817 0
M  V30 2616 H 250.31 1.3391 3.16106 0
M  V30 2617 N 252.755 -1.56801 0.158532 0
M  V30 2618 C 253.98 -2.01295 -0.499516 0
M  V30 2619 C 254.405 -1.03799 -1.56867 0
M  V30 2620 O 253.763 -0.0155162 -1.81293 0
M  V30 2621 C 253.811 -3.44469 -1.06647 0
M  V30 2622 O 252.915 -3.50012 -2.18095 0
M  V30 2623 H 252.256 -0.652884 -0.12099 0
M  V30 2624 H 254.786 -2.02958 0.258661 0
M  V30 2625 H 254.796 -3.8351 -1.39227 0
M  V30 2626 H 253.471 -4.14932 -0.283581 0
M  V30 2627 H 252.048 -3.22822 -1.86656 0
M  V30 2628 N 254.233 0.115231 -1.57178 0
M  V30 2629 C 255.482 0.820945 -1.84237 0
M  V30 2630 C 255.795 1.80866 -0.744761 0
M  V30 2631 O 257.001 2.56083 -0.901871 0
M  V30 2632 C 255.457 1.51072 -3.26658 0
M  V30 2633 C 255.065 0.563795 -4.44438 0
M  V30 2634 C 256.809 2.20134 -3.62962 0
M  V30 2635 C 254.716 1.25701 -5.77887 0
M  V30 2636 H 253.646 0.310328 -0.687177 0
M  V30 2637 H 256.297 0.0737134 -1.83352 0
M  V30 2638 H 254.679 2.30471 -3.22024 0
M  V30 2639 H 255.853 -0.197247 -4.60378 0
M  V30 2640 H 254.168 -0.0200638 -4.16395 0
M  V30 2641 H 256.765 2.72696 -4.59936 0
M  V30 2642 H 257.108 2.98107 -2.90582 0
M  V30 2643 H 257.641 1.47619 -3.69396 0
M  V30 2644 H 254.38 0.518493 -6.53446 0
M  V30 2645 H 253.9 1.98997 -5.65827 0
M  V30 2646 H 255.579 1.78915 -6.2177 0
M  V30 2647 N 255.711 1.52812 0.385517 0
M  V30 2648 C 256.674 1.77188 1.45386 0
M  V30 2649 C 257.674 0.641953 1.4743 0
M  V30 2650 O 258.864 0.910033 1.4854 0
M  V30 2651 C 255.996 1.87582 2.8465 0
M  V30 2652 H 257.189 2.72583 1.25054 0
M  V30 2653 H 254.742 1.43586 0.617467 0
M  V30 2654 H 255.477 0.941849 3.10322 0
M  V30 2655 H 255.262 2.69748 2.84567 0
M  V30 2656 H 256.752 2.08102 3.62054 0
M  V30 2657 N 257.189 -0.644168 1.43834 0
M  V30 2658 C 258.152 -1.73857 1.49353 0
M  V30 2659 C 259.152 -1.56315 0.377112 0
M  V30 2660 O 260.342 -1.62048 0.639226 0
M  V30 2661 C 257.474 -3.12819 1.35488 0
M  V30 2662 H 258.667 -1.70342 2.46827 0
M  V30 2663 H 256.22 -0.856652 1.30733 0
M  V30 2664 H 256.955 -3.2194 0.390569 0
M  V30 2665 H 256.74 -3.26958 2.16428 0
M  V30 2666 H 258.23 -3.92606 1.42302 0
M  V30 2667 N 258.668 -1.30515 -0.883378 0
M  V30 2668 C 259.6 -1.12846 -1.99496 0
M  V30 2669 C 260.613 -0.0712571 -1.62644 0
M  V30 2670 O 261.802 -0.317432 -1.75655 0
M  V30 2671 C 258.902 -0.699123 -3.3161 0
M  V30 2672 C 258.075 -1.83842 -3.96889 0
M  V30 2673 C 257.134 -1.39737 -5.07307 0
M  V30 2674 O 256.16 -2.10485 -5.28852 0
M  V30 2675 N 257.362 -0.277279 -5.79837 0
M  V30 2676 H 260.127 -2.08585 -2.15203 0
M  V30 2677 H 257.688 -1.22672 -1.05656 0
M  V30 2678 H 259.68 -0.387044 -4.02845 0
M  V30 2679 H 258.25 0.166276 -3.12157 0
M  V30 2680 H 257.47 -2.31853 -3.18807 0
M  V30 2681 H 258.758 -2.60187 -4.37241 0
M  V30 2682 H 258.156 0.3122 -5.64838 0
M  V30 2683 H 256.713 -0.0246623 -6.51795 0
M  V30 2684 N 260.146 1.09593 -1.13257 0
M  V30 2685 C 261.395 1.81105 -0.887917 0
M  V30 2686 C 261.708 1.86563 0.587672 0
M  V30 2687 O 262.914 2.54367 0.949204 0
M  V30 2688 C 261.37 3.25338 -1.53895 0
M  V30 2689 C 260.978 3.28151 -3.04994 0
M  V30 2690 C 262.722 4.01617 -1.37492 0
M  V30 2691 C 260.629 4.66897 -3.6299 0
M  V30 2692 H 259.559 0.678661 -0.328534 0
M  V30 2693 H 262.21 1.23183 -1.36008 0
M  V30 2694 H 260.592 3.8331 -0.994446 0
M  V30 2695 H 261.766 2.79953 -3.66009 0
M  V30 2696 H 260.081 2.65361 -3.20893 0
M  V30 2697 H 262.678 5.04119 -1.78235 0
M  V30 2698 H 263.021 4.15072 -0.31957 0
M  V30 2699 H 263.554 3.50082 -1.88912 0
M  V30 2700 H 260.293 4.58643 -4.68323 0
M  V30 2701 H 259.813 5.15426 -3.06752 0
M  V30 2702 H 261.492 5.3587 -3.62563 0
M  V30 2703 N 261.624 0.925811 1.2754 0
M  V30 2704 C 262.534 0.428993 2.30644 0
M  V30 2705 C 263.55 -0.489387 1.66976 0
M  V30 2706 O 264.726 -0.372653 1.97922 0
M  V30 2707 C 261.791 -0.311967 3.45294 0
M  V30 2708 C 260.852 0.641098 4.24486 0
M  V30 2709 C 260.085 -0.0645955 5.33661 0
M  V30 2710 O 260.308 -1.28429 5.55754 0
M  V30 2711 O 259.242 0.606265 5.98839 0
M  V30 2712 H 263.068 1.28504 2.75173 0
M  V30 2713 H 260.653 0.691086 1.32455 0
M  V30 2714 H 262.535 -0.729972 4.15029 0
M  V30 2715 H 261.21 -1.14365 3.02824 0
M  V30 2716 H 260.117 1.10874 3.57292 0
M  V30 2717 H 261.45 1.43995 4.70666 0
M  V30 2718 N 263.102 -1.41638 0.69111 0
M  V30 2719 C 264.05 -2.32597 0.0115199 0
M  V30 2720 C 265.044 -1.5072 -0.773296 0
M  V30 2721 O 266.25 -1.66685 -0.67942 0
M  V30 2722 H 262.625 -0.751849 -0.0150746 0
M  V30 2723 H 264.596 -2.87593 0.795791 0
M  V30 2724 C 263.345 -3.35467 -0.914172 0
M  V30 2725 H 262.668 -3.9852 -0.319687 0
M  V30 2726 H 264.108 -4.01662 -1.35808 0
M  V30 2727 C 262.567 -2.69004 -2.02826 0
M  V30 2728 O 263.097 -2.53444 -3.11655 0
M  V30 2729 N 261.303 -2.2777 -1.80469 0
M  V30 2730 H 260.85 -2.40626 -0.919615 0
M  V30 2731 H 260.808 -1.83635 -2.55197 0
M  V30 2732 N 264.58 -0.43555 -1.51462 0
M  V30 2733 C 265.857 0.191364 -1.94662 0
M  V30 2734 C 266.237 1.60254 -1.37411 0
M  V30 2735 O 265.585 2.2152 -0.560458 0
M  V30 2736 C 265.795 0.17091 -3.48581 0
M  V30 2737 C 267.143 0.377357 -4.2292 0
M  V30 2738 O 268.167 0.249104 -3.55328 0
M  V30 2739 O 267.026 0.63247 -5.42828 0
M  V30 2740 H 264.12 0.130932 -0.816569 0
M  V30 2741 H 266.666 -0.4934 -1.62369 0
M  V30 2742 H 265.438 -0.815738 -3.82703 0
M  V30 2743 H 265.061 0.898659 -3.87311 0
M  V30 2744 N 266.058 1.56714 -0.166846 0
M  V30 2745 C 267.021 2.16539 0.751232 0
M  V30 2746 C 268.021 1.11228 1.16125 0
M  V30 2747 O 269.211 1.36765 1.07894 0
M  V30 2748 C 266.343 2.74462 2.02196 0
M  V30 2749 H 267.536 2.99013 0.230499 0
M  V30 2750 H 265.089 1.56081 0.0826982 0
M  V30 2751 H 265.824 1.95709 2.58589 0
M  V30 2752 H 265.609 3.51527 1.73698 0
M  V30 2753 H 267.099 3.20489 2.67725 0
M  V30 2754 N 267.536 -0.106894 1.57237 0
M  V30 2755 C 268.484 -1.14944 2.02215 0
M  V30 2756 C 269.478 -1.42167 0.92114 0
M  V30 2757 O 270.684 -1.41987 1.10634 0
M  V30 2758 H 267.059 -0.387841 0.64427 0
M  V30 2759 H 269.03 -0.743683 2.88984 0
M  V30 2760 C 267.779 -2.4647 2.4525 0
M  V30 2761 H 267.102 -2.26363 3.29545 0
M  V30 2762 H 268.542 -3.17948 2.80508 0
M  V30 2763 C 267.001 -3.09921 1.321 0
M  V30 2764 O 267.531 -3.9651 0.643622 0
M  V30 2765 N 265.737 -2.69986 1.07497 0
M  V30 2766 H 265.284 -1.99667 1.62761 0
M  V30 2767 H 265.242 -3.12769 0.319876 0
M  V30 2768 N 269.014 -1.53014 -0.377408 0
M  V30 2769 C 269.977 -1.77957 -1.44444 0
M  V30 2770 C 270.977 -0.649763 -1.47087 0
M  V30 2771 O 272.167 -0.917897 -1.48055 0
M  V30 2772 C 269.299 -1.89089 -2.83651 0
M  V30 2773 H 270.492 -2.73243 -1.23606 0
M  V30 2774 H 268.045 -1.43912 -0.609844 0
M  V30 2775 H 268.78 -0.958293 -3.09818 0
M  V30 2776 H 268.565 -2.71254 -2.83132 0
M  V30 2777 H 270.055 -2.1002 -3.60945 0
M  V30 2778 N 270.492 0.636531 -1.44174 0
M  V30 2779 C 271.455 1.73063 -1.50273 0
M  V30 2780 C 272.455 1.56113 -0.385397 0
M  V30 2781 O 273.645 1.61707 -0.64781 0
M  V30 2782 C 270.777 3.12096 -1.37145 0
M  V30 2783 H 271.97 1.69031 -2.47727 0
M  V30 2784 H 269.523 0.849706 -1.31186 0
M  V30 2785 H 270.258 3.21728 -0.407636 0
M  V30 2786 H 270.043 3.25805 -2.18159 0
M  V30 2787 H 271.533 3.91846 -1.44382 0
M  V30 2788 N 271.97 1.30982 0.876444 0
M  V30 2789 C 272.917 1.18085 1.98304 0
M  V30 2790 C 273.887 0.0682263 1.6596 0
M  V30 2791 O 275.072 0.239937 1.89285 0
M  V30 2792 C 272.212 0.887475 3.33493 0
M  V30 2793 C 271.325 2.08281 3.78475 0
M  V30 2794 C 270.46 1.72678 5.0235 0
M  V30 2795 C 269.499 2.88657 5.39762 0
M  V30 2796 N 268.636 2.53292 6.54819 0
M  V30 2797 H 273.476 2.1275 2.08666 0
M  V30 2798 H 271.013 1.05839 1.02159 0
M  V30 2799 H 272.971 0.697961 4.1132 0
M  V30 2800 H 271.601 -0.022315 3.22792 0
M  V30 2801 H 270.653 2.3833 2.96484 0
M  V30 2802 H 271.965 2.95108 4.02135 0
M  V30 2803 H 271.119 1.50151 5.87826 0
M  V30 2804 H 269.858 0.830327 4.8058 0
M  V30 2805 H 268.863 3.1184 4.52809 0
M  V30 2806 H 270.088 3.79002 5.63502 0
M  V30 2807 H 268.034 1.66163 6.34607 0
M  V30 2808 H 267.951 3.3365 6.7839 0
M  V30 2809 H 269.219 2.34143 7.43503 0
M  V30 2810 N 273.449 -1.08991 1.13837 0
M  V30 2811 C 274.865 -1.33312 0.877506 0
M  V30 2812 C 275.065 -1.95587 -0.48456 0
M  V30 2813 O 274.121 -2.20509 -1.23013 0
M  V30 2814 C 275.434 -2.24045 2.0056 0
M  V30 2815 C 276.982 -2.37542 2.03821 0
M  V30 2816 C 277.457 -3.31614 3.15905 0
M  V30 2817 N 278.948 -3.39189 3.15445 0
M  V30 2818 C 279.683 -4.11992 3.98811 0
M  V30 2819 N 279.179 -4.87553 4.92203 0
M  V30 2820 N 280.972 -4.07762 3.86894 0
M  V30 2821 H 273.123 -0.669456 2.01574 0
M  V30 2822 H 275.386 -0.357482 0.878015 0
M  V30 2823 H 275.092 -1.85521 2.98789 0
M  V30 2824 H 274.966 -3.24466 1.92359 0
M  V30 2825 H 277.353 -2.75327 1.06202 0
M  V30 2826 H 277.434 -1.36884 2.16093 0
M  V30 2827 H 277.078 -2.94551 4.13766 0
M  V30 2828 H 277.008 -4.32186 3.0087 0
M  V30 2829 H 279.499 -2.85314 2.47799 0
M  V30 2830 H 279.812 -5.40549 5.52292 0
M  V30 2831 H 278.157 -4.86627 4.96205 0
M  V30 2832 H 281.348 -3.47833 3.13257 0
M  V30 2833 H 281.521 -4.64238 4.52092 0
M  V30 2834 N 274.927 -0.932562 -1.27047 0
M  V30 2835 C 275.837 -0.441219 -2.30414 0
M  V30 2836 C 276.853 0.480525 -1.67233 0
M  V30 2837 O 278.029 0.362151 -1.98117 0
M  V30 2838 C 275.094 0.293651 -3.45454 0
M  V30 2839 C 274.155 -0.663601 -4.2414 0
M  V30 2840 C 273.388 0.0362932 -5.33688 0
M  V30 2841 O 273.611 1.2548 -5.56427 0
M  V30 2842 O 272.545 -0.638015 -5.98509 0
M  V30 2843 H 276.371 -1.29962 -2.74488 0
M  V30 2844 H 273.956 -0.6981 -1.32087 0
M  V30 2845 H 275.838 0.707951 -4.15411 0
M  V30 2846 H 274.513 1.12758 -3.03426 0
M  V30 2847 H 273.42 -1.12768 -3.56699 0
M  V30 2848 H 274.753 -1.46489 -4.69896 0
M  V30 2849 N 276.405 1.4127 -0.698611 0
M  V30 2850 C 277.63 2.06024 -0.238512 0
M  V30 2851 C 278.055 1.5224 1.10475 0
M  V30 2852 O 277.413 0.650623 1.69223 0
M  V30 2853 C 277.461 3.59988 -0.209952 0
M  V30 2854 O 276.565 4.04282 0.814235 0
M  V30 2855 H 275.906 0.653829 -0.115775 0
M  V30 2856 H 278.436 1.8098 -0.954326 0
M  V30 2857 H 278.446 4.07979 -0.0418436 0
M  V30 2858 H 277.121 3.98503 -1.1903 0
M  V30 2859 H 275.698 3.6779 0.615234 0
M  V30 2860 N 277.883 0.443576 1.51229 0
M  V30 2861 C 279.131 -0.120557 2.0174 0
M  V30 2862 C 279.452 -1.42665 1.32935 0
M  V30 2863 O 278.722 -1.9028 0.465866 0
M  V30 2864 H 277.302 -0.0475426 0.745486 0
M  V30 2865 H 279.964 0.587711 1.85828 0
M  V30 2866 H 279.06 -0.291972 3.10731 0
M  V30 2867 N 279.361 -1.56624 0.175154 0
M  V30 2868 C 280.601 -1.98894 -0.471221 0
M  V30 2869 C 280.965 -1.05889 -1.60161 0
M  V30 2870 O 282.166 -1.37315 -2.3108 0
M  V30 2871 C 280.437 -3.44865 -0.938241 0
M  V30 2872 S 281.996 -4.09164 -1.58526 0
M  V30 2873 H 278.814 -0.694686 -0.151434 0
M  V30 2874 H 281.416 -1.93577 0.27352 0
M  V30 2875 H 280.12 -4.10265 -0.10518 0
M  V30 2876 H 279.651 -3.53956 -1.71693 0
M  V30 2877 H 281.666 -4.04528 -2.87352 0
M  V30 2878 N 280.839 0.0985539 -1.57292 0
M  V30 2879 C 282.25 0.653457 -1.74891 0
M  V30 2880 C 282.601 1.7929 -0.796838 0
M  V30 2881 O 281.726 2.16385 0.0254886 0
M  V30 2882 C 282.321 1.19216 -3.17133 0
M  V30 2883 C 280.88 1.69316 -3.36168 0
M  V30 2884 C 280.027 0.601294 -2.70702 0
M  V30 2885 H 282.978 -0.127497 -1.58187 0
M  V30 2886 H 282.999 2.06154 -3.19814 0
M  V30 2887 H 282.511 0.362635 -3.86402 0
M  V30 2888 H 280.612 2.5468 -2.71972 0
M  V30 2889 H 280.725 1.78853 -4.44464 0
M  V30 2890 H 279.089 1.0399 -2.32504 0
M  V30 2891 H 279.872 -0.217592 -3.4261 0
M  V30 2892 N 282.317 1.53212 0.369288 0
M  V30 2893 C 283.227 1.82342 1.47609 0
M  V30 2894 C 284.243 0.711532 1.58787 0
M  V30 2895 O 285.419 1.0012 1.74751 0
M  V30 2896 C 282.484 2.00393 2.8292 0
M  V30 2897 C 281.545 3.24297 2.81301 0
M  V30 2898 C 280.778 3.41478 4.10157 0
M  V30 2899 O 281.001 2.63033 5.06132 0
M  V30 2900 O 279.935 4.34817 4.16194 0
M  V30 2901 H 283.761 2.76366 1.25918 0
M  V30 2902 H 281.346 1.38547 0.559034 0
M  V30 2903 H 283.228 2.13859 3.63101 0
M  V30 2904 H 281.903 1.09559 3.04596 0
M  V30 2905 H 280.81 3.16257 1.99831 0
M  V30 2906 H 282.143 4.15041 2.64578 0
M  V30 2907 N 283.795 -0.628877 1.44509 0
M  V30 2908 C 285.072 -1.38733 1.37886 0
M  V30 2909 C 285.452 -2.11065 0.0387008 0
M  V30 2910 O 284.8 -2.06476 -0.97878 0
M  V30 2911 C 285.01 -2.35188 2.57852 0
M  V30 2912 C 286.358 -2.9845 3.02014 0
M  V30 2913 O 287.382 -2.45513 2.58073 0
M  V30 2914 O 286.241 -3.94487 3.78209 0
M  V30 2915 H 283.335 -0.621015 0.54614 0
M  V30 2916 H 285.881 -0.653744 1.56602 0
M  V30 2917 H 284.653 -1.80855 3.46998 0
M  V30 2918 H 284.276 -3.1596 2.4136 0
M  V30 2919 N 285.273 -1.31445 -0.869486 0
M  V30 2920 C 286.223 -1.15731 -1.96444 0
M  V30 2921 C 287.207 -0.0681855 -1.60755 0
M  V30 2922 O 288.399 -0.293154 -1.74555 0
M  V30 2923 C 285.528 -0.867255 -3.32165 0
M  V30 2924 C 284.614 -1.99738 -3.74119 0
M  V30 2925 N 285.005 -3.24447 -3.88031 0
M  V30 2926 C 283.303 -1.89723 -4.03635 0
M  V30 2927 C 284.004 -3.98374 -4.23879 0
M  V30 2928 N 282.98 -3.26547 -4.3459 0
M  V30 2929 H 286.782 -2.10296 -2.05312 0
M  V30 2930 H 284.296 -1.23009 -1.06031 0
M  V30 2931 H 286.293 -0.735668 -4.10358 0
M  V30 2932 H 284.953 0.0701614 -3.24624 0
M  V30 2933 H 285.964 -3.59557 -3.72746 0
M  V30 2934 H 282.641 -1.03449 -4.04481 0
M  V30 2935 H 284.031 -5.05844 -4.42235 0
M  V30 2936 N 286.751 1.08385 -1.14413 0
M  V30 2937 C 288.162 1.62258 -0.923535 0
M  V30 2938 C 288.513 1.88691 0.537595 0
M  V30 2939 O 287.638 1.64454 1.40655 0
M  V30 2940 C 288.233 2.94781 -1.67002 0
M  V30 2941 C 286.792 3.45437 -1.495 0
M  V30 2942 C 285.939 2.19668 -1.69238 0
M  V30 2943 H 288.89 0.916086 -1.2959 0
M  V30 2944 H 288.911 3.63229 -1.13334 0
M  V30 2945 H 288.423 2.7551 -2.73342 0
M  V30 2946 H 286.524 3.6981 -0.455097 0
M  V30 2947 H 286.637 4.22173 -2.2651 0
M  V30 2948 H 285.001 2.28849 -1.11804 0
M  V30 2949 H 285.784 2.02905 -2.7692 0
M  V30 2950 N 288.23 0.939286 1.26551 0
M  V30 2951 C 289.16 0.465044 2.28822 0
M  V30 2952 C 290.141 -0.480692 1.63167 0
M  V30 2953 O 291.326 -0.382955 1.90387 0
M  V30 2954 C 288.456 -0.27234 3.46231 0
M  V30 2955 C 287.41 0.58666 4.2396 0
M  V30 2956 C 286.736 -0.280573 5.33963 0
M  V30 2957 C 288.036 1.85704 4.88171 0
M  V30 2958 H 289.73 1.31979 2.68741 0
M  V30 2959 H 287.276 0.636061 1.29191 0
M  V30 2960 H 289.229 -0.615133 4.16886 0
M  V30 2961 H 287.953 -1.16121 3.0526 0
M  V30 2962 H 286.612 0.91232 3.55067 0
M  V30 2963 H 286.26 -1.16874 4.89234 0
M  V30 2964 H 285.96 0.29076 5.8688 0
M  V30 2965 H 287.484 -0.618678 6.07458 0
M  V30 2966 H 288.898 1.58161 5.51052 0
M  V30 2967 H 287.295 2.37279 5.51197 0
M  V30 2968 H 288.365 2.56957 4.11219 0
M  V30 2969 N 289.708 -1.40897 0.706093 0
M  V30 2970 C 291.119 -1.84023 0.315052 0
M  V30 2971 C 291.47 -1.5906 -1.14866 0
M  V30 2972 O 290.595 -1.06651 -1.88293 0
M  V30 2973 C 291.19 -3.34055 0.565038 0
M  V30 2974 C 289.749 -3.7571 0.227806 0
M  V30 2975 C 288.896 -2.64204 0.842122 0
M  V30 2976 H 291.847 -1.303 0.905963 0
M  V30 2977 H 291.868 -3.80107 -0.172843 0
M  V30 2978 H 291.38 -3.52192 1.63042 0
M  V30 2979 H 289.481 -3.63172 -0.832895 0
M  V30 2980 H 289.594 -4.74103 0.690174 0
M  V30 2981 H 287.958 -2.53255 0.270893 0
M  V30 2982 H 288.741 -2.85155 1.91158 0
M  V30 2983 N 291.186 -0.45159 -1.50991 0
M  V30 2984 C 292.116 0.342898 -2.30969 0
M  V30 2985 C 293.097 1.00815 -1.37005 0
M  V30 2986 O 294.282 1.00907 -1.65926 0
M  V30 2987 C 291.412 1.43637 -3.16205 0
M  V30 2988 C 290.366 0.893818 -4.18563 0
M  V30 2989 C 289.692 2.08411 -4.92411 0
M  V30 2990 C 290.992 -0.0815568 -5.22236 0
M  V30 2991 H 292.686 -0.324556 -2.97636 0
M  V30 2992 H 290.232 -0.157531 -1.43136 0
M  V30 2993 H 292.185 1.9995 -3.70942 0
M  V30 2994 H 290.909 2.13232 -2.47386 0
M  V30 2995 H 289.568 0.352798 -3.64898 0
M  V30 2996 H 289.216 2.76658 -4.20082 0
M  V30 2997 H 288.916 1.72741 -5.61636 0
M  V30 2998 H 290.44 2.65251 -5.49976 0
M  V30 2999 H 291.854 0.391742 -5.7196 0
M  V30 3000 H 290.251 -0.351551 -5.99069 0
M  V30 3001 H 291.321 -1.01374 -4.74185 0
M  V30 3002 N 292.664 1.56529 -0.183458 0
M  V30 3003 C 293.892 2.01623 0.464285 0
M  V30 3004 C 294.307 1.06366 1.55986 0
M  V30 3005 O 293.664 0.0665398 1.82379 0
M  V30 3006 C 293.715 3.46475 1.03139 0
M  V30 3007 O 293.436 4.38095 -0.0204675 0
M  V30 3008 C 294.937 4.0703 1.75617 0
M  V30 3009 H 292.157 0.660596 0.117704 0
M  V30 3010 H 294.701 2.02451 -0.288751 0
M  V30 3011 H 292.856 3.46383 1.73486 0
M  V30 3012 H 293.27 5.22973 0.399952 0
M  V30 3013 H 294.744 5.10271 2.10542 0
M  V30 3014 H 295.221 3.49819 2.65563 0
M  V30 3015 H 295.827 4.1086 1.09882 0
M  V30 3016 N 294.142 -0.090211 1.57342 0
M  V30 3017 C 295.089 -1.10909 2.02405 0
M  V30 3018 C 296.059 -1.39523 0.901252 0
M  V30 3019 O 297.244 -1.50903 1.1676 0
M  V30 3020 C 294.384 -2.42277 2.45755 0
M  V30 3021 C 293.497 -2.20352 3.71576 0
M  V30 3022 C 292.632 -3.45154 4.03785 0
M  V30 3023 C 291.671 -3.18512 5.22701 0
M  V30 3024 N 290.808 -4.35593 5.50639 0
M  V30 3025 H 295.648 -0.71782 2.89225 0
M  V30 3026 H 293.185 -0.342901 1.43048 0
M  V30 3027 H 295.143 -3.18951 2.68935 0
M  V30 3028 H 293.773 -2.79242 1.61938 0
M  V30 3029 H 292.825 -1.34458 3.55844 0
M  V30 3030 H 294.137 -1.96661 4.58395 0
M  V30 3031 H 293.291 -4.30233 4.27767 0
M  V30 3032 H 292.03 -3.71904 3.15498 0
M  V30 3033 H 291.035 -2.31827 4.98534 0
M  V30 3034 H 292.26 -2.93103 6.12591 0
M  V30 3035 H 290.206 -4.6241 4.6531 0
M  V30 3036 H 290.123 -4.1511 6.31838 0
M  V30 3037 H 291.391 -5.21723 5.7916 0
M  V30 3038 N 295.62 -1.53406 -0.361157 0
M  V30 3039 C 296.55 -1.83136 -1.44857 0
M  V30 3040 C 297.531 -0.685174 -1.5569 0
M  V30 3041 O 298.716 -0.93544 -1.70186 0
M  V30 3042 C 295.846 -2.02522 -2.82138 0
M  V30 3043 C 294.8 -3.18302 -2.86126 0
M  V30 3044 C 294.126 -3.22989 -4.26125 0
M  V30 3045 C 295.426 -4.56796 -2.53248 0
M  V30 3046 H 297.12 -2.74201 -1.20226 0
M  V30 3047 H 294.666 -1.31938 -0.576922 0
M  V30 3048 H 296.619 -2.21904 -3.58241 0
M  V30 3049 H 295.343 -1.08172 -3.08166 0
M  V30 3050 H 294.002 -2.98747 -2.12475 0
M  V30 3051 H 293.65 -2.26267 -4.49235 0
M  V30 3052 H 293.35 -4.00781 -4.29708 0
M  V30 3053 H 294.874 -3.44559 -5.04094 0
M  V30 3054 H 296.288 -4.7631 -3.19064 0
M  V30 3055 H 294.685 -5.36862 -2.68141 0
M  V30 3056 H 295.755 -4.61606 -1.48484 0
M  V30 3057 N 297.098 0.621204 -1.44841 0
M  V30 3058 C 298.347 1.37658 -1.47422 0
M  V30 3059 C 298.66 1.95264 -0.114629 0
M  V30 3060 O 299.866 2.71494 -0.0180199 0
M  V30 3061 C 298.322 2.49285 -2.59586 0
M  V30 3062 C 297.93 1.98149 -4.01797 0
M  V30 3063 C 299.674 3.26409 -2.71399 0
M  V30 3064 C 297.581 3.07178 -5.05367 0
M  V30 3065 H 296.511 0.517344 -0.548517 0
M  V30 3066 H 299.162 0.667257 -1.70938 0
M  V30 3067 H 297.544 3.22839 -2.29328 0
M  V30 3068 H 298.718 1.31395 -4.41669 0
M  V30 3069 H 297.033 1.33812 -3.94314 0
M  V30 3070 H 299.63 4.07706 -3.45948 0
M  V30 3071 H 299.973 3.76535 -1.77559 0
M  V30 3072 H 300.506 2.5995 -3.01116 0
M  V30 3073 H 297.245 2.61985 -6.00869 0
M  V30 3074 H 296.765 3.72542 -4.70077 0
M  V30 3075 H 298.444 3.71789 -5.29511 0
M  V30 3076 N 298.576 1.31904 0.862503 0
M  V30 3077 C 299.539 1.20131 1.95195 0
M  V30 3078 C 300.539 0.126409 1.60302 0
M  V30 3079 O 301.729 0.376234 1.70089 0
M  V30 3080 C 298.861 0.845691 3.30244 0
M  V30 3081 H 300.054 2.16943 2.07064 0
M  V30 3082 H 297.607 1.15622 1.05172 0
M  V30 3083 H 298.342 -0.120957 3.24074 0
M  V30 3084 H 298.127 1.62276 3.56944 0
M  V30 3085 H 299.617 0.787418 4.10109 0
M  V30 3086 N 300.054 -1.07777 1.14986 0
M  V30 3087 C 301.001 -2.14867 0.842672 0
M  V30 3088 C 301.971 -1.6486 -0.202552 0
M  V30 3089 O 303.156 -1.90668 -0.0710568 0
M  V30 3090 C 300.296 -3.43486 0.333363 0
M  V30 3091 C 299.409 -4.07306 1.43965 0
M  V30 3092 C 298.544 -5.23744 0.886914 0
M  V30 3093 C 297.583 -5.79517 1.97043 0
M  V30 3094 N 296.72 -6.87291 1.4344 0
M  V30 3095 H 301.56 -2.40485 1.75986 0
M  V30 3096 H 299.097 -1.1801 0.878179 0
M  V30 3097 H 301.055 -4.17195 0.0198163 0
M  V30 3098 H 299.685 -3.18133 -0.546916 0
M  V30 3099 H 298.737 -3.31293 1.86946 0
M  V30 3100 H 300.049 -4.44771 2.25788 0
M  V30 3101 H 299.203 -6.04419 0.525651 0
M  V30 3102 H 297.942 -4.87685 0.0377957 0
M  V30 3103 H 296.947 -4.97491 2.34057 0
M  V30 3104 H 298.172 -6.17632 2.82325 0
M  V30 3105 H 296.118 -6.5318 0.607567 0
M  V30 3106 H 296.035 -7.23617 2.18895 0
M  V30 3107 H 297.303 -7.71682 1.10124 0
M  V30 3108 N 301.532 -0.945985 -1.26051 0
M  V30 3109 C 302.495 -0.463897 -2.24456 0
M  V30 3110 C 303.495 0.427655 -1.55009 0
M  V30 3111 O 304.685 0.226157 -1.72726 0
M  V30 3112 C 301.817 0.330812 -3.39291 0
M  V30 3113 H 303.01 -1.33357 -2.68619 0
M  V30 3114 H 300.563 -0.728416 -1.38289 0
M  V30 3115 H 301.298 1.21852 -3.00537 0
M  V30 3116 H 301.083 -0.308679 -3.90883 0
M  V30 3117 H 302.573 0.657865 -4.12386 0
M  V30 3118 N 303.011 1.40521 -0.713556 0
M  V30 3119 C 304.26 2.00155 -0.249192 0
M  V30 3120 C 304.573 1.57224 1.16362 0
M  V30 3121 O 305.779 2.09542 1.72639 0
M  V30 3122 C 304.235 3.5773 -0.3946 0
M  V30 3123 C 303.843 4.09635 -1.81392 0
M  V30 3124 C 305.587 4.24499 0.00907364 0
M  V30 3125 C 303.494 5.59707 -1.91003 0
M  V30 3126 H 302.424 0.74868 -0.0894114 0
M  V30 3127 H 305.075 1.60784 -0.884352 0
M  V30 3128 H 303.457 3.94792 0.30911 0
M  V30 3129 H 304.631 3.83955 -2.54785 0
M  V30 3130 H 302.946 3.55456 -2.16888 0
M  V30 3131 H 305.543 5.34683 -0.0420404 0
M  V30 3132 H 305.886 4.02824 1.05065 0
M  V30 3133 H 306.419 3.92536 -0.645007 0
M  V30 3134 H 303.158 5.86234 -2.93275 0
M  V30 3135 H 302.678 5.87258 -1.22019 0
M  V30 3136 H 304.357 6.24776 -1.6812 0
M  V30 3137 N 304.489 0.459591 1.5075 0
M  V30 3138 C 305.766 -0.160371 1.94941 0
M  V30 3139 C 306.146 -1.58048 1.39943 0
M  V30 3140 O 305.494 -2.206 0.595629 0
M  V30 3141 C 305.704 -0.115432 3.48809 0
M  V30 3142 C 307.052 -0.310026 4.23467 0
M  V30 3143 O 308.076 -0.192543 3.55679 0
M  V30 3144 O 306.935 -0.546031 5.43765 0
M  V30 3145 H 304.029 -0.117925 0.818549 0
M  V30 3146 H 306.575 0.519169 1.61563 0
M  V30 3147 H 305.347 0.87652 3.81357 0
M  V30 3148 H 304.97 -0.836928 3.88692 0
M  V30 3149 N 305.967 -1.56429 0.191757 0
M  V30 3150 C 306.93 -2.17707 -0.716688 0
M  V30 3151 C 307.93 -1.13061 -1.14341 0
M  V30 3152 O 309.12 -1.38464 -1.05704 0
M  V30 3153 C 306.252 -2.77644 -1.97804 0
M  V30 3154 H 307.445 -2.99342 -0.1829 0
M  V30 3155 H 304.998 -1.56193 -0.0578566 0
M  V30 3156 H 305.733 -1.99799 -2.55443 0
M  V30 3157 H 305.518 -3.54246 -1.68083 0
M  V30 3158 H 307.008 -3.24708 -2.62592 0
M  V30 3159 N 307.445 0.0818655 -1.57387 0
M  V30 3160 C 308.693 0.781368 -1.86384 0
M  V30 3161 C 309.014 1.78618 -0.782342 0
M  V30 3162 O 308.284 1.94976 0.190061 0
M  V30 3163 H 306.864 0.291562 -0.687751 0
M  V30 3164 H 309.526 0.060348 -1.94807 0
M  V30 3165 H 308.622 1.3038 -2.83562 0
M  V30 3166 N 308.923 1.53595 0.353017 0
M  V30 3167 C 310.17 1.70385 1.09431 0
M  V30 3168 C 310.498 0.462113 1.88931 0
M  V30 3169 O 309.753 -0.556074 1.87633 0
M  V30 3170 C 310.052 2.91313 2.07054 0
M  V30 3171 C 309.718 4.27308 1.43939 0
M  V30 3172 C 308.38 4.64287 1.26454 0
M  V30 3173 C 310.732 5.11829 0.983883 0
M  V30 3174 C 308.06 5.83412 0.620226 0
M  V30 3175 C 310.412 6.31611 0.353516 0
M  V30 3176 C 309.076 6.67293 0.166272 0
M  V30 3177 H 308.346 0.623484 0.400436 0
M  V30 3178 H 310.993 1.87799 0.374655 0
M  V30 3179 H 309.298 2.68463 2.85368 0
M  V30 3180 H 310.995 3.01497 2.64387 0
M  V30 3181 H 307.585 3.98198 1.58543 0
M  V30 3182 H 311.769 4.838 1.10685 0
M  V30 3183 H 307.025 6.09639 0.463681 0
M  V30 3184 H 311.199 6.964 -0.00757555 0
M  V30 3185 H 308.826 7.59461 -0.335047 0
M  V30 3186 N 310.401 -0.613514 1.45168 0
M  V30 3187 C 311.331 -1.7354 1.56225 0
M  V30 3188 C 312.312 -1.64981 0.41414 0
M  V30 3189 O 313.497 -1.83472 0.636526 0
M  V30 3190 C 310.627 -3.12128 1.52295 0
M  V30 3191 C 309.581 -3.35491 2.65762 0
M  V30 3192 C 308.907 -4.74291 2.46885 0
M  V30 3193 C 310.207 -3.26325 4.0781 0
M  V30 3194 H 311.901 -1.64543 2.50132 0
M  V30 3195 H 309.447 -0.790185 1.20383 0
M  V30 3196 H 311.4 -3.90404 1.58628 0
M  V30 3197 H 310.124 -3.2195 0.549139 0
M  V30 3198 H 308.783 -2.59603 2.58847 0
M  V30 3199 H 308.431 -4.80839 1.47657 0
M  V30 3200 H 308.131 -4.9088 3.22972 0
M  V30 3201 H 309.655 -5.54775 2.55063 0
M  V30 3202 H 311.069 -3.94483 4.16 0
M  V30 3203 H 309.466 -3.54445 4.8424 0
M  V30 3204 H 310.536 -2.23855 4.30136 0
M  V30 3205 N 311.879 -1.3236 -0.855495 0
M  V30 3206 C 313.295 -1.11332 -1.14356 0
M  V30 3207 C 313.495 0.106751 -2.01217 0
M  V30 3208 O 312.551 0.791891 -2.39761 0
M  V30 3209 C 313.864 -2.39237 -1.82171 0
M  V30 3210 C 315.412 -2.44986 -1.9481 0
M  V30 3211 C 315.887 -3.7281 -2.66039 0
M  V30 3212 N 317.378 -3.73787 -2.73565 0
M  V30 3213 C 318.113 -4.69394 -3.29327 0
M  V30 3214 N 317.609 -5.75367 -3.85907 0
M  V30 3215 N 319.402 -4.56893 -3.27423 0
M  V30 3216 H 311.553 -2.10586 -0.277027 0
M  V30 3217 H 313.816 -0.929701 -0.185364 0
M  V30 3218 H 313.522 -3.28431 -1.25802 0
M  V30 3219 H 313.396 -2.50134 -2.82335 0
M  V30 3220 H 315.783 -1.56252 -2.50338 0
M  V30 3221 H 315.864 -2.38043 -0.936448 0
M  V30 3222 H 315.508 -4.61918 -2.11174 0
M  V30 3223 H 315.438 -3.77024 -3.67642 0
M  V30 3224 H 317.929 -2.97189 -2.33424 0
M  V30 3225 H 318.242 -6.44378 -4.26611 0
M  V30 3226 H 316.587 -5.79123 -3.84242 0
M  V30 3227 H 319.778 -3.73269 -2.82467 0
M  V30 3228 H 319.951 -5.31577 -3.7058 0
M  V30 3229 N 313.357 1.07166 -1.15556 0
M  V30 3230 C 314.305 2.16517 -0.8499 0
M  V30 3231 C 315.299 1.68468 0.177454 0
M  V30 3232 O 316.505 1.79971 0.0323026 0
M  V30 3233 H 312.88 0.706652 -0.25719 0
M  V30 3234 H 314.851 2.39514 -1.77976 0
M  V30 3235 C 313.6 3.45855 -0.357682 0
M  V30 3236 H 312.923 3.83214 -1.13961 0
M  V30 3237 H 314.363 4.23607 -0.182489 0
M  V30 3238 C 312.822 3.24062 0.921152 0
M  V30 3239 O 313.352 3.48813 1.9923 0
M  V30 3240 N 311.558 2.77539 0.86141 0
M  V30 3241 H 311.105 2.57598 -0.0104408 0
M  V30 3242 H 311.063 2.63337 1.71758 0
M  V30 3243 N 314.835 0.952656 1.25548 0
M  V30 3244 C 316.251 0.656769 1.4546 0
M  V30 3245 C 316.451 -0.78633 1.85524 0
M  V30 3246 O 315.507 -1.56183 1.98402 0
M  V30 3247 C 316.82 1.62801 2.52817 0
M  V30 3248 C 318.368 1.63897 2.66659 0
M  V30 3249 C 318.843 2.5978 3.77198 0
M  V30 3250 N 320.334 2.58133 3.84606 0
M  V30 3251 C 321.069 3.29003 4.69621 0
M  V30 3252 N 320.565 4.09339 5.58939 0
M  V30 3253 N 322.358 3.179 4.63569 0
M  V30 3254 H 314.509 1.88526 0.978344 0
M  V30 3255 H 316.772 0.810815 0.491206 0
M  V30 3256 H 316.478 2.65869 2.30232 0
M  V30 3257 H 316.352 1.38898 3.50695 0
M  V30 3258 H 318.739 0.615481 2.8861 0
M  V30 3259 H 318.82 1.91858 1.69187 0
M  V30 3260 H 318.464 3.62254 3.55997 0
M  V30 3261 H 318.394 2.29105 4.7415 0
M  V30 3262 H 320.885 1.99809 3.20757 0
M  V30 3263 H 321.198 4.6034 6.20731 0
M  V30 3264 H 319.543 4.13438 5.58654 0
M  V30 3265 H 322.734 2.54612 3.92798 0
M  V30 3266 H 322.907 3.73398 5.29602 0
M  V30 3267 N 316.313 -1.40141 0.720998 0
M  V30 3268 C 317.559 -2.01084 0.263231 0
M  V30 3269 C 317.892 -1.57052 -1.14229 0
M  V30 3270 O 317.167 -0.793027 -1.77599 0
M  V30 3271 C 317.45 -3.58401 0.349344 0
M  V30 3272 C 317.303 -4.12491 1.79363 0
M  V30 3273 C 318.622 -4.39231 -0.276351 0
M  V30 3274 H 315.741 -0.730572 0.0971228 0
M  V30 3275 H 318.383 -1.66543 0.914518 0
M  V30 3276 H 316.533 -3.87958 -0.205165 0
M  V30 3277 H 318.205 -3.93711 2.40394 0
M  V30 3278 H 316.448 -3.66576 2.31958 0
M  V30 3279 H 317.119 -5.21646 1.80524 0
M  V30 3280 H 319.595 -4.15637 0.196184 0
M  V30 3281 H 318.471 -5.48586 -0.185681 0
M  V30 3282 H 318.732 -4.20643 -1.36059 0
M  V30 3283 N 317.792 -0.46758 -1.50504 0
M  V30 3284 C 318.702 0.33382 -2.32213 0
M  V30 3285 C 319.718 0.999323 -1.42441 0
M  V30 3286 O 320.894 0.988068 -1.75497 0
M  V30 3287 C 317.959 1.4035 -3.17022 0
M  V30 3288 C 317.02 0.754961 -4.2261 0
M  V30 3289 C 316.253 1.77367 -5.03365 0
M  V30 3290 O 316.476 2.99976 -4.8515 0
M  V30 3291 O 315.41 1.34744 -5.86624 0
M  V30 3292 H 319.236 -0.334067 -3.01857 0
M  V30 3293 H 316.821 -0.229496 -1.47627 0
M  V30 3294 H 318.703 2.02318 -3.69656 0
M  V30 3295 H 317.378 2.05492 -2.5011 0
M  V30 3296 H 316.285 0.0964244 -3.73976 0
M  V30 3297 H 317.618 0.146545 -4.91982 0
M  V30 3298 N 319.27 1.56325 -0.20005 0
M  V30 3299 C 320.498 2.02105 0.442874 0
M  V30 3300 C 320.913 1.08014 1.5485 0
M  V30 3301 O 320.27 0.0858797 1.82298 0
M  V30 3302 C 320.321 3.47549 0.994583 0
M  V30 3303 O 320.042 4.38049 -0.0669322 0
M  V30 3304 C 321.543 4.0887 1.7129 0
M  V30 3305 H 318.763 0.661807 0.110691 0
M  V30 3306 H 321.307 2.02134 -0.310207 0
M  V30 3307 H 319.462 3.48204 1.69803 0
M  V30 3308 H 319.876 5.23368 0.344462 0
M  V30 3309 H 321.35 5.12475 2.05118 0
M  V30 3310 H 321.827 3.52615 2.61838 0
M  V30 3311 H 322.433 4.12002 1.05518 0
M  V30 3312 N 320.748 -0.0735177 1.57428 0
M  V30 3313 C 321.678 -1.0879 2.06608 0
M  V30 3314 C 322.659 -1.40473 0.959237 0
M  V30 3315 O 323.844 -1.5013 1.23185 0
M  V30 3316 C 320.974 -2.40183 2.50857 0
M  V30 3317 C 319.928 -2.22858 3.65402 0
M  V30 3318 C 319.254 -3.59619 3.957 0
M  V30 3319 C 320.554 -1.65123 4.95511 0
M  V30 3320 H 322.248 -0.678673 2.91607 0
M  V30 3321 H 319.794 -0.325013 1.40284 0
M  V30 3322 H 321.747 -3.11437 2.83874 0
M  V30 3323 H 320.471 -2.83083 1.62885 0
M  V30 3324 H 319.13 -1.54045 3.32664 0
M  V30 3325 H 318.778 -4.00086 3.04861 0
M  V30 3326 H 318.478 -3.48866 4.72828 0
M  V30 3327 H 320.002 -4.32306 4.31212 0
M  V30 3328 H 321.416 -2.26241 5.26771 0
M  V30 3329 H 319.813 -1.65071 5.7695 0
M  V30 3330 H 320.883 -0.612559 4.81015 0
M  V30 3331 N 322.226 -1.5378 -0.344866 0
M  V30 3332 C 323.642 -1.44015 -0.687888 0
M  V30 3333 C 323.842 -0.595834 -1.92489 0
M  V30 3334 O 322.898 -0.0863064 -2.52352 0
M  V30 3335 C 324.211 -2.87481 -0.881758 0
M  V30 3336 C 325.759 -2.97247 -0.980459 0
M  V30 3337 C 326.234 -4.41819 -1.20665 0
M  V30 3338 N 327.725 -4.45339 -1.27389 0
M  V30 3339 C 328.46 -5.54333 -1.46639 0
M  V30 3340 N 327.956 -6.73335 -1.63071 0
M  V30 3341 N 329.749 -5.41944 -1.49176 0
M  V30 3342 H 321.9 -2.07169 0.468475 0
M  V30 3343 H 324.163 -0.93643 0.147655 0
M  V30 3344 H 323.869 -3.51672 -0.0443444 0
M  V30 3345 H 323.743 -3.32352 -1.78388 0
M  V30 3346 H 326.13 -2.33197 -1.8084 0
M  V30 3347 H 326.211 -2.5574 -0.0552713 0
M  V30 3348 H 325.855 -5.06449 -0.383652 0
M  V30 3349 H 325.785 -4.80917 -2.14539 0
M  V30 3350 H 328.276 -3.59585 -1.1622 0
M  V30 3351 H 328.589 -7.52165 -1.77391 0
M  V30 3352 H 326.934 -6.76282 -1.60209 0
M  V30 3353 H 330.125 -4.47932 -1.3592 0
M  V30 3354 H 330.298 -6.26946 -1.63837 0
M  V30 3355 N 323.704 0.605807 -1.45491 0
M  V30 3356 C 324.636 1.73031 -1.5031 0
M  V30 3357 C 325.649 1.57968 -0.393687 0
M  V30 3358 O 326.838 1.65817 -0.660839 0
M  V30 3359 C 323.938 3.11049 -1.34543 0
M  V30 3360 C 323.111 3.52334 -2.59189 0
M  V30 3361 C 322.17 4.69323 -2.37954 0
M  V30 3362 O 321.196 4.7635 -3.11575 0
M  V30 3363 N 322.398 5.62705 -1.4263 0
M  V30 3364 H 325.163 1.6936 -2.4726 0
M  V30 3365 H 322.724 0.79114 -1.41254 0
M  V30 3366 H 324.716 3.87071 -1.18144 0
M  V30 3367 H 323.286 3.09217 -0.458623 0
M  V30 3368 H 322.506 2.66256 -2.90691 0
M  V30 3369 H 323.794 3.76677 -3.42041 0
M  V30 3370 H 323.192 5.59744 -0.818758 0
M  V30 3371 H 321.749 6.38252 -1.32202 0
M  V30 3372 N 325.182 1.32811 0.848464 0
M  V30 3373 C 326.459 1.14334 1.58704 0
M  V30 3374 C 326.839 -0.293948 2.09043 0
M  V30 3375 O 326.187 -1.29153 1.88499 0
M  V30 3376 C 326.397 2.17626 2.72837 0
M  V30 3377 C 327.745 2.51282 3.42261 0
M  V30 3378 O 328.769 2.16219 2.83068 0
M  V30 3379 O 327.628 3.11413 4.49093 0
M  V30 3380 H 324.722 0.441601 0.699226 0
M  V30 3381 H 327.268 1.44362 0.892053 0
M  V30 3382 H 326.04 3.14211 2.3321 0
M  V30 3383 H 325.663 1.88628 3.50008 0
M  V30 3384 N 326.66 -1.06551 1.16123 0
M  V30 3385 C 328.076 -1.3142 0.905585 0
M  V30 3386 C 328.276 -1.96571 -0.442964 0
M  V30 3387 O 327.332 -2.23068 -1.18308 0
M  V30 3388 C 328.645 -2.19741 2.05267 0
M  V30 3389 C 330.193 -2.33165 2.08813 0
M  V30 3390 C 330.668 -3.24838 3.22868 0
M  V30 3391 N 332.159 -3.32421 3.22568 0
M  V30 3392 C 332.894 -4.0344 4.0746 0
M  V30 3393 N 332.39 -4.77003 5.02434 0
M  V30 3394 N 334.183 -3.99464 3.95456 0
M  V30 3395 H 326.334 -0.626548 2.02949 0
M  V30 3396 H 328.597 -0.338777 0.8854 0
M  V30 3397 H 328.303 -1.79142 3.02657 0
M  V30 3398 H 328.177 -3.20313 1.99198 0
M  V30 3399 H 330.564 -2.73013 1.12018 0
M  V30 3400 H 330.645 -1.3227 2.18948 0
M  V30 3401 H 330.289 -2.85708 4.19921 0
M  V30 3402 H 330.219 -4.25707 3.0997 0
M  V30 3403 H 332.71 -2.79994 2.53795 0
M  V30 3404 H 333.023 -5.28712 5.63634 0
M  V30 3405 H 331.368 -4.75992 5.06415 0
M  V30 3406 H 334.559 -3.4111 3.20564 0
M  V30 3407 H 334.732 -4.54544 4.61837 0
M  V30 3408 N 328.138 -0.959301 -1.25041 0
M  V30 3409 C 329.386 -0.615393 -1.92503 0
M  V30 3410 C 329.707 0.850969 -1.75452 0
M  V30 3411 O 328.977 1.60658 -1.12098 0
M  V30 3412 H 327.557 -0.224613 -0.712431 0
M  V30 3413 H 330.219 -1.21855 -1.5211 0
M  V30 3414 H 329.315 -0.848738 -3.00338 0
M  V30 3415 N 329.616 1.39756 -0.72842 0
M  V30 3416 C 330.862 2.00942 -0.273892 0
M  V30 3417 C 331.195 1.57656 1.13394 0
M  V30 3418 O 330.47 0.802434 1.77176 0
M  V30 3419 C 330.753 3.58211 -0.368346 0
M  V30 3420 C 330.606 4.11534 -1.81548 0
M  V30 3421 C 331.925 4.39372 0.253054 0
M  V30 3422 H 329.044 0.730047 -0.100996 0
M  V30 3423 H 331.686 1.66056 -0.923337 0
M  V30 3424 H 329.836 3.88061 0.184588 0
M  V30 3425 H 331.508 3.92431 -2.42478 0
M  V30 3426 H 329.751 3.65341 -2.33898 0
M  V30 3427 H 330.422 5.20682 -1.83288 0
M  V30 3428 H 332.898 4.15527 -0.218224 0
M  V30 3429 H 331.774 5.48677 0.156585 0
M  V30 3430 H 332.035 4.21358 1.33826 0
M  V30 3431 N 331.094 0.475555 1.50254 0
M  V30 3432 C 332.057 -0.305016 2.27161 0
M  V30 3433 C 333.057 -0.916519 1.32123 0
M  V30 3434 O 334.247 -0.785003 1.5551 0
M  V30 3435 C 331.379 -1.43496 3.09227 0
M  V30 3436 H 332.572 0.369511 2.97615 0
M  V30 3437 H 330.125 0.229747 1.54602 0
M  V30 3438 H 330.86 -2.14441 2.43281 0
M  V30 3439 H 330.645 -1.00223 3.79075 0
M  V30 3440 H 332.135 -1.98548 3.67381 0
M  V30 3441 N 332.573 -1.56217 0.208337 0
M  V30 3442 C 333.521 -2.21053 -0.723769 0
M  V30 3443 C 334.515 -1.18578 -1.20978 0
M  V30 3444 O 335.721 -1.36691 -1.17114 0
M  V30 3445 H 332.096 -0.708595 -0.251788 0
M  V30 3446 H 334.067 -2.98006 -0.153365 0
M  V30 3447 C 332.816 -2.89417 -1.927 0
M  V30 3448 H 332.139 -3.68019 -1.56212 0
M  V30 3449 H 333.579 -3.38201 -2.55727 0
M  V30 3450 C 332.038 -1.91166 -2.77411 0
M  V30 3451 O 332.568 -1.42026 -3.75754 0
M  V30 3452 N 330.774 -1.59105 -2.43175 0
M  V30 3453 H 330.321 -1.99259 -1.63259 0
M  V30 3454 H 330.279 -0.936255 -3.00136 0
M  V30 3455 N 334.051 0.0651679 -1.57465 0
M  V30 3456 C 335.3 0.761916 -1.86756 0
M  V30 3457 C 335.613 1.78406 -0.801925 0
M  V30 3458 O 336.819 2.53084 -0.982885 0
M  V30 3459 C 335.275 1.40603 -3.31299 0
M  V30 3460 C 334.883 0.422115 -4.46007 0
M  V30 3461 C 336.627 2.08476 -3.69781 0
M  V30 3462 C 334.534 1.07252 -5.81593 0
M  V30 3463 H 333.464 0.288308 -0.696702 0
M  V30 3464 H 336.115 0.015344 -1.83494 0
M  V30 3465 H 334.497 2.20109 -3.29193 0
M  V30 3466 H 335.671 -0.343613 -4.59517 0
M  V30 3467 H 333.986 -0.152527 -4.16121 0
M  V30 3468 H 336.583 2.57925 -4.68379 0
M  V30 3469 H 336.926 2.88712 -2.99919 0
M  V30 3470 H 337.459 1.35792 -3.73905 0
M  V30 3471 H 334.198 0.310342 -6.54765 0
M  V30 3472 H 333.718 1.80895 -5.71872 0
M  V30 3473 H 335.397 1.59043 -6.27148 0
M  V30 3474 N 335.529 1.53961 0.336706 0
M  V30 3475 C 336.94 1.62914 0.911925 0
M  V30 3476 C 337.291 0.514795 1.89326 0
M  V30 3477 O 336.416 -0.354395 2.13478 0
M  V30 3478 C 337.011 2.95304 1.66076 0
M  V30 3479 C 335.57 3.06496 2.18489 0
M  V30 3480 C 334.717 2.58403 1.00613 0
M  V30 3481 H 337.668 1.58285 0.114649 0
M  V30 3482 H 337.689 2.84727 2.5241 0
M  V30 3483 H 337.201 3.76387 0.946276 0
M  V30 3484 H 335.302 2.3006 2.93092 0
M  V30 3485 H 335.415 4.1208 2.44391 0
M  V30 3486 H 333.779 2.13977 1.38152 0
M  V30 3487 H 334.562 3.41932 0.306179 0
M  V30 3488 N 337.007 -0.598083 1.45811 0
M  V30 3489 C 337.97 -1.69018 1.54808 0
M  V30 3490 C 338.97 -1.55037 0.426652 0
M  V30 3491 O 340.16 -1.59932 0.690456 0
M  V30 3492 C 337.292 -3.0835 1.45371 0
M  V30 3493 H 338.485 -1.62403 2.52121 0
M  V30 3494 H 336.038 -0.814626 1.33392 0
M  V30 3495 H 336.773 -3.20534 0.492793 0
M  V30 3496 H 336.558 -3.19907 2.26721 0
M  V30 3497 H 338.048 -3.8788 1.54721 0
M  V30 3498 N 338.485 -1.33259 -0.841409 0
M  V30 3499 C 339.395 -1.25332 -1.98316 0
M  V30 3500 C 340.411 -0.164364 -1.73222 0
M  V30 3501 O 341.587 -0.387486 -1.97637 0
M  V30 3502 C 338.652 -0.990078 -3.32262 0
M  V30 3503 C 337.713 -2.16879 -3.70489 0
M  V30 3504 C 336.946 -1.91801 -4.98044 0
M  V30 3505 O 337.169 -0.867075 -5.63771 0
M  V30 3506 O 336.103 -2.78267 -5.33714 0
M  V30 3507 H 339.929 -2.21344 -2.07944 0
M  V30 3508 H 337.514 -1.1328 -0.974058 0
M  V30 3509 H 339.396 -0.860321 -4.12524 0
M  V30 3510 H 338.071 -0.0602155 -3.23644 0
M  V30 3511 H 336.978 -2.35407 -2.90748 0
M  V30 3512 H 338.311 -3.0819 -3.8377 0
M  V30 3513 N 339.963 1.05934 -1.16686 0
M  V30 3514 C 341.188 1.83029 -0.975455 0
M  V30 3515 C 341.613 1.82096 0.471452 0
M  V30 3516 O 340.971 1.22443 1.33706 0
M  V30 3517 C 341.019 3.27372 -1.51195 0
M  V30 3518 O 340.123 4.06054 -0.720701 0
M  V30 3519 H 339.464 0.566194 -0.346872 0
M  V30 3520 H 341.994 1.33541 -1.55009 0
M  V30 3521 H 342.004 3.78186 -1.53099 0
M  V30 3522 H 340.679 3.27366 -2.56523 0
M  V30 3523 H 339.256 3.64812 -0.772458 0
M  V30 3524 N 341.441 0.965919 1.2453 0
M  V30 3525 C 342.671 0.643451 1.96324 0
M  V30 3526 C 343.079 -0.790927 1.71875 0
M  V30 3527 O 342.422 -1.54208 0.998273 0
M  V30 3528 C 342.484 0.836078 3.49643 0
M  V30 3529 C 342.148 2.24975 3.97788 0
M  V30 3530 C 343.145 3.22735 4.07601 0
M  V30 3531 C 340.83 2.57697 4.31158 0
M  V30 3532 C 342.824 4.51303 4.50116 0
M  V30 3533 C 340.511 3.86492 4.73357 0
M  V30 3534 C 341.509 4.83107 4.828 0
M  V30 3535 O 341.197 6.09605 5.24058 0
M  V30 3536 H 340.929 0.239223 0.632257 0
M  V30 3537 H 343.483 1.29587 1.59362 0
M  V30 3538 H 341.713 0.12649 3.86493 0
M  V30 3539 H 343.402 0.512965 4.02646 0
M  V30 3540 H 344.168 2.98783 3.82039 0
M  V30 3541 H 340.047 1.83216 4.23028 0
M  V30 3542 H 343.591 5.26716 4.57401 0
M  V30 3543 H 339.488 4.10245 4.98366 0
M  V30 3544 H 340.256 6.13146 5.42213 0
M  V30 3545 N 342.919 -1.39368 0.735821 0
M  V30 3546 C 343.849 -2.33234 0.111506 0
M  V30 3547 C 344.83 -1.53954 -0.723334 0
M  V30 3548 O 346.015 -1.82344 -0.668147 0
M  V30 3549 C 343.145 -3.38057 -0.795917 0
M  V30 3550 C 342.099 -4.2795 -0.065172 0
M  V30 3551 C 341.425 -5.23479 -1.08967 0
M  V30 3552 C 342.725 -5.10741 1.09273 0
M  V30 3553 H 344.419 -2.85692 0.895571 0
M  V30 3554 H 341.965 -1.37364 0.432109 0
M  V30 3555 H 343.918 -4.02675 -1.24221 0
M  V30 3556 H 342.642 -2.8404 -1.61211 0
M  V30 3557 H 341.301 -3.64813 0.361511 0
M  V30 3558 H 340.949 -4.65758 -1.89944 0
M  V30 3559 H 340.649 -5.84472 -0.605489 0
M  V30 3560 H 342.173 -5.90974 -1.53565 0
M  V30 3561 H 343.587 -5.68699 0.724841 0
M  V30 3562 H 341.984 -5.8088 1.50659 0
M  V30 3563 H 343.054 -4.45525 1.91404 0
M  V30 3564 N 344.397 -0.483516 -1.5 0
M  V30 3565 C 345.344 0.304164 -2.28787 0
M  V30 3566 C 346.314 0.976114 -1.34392 0
M  V30 3567 O 347.499 0.986156 -1.63339 0
M  V30 3568 C 344.639 1.37298 -3.16612 0
M  V30 3569 C 343.752 0.714561 -4.26049 0
M  V30 3570 C 342.887 1.76232 -5.01114 0
M  V30 3571 C 341.926 1.08483 -6.0241 0
M  V30 3572 N 341.063 2.076 -6.70706 0
M  V30 3573 H 345.903 -0.373981 -2.95644 0
M  V30 3574 H 343.44 -0.196275 -1.45785 0
M  V30 3575 H 345.398 2.00445 -3.65893 0
M  V30 3576 H 344.028 2.02012 -2.51776 0
M  V30 3577 H 343.08 -0.0297798 -3.80388 0
M  V30 3578 H 344.392 0.180383 -4.98474 0
M  V30 3579 H 343.546 2.46929 -5.54176 0
M  V30 3580 H 342.285 2.33033 -4.28424 0
M  V30 3581 H 341.29 0.363545 -5.48597 0
M  V30 3582 H 342.515 0.523551 -6.77079 0
M  V30 3583 H 340.461 2.63394 -6.00799 0
M  V30 3584 H 340.378 1.59201 -7.39047 0
M  V30 3585 H 341.646 2.77639 -7.2838 0
M  V30 3586 N 345.875 1.56104 -0.216619 0
M  V30 3587 C 346.838 2.18819 0.681962 0
M  V30 3588 C 347.838 1.14866 1.12528 0
M  V30 3589 O 349.028 1.40128 1.03488 0
M  V30 3590 C 346.16 2.80756 1.93362 0
M  V30 3591 H 347.353 2.99595 0.135254 0
M  V30 3592 H 344.906 1.56265 0.0330003 0
M  V30 3593 H 345.641 2.03837 2.52232 0
M  V30 3594 H 345.426 3.56876 1.62426 0
M  V30 3595 H 346.916 3.28844 2.57393 0
M  V30 3596 N 347.353 -0.0568162 1.57498 0
M  V30 3597 C 348.578 -0.769402 1.92601 0
M  V30 3598 C 349.003 -1.69559 0.814336 0
M  V30 3599 O 348.361 -1.79811 -0.231903 0
M  V30 3600 C 348.409 -1.52634 3.26704 0
M  V30 3601 O 347.513 -2.63797 3.16994 0
M  V30 3602 H 346.854 -0.208909 0.63028 0
M  V30 3603 H 349.384 -0.0205798 2.0459 0
M  V30 3604 H 349.394 -1.90234 3.60936 0
M  V30 3605 H 348.069 -0.846875 4.07186 0
M  V30 3606 H 346.646 -2.28943 2.94346 0
M  V30 3607 N 348.832 -1.54138 -0.328536 0
M  V30 3608 C 350.109 -1.62749 -1.08499 0
M  V30 3609 C 350.489 -0.458198 -2.06067 0
M  V30 3610 O 349.837 0.548046 -2.2183 0
M  V30 3611 C 350.047 -2.99519 -1.79135 0
M  V30 3612 C 351.395 -3.55394 -2.32337 0
M  V30 3613 O 352.419 -3.01792 -1.89209 0
M  V30 3614 O 351.278 -4.49186 -3.11279 0
M  V30 3615 H 348.372 -0.65886 -0.499832 0
M  V30 3616 H 350.918 -1.66484 -0.328826 0
M  V30 3617 H 349.69 -3.76061 -1.08139 0
M  V30 3618 H 349.313 -2.99441 -2.61574 0
M  V30 3619 N 350.31 0.590341 -1.46126 0
M  V30 3620 C 351.273 1.68194 -1.55703 0
M  V30 3621 C 352.273 1.54808 -0.434868 0
M  V30 3622 O 353.463 1.59564 -0.698928 0
M  V30 3623 C 350.595 3.07575 -1.47005 0
M  V30 3624 H 351.788 1.61064 -2.52979 0
M  V30 3625 H 349.341 0.807541 -1.33823 0
M  V30 3626 H 350.076 3.20268 -0.509785 0
M  V30 3627 H 349.861 3.187 -2.28414 0
M  V30 3628 H 351.351 3.87055 -1.56776 0
M  V30 3629 N 351.788 1.33704 0.83433 0
M  V30 3630 C 353.199 1.22813 1.4062 0
M  V30 3631 C 353.55 -0.151107 1.95617 0
M  V30 3632 O 352.675 -1.05092 1.89168 0
M  V30 3633 C 353.27 2.22355 2.55624 0
M  V30 3634 C 351.829 2.1529 3.08751 0
M  V30 3635 C 350.976 2.09589 1.8157 0
M  V30 3636 H 353.927 1.45236 0.639702 0
M  V30 3637 H 353.948 1.83391 3.33389 0
M  V30 3638 H 353.46 3.22728 2.15566 0
M  V30 3639 H 351.561 1.18235 3.53343 0
M  V30 3640 H 351.674 3.06038 3.68616 0
M  V30 3641 H 350.038 1.55134 2.02004 0
M  V30 3642 H 350.821 3.11777 1.43701 0
M  V30 3643 N 353.266 -1.05314 1.17247 0
M  V30 3644 C 354.543 -1.75184 0.87005 0
M  V30 3645 C 354.923 -2.01481 -0.629965 0
M  V30 3646 O 354.271 -1.64988 -1.58086 0
M  V30 3647 C 354.481 -3.04594 1.70363 0
M  V30 3648 C 355.829 -3.78567 1.92281 0
M  V30 3649 O 356.853 -3.14461 1.67311 0
M  V30 3650 O 355.712 -4.93755 2.3424 0
M  V30 3651 H 352.806 -0.761729 0.322021 0
M  V30 3652 H 355.352 -1.11493 1.27935 0
M  V30 3653 H 354.124 -2.81201 2.72106 0
M  V30 3654 H 353.747 -3.76022 1.29202 0
M  V30 3655 N 354.744 -0.972509 -1.24016 0
M  V30 3656 C 355.674 -0.525548 -2.27509 0
M  V30 3657 C 356.655 0.437262 -1.64384 0
M  V30 3658 O 357.84 0.332343 -1.91335 0
M  V30 3659 C 354.97 0.180448 -3.46831 0
M  V30 3660 C 353.924 -0.698859 -4.22256 0
M  V30 3661 C 353.25 0.138903 -5.3452 0
M  V30 3662 C 354.55 -1.98582 -4.83076 0
M  V30 3663 H 356.244 -1.39058 -2.65148 0
M  V30 3664 H 353.79 -0.67009 -1.27459 0
M  V30 3665 H 355.743 0.504387 -4.18371 0
M  V30 3666 H 354.467 1.07987 -3.08231 0
M  V30 3667 H 353.126 -1.00614 -3.52523 0
M  V30 3668 H 352.774 1.03862 -4.9216 0
M  V30 3669 H 352.474 -0.446259 -5.85903 0
M  V30 3670 H 353.998 0.457404 -6.08884 0
M  V30 3671 H 355.412 -1.72715 -5.46665 0
M  V30 3672 H 353.809 -2.5181 -5.44713 0
M  V30 3673 H 354.879 -2.67769 -4.04262 0
M  V30 3674 N 356.222 1.38976 -0.743202 0
M  V30 3675 C 357.154 2.29096 -0.0689228 0
M  V30 3676 C 358.167 1.47229 0.694791 0
M  V30 3677 O 359.356 1.70212 0.537597 0
M  V30 3678 C 356.456 3.25988 0.926548 0
M  V30 3679 C 355.629 4.36833 0.222647 0
M  V30 3680 C 354.688 5.13981 1.12739 0
M  V30 3681 O 353.714 5.6601 0.601795 0
M  V30 3682 N 354.916 5.25966 2.45641 0
M  V30 3683 H 357.681 2.87604 -0.842846 0
M  V30 3684 H 355.242 1.50645 -0.593109 0
M  V30 3685 H 357.234 3.74476 1.5346 0
M  V30 3686 H 355.804 2.68453 1.60162 0
M  V30 3687 H 355.024 3.90116 -0.565983 0
M  V30 3688 H 356.312 5.0811 -0.264841 0
M  V30 3689 H 355.71 4.85228 2.9081 0
M  V30 3690 H 354.267 5.77865 3.01522 0
M  V30 3691 N 357.7 0.491464 1.49741 0
M  V30 3692 C 358.647 -0.292027 2.28945 0
M  V30 3693 C 359.617 -0.968973 1.34908 0
M  V30 3694 O 360.802 -0.97748 1.6386 0
M  V30 3695 C 357.942 -1.35617 3.17336 0
M  V30 3696 C 357.055 -0.691957 4.26422 0
M  V30 3697 C 356.19 -1.73572 5.02042 0
M  V30 3698 C 355.229 -1.05286 6.02977 0
M  V30 3699 N 354.366 -2.0404 6.71798 0
M  V30 3700 H 359.206 0.389654 2.95442 0
M  V30 3701 H 356.743 0.204003 1.45679 0
M  V30 3702 H 358.701 -1.98502 3.66951 0
M  V30 3703 H 357.331 -2.00674 2.52844 0
M  V30 3704 H 356.383 0.0499523 3.80367 0
M  V30 3705 H 357.695 -0.153946 4.98562 0
M  V30 3706 H 356.849 -2.43987 5.55478 0
M  V30 3707 H 355.588 -2.30757 4.29654 0
M  V30 3708 H 354.593 -0.334446 5.48782 0
M  V30 3709 H 355.818 -0.487636 6.77347 0
M  V30 3710 H 353.764 -2.60205 6.02187 0
M  V30 3711 H 353.681 -1.55279 7.39881 0
M  V30 3712 H 354.949 -2.73772 7.29842 0
M  V30 3713 N 359.178 -1.55987 0.224894 0
M  V30 3714 C 360.589 -1.84553 -0.282345 0
M  V30 3715 C 360.94 -1.14634 -1.59227 0
M  V30 3716 O 360.065 -0.417155 -2.12341 0
M  V30 3717 C 360.66 -3.348 -0.519062 0
M  V30 3718 C 359.219 -3.63671 -0.970604 0
M  V30 3719 C 358.366 -2.77277 -0.0355261 0
M  V30 3720 H 361.317 -1.52245 0.448006 0
M  V30 3721 H 361.338 -3.55187 -1.36463 0
M  V30 3722 H 360.85 -3.8566 0.43449 0
M  V30 3723 H 358.951 -3.1827 -1.9374 0
M  V30 3724 H 359.064 -4.71631 -0.842698 0
M  V30 3725 H 357.428 -2.48846 -0.542927 0
M  V30 3726 H 358.211 -3.30937 0.913003 0
M  V30 3727 N 360.656 0.0484629 -1.57525 0
M  V30 3728 C 361.933 0.777447 -1.79486 0
M  V30 3729 C 362.313 1.94597 -0.818251 0
M  V30 3730 O 361.661 2.28047 0.143767 0
M  V30 3731 C 361.871 1.22864 -3.26658 0
M  V30 3732 C 363.219 1.65251 -3.91123 0
M  V30 3733 O 364.243 1.32372 -3.3069 0
M  V30 3734 O 363.102 2.26207 -4.97486 0
M  V30 3735 H 360.196 0.374357 -0.737419 0
M  V30 3736 H 362.742 0.0267359 -1.69679 0
M  V30 3737 H 361.514 0.393589 -3.89316 0
M  V30 3738 H 361.137 2.03996 -3.41279 0
M  V30 3739 N 362.134 1.5431 0.320358 0
M  V30 3740 C 363.081 1.83918 1.39438 0
M  V30 3741 C 364.051 0.686525 1.51248 0
M  V30 3742 O 365.236 0.933269 1.66417 0
M  V30 3743 C 362.376 2.075 2.75749 0
M  V30 3744 C 361.489 3.35177 2.72544 0
M  V30 3745 C 360.624 3.48704 4.00723 0
M  V30 3746 C 359.663 4.70244 3.91838 0
M  V30 3747 N 358.8 4.80679 5.11754 0
M  V30 3748 H 363.64 2.75544 1.13489 0
M  V30 3749 H 361.177 1.36459 0.549309 0
M  V30 3750 H 363.135 2.19166 3.54996 0
M  V30 3751 H 361.765 1.19163 3 0
M  V30 3752 H 360.817 3.32233 1.85271 0
M  V30 3753 H 362.129 4.24534 2.61863 0
M  V30 3754 H 361.283 3.59928 4.88402 0
M  V30 3755 H 360.022 2.57445 4.14214 0
M  V30 3756 H 359.027 4.59072 3.02544 0
M  V30 3757 H 360.252 5.6289 3.7991 0
M  V30 3758 H 358.198 3.92337 5.25745 0
M  V30 3759 H 358.115 5.64007 5.0342 0
M  V30 3760 H 359.383 4.96239 6.01138 0
M  V30 3761 N 363.613 -0.582584 1.46437 0
M  V30 3762 C 364.576 -1.67366 1.56592 0
M  V30 3763 C 365.576 -1.54575 0.443072 0
M  V30 3764 O 366.766 -1.59191 0.707381 0
M  V30 3765 C 363.898 -3.06791 1.48634 0
M  V30 3766 H 365.091 -1.5972 2.5383 0
M  V30 3767 H 362.644 -0.800432 1.34249 0
M  V30 3768 H 363.379 -3.19993 0.526763 0
M  V30 3769 H 363.164 -3.17484 2.30101 0
M  V30 3770 H 364.654 -3.86218 1.58826 0
M  V30 3771 N 365.091 -1.34144 -0.827227 0
M  V30 3772 C 366.021 -1.28005 -1.95287 0
M  V30 3773 C 367.002 -0.158321 -1.69362 0
M  V30 3774 O 368.187 -0.349987 -1.9102 0
M  V30 3775 C 365.317 -1.03036 -3.31664 0
M  V30 3776 C 364.271 -2.11628 -3.72019 0
M  V30 3777 C 363.597 -1.71854 -5.0633 0
M  V30 3778 C 364.897 -3.53417 -3.8457 0
M  V30 3779 H 366.591 -2.22187 -2.00682 0
M  V30 3780 H 364.137 -1.0696 -0.964135 0
M  V30 3781 H 366.09 -0.973863 -4.09993 0
M  V30 3782 H 364.814 -0.0529391 -3.26557 0
M  V30 3783 H 363.473 -2.16339 -2.95961 0
M  V30 3784 H 363.121 -0.727841 -4.97706 0
M  V30 3785 H 362.821 -2.44531 -5.34302 0
M  V30 3786 H 364.345 -1.67692 -5.87122 0
M  V30 3787 H 365.759 -3.51142 -4.5318 0
M  V30 3788 H 364.156 -4.24679 -4.2399 0
M  V30 3789 H 365.226 -3.91072 -2.86689 0
M  V30 3790 N 366.569 1.04691 -1.17803 0
M  V30 3791 C 367.501 2.12571 -0.857097 0
M  V30 3792 C 368.514 1.62174 0.142647 0
M  V30 3793 O 369.703 1.78301 -0.0843387 0
M  V30 3794 C 366.803 3.37915 -0.258216 0
M  V30 3795 C 365.976 4.1757 -1.30207 0
M  V30 3796 C 365.035 5.2125 -0.720029 0
M  V30 3797 O 364.061 5.51888 -1.39314 0
M  V30 3798 N 365.263 5.78466 0.485507 0
M  V30 3799 H 368.028 2.40698 -1.78562 0
M  V30 3800 H 365.589 1.20831 -1.07757 0
M  V30 3801 H 367.581 4.04442 0.144584 0
M  V30 3802 H 366.151 3.07281 0.574199 0
M  V30 3803 H 365.371 3.46458 -1.88043 0
M  V30 3804 H 366.659 4.67586 -2.00601 0
M  V30 3805 H 366.057 5.55866 1.05022 0
M  V30 3806 H 364.614 6.4649 0.830307 0
M  V30 3807 N 368.047 0.979072 1.23499 0
M  V30 3808 C 369.272 0.664845 1.96455 0
M  V30 3809 C 369.697 -0.761287 1.72006 0
M  V30 3810 O 369.055 -1.51837 0.990713 0
M  V30 3811 C 369.103 0.959479 3.47601 0
M  V30 3812 O 368.207 0.0508168 4.12369 0
M  V30 3813 H 367.548 0.250185 0.615064 0
M  V30 3814 H 370.078 1.31231 1.5697 0
M  V30 3815 H 370.088 0.895642 3.98048 0
M  V30 3816 H 368.763 1.99876 3.64723 0
M  V30 3817 H 367.34 0.16895 3.72517 0
M  V30 3818 N 369.525 -1.3858 0.750561 0
M  V30 3819 C 370.936 -1.82927 0.373438 0
M  V30 3820 C 371.287 -1.62634 -1.09748 0
M  V30 3821 O 370.412 -1.12588 -1.84805 0
M  V30 3822 C 371.007 -3.32088 0.671029 0
M  V30 3823 C 369.566 -3.74795 0.34722 0
M  V30 3824 C 368.713 -2.61391 0.92575 0
M  V30 3825 H 371.664 -1.27351 0.946958 0
M  V30 3826 H 371.685 -3.80465 -0.0518269 0
M  V30 3827 H 371.197 -3.46826 1.74164 0
M  V30 3828 H 369.298 -3.65638 -0.716933 0
M  V30 3829 H 369.411 -4.71667 0.840656 0
M  V30 3830 H 367.775 -2.52265 0.351327 0
M  V30 3831 H 368.558 -2.78929 2.00133 0
M  V30 3832 N 371.003 -0.499398 -1.49478 0
M  V30 3833 C 372.414 -0.051215 -1.8663 0
M  V30 3834 C 372.765 1.36238 -1.41186 0
M  V30 3835 O 371.89 2.01502 -0.789051 0
M  V30 3836 C 372.485 -0.0861651 -3.3869 0
M  V30 3837 C 371.044 0.30667 -3.75149 0
M  V30 3838 C 370.191 -0.459397 -2.73468 0
M  V30 3839 H 373.142 -0.712264 -1.41818 0
M  V30 3840 H 373.163 0.709507 -3.73826 0
M  V30 3841 H 372.675 -1.11512 -3.71735 0
M  V30 3842 H 370.776 1.33892 -3.47712 0
M  V30 3843 H 370.889 -0.0116669 -4.79099 0
M  V30 3844 H 369.253 0.0905645 -2.54539 0
M  V30 3845 H 370.036 -1.4884 -3.09357 0
M  V30 3846 N 372.481 1.55866 -0.233164 0
M  V30 3847 C 373.892 1.847 0.272554 0
M  V30 3848 C 374.243 1.15477 1.58617 0
M  V30 3849 O 373.368 0.42841 2.12117 0
M  V30 3850 C 373.963 3.35071 0.501299 0
M  V30 3851 C 372.522 3.6418 0.951304 0
M  V30 3852 C 371.669 2.77292 0.0208209 0
M  V30 3853 H 374.62 1.52005 -0.456074 0
M  V30 3854 H 374.641 3.55906 1.34577 0
M  V30 3855 H 374.153 3.85424 -0.454936 0
M  V30 3856 H 372.254 3.19293 1.92049 0
M  V30 3857 H 372.367 4.72071 0.817675 0
M  V30 3858 H 370.731 2.49131 0.529723 0
M  V30 3859 H 371.514 3.30448 -0.93054 0
M  V30 3860 N 373.959 -0.0401083 1.57549 0
M  V30 3861 C 374.922 -1.02871 2.04817 0
M  V30 3862 C 375.922 -1.29708 0.950388 0
M  V30 3863 O 377.112 -1.24897 1.21435 0
M  V30 3864 C 374.244 -2.36443 2.45576 0
M  V30 3865 H 375.437 -0.620631 2.93408 0
M  V30 3866 H 372.99 -0.286667 1.53649 0
M  V30 3867 H 373.725 -2.82021 1.60108 0
M  V30 3868 H 373.51 -2.18296 3.25713 0
M  V30 3869 H 375 -3.07441 2.82612 0
M  V30 3870 N 375.437 -1.54477 -0.31217 0
M  V30 3871 C 376.662 -1.77526 -1.07235 0
M  V30 3872 C 377.087 -0.527775 -1.80544 0
M  V30 3873 O 376.445 0.52121 -1.73646 0
M  V30 3874 C 376.493 -2.97535 -2.03728 0
M  V30 3875 O 375.597 -2.69878 -3.11833 0
M  V30 3876 H 374.938 -0.58792 -0.30862 0
M  V30 3877 H 377.468 -2.01532 -0.352993 0
M  V30 3878 H 377.478 -3.25198 -2.46395 0
M  V30 3879 H 376.153 -3.87996 -1.49774 0
M  V30 3880 H 374.73 -2.53199 -2.7376 0
M  V30 3881 N 376.915 0.57481 -1.46744 0
M  V30 3882 C 378.143 1.35856 -1.56047 0
M  V30 3883 C 378.558 1.87691 -0.204365 0
M  V30 3884 O 377.915 1.64049 0.79963 0
M  V30 3885 C 377.966 2.54066 -2.57163 0
M  V30 3886 O 377.687 2.04377 -3.87507 0
M  V30 3887 C 379.188 3.46514 -2.76483 0
M  V30 3888 H 376.408 0.414754 -0.527466 0
M  V30 3889 H 378.952 0.698035 -1.92218 0
M  V30 3890 H 377.107 3.16092 -2.23974 0
M  V30 3891 H 377.521 2.81419 -4.4261 0
M  V30 3892 H 378.995 4.25919 -3.51137 0
M  V30 3893 H 379.472 3.98951 -1.83671 0
M  V30 3894 H 380.078 2.90318 -3.10799 0
M  V30 3895 N 378.394 1.34581 0.820102 0
M  V30 3896 C 379.671 1.17675 1.56244 0
M  V30 3897 C 380.051 -0.249541 2.0962 0
M  V30 3898 O 379.399 -1.25125 1.91196 0
M  V30 3899 C 379.609 2.23364 2.6816 0
M  V30 3900 C 380.957 2.58485 3.36854 0
M  V30 3901 O 381.981 2.22175 2.78418 0
M  V30 3902 O 380.84 3.20868 4.42386 0
M  V30 3903 H 377.934 0.456333 0.689702 0
M  V30 3904 H 380.48 1.46222 0.861231 0
M  V30 3905 H 379.252 3.19087 2.26493 0
M  V30 3906 H 378.875 1.96009 3.45928 0
M  V30 3907 N 379.872 -1.04064 1.18357 0
M  V30 3908 C 381.283 -1.58719 0.98312 0
M  V30 3909 C 381.634 -1.90556 -0.467193 0
M  V30 3910 O 380.759 -1.69561 -1.34454 0
M  V30 3911 C 381.354 -2.88379 1.77828 0
M  V30 3912 C 379.913 -3.3965 1.62218 0
M  V30 3913 C 379.06 -2.13235 1.77274 0
M  V30 3914 H 382.011 -0.867359 1.32901 0
M  V30 3915 H 382.032 -3.58773 1.26737 0
M  V30 3916 H 381.544 -2.65176 2.83379 0
M  V30 3917 H 379.645 -3.67866 0.592036 0
M  V30 3918 H 379.758 -4.13475 2.42023 0
M  V30 3919 H 378.122 -2.24542 1.20221 0
M  V30 3920 H 378.905 -1.92487 2.8426 0
M  V30 3921 N 381.35 -0.985608 -1.22978 0
M  V30 3922 C 382.313 -0.535071 -2.22867 0
M  V30 3923 C 383.313 0.378123 -1.56291 0
M  V30 3924 O 384.503 0.171092 -1.73358 0
M  V30 3925 C 381.635 0.222702 -3.40172 0
M  V30 3926 H 382.828 -1.41835 -2.6424 0
M  V30 3927 H 380.381 -0.772042 -1.35901 0
M  V30 3928 H 381.116 1.12229 -3.04262 0
M  V30 3929 H 380.901 -0.43288 -3.89703 0
M  V30 3930 H 382.391 0.526335 -4.1427 0
M  V30 3931 N 382.828 1.3818 -0.7579 0
M  V30 3932 C 384.056 2.04301 -0.326937 0
M  V30 3933 C 384.471 1.57163 1.0462 0
M  V30 3934 O 383.828 0.746626 1.66529 0
M  V30 3935 C 383.879 3.59846 -0.345363 0
M  V30 3936 O 383.6 4.05256 -1.66432 0
M  V30 3937 C 385.101 4.4319 0.098927 0
M  V30 3938 H 382.321 0.656443 -0.139012 0
M  V30 3939 H 384.865 1.76786 -1.02796 0
M  V30 3940 H 383.02 3.86182 0.306955 0
M  V30 3941 H 383.434 4.99709 -1.59345 0
M  V30 3942 H 384.908 5.51989 0.0348745 0
M  V30 3943 H 385.385 4.23947 1.14741 0
M  V30 3944 H 385.991 4.22051 -0.52468 0
M  V30 3945 N 384.306 0.507319 1.49211 0
M  V30 3946 C 385.239 -0.314509 2.26022 0
M  V30 3947 C 386.217 -0.964849 1.30879 0
M  V30 3948 O 387.401 -0.993707 1.6018 0
M  V30 3949 C 384.528 -1.44346 3.06402 0
M  V30 3950 C 383.574 -0.90685 4.16748 0
M  V30 3951 S 384.407 0.207392 5.35098 0
M  V30 3952 C 385.563 -0.924573 6.19033 0
M  V30 3953 H 385.796 0.337416 2.95379 0
M  V30 3954 H 383.329 0.292718 1.516 0
M  V30 3955 H 385.287 -2.09029 3.53295 0
M  V30 3956 H 383.948 -2.06702 2.36502 0
M  V30 3957 H 383.141 -1.75309 4.72528 0
M  V30 3958 H 382.743 -0.33712 3.72478 0
M  V30 3959 H 385.035 -1.82839 6.52362 0
M  V30 3960 H 385.978 -0.405248 7.06939 0
M  V30 3961 H 386.386 -1.19476 5.51712 0
M  V30 3962 N 385.784 -1.5574 0.241426 0
M  V30 3963 C 386.714 -2.24133 -0.654722 0
M  V30 3964 C 387.695 -1.21974 -1.1856 0
M  V30 3965 O 388.88 -1.50612 -1.22595 0
M  V30 3966 C 386.01 -2.93659 -1.85423 0
M  V30 3967 C 384.964 -4.0246 -1.45636 0
M  V30 3968 C 384.29 -4.59383 -2.73626 0
M  V30 3969 C 385.59 -5.18468 -0.631506 0
M  V30 3970 H 387.284 -2.99281 -0.0844353 0
M  V30 3971 H 384.83 -1.43947 -0.0391707 0
M  V30 3972 H 386.783 -3.40203 -2.48676 0
M  V30 3973 H 385.507 -2.15991 -2.44981 0
M  V30 3974 H 384.166 -3.56676 -0.847202 0
M  V30 3975 H 383.814 -3.78422 -3.3137 0
M  V30 3976 H 383.514 -5.32826 -2.4773 0
M  V30 3977 H 385.038 -5.08658 -3.37786 0
M  V30 3978 H 386.452 -5.61272 -1.1682 0
M  V30 3979 H 384.849 -5.98266 -0.468831 0
M  V30 3980 H 385.919 -4.8358 0.357506 0
M  V30 3981 N 387.262 0.0317525 -1.57568 0
M  V30 3982 C 388.487 0.738664 -1.938 0
M  V30 3983 C 388.912 1.68242 -0.841208 0
M  V30 3984 O 388.27 1.80157 0.203267 0
M  V30 3985 C 388.318 1.47417 -3.29091 0
M  V30 3986 O 387.422 2.5872 -3.2115 0
M  V30 3987 H 386.763 0.198856 -0.633524 0
M  V30 3988 H 389.293 -0.0119713 -2.04596 0
M  V30 3989 H 389.303 1.84468 -3.63917 0
M  V30 3990 H 387.978 0.781988 -4.08482 0
M  V30 3991 H 386.555 2.24231 -2.97951 0
M  V30 3992 N 388.74 1.54641 0.303973 0
M  V30 3993 C 389.988 1.73437 1.0375 0
M  V30 3994 C 390.309 0.521449 1.87899 0
M  V30 3995 O 389.579 -0.46432 1.90318 0
M  V30 3996 H 388.159 0.639518 0.386039 0
M  V30 3997 H 390.821 1.91988 0.335675 0
M  V30 3998 H 389.917 2.62235 1.69231 0
M  V30 3999 N 390.218 -0.567019 1.47046 0
M  V30 4000 C 391.166 -1.69593 1.59188 0
M  V30 4001 C 392.16 -1.63046 0.459609 0
M  V30 4002 O 393.366 -1.6835 0.637058 0
M  V30 4003 H 389.741 -0.560993 0.500791 0
M  V30 4004 H 391.712 -1.56488 2.54075 0
M  V30 4005 C 390.461 -3.07964 1.61411 0
M  V30 4006 H 389.784 -3.13679 2.47881 0
M  V30 4007 H 391.224 -3.86671 1.73958 0
M  V30 4008 C 389.683 -3.35123 0.34559 0
M  V30 4009 O 390.213 -3.97812 -0.557521 0
M  V30 4010 N 388.419 -2.89699 0.22864 0
M  V30 4011 H 387.966 -2.38863 0.964479 0
M  V30 4012 H 387.924 -3.08242 -0.619192 0
M  V30 4013 N 391.696 -1.35014 -0.812953 0
M  V30 4014 C 392.659 -1.27292 -1.90602 0
M  V30 4015 C 393.659 -0.185817 -1.59723 0
M  V30 4016 O 394.849 -0.439102 -1.68575 0
M  V30 4017 C 391.981 -0.967676 -3.26877 0
M  V30 4018 H 393.174 -2.24479 -1.9887 0
M  V30 4019 H 390.727 -1.19446 -1.00808 0
M  V30 4020 H 391.462 0.0005954 -3.243 0
M  V30 4021 H 391.247 -1.75412 -3.50675 0
M  V30 4022 H 392.737 -0.939085 -4.06904 0
M  V30 4023 N 393.175 1.03435 -1.18907 0
M  V30 4024 C 394.423 1.76394 -0.986382 0
M  V30 4025 C 394.744 1.88883 0.484567 0
M  V30 4026 O 394.014 1.41843 1.3512 0
M  V30 4027 H 392.594 0.65344 -0.361975 0
M  V30 4028 H 395.256 1.248 -1.49703 0
M  V30 4029 H 394.352 2.77424 -1.42978 0
M  V30 4030 N 394.653 0.992116 1.22453 0
M  V30 4031 C 395.563 0.55065 2.28046 0
M  V30 4032 C 396.579 -0.400189 1.69335 0
M  V30 4033 O 397.755 -0.267215 1.99619 0
M  V30 4034 C 394.82 -0.128496 3.46462 0
M  V30 4035 C 393.881 0.865208 4.20491 0
M  V30 4036 C 393.114 0.218377 5.33253 0
M  V30 4037 O 393.337 -0.987894 5.6178 0
M  V30 4038 O 392.271 0.922845 5.94783 0
M  V30 4039 H 396.097 1.4291 2.67975 0
M  V30 4040 H 393.682 0.760326 1.28606 0
M  V30 4041 H 395.564 -0.508947 4.18315 0
M  V30 4042 H 394.239 -0.981526 3.0846 0
M  V30 4043 H 393.146 1.29658 3.50913 0
M  V30 4044 H 394.479 1.68741 4.62371 0
M  V30 4045 N 396.131 -1.37776 0.765217 0
M  V30 4046 C 397.379 -1.99454 0.325943 0
M  V30 4047 C 397.7 -1.61049 -1.09947 0
M  V30 4048 O 396.97 -0.872821 -1.75381 0
M  V30 4049 H 395.55 -0.737697 0.117525 0
M  V30 4050 H 398.212 -1.68359 0.981895 0
M  V30 4051 H 397.308 -3.09547 0.398353 0
M  V30 4052 N 397.609 -0.515225 -1.4894 0
M  V30 4053 C 398.572 0.244681 -2.2789 0
M  V30 4054 C 399.572 0.881166 -1.34507 0
M  V30 4055 O 400.762 0.743497 -1.57537 0
M  V30 4056 C 397.894 1.35247 -3.12923 0
M  V30 4057 H 399.087 -0.448289 -2.96531 0
M  V30 4058 H 396.64 -0.270656 -1.53939 0
M  V30 4059 H 397.375 2.07916 -2.48881 0
M  V30 4060 H 397.16 0.901374 -3.81599 0
M  V30 4061 H 398.65 1.88737 -3.72516 0
M  V30 4062 N 399.087 1.5561 -0.249682 0
M  V30 4063 C 400.315 2.03411 0.378352 0
M  V30 4064 C 400.73 1.12886 1.51335 0
M  V30 4065 O 400.087 0.143833 1.81932 0
M  V30 4066 C 400.138 3.50537 0.88351 0
M  V30 4067 O 399.859 4.37614 -0.20626 0
M  V30 4068 C 401.36 4.14113 1.58195 0
M  V30 4069 H 398.58 0.664994 0.08958 0
M  V30 4070 H 401.124 2.01044 -0.374357 0
M  V30 4071 H 399.279 3.5343 1.58639 0
M  V30 4072 H 399.693 5.24199 0.177782 0
M  V30 4073 H 401.167 5.18741 1.8871 0
M  V30 4074 H 401.644 3.60767 2.50487 0
M  V30 4075 H 402.25 4.15151 0.923573 0
M  V30 4076 N 400.565 -0.0233959 1.57583 0
M  V30 4077 C 401.528 -1.00693 2.05897 0
M  V30 4078 C 402.528 -1.28693 0.964092 0
M  V30 4079 O 403.718 -1.23602 1.22753 0
M  V30 4080 C 400.85 -2.33825 2.4807 0
M  V30 4081 H 402.043 -0.589476 2.9405 0
M  V30 4082 H 399.596 -0.270354 1.53944 0
M  V30 4083 H 400.331 -2.80307 1.6309 0
M  V30 4084 H 400.116 -2.1483 3.2801 0
M  V30 4085 H 401.606 -3.04426 2.85857 0
M  V30 4086 N 402.043 -1.548 -0.295768 0
M  V30 4087 C 403.283 -1.76069 -1.03823 0
M  V30 4088 C 403.647 -0.537992 -1.84309 0
M  V30 4089 O 404.848 -0.628514 -2.61349 0
M  V30 4090 C 403.119 -3.01705 -1.91596 0
M  V30 4091 S 404.678 -3.43998 -2.72416 0
M  V30 4092 H 401.496 -0.618852 -0.350062 0
M  V30 4093 H 404.098 -1.93009 -0.31106 0
M  V30 4094 H 402.802 -3.88812 -1.31351 0
M  V30 4095 H 402.333 -2.87366 -2.68671 0
M  V30 4096 H 404.348 -3.0148 -3.94112 0
M  V30 4097 N 403.521 0.559213 -1.47345 0
M  V30 4098 C 404.769 1.31388 -1.53563 0
M  V30 4099 C 405.09 1.93985 -0.198678 0
M  V30 4100 O 404.36 1.79825 0.777167 0
M  V30 4101 H 402.94 0.487901 -0.565652 0
M  V30 4102 H 405.602 0.65315 -1.8363 0
M  V30 4103 H 404.698 2.10844 -2.30111 0
M  V30 4104 N 404.999 1.35443 0.805782 0
M  V30 4105 C 406.247 1.28507 1.55982 0
M  V30 4106 C 406.568 -0.140046 1.94496 0
M  V30 4107 O 405.838 -1.07666 1.63661 0
M  V30 4108 H 404.418 0.472676 0.578434 0
M  V30 4109 H 407.08 1.69555 0.961098 0
M  V30 4110 H 406.176 1.90148 2.47488 0
M  V30 4111 N 406.477 -1.02803 1.19454 0
M  V30 4112 C 407.702 -1.80378 1.02364 0
M  V30 4113 C 408.127 -1.83282 -0.423007 0
M  V30 4114 O 407.485 -1.25945 -1.30413 0
M  V30 4115 C 407.533 -3.23248 1.59821 0
M  V30 4116 O 406.637 -4.04 0.828105 0
M  V30 4117 H 405.978 -0.556799 0.361761 0
M  V30 4118 H 408.508 -1.29385 1.58495 0
M  V30 4119 H 408.518 -3.73994 1.63073 0
M  V30 4120 H 407.193 -3.2045 2.65113 0
M  V30 4121 H 405.77 -3.62635 0.86891 0
M  V30 4122 N 407.956 -0.998596 -1.21925 0
M  V30 4123 C 408.919 -0.558679 -2.22287 0
M  V30 4124 C 409.919 0.361525 -1.56683 0
M  V30 4125 O 411.109 0.152695 -1.73529 0
M  V30 4126 C 408.241 0.18661 -3.40389 0
M  V30 4127 H 409.434 -1.4463 -2.62721 0
M  V30 4128 H 406.987 -0.786413 -1.35075 0
M  V30 4129 H 407.722 1.08996 -3.05435 0
M  V30 4130 H 407.507 -0.474188 -3.89222 0
M  V30 4131 H 408.997 0.482367 -4.14805 0
M  V30 4132 N 409.434 1.37368 -0.772513 0
M  V30 4133 C 410.397 2.28601 -0.165541 0
M  V30 4134 C 411.397 1.48062 0.627238 0
M  V30 4135 O 412.587 1.68268 0.450715 0
M  V30 4136 C 409.719 3.32023 0.772897 0
M  V30 4137 H 410.912 2.83787 -0.969787 0
M  V30 4138 H 408.465 1.46647 -0.540775 0
M  V30 4139 H 409.2 2.81962 1.60212 0
M  V30 4140 H 408.985 3.91555 0.206585 0
M  V30 4141 H 410.475 4.00197 1.19298 0
M  V30 4142 N 410.912 0.523116 1.48665 0
M  V30 4143 C 411.875 -0.232592 2.28017 0
M  V30 4144 C 412.875 -0.874021 1.34972 0
M  V30 4145 O 414.065 -0.735132 1.57929 0
M  V30 4146 C 411.197 -1.33586 3.13636 0
M  V30 4147 H 412.39 0.464008 2.96289 0
M  V30 4148 H 409.943 0.278816 1.53793 0
M  V30 4149 H 410.678 -2.06593 2.4998 0
M  V30 4150 H 410.463 -0.881125 3.82071 0
M  V30 4151 H 411.953 -1.86759 3.73511 0
M  V30 4152 N 412.39 -1.55475 0.257931 0
M  V30 4153 C 413.638 -1.98813 -0.363009 0
M  V30 4154 C 413.959 -1.14757 -1.57657 0
M  V30 4155 O 413.229 -0.232956 -1.9451 0
M  V30 4156 H 411.809 -0.734308 -0.137113 0
M  V30 4157 H 414.471 -1.9156 0.359281 0
M  V30 4158 H 413.567 -3.04941 -0.664634 0
M  V30 4159 N 413.868 0.0150385 -1.57593 0
M  V30 4160 C 414.8 1.03912 -2.04291 0
M  V30 4161 C 415.813 1.31618 -0.958146 0
M  V30 4162 O 417.002 1.28859 -1.23522 0
M  V30 4163 C 414.102 2.37749 -2.41514 0
M  V30 4164 C 413.275 2.29198 -3.72541 0
M  V30 4165 C 412.334 3.45598 -3.96797 0
M  V30 4166 O 411.36 3.24461 -4.67668 0
M  V30 4167 N 412.562 4.67945 -3.43523 0
M  V30 4168 H 415.327 0.64099 -2.92765 0
M  V30 4169 H 412.888 0.20272 -1.60626 0
M  V30 4170 H 414.88 3.14364 -2.54867 0
M  V30 4171 H 413.45 2.69357 -1.58637 0
M  V30 4172 H 412.67 1.3759 -3.69408 0
M  V30 4173 H 413.958 2.20642 -4.5847 0
M  V30 4174 H 413.356 4.88017 -2.86104 0
M  V30 4175 H 411.913 5.41878 -3.62232 0
M  V30 4176 N 415.346 1.54954 0.287554 0
M  V30 4177 C 416.623 1.65569 1.04146 0
M  V30 4178 C 417.003 0.512672 2.0478 0
M  V30 4179 O 416.351 -0.489038 2.23205 0
M  V30 4180 C 416.561 3.04163 1.71131 0
M  V30 4181 C 417.909 3.61429 2.22832 0
M  V30 4182 O 418.933 3.06702 1.81141 0
M  V30 4183 O 417.792 4.57281 2.9926 0
M  V30 4184 H 414.886 0.671881 0.482188 0
M  V30 4185 H 417.432 1.67297 0.28457 0
M  V30 4186 H 416.204 3.78796 0.981303 0
M  V30 4187 H 415.827 3.06271 2.53543 0
M  V30 4188 N 416.824 -0.551391 1.4764 0
M  V30 4189 C 417.754 -1.66757 1.63445 0
M  V30 4190 C 418.735 -1.63077 0.483742 0
M  V30 4191 O 419.92 -1.80607 0.71377 0
M  V30 4192 C 417.05 -3.05387 1.65396 0
M  V30 4193 C 416.004 -3.23918 2.79752 0
M  V30 4194 C 415.33 -4.63393 2.66779 0
M  V30 4195 C 416.63 -3.08735 4.21284 0
M  V30 4196 H 418.324 -1.53786 2.56886 0
M  V30 4197 H 415.87 -0.738415 1.23626 0
M  V30 4198 H 417.823 -3.83325 1.75043 0
M  V30 4199 H 416.547 -3.19332 0.685195 0
M  V30 4200 H 415.206 -2.48391 2.69625 0
M  V30 4201 H 414.854 -4.74144 1.67918 0
M  V30 4202 H 414.554 -4.7674 3.43501 0
M  V30 4203 H 416.078 -5.43458 2.78364 0
M  V30 4204 H 417.492 -3.76484 4.32357 0
M  V30 4205 H 415.889 -3.33588 4.98838 0
M  V30 4206 H 416.959 -2.0541 4.39243 0
M  V30 4207 N 418.302 -1.35869 -0.798587 0
M  V30 4208 C 419.551 -1.28921 -1.5512 0
M  V30 4209 C 419.864 0.13208 -1.95154 0
M  V30 4210 O 421.07 0.323879 -2.69561 0
M  V30 4211 C 419.526 -2.26141 -2.79979 0
M  V30 4212 C 419.134 -3.73658 -2.47151 0
M  V30 4213 C 420.878 -2.28152 -3.57976 0
M  V30 4214 C 418.785 -4.62679 -3.6835 0
M  V30 4215 H 417.715 -0.479031 -0.582276 0
M  V30 4216 H 420.366 -1.61179 -0.877125 0
M  V30 4217 H 418.748 -1.86865 -3.49138 0
M  V30 4218 H 419.922 -4.21616 -1.85947 0
M  V30 4219 H 418.237 -3.74333 -1.82383 0
M  V30 4220 H 420.834 -2.91875 -4.4801 0
M  V30 4221 H 421.177 -1.28748 -3.95891 0
M  V30 4222 H 421.71 -2.65998 -2.95787 0
M  V30 4223 H 418.449 -5.63111 -3.35538 0
M  V30 4224 H 417.969 -4.19442 -4.28752 0
M  V30 4225 H 419.648 -4.78498 -4.35487 0
M  V30 4226 N 419.78 1.02168 -1.19998 0
M  V30 4227 C 421.005 1.79833 -1.03319 0
M  V30 4228 C 421.43 1.83504 0.413281 0
M  V30 4229 O 420.788 1.26635 1.29743 0
M  V30 4230 C 420.836 3.22396 -1.61533 0
M  V30 4231 O 419.94 4.03555 -0.849519 0
M  V30 4232 H 419.281 0.554872 -0.364709 0
M  V30 4233 H 421.811 1.28542 -1.59179 0
M  V30 4234 H 421.821 3.73124 -1.65054 0
M  V30 4235 H 420.496 3.19039 -2.66809 0
M  V30 4236 H 419.073 3.62169 -0.888129 0
M  V30 4237 N 421.258 1.00505 1.21394 0
M  V30 4238 C 422.504 0.688793 1.90745 0
M  V30 4239 C 422.837 -0.778486 1.77914 0
M  V30 4240 O 422.112 -1.56433 1.15581 0
M  V30 4241 C 422.395 1.11063 3.42545 0
M  V30 4242 C 422.248 2.63737 3.64367 0
M  V30 4243 C 423.567 0.673059 4.34923 0
M  V30 4244 H 420.686 0.251702 0.692687 0
M  V30 4245 H 423.328 1.25074 1.43026 0
M  V30 4246 H 421.478 0.632508 3.83317 0
M  V30 4247 H 423.15 3.19313 3.32922 0
M  V30 4248 H 421.393 3.05248 3.08231 0
M  V30 4249 H 422.064 2.88305 4.70727 0
M  V30 4250 H 424.54 1.08392 4.01734 0
M  V30 4251 H 423.416 0.996383 5.39781 0
M  V30 4252 H 423.677 -0.425808 4.40045 0
M  V30 4253 N 422.737 -1.36956 0.779787 0
M  V30 4254 C 424.148 -1.82094 0.412156 0
M  V30 4255 C 424.499 -1.64926 -1.06273 0
M  V30 4256 O 423.624 -1.16483 -1.82375 0
M  V30 4257 C 424.219 -3.3059 0.741319 0
M  V30 4258 C 422.778 -3.73974 0.426641 0
M  V30 4259 C 421.925 -2.59368 0.980987 0
M  V30 4260 H 424.876 -1.25314 0.973758 0
M  V30 4261 H 424.897 -3.80489 0.028887 0
M  V30 4262 H 424.409 -3.43054 1.81482 0
M  V30 4263 H 422.51 -3.67076 -0.639215 0
M  V30 4264 H 422.623 -4.69778 0.940515 0
M  V30 4265 H 420.987 -2.51463 0.404757 0
M  V30 4266 H 421.77 -2.74621 2.06005 0
M  V30 4267 N 424.215 -0.530993 -1.48385 0
M  V30 4268 C 425.631 -0.188919 -1.58478 0
M  V30 4269 C 425.831 1.30786 -1.53288 0
M  V30 4270 O 424.887 2.08619 -1.42248 0
M  V30 4271 C 426.2 -0.792343 -2.90073 0
M  V30 4272 C 427.748 -0.76117 -3.03604 0
M  V30 4273 C 428.223 -1.34319 -4.37861 0
M  V30 4274 N 429.714 -1.3052 -4.44431 0
M  V30 4275 C 430.449 -1.72543 -5.46824 0
M  V30 4276 N 429.945 -2.22299 -6.56167 0
M  V30 4277 N 431.738 -1.63773 -5.37712 0
M  V30 4278 H 423.889 -1.50377 -1.50002 0
M  V30 4279 H 426.152 -0.625559 -0.712306 0
M  V30 4280 H 425.858 -1.84323 -2.99529 0
M  V30 4281 H 425.732 -0.270026 -3.76232 0
M  V30 4282 H 428.119 0.280957 -2.93759 0
M  V30 4283 H 428.2 -1.32097 -2.19053 0
M  V30 4284 H 427.844 -2.38425 -4.4846 0
M  V30 4285 H 427.774 -0.759064 -5.21101 0
M  V30 4286 H 430.265 -0.940973 -3.65997 0
M  V30 4287 H 430.578 -2.52356 -7.30436 0
M  V30 4288 H 428.923 -2.26293 -6.57127 0
M  V30 4289 H 432.114 -1.24698 -4.51185 0
M  V30 4290 H 432.287 -1.96844 -6.17379 0
M  V30 4291 N 425.693 1.55336 -0.266172 0
M  V30 4292 C 426.641 2.23587 0.641228 0
M  V30 4293 C 427.635 1.22986 1.16494 0
M  V30 4294 O 428.841 1.40943 1.1196 0
M  V30 4295 H 425.216 0.717452 0.225315 0
M  V30 4296 H 427.187 2.9837 0.0426561 0
M  V30 4297 C 425.936 2.96369 1.81826 0
M  V30 4298 H 425.259 3.73563 1.42445 0
M  V30 4299 H 426.699 3.47459 2.42998 0
M  V30 4300 C 425.158 2.0133 2.70125 0
M  V30 4301 O 425.688 1.55875 3.70224 0
M  V30 4302 N 423.894 1.6802 2.37102 0
M  V30 4303 H 423.441 2.05181 1.55751 0
M  V30 4304 H 423.399 1.047 2.96454 0
M  V30 4305 N 427.171 -0.0066808 1.57599 0
M  V30 4306 C 428.399 -0.704087 1.94551 0
M  V30 4307 C 428.814 -1.67677 0.867746 0
M  V30 4308 O 428.171 -1.8185 -0.153925 0
M  V30 4309 C 428.222 -1.44177 3.31505 0
M  V30 4310 O 427.943 -0.508097 4.35144 0
M  V30 4311 C 429.444 -2.23429 3.82876 0
M  V30 4312 H 426.664 -0.196523 0.641576 0
M  V30 4313 H 429.208 0.042453 2.04456 0
M  V30 4314 H 427.363 -2.13999 3.22929 0
M  V30 4315 H 427.777 -1.02782 5.14331 0
M  V30 4316 H 429.251 -2.70552 4.8115 0
M  V30 4317 H 429.728 -3.05818 3.15233 0
M  V30 4318 H 430.334 -1.58636 3.94607 0
M  V30 4319 N 428.649 -1.55105 -0.279332 0
M  V30 4320 C 429.896 -1.75412 -1.01177 0
M  V30 4321 C 430.224 -0.551728 -1.86511 0
M  V30 4322 O 429.479 0.465919 -1.90073 0
M  V30 4323 C 429.778 -3.0086 -1.92919 0
M  V30 4324 C 429.444 -4.33689 -1.23387 0
M  V30 4325 C 428.106 -4.69792 -1.04159 0
M  V30 4326 C 430.458 -5.15941 -0.738562 0
M  V30 4327 C 427.786 -5.85707 -0.341166 0
M  V30 4328 C 430.138 -6.32579 -0.0517636 0
M  V30 4329 C 428.802 -6.67326 0.152292 0
M  V30 4330 H 428.072 -0.641879 -0.370233 0
M  V30 4331 H 430.719 -1.89373 -0.284627 0
M  V30 4332 H 429.024 -2.81773 -2.72234 0
M  V30 4333 H 430.721 -3.13768 -2.49701 0
M  V30 4334 H 427.311 -4.05309 -1.39364 0
M  V30 4335 H 431.495 -4.8853 -0.874764 0
M  V30 4336 H 426.751 -6.11157 -0.172287 0
M  V30 4337 H 430.925 -6.9557 0.339828 0
M  V30 4338 H 428.552 -7.56998 0.697014 0
M  V30 4339 N 430.127 0.543554 -1.4793 0
M  V30 4340 C 431.06 1.66556 -1.55995 0
M  V30 4341 C 432.038 1.57315 -0.411205 0
M  V30 4342 O 433.222 1.7798 -0.620922 0
M  V30 4343 C 430.349 3.04883 -1.47527 0
M  V30 4344 C 429.395 3.32526 -2.67074 0
M  V30 4345 S 430.228 3.20282 -4.29162 0
M  V30 4346 C 431.384 4.61079 -4.23269 0
M  V30 4347 H 431.617 1.59462 -2.50917 0
M  V30 4348 H 429.15 0.725456 -1.36296 0
M  V30 4349 H 431.108 3.84665 -1.43328 0
M  V30 4350 H 429.769 3.09429 -0.539665 0
M  V30 4351 H 428.962 4.33403 -2.5725 0
M  V30 4352 H 428.564 2.60389 -2.68466 0
M  V30 4353 H 430.856 5.52318 -3.92365 0
M  V30 4354 H 431.799 4.75959 -5.24279 0
M  V30 4355 H 432.207 4.39766 -3.5393 0
M  V30 4356 N 431.605 1.3629 0.791371 0
M  V30 4357 C 432.833 1.33562 1.58016 0
M  V30 4358 C 433.248 -0.0835616 1.88615 0
M  V30 4359 O 432.605 -1.0399 1.49974 0
M  V30 4360 C 432.656 2.15517 2.90232 0
M  V30 4361 O 432.377 3.51902 2.60953 0
M  V30 4362 C 433.878 2.20546 3.84544 0
M  V30 4363 H 431.098 0.458226 0.490173 0
M  V30 4364 H 433.642 1.79361 0.982345 0
M  V30 4365 H 431.797 1.73278 3.46487 0
M  V30 4366 H 432.211 3.94644 3.4548 0
M  V30 4367 H 433.685 2.82252 4.74382 0
M  V30 4368 H 434.162 1.20838 4.2225 0
M  V30 4369 H 434.768 2.63013 3.34222 0
M  V30 4370 N 433.083 -1.0153 1.20538 0
M  V30 4371 C 434.013 -2.11972 0.979295 0
M  V30 4372 C 434.994 -1.6985 -0.0921787 0
M  V30 4373 O 436.179 -1.94089 0.0655932 0
M  V30 4374 C 433.309 -3.43201 0.531984 0
M  V30 4375 C 432.263 -3.9907 1.54685 0
M  V30 4376 C 431.589 -5.26082 0.956127 0
M  V30 4377 C 432.889 -4.32313 2.93092 0
M  V30 4378 H 434.583 -2.31143 1.90298 0
M  V30 4379 H 432.129 -1.11079 0.916372 0
M  V30 4380 H 434.082 -4.1985 0.361044 0
M  V30 4381 H 432.806 -3.23792 -0.427327 0
M  V30 4382 H 431.465 -3.2453 1.70517 0
M  V30 4383 H 431.113 -5.02999 -0.0111538 0
M  V30 4384 H 430.813 -5.64426 1.63393 0
M  V30 4385 H 432.337 -6.05386 0.796284 0
M  V30 4386 H 433.751 -4.99845 2.80763 0
M  V30 4387 H 432.148 -4.81774 3.57791 0
M  V30 4388 H 433.218 -3.41025 3.44717 0
M  V30 4389 N 434.561 -1.01147 -1.20859 0
M  V30 4390 C 435.491 -0.597663 -2.25722 0
M  V30 4391 C 436.472 0.384744 -1.65692 0
M  V30 4392 O 437.657 0.271303 -1.92296 0
M  V30 4393 C 434.787 0.0700149 -3.47229 0
M  V30 4394 C 433.741 -0.832843 -4.19819 0
M  V30 4395 C 433.067 -0.0312202 -5.34691 0
M  V30 4396 C 434.367 -2.1385 -4.76514 0
M  V30 4397 H 436.061 -1.47423 -2.60589 0
M  V30 4398 H 433.607 -0.710301 -1.25263 0
M  V30 4399 H 435.56 0.37103 -4.19763 0
M  V30 4400 H 434.284 0.981259 -3.11511 0
M  V30 4401 H 432.943 -1.11778 -3.49144 0
M  V30 4402 H 432.591 0.881515 -4.95215 0
M  V30 4403 H 432.291 -0.632434 -5.84187 0
M  V30 4404 H 433.815 0.26346 -6.10031 0
M  V30 4405 H 435.229 -1.9002 -5.40893 0
M  V30 4406 H 433.626 -2.69012 -5.36426 0
M  V30 4407 H 434.696 -2.80495 -3.95538 0
M  V30 4408 N 436.039 1.36541 -0.78704 0
M  V30 4409 C 436.971 2.28761 -0.141773 0
M  V30 4410 C 437.984 1.49365 0.647599 0
M  V30 4411 O 439.173 1.71836 0.483173 0
M  V30 4412 C 436.273 3.28771 0.822368 0
M  V30 4413 C 435.446 4.3732 0.0835594 0
M  V30 4414 C 434.505 5.17307 0.963296 0
M  V30 4415 O 433.531 5.67638 0.421419 0
M  V30 4416 N 434.733 5.33515 2.28784 0
M  V30 4417 H 437.498 2.84777 -0.933919 0
M  V30 4418 H 435.059 1.48682 -0.640735 0
M  V30 4419 H 437.051 3.79169 1.41468 0
M  V30 4420 H 435.621 2.73412 1.5154 0
M  V30 4421 H 434.841 3.88118 -0.689809 0
M  V30 4422 H 436.129 5.0701 -0.426358 0
M  V30 4423 H 435.527 4.94234 2.75226 0
M  V30 4424 H 434.084 5.87165 2.82985 0
M  V30 4425 N 437.518 0.538854 1.48102 0
M  V30 4426 C 438.746 0.0123136 2.06896 0
M  V30 4427 C 439.161 -1.27312 1.39417 0
M  V30 4428 O 438.518 -1.75949 0.484582 0
M  V30 4429 C 438.569 -0.206118 3.60912 0
M  V30 4430 O 438.29 1.0284 4.25859 0
M  V30 4431 C 439.791 -0.772033 4.36526 0
M  V30 4432 H 437.011 0.0375239 0.66995 0
M  V30 4433 H 439.555 0.747032 1.90367 0
M  V30 4434 H 437.71 -0.89091 3.77017 0
M  V30 4435 H 438.124 0.814654 5.18135 0
M  V30 4436 H 439.598 -0.874251 5.45033 0
M  V30 4437 H 440.075 -1.77904 4.01555 0
M  V30 4438 H 440.681 -0.123526 4.25121 0
M  V30 4439 N 438.996 -1.55193 0.274407 0
M  V30 4440 C 439.944 -2.23924 -0.629362 0
M  V30 4441 C 440.938 -1.23602 -1.1584 0
M  V30 4442 O 442.144 -1.41535 -1.11211 0
M  V30 4443 H 438.519 -0.718637 -0.221507 0
M  V30 4444 H 440.49 -2.98388 -0.0268322 0
M  V30 4445 C 439.239 -2.97329 -1.80252 0
M  V30 4446 H 438.562 -3.74313 -1.40462 0
M  V30 4447 H 440.002 -3.48743 -2.41152 0
M  V30 4448 C 438.461 -2.0276 -2.69054 0
M  V30 4449 O 438.991 -1.57836 -3.69392 0
M  V30 4450 N 437.197 -1.69275 -2.36208 0
M  V30 4451 H 436.744 -2.06004 -1.54661 0
M  V30 4452 H 436.702 -1.06271 -2.95895 0
M  V30 4453 N 440.474 -0.00167713 -1.576 0
M  V30 4454 C 441.404 0.988091 -2.11563 0
M  V30 4455 C 442.385 1.35736 -1.02517 0
M  V30 4456 O 443.57 1.44082 -1.30208 0
M  V30 4457 C 440.7 2.27941 -2.62031 0
M  V30 4458 C 439.654 2.0517 -3.75619 0
M  V30 4459 C 438.98 3.4033 -4.12407 0
M  V30 4460 C 440.28 1.41294 -5.02825 0
M  V30 4461 H 441.974 0.538771 -2.94513 0
M  V30 4462 H 439.52 0.257712 -1.41675 0
M  V30 4463 H 441.473 2.97539 -2.9841 0
M  V30 4464 H 440.197 2.74989 -1.76205 0
M  V30 4465 H 438.856 1.37998 -3.39635 0
M  V30 4466 H 438.504 3.85085 -3.23603 0
M  V30 4467 H 438.204 3.25909 -4.88935 0
M  V30 4468 H 439.728 4.1124 -4.51347 0
M  V30 4469 H 441.142 2.00851 -5.36965 0
M  V30 4470 H 439.539 1.37356 -5.84169 0
M  V30 4471 H 440.609 0.382362 -4.8339 0
M  V30 4472 N 441.952 1.55251 0.271103 0
M  V30 4473 C 443.229 1.66664 1.02384 0
M  V30 4474 C 443.609 0.534363 2.04225 0
M  V30 4475 O 442.957 -0.465337 2.23712 0
M  V30 4476 C 443.167 3.05961 1.67895 0
M  V30 4477 C 444.515 3.63772 2.18986 0
M  V30 4478 O 445.539 3.08606 1.77878 0
M  V30 4479 O 444.398 4.60429 2.94393 0
M  V30 4480 H 441.492 0.676957 0.475035 0
M  V30 4481 H 444.038 1.67589 0.26681 0
M  V30 4482 H 442.81 3.79815 0.941071 0
M  V30 4483 H 442.433 3.08943 2.5028 0
M  V30 4484 N 443.43 -0.535701 1.48216 0
M  V30 4485 C 444.378 -1.66179 1.62749 0
M  V30 4486 C 445.372 -1.62034 0.49409 0
M  V30 4487 O 446.578 -1.6696 0.672624 0
M  V30 4488 H 442.953 -0.550244 0.512578 0
M  V30 4489 H 444.924 -1.51063 2.57337 0
M  V30 4490 C 443.673 -3.04471 1.67907 0
M  V30 4491 H 442.996 -3.08351 2.54479 0
M  V30 4492 H 444.436 -3.82894 1.82121 0
M  V30 4493 C 442.895 -3.34314 0.416596 0
M  V30 4494 O 443.425 -3.98905 -0.473014 0
M  V30 4495 N 441.631 -2.89149 0.290038 0
M  V30 4496 H 441.178 -2.36764 1.01493 0
M  V30 4497 H 441.136 -3.09486 -0.55367 0
M  V30 4498 N 444.908 -1.36708 -0.784132 0
M  V30 4499 C 445.855 -1.31466 -1.89698 0
M  V30 4500 C 446.825 -0.18239 -1.65096 0
M  V30 4501 O 448.01 -0.369762 -1.87183 0
M  V30 4502 C 445.15 -1.1151 -3.26588 0
M  V30 4503 C 444.263 -2.33859 -3.63227 0
M  V30 4504 C 443.398 -2.06873 -4.89262 0
M  V30 4505 C 442.437 -3.25154 -5.18595 0
M  V30 4506 N 441.574 -2.978 -6.35814 0
M  V30 4507 H 446.414 -2.26619 -1.93515 0
M  V30 4508 H 443.951 -1.12625 -0.946256 0
M  V30 4509 H 445.909 -0.979653 -4.05535 0
M  V30 4510 H 444.539 -0.200103 -3.22179 0
M  V30 4511 H 443.591 -2.58188 -2.79362 0
M  V30 4512 H 444.903 -3.22109 -3.8085 0
M  V30 4513 H 444.057 -1.90289 -5.76086 0
M  V30 4514 H 442.796 -1.15942 -4.73718 0
M  V30 4515 H 441.801 -3.42292 -4.30251 0
M  V30 4516 H 443.026 -4.1692 -5.36055 0
M  V30 4517 H 440.972 -2.09485 -6.21653 0
M  V30 4518 H 440.889 -3.7959 -6.53794 0
M  V30 4519 H 442.157 -2.84805 -7.25607 0
M  V30 4520 N 446.386 1.0089 -1.21074 0
M  V30 4521 C 447.797 1.56056 -1.02486 0
M  V30 4522 C 448.148 1.91728 0.416506 0
M  V30 4523 O 447.273 1.73066 1.29912 0
M  V30 4524 C 447.868 2.83563 -1.85411 0
M  V30 4525 C 446.427 3.3523 -1.71166 0
M  V30 4526 C 445.574 2.0846 -1.82865 0
M  V30 4527 H 448.525 0.831818 -1.35154 0
M  V30 4528 H 448.546 3.55286 -1.36205 0
M  V30 4529 H 448.058 2.57569 -2.9031 0
M  V30 4530 H 446.159 3.66167 -0.689361 0
M  V30 4531 H 446.272 4.06913 -2.52901 0
M  V30 4532 H 444.636 2.21275 -1.26132 0
M  V30 4533 H 445.419 1.84883 -2.89263 0
M  V30 4534 N 447.864 1.01787 1.20321 0
M  V30 4535 C 449.275 0.739307 1.71438 0
M  V30 4536 C 449.626 -0.742041 1.81627 0
M  V30 4537 O 448.751 -1.57903 1.47971 0
M  V30 4538 C 449.346 1.33538 3.11373 0
M  V30 4539 C 447.905 1.10566 3.59795 0
M  V30 4540 C 447.052 1.44028 2.36962 0
M  V30 4541 H 450.003 1.18718 1.05317 0
M  V30 4542 H 450.024 0.726611 3.73498 0
M  V30 4543 H 449.536 2.41352 3.03926 0
M  V30 4544 H 447.637 0.0452405 3.72573 0
M  V30 4545 H 447.75 1.78661 4.44542 0
M  V30 4546 H 446.114 0.85933 2.39766 0
M  V30 4547 H 446.897 2.52901 2.32155 0
M  V30 4548 N 449.342 -1.36122 0.79427 0
M  V30 4549 C 450.758 -1.5232 0.476525 0
M  V30 4550 C 450.958 -1.74685 -1.00436 0
M  V30 4551 O 450.014 -1.78115 -1.78973 0
M  V30 4552 C 451.327 -2.70607 1.31119 0
M  V30 4553 C 452.875 -2.8448 1.30537 0
M  V30 4554 C 453.35 -4.05778 2.12387 0
M  V30 4555 N 454.841 -4.12933 2.09859 0
M  V30 4556 C 455.576 -5.05876 2.69957 0
M  V30 4557 N 455.072 -6.04232 3.38934 0
M  V30 4558 N 456.865 -4.98528 2.59665 0
M  V30 4559 H 449.016 -1.1986 1.75349 0
M  V30 4560 H 451.279 -0.585418 0.745647 0
M  V30 4561 H 450.985 -2.60619 2.36158 0
M  V30 4562 H 450.859 -3.64888 0.955843 0
M  V30 4563 H 453.246 -2.93927 0.262876 0
M  V30 4564 H 453.327 -1.91093 1.70051 0
M  V30 4565 H 452.971 -3.97092 3.1667 0
M  V30 4566 H 452.901 -4.98323 1.70242 0
M  V30 4567 H 455.392 -3.42515 1.59662 0
M  V30 4568 H 455.705 -6.71724 3.82109 0
M  V30 4569 H 454.05 -6.04443 3.43036 0
M  V30 4570 H 457.241 -4.20641 2.05375 0
M  V30 4571 H 457.414 -5.70773 3.06793 0
M  V30 4572 N 450.82 -0.546701 -1.47814 0
M  V30 4573 C 451.752 0.244196 -2.27895 0
M  V30 4574 C 452.765 0.88911 -1.36377 0
M  V30 4575 O 453.954 0.764733 -1.61289 0
M  V30 4576 C 451.054 1.36252 -3.10304 0
M  V30 4577 C 450.227 0.816382 -4.29714 0
M  V30 4578 C 449.286 1.81789 -4.93801 0
M  V30 4579 O 448.312 1.36818 -5.52512 0
M  V30 4580 N 449.514 3.15085 -4.87547 0
M  V30 4581 H 452.279 -0.442694 -2.96412 0
M  V30 4582 H 449.84 -0.382095 -1.57327 0
M  V30 4583 H 451.832 2.03102 -3.50045 0
M  V30 4584 H 450.402 1.95281 -2.44099 0
M  V30 4585 H 449.622 -0.0285981 -3.9419 0
M  V30 4586 H 450.91 0.430668 -5.06974 0
M  V30 4587 H 450.308 3.54275 -4.41028 0
M  V30 4588 H 448.865 3.77522 -5.31339 0
M  V30 4589 N 452.299 1.55045 -0.282633 0
M  V30 4590 C 453.527 2.04168 0.33512 0
M  V30 4591 C 453.942 1.16071 1.48906 0
M  V30 4592 O 453.299 0.182391 1.81586 0
M  V30 4593 C 453.35 3.52332 0.808957 0
M  V30 4594 O 453.071 4.37078 -0.299038 0
M  V30 4595 C 454.572 4.17375 1.49375 0
M  V30 4596 H 451.792 0.666744 0.0754543 0
M  V30 4597 H 454.336 2.00205 -0.416918 0
M  V30 4598 H 452.491 3.56715 1.51106 0
M  V30 4599 H 452.905 5.24458 0.0665514 0
M  V30 4600 H 454.379 5.22627 1.77664 0
M  V30 4601 H 454.856 3.65999 2.42778 0
M  V30 4602 H 455.462 4.17016 0.835305 0
M  V30 4603 N 453.777 0.010035 1.57597 0
M  V30 4604 C 455.188 -0.531426 1.78977 0
M  V30 4605 C 455.539 -1.73375 0.918454 0
M  V30 4606 O 454.664 -2.16047 0.123635 0
M  V30 4607 C 455.259 -0.97086 3.24592 0
M  V30 4608 C 453.818 -1.45756 3.47033 0
M  V30 4609 C 452.965 -0.413384 2.74201 0
M  V30 4610 H 455.916 0.236166 1.56933 0
M  V30 4611 H 455.937 -1.83633 3.33255 0
M  V30 4612 H 455.449 -0.0955893 3.87982 0
M  V30 4613 H 453.55 -2.35339 2.88871 0
M  V30 4614 H 453.663 -1.4781 4.55729 0
M  V30 4615 H 452.027 -0.877266 2.39115 0
M  V30 4616 H 452.81 0.453092 3.40297 0
M  V30 4617 N 455.255 -1.55392 -0.262866 0
M  V30 4618 C 456.185 -1.91978 -1.32917 0
M  V30 4619 C 457.166 -0.7828 -1.51017 0
M  V30 4620 O 458.351 -1.04178 -1.63892 0
M  V30 4621 C 455.481 -2.20055 -2.68687 0
M  V30 4622 C 454.435 -3.35854 -2.65304 0
M  V30 4623 C 453.761 -3.49435 -4.04721 0
M  V30 4624 C 455.061 -4.71977 -2.23685 0
M  V30 4625 H 456.755 -2.81292 -1.02544 0
M  V30 4626 H 454.301 -1.3534 -0.491846 0
M  V30 4627 H 456.254 -2.44237 -3.43404 0
M  V30 4628 H 454.978 -1.27551 -3.00663 0
M  V30 4629 H 453.637 -3.11655 -1.93045 0
M  V30 4630 H 453.285 -2.54379 -4.33936 0
M  V30 4631 H 452.985 -4.27297 -4.0335 0
M  V30 4632 H 454.509 -3.7592 -4.81161 0
M  V30 4633 H 455.923 -4.95637 -2.88127 0
M  V30 4634 H 454.32 -5.52828 -2.33456 0
M  V30 4635 H 455.39 -4.70115 -1.18827 0
M  V30 4636 N 456.733 0.527833 -1.48498 0
M  V30 4637 C 458.144 1.10975 -1.50138 0
M  V30 4638 C 458.495 1.943 -0.272378 0
M  V30 4639 O 457.62 2.07319 0.620301 0
M  V30 4640 C 458.215 2.01927 -2.72049 0
M  V30 4641 C 456.774 2.55332 -2.76554 0
M  V30 4642 C 455.921 1.32341 -2.43683 0
M  V30 4643 H 458.872 0.312986 -1.55583 0
M  V30 4644 H 458.893 2.86244 -2.50689 0
M  V30 4645 H 458.405 1.41254 -3.61481 0
M  V30 4646 H 456.506 3.19721 -1.91336 0
M  V30 4647 H 456.619 2.94319 -3.78038 0
M  V30 4648 H 454.983 1.63989 -1.94884 0
M  V30 4649 H 455.766 0.734165 -3.35358 0
M  V30 4650 N 458.211 1.37122 0.776871 0
M  V30 4651 C 459.441 1.35034 1.56363 0
M  V30 4652 C 459.849 -0.0674681 1.8908 0
M  V30 4653 O 459.192 -1.03826 1.51545 0
M  V30 4654 C 459.254 2.11894 2.90415 0
M  V30 4655 C 458.918 3.60897 2.80362 0
M  V30 4656 C 459.915 4.54887 2.51742 0
M  V30 4657 C 457.6 4.03951 2.98545 0
M  V30 4658 C 459.594 5.89909 2.41426 0
M  V30 4659 C 457.281 5.3906 2.87849 0
M  V30 4660 C 458.279 6.31852 2.5933 0
M  V30 4661 O 457.967 7.64479 2.48651 0
M  V30 4662 H 457.699 0.464402 0.49123 0
M  V30 4663 H 460.253 1.80992 0.971127 0
M  V30 4664 H 458.483 1.60618 3.51765 0
M  V30 4665 H 460.172 2.02505 3.51776 0
M  V30 4666 H 460.938 4.22934 2.37385 0
M  V30 4667 H 456.817 3.3209 3.19746 0
M  V30 4668 H 460.361 6.62304 2.19086 0
M  V30 4669 H 456.258 5.70617 3.01773 0
M  V30 4670 H 457.026 7.74742 2.64039 0
M  V30 4671 N 459.689 -1.00246 1.21608 0
M  V30 4672 C 460.652 -2.07233 0.979133 0
M  V30 4673 C 461.652 -1.6072 -0.0508219 0
M  V30 4674 O 462.842 -1.73196 0.186712 0
M  V30 4675 C 459.974 -3.37546 0.477016 0
M  V30 4676 H 461.167 -2.29687 1.92831 0
M  V30 4677 H 458.72 -1.17261 1.03342 0
M  V30 4678 H 459.455 -3.20773 -0.476966 0
M  V30 4679 H 459.24 -3.72638 1.21997 0
M  V30 4680 H 460.73 -4.16285 0.331181 0
M  V30 4681 N 461.167 -1.02423 -1.1978 0
M  V30 4682 C 462.13 -0.605703 -2.21052 0
M  V30 4683 C 463.13 0.328209 -1.57415 0
M  V30 4684 O 464.32 0.115853 -1.73814 0
M  V30 4685 C 461.452 0.114366 -3.40708 0
M  V30 4686 H 462.645 -1.5017 -2.59594 0
M  V30 4687 H 460.198 -0.814888 -1.33376 0
M  V30 4688 H 460.933 1.02492 -3.07678 0
M  V30 4689 H 460.718 -0.556641 -3.88129 0
M  V30 4690 H 462.208 0.394272 -4.15735 0
M  V30 4691 N 462.645 1.35699 -0.801477 0
M  V30 4692 C 464.056 1.81415 -0.441073 0
M  V30 4693 C 464.407 1.66595 1.03636 0
M  V30 4694 O 463.532 1.19369 1.80499 0
M  V30 4695 C 464.127 3.29369 -0.793819 0
M  V30 4696 C 462.686 3.73248 -0.486083 0
M  V30 4697 C 461.833 2.57775 -1.02213 0
M  V30 4698 H 464.784 1.23749 -0.993572 0
M  V30 4699 H 464.805 3.80395 -0.0894158 0
M  V30 4700 H 464.317 3.40123 -1.86917 0
M  V30 4701 H 462.418 3.68046 0.580735 0
M  V30 4702 H 462.531 4.68222 -1.01513 0
M  V30 4703 H 460.895 2.50788 -0.444712 0
M  V30 4704 H 461.678 2.71309 -2.10348 0
M  V30 4705 N 464.123 0.554532 1.47522 0
M  V30 4706 C 465.053 -0.182974 2.32782 0
M  V30 4707 C 466.034 -0.911377 1.43624 0
M  V30 4708 O 467.219 -0.892366 1.72483 0
M  V30 4709 C 464.349 -1.21513 3.25349 0
M  V30 4710 C 463.303 -0.603355 4.23726 0
M  V30 4711 C 462.629 -1.73995 5.05598 0
M  V30 4712 C 463.929 0.441121 5.20434 0
M  V30 4713 H 465.623 0.52882 2.94693 0
M  V30 4714 H 463.169 0.255759 1.41711 0
M  V30 4715 H 465.122 -1.73922 3.83835 0
M  V30 4716 H 463.846 -1.95683 2.61487 0
M  V30 4717 H 462.505 -0.10059 3.66462 0
M  V30 4718 H 462.153 -2.47063 4.38143 0
M  V30 4719 H 461.853 -1.3364 5.72201 0
M  V30 4720 H 463.377 -2.26735 5.66942 0
M  V30 4721 H 464.791 0.00319931 5.733 0
M  V30 4722 H 463.188 0.763402 5.95224 0
M  V30 4723 H 464.258 1.33799 4.66075 0
M  V30 4724 N 465.601 -1.54893 0.290851 0
M  V30 4725 C 467.012 -1.85584 -0.203816 0
M  V30 4726 C 467.363 -1.21285 -1.54222 0
M  V30 4727 O 466.488 -0.506841 -2.10381 0
M  V30 4728 C 467.083 -3.367 -0.376595 0
M  V30 4729 C 465.642 -3.6746 -0.815485 0
M  V30 4730 C 464.789 -2.77178 0.0821087 0
M  V30 4731 H 467.74 -1.50208 0.512175 0
M  V30 4732 H 467.761 -3.60656 -1.21275 0
M  V30 4733 H 467.273 -3.8347 0.59767 0
M  V30 4734 H 465.374 -3.26201 -1.80066 0
M  V30 4735 H 465.487 -4.7478 -0.641905 0
M  V30 4736 H 463.851 -2.50925 -0.436895 0
M  V30 4737 H 464.634 -3.26767 1.05254 0
M  V30 4738 N 467.08 -0.0183926 -1.57589 0
M  V30 4739 C 468.491 0.521927 -1.79256 0
M  V30 4740 C 468.842 1.72885 -0.927636 0
M  V30 4741 O 467.967 2.15978 -0.135091 0
M  V30 4742 C 468.562 0.953632 -3.25102 0
M  V30 4743 C 467.121 1.43913 -3.47801 0
M  V30 4744 C 466.268 0.398837 -2.74417 0
M  V30 4745 H 469.219 -0.244485 -1.56805 0
M  V30 4746 H 469.24 1.81863 -3.34224 0
M  V30 4747 H 468.752 0.0750123 -3.88028 0
M  V30 4748 H 466.853 2.33804 -2.90115 0
M  V30 4749 H 466.966 1.45391 -4.56507 0
M  V30 4750 H 465.33 0.864572 -2.39577 0
M  V30 4751 H 466.113 -0.471132 -3.40052 0
M  V30 4752 N 468.558 1.5553 0.254621 0
M  V30 4753 C 469.805 1.77 0.983736 0
M  V30 4754 C 470.133 0.58133 1.85609 0
M  V30 4755 O 469.388 -0.435621 1.9079 0
M  V30 4756 C 469.687 3.03891 1.88109 0
M  V30 4757 C 469.353 4.35597 1.16472 0
M  V30 4758 C 468.015 4.7139 0.966714 0
M  V30 4759 C 470.367 5.1705 0.656387 0
M  V30 4760 C 467.695 5.86176 0.247942 0
M  V30 4761 C 470.047 6.32581 -0.0488807 0
M  V30 4762 C 468.711 6.67 -0.258438 0
M  V30 4763 H 467.981 0.647688 0.359974 0
M  V30 4764 H 470.628 1.89802 0.254463 0
M  V30 4765 H 468.933 2.86068 2.67717 0
M  V30 4766 H 470.63 3.17701 2.44677 0
M  V30 4767 H 467.22 4.07475 1.32899 0
M  V30 4768 H 471.404 4.8986 0.796933 0
M  V30 4769 H 466.66 6.11354 0.075035 0
M  V30 4770 H 470.834 6.94942 -0.450444 0
M  V30 4771 H 468.461 7.55793 -0.817358 0
M  V30 4772 N 470.036 -0.519951 1.48776 0
M  V30 4773 C 471.261 -1.30447 1.6124 0
M  V30 4774 C 471.686 -1.86055 0.276591 0
M  V30 4775 O 471.044 -1.64915 -0.753183 0
M  V30 4776 C 471.092 -2.42406 2.66967 0
M  V30 4777 O 470.196 -3.45728 2.24824 0
M  V30 4778 H 469.537 -0.385924 0.540332 0
M  V30 4779 H 472.067 -0.624572 1.94834 0
M  V30 4780 H 472.077 -2.88447 2.88552 0
M  V30 4781 H 470.752 -2.01294 3.63941 0
M  V30 4782 H 469.329 -3.05737 2.13494 0
M  V30 4783 N 471.514 -1.37532 -0.769588 0
M  V30 4784 C 472.464 -1.29984 -1.87318 0
M  V30 4785 C 473.448 -0.187242 -1.59807 0
M  V30 4786 O 474.64 -0.421827 -1.719 0
M  V30 4787 C 471.769 -1.11126 -3.24817 0
M  V30 4788 C 470.855 -2.26939 -3.58273 0
M  V30 4789 N 471.246 -3.52336 -3.62895 0
M  V30 4790 C 469.544 -2.19141 -3.8845 0
M  V30 4791 C 470.245 -4.28719 -3.9316 0
M  V30 4792 N 469.221 -3.57884 -4.0917 0
M  V30 4793 H 473.023 -2.24946 -1.89147 0
M  V30 4794 H 470.537 -1.30535 -0.966143 0
M  V30 4795 H 472.534 -1.03803 -4.0377 0
M  V30 4796 H 471.194 -0.17083 -3.2425 0
M  V30 4797 H 472.205 -3.86216 -3.45048 0
M  V30 4798 H 468.882 -1.33167 -3.95693 0
M  V30 4799 H 470.272 -5.37254 -4.03494 0
M  V30 4800 N 472.992 0.995999 -1.22138 0
M  V30 4801 C 473.924 2.08745 -0.946485 0
M  V30 4802 C 474.937 1.62633 0.0737356 0
M  V30 4803 O 476.126 1.77782 -0.159886 0
M  V30 4804 C 473.226 3.36516 -0.401305 0
M  V30 4805 C 472.399 4.11672 -1.47801 0
M  V30 4806 C 471.458 5.17728 -0.940461 0
M  V30 4807 O 470.484 5.45482 -1.62596 0
M  V30 4808 N 471.686 5.80005 0.239723 0
M  V30 4809 H 474.451 2.32908 -1.88611 0
M  V30 4810 H 472.012 1.16152 -1.12785 0
M  V30 4811 H 474.004 4.04691 -0.0270837 0
M  V30 4812 H 472.574 3.0944 0.443354 0
M  V30 4813 H 471.794 3.38171 -2.02568 0
M  V30 4814 H 473.082 4.58657 -2.20253 0
M  V30 4815 H 472.48 5.5982 0.813518 0
M  V30 4816 H 471.037 6.4943 0.555361 0
M  V30 4817 N 474.47 1.03057 1.19235 0
M  V30 4818 C 475.433 0.617418 2.20727 0
M  V30 4819 C 476.433 -0.319856 1.57587 0
M  V30 4820 O 477.623 -0.106633 1.73873 0
M  V30 4821 C 474.755 -0.096296 3.40764 0
M  V30 4822 H 475.948 1.51544 2.58794 0
M  V30 4823 H 473.501 0.821949 1.32942 0
M  V30 4824 H 474.236 -1.00859 3.08217 0
M  V30 4825 H 474.021 0.577217 3.87828 0
M  V30 4826 H 475.511 -0.372219 4.15938 0
M  V30 4827 N 475.948 -1.35272 0.808662 0
M  V30 4828 C 477.197 -1.97963 0.386483 0
M  V30 4829 C 477.51 -1.64866 -1.05255 0
M  V30 4830 O 478.716 -2.20937 -1.57794 0
M  V30 4831 C 477.172 -3.54162 0.640096 0
M  V30 4832 C 476.78 -3.96166 2.0918 0
M  V30 4833 C 478.524 -4.23553 0.283376 0
M  V30 4834 C 476.431 -5.4522 2.29106 0
M  V30 4835 H 475.361 -0.740742 0.140774 0
M  V30 4836 H 478.012 -1.5431 0.993012 0
M  V30 4837 H 476.394 -3.95983 -0.0364117 0
M  V30 4838 H 477.568 -3.65491 2.80629 0
M  V30 4839 H 475.883 -3.3967 2.40859 0
M  V30 4840 H 478.48 -5.33124 0.410273 0
M  V30 4841 H 478.823 -4.09105 -0.770659 0
M  V30 4842 H 479.356 -3.8716 0.913884 0
M  V30 4843 H 476.095 -5.64638 3.32962 0
M  V30 4844 H 475.615 -5.77457 1.62184 0
M  V30 4845 H 477.294 -6.1171 2.1076 0
M  V30 4846 N 477.426 -0.562348 -1.47226 0
M  V30 4847 C 478.389 0.172056 -2.28553 0
M  V30 4848 C 479.389 0.837928 -1.37242 0
M  V30 4849 O 480.579 0.693001 -1.59822 0
M  V30 4850 C 477.711 1.25223 -3.17068 0
M  V30 4851 H 478.904 -0.542401 -2.94954 0
M  V30 4852 H 476.457 -0.319493 -1.53 0
M  V30 4853 H 477.192 1.99892 -2.55369 0
M  V30 4854 H 476.977 0.779515 -3.84273 0
M  V30 4855 H 478.467 1.76791 -3.78332 0
M  V30 4856 N 478.904 1.54736 -0.299062 0
M  V30 4857 C 480.132 2.04512 0.313447 0
M  V30 4858 C 480.547 1.17643 1.47667 0
M  V30 4859 O 479.904 0.20164 1.81383 0
M  V30 4860 C 479.955 3.53171 0.771542 0
M  V30 4861 O 479.676 4.36736 -0.345379 0
M  V30 4862 C 481.177 4.18936 1.4494 0
M  V30 4863 H 478.397 0.667507 0.0683784 0
M  V30 4864 H 480.941 1.99752 -0.438129 0
M  V30 4865 H 479.096 3.58298 1.47314 0
M  V30 4866 H 479.51 5.24499 0.0109219 0
M  V30 4867 H 480.984 5.24482 1.72111 0
M  V30 4868 H 481.461 3.68554 2.38883 0
M  V30 4869 H 482.067 4.17879 0.791028 0
M  V30 4870 N 480.382 0.0267497 1.57577 0
M  V30 4871 C 481.345 -0.940916 2.08996 0
M  V30 4872 C 482.345 -1.25561 1.00455 0
M  V30 4873 O 483.535 -1.19634 1.26623 0
M  V30 4874 C 480.667 -2.25814 2.55384 0
M  V30 4875 H 481.86 -0.495628 2.95776 0
M  V30 4876 H 479.413 -0.221241 1.54726 0
M  V30 4877 H 480.148 -2.74976 1.71926 0
M  V30 4878 H 479.933 -2.04285 3.34679 0
M  V30 4879 H 481.423 -2.95178 2.95398 0
M  V30 4880 N 481.861 -1.55662 -0.24637 0
M  V30 4881 C 483.272 -1.67953 -0.81539 0
M  V30 4882 C 483.623 -0.624302 -1.86002 0
M  V30 4883 O 482.748 0.229328 -2.15181 0
M  V30 4884 C 483.343 -3.04484 -1.48576 0
M  V30 4885 C 481.902 -3.18713 -2.00248 0
M  V30 4886 C 481.049 -2.6383 -0.853766 0
M  V30 4887 H 484 -1.58685 -0.0221692 0
M  V30 4888 H 484.021 -2.98959 -2.3538 0
M  V30 4889 H 483.533 -3.81264 -0.725222 0
M  V30 4890 H 481.634 -2.46757 -2.79181 0
M  V30 4891 H 481.747 -4.25628 -2.1995 0
M  V30 4892 H 480.111 -2.21667 -1.25442 0
M  V30 4893 H 480.894 -3.43135 -0.106302 0
M  V30 4894 N 483.339 0.512053 -1.4905 0
M  V30 4895 C 484.564 1.2959 -1.6193 0
M  V30 4896 C 484.989 1.85906 -0.286454 0
M  V30 4897 O 484.347 1.65312 0.744426 0
M  V30 4898 C 484.395 2.40987 -2.68249 0
M  V30 4899 O 483.499 3.44531 -2.26654 0
M  V30 4900 H 482.84 0.383053 -0.542371 0
M  V30 4901 H 485.37 0.614231 -1.95162 0
M  V30 4902 H 485.38 2.86913 -2.90078 0
M  V30 4903 H 484.055 1.99361 -3.65004 0
M  V30 4904 H 482.632 3.046 -2.15112 0
M  V30 4905 N 484.817 1.37938 0.762283 0
M  V30 4906 C 486.047 1.36685 1.54922 0
M  V30 4907 C 486.455 -0.0474099 1.89141 0
M  V30 4908 O 485.798 -1.02213 1.52638 0
M  V30 4909 C 485.86 2.14963 2.88152 0
M  V30 4910 C 485.524 3.6385 2.76518 0
M  V30 4911 C 486.521 4.57531 2.46904 0
M  V30 4912 C 484.206 4.07095 2.94243 0
M  V30 4913 C 486.2 5.92436 2.35156 0
M  V30 4914 C 483.887 5.42083 2.82116 0
M  V30 4915 C 484.885 6.34567 2.52614 0
M  V30 4916 O 484.573 7.67073 2.40529 0
M  V30 4917 H 484.305 0.469586 0.486276 0
M  V30 4918 H 486.859 1.82012 0.951876 0
M  V30 4919 H 485.089 1.6434 3.50042 0
M  V30 4920 H 486.778 2.06224 3.49609 0
M  V30 4921 H 487.544 4.25428 2.32886 0
M  V30 4922 H 483.423 3.35462 3.16206 0
M  V30 4923 H 486.967 6.64591 2.12049 0
M  V30 4924 H 482.864 5.73785 2.95704 0
M  V30 4925 H 483.632 7.77499 2.55807 0
M  V30 4926 N 486.295 -0.989507 1.22664 0
M  V30 4927 C 487.543 -1.72612 1.05117 0
M  V30 4928 C 487.864 -1.90552 -0.414131 0
M  V30 4929 O 487.134 -1.4676 -1.29762 0
M  V30 4930 H 485.714 -0.639555 0.385977 0
M  V30 4931 H 488.376 -1.19158 1.54232 0
M  V30 4932 H 487.472 -2.71926 1.53175 0
M  V30 4933 N 487.773 -1.03688 -1.18687 0
M  V30 4934 C 489.184 -0.766488 -1.70241 0
M  V30 4935 C 489.535 0.713052 -1.82784 0
M  V30 4936 O 488.66 1.55529 -1.50465 0
M  V30 4937 C 489.255 -1.38475 -3.09209 0
M  V30 4938 C 487.814 -1.16276 -3.5799 0
M  V30 4939 C 486.961 -1.4778 -2.34641 0
M  V30 4940 H 489.912 -1.20378 -1.03415 0
M  V30 4941 H 489.933 -0.785939 -3.72295 0
M  V30 4942 H 489.445 -2.46157 -3.00048 0
M  V30 4943 H 487.546 -0.104508 -3.72453 0
M  V30 4944 H 487.659 -1.8571 -4.41643 0
M  V30 4945 H 486.023 -0.897366 -2.38368 0
M  V30 4946 H 486.806 -2.56562 -2.28102 0
M  V30 4947 N 489.251 1.34841 -0.815825 0
M  V30 4948 C 490.499 1.98107 -0.399744 0
M  V30 4949 C 490.82 1.65019 1.03894 0
M  V30 4950 O 490.09 0.937311 1.72021 0
M  V30 4951 H 488.67 0.732827 -0.144823 0
M  V30 4952 H 491.332 1.64599 -1.0437 0
M  V30 4953 H 490.428 3.07856 -0.512965 0
M  V30 4954 N 490.729 0.570148 1.46925 0
M  V30 4955 C 491.692 -0.159933 2.28641 0
M  V30 4956 C 492.692 -0.830638 1.37685 0
M  V30 4957 O 493.882 -0.684516 1.60187 0
M  V30 4958 C 491.014 -1.2354 3.17727 0
M  V30 4959 H 492.207 0.558035 2.94662 0
M  V30 4960 H 489.76 0.327603 1.52828 0
M  V30 4961 H 490.495 -1.98535 2.56426 0
M  V30 4962 H 490.28 -0.759125 3.84681 0
M  V30 4963 H 491.77 -1.74782 3.79264 0
M  V30 4964 N 492.207 -1.54576 0.307264 0
M  V30 4965 C 493.455 -1.99867 -0.299574 0
M  V30 4966 C 493.776 -1.19714 -1.53927 0
M  V30 4967 O 493.046 -0.29472 -1.9367 0
M  V30 4968 H 491.626 -0.738299 -0.113683 0
M  V30 4969 H 494.288 -1.9032 0.420042 0
M  V30 4970 H 493.384 -3.06901 -0.567283 0
M  V30 4971 N 493.685 -0.035106 -1.57561 0
M  V30 4972 C 494.648 0.929819 -2.09492 0
M  V30 4973 C 495.648 1.25026 -1.01119 0
M  V30 4974 O 496.838 1.18961 -1.27255 0
M  V30 4975 C 493.97 2.24457 -2.56577 0
M  V30 4976 H 495.163 0.479935 -2.96035 0
M  V30 4977 H 492.716 0.213033 -1.54841 0
M  V30 4978 H 493.451 2.74061 -1.73382 0
M  V30 4979 H 493.236 2.02508 -3.35757 0
M  V30 4980 H 494.726 2.93607 -2.96959 0
M  V30 4981 N 495.163 1.55791 0.238111 0
M  V30 4982 C 496.409 1.78297 0.966337 0
M  V30 4983 C 496.742 0.601903 1.84637 0
M  V30 4984 O 496.017 -0.399499 1.90353 0
M  V30 4985 C 496.3 3.10758 1.81939 0
M  V30 4986 C 496.153 4.39283 0.966958 0
M  V30 4987 C 497.472 3.39519 2.80027 0
M  V30 4988 H 494.591 0.648654 0.349882 0
M  V30 4989 H 497.233 1.88525 0.236253 0
M  V30 4990 H 495.383 3.02168 2.44185 0
M  V30 4991 H 497.055 4.59873 0.362514 0
M  V30 4992 H 495.298 4.32948 0.271669 0
M  V30 4993 H 495.969 5.28368 1.59784 0
M  V30 4994 H 498.445 3.48128 2.27917 0
M  V30 4995 H 497.321 4.33402 3.36829 0
M  V30 4996 H 497.582 2.60864 3.56934 0
M  V30 4997 N 496.642 -0.504142 1.49319 0
M  V30 4998 C 497.605 -1.5883 1.65244 0
M  V30 4999 C 498.605 -1.52009 0.524386 0
M  V30 5000 O 499.795 -1.55218 0.79077 0
M  V30 5001 C 496.927 -2.98481 1.64687 0
M  V30 5002 H 498.12 -1.4604 2.61939 0
M  V30 5003 H 495.673 -0.728144 1.38303 0
M  V30 5004 H 496.408 -3.16751 0.695644 0
M  V30 5005 H 496.193 -3.0484 2.46607 0
M  V30 5006 H 497.683 -3.77256 1.79075 0
M  V30 5007 N 498.12 -1.38341 -0.754957 0
M  V30 5008 C 499.531 -1.30803 -1.3322 0
M  V30 5009 C 499.882 0.0368 -1.96165 0
M  V30 5010 O 499.007 0.938844 -1.94974 0
M  V30 5011 C 499.602 -2.3688 -2.42225 0
M  V30 5012 C 498.161 -2.32925 -2.95674 0
M  V30 5013 C 497.308 -2.19819 -1.69042 0
M  V30 5014 H 500.259 -1.48719 -0.553937 0
M  V30 5015 H 500.28 -2.02517 -3.22129 0
M  V30 5016 H 499.792 -3.34747 -1.96383 0
M  V30 5017 H 497.893 -1.38635 -3.45848 0
M  V30 5018 H 498.006 -3.27008 -3.50146 0
M  V30 5019 H 496.37 -1.66648 -1.92615 0
M  V30 5020 H 497.153 -3.19625 -1.25279 0
M  V30 5021 N 499.598 0.982988 -1.23187 0
M  V30 5022 C 500.561 2.05649 -1.01198 0
M  V30 5023 C 501.561 1.6078 0.0252464 0
M  V30 5024 O 502.751 1.72878 -0.214243 0
M  V30 5025 C 499.883 3.36744 -0.530656 0
M  V30 5026 H 501.076 2.2659 -1.96461 0
M  V30 5027 H 498.629 1.15602 -1.05195 0
M  V30 5028 H 499.364 3.21492 0.425873 0
M  V30 5029 H 499.149 3.7065 -1.2791 0
M  V30 5030 H 500.639 4.15705 -0.397366 0
M  V30 5031 N 501.076 1.04316 1.18135 0
M  V30 5032 C 502.324 0.746542 1.87806 0
M  V30 5033 C 502.645 -0.728082 1.80898 0
M  V30 5034 O 501.915 -1.52554 1.22899 0
M  V30 5035 H 500.495 0.273157 0.695265 0
M  V30 5036 H 503.157 1.32044 1.43354 0
M  V30 5037 H 502.253 1.05362 2.93778 0
M  V30 5038 N 502.554 -1.34406 0.822964 0
M  V30 5039 C 503.802 -1.97892 0.410245 0
M  V30 5040 C 504.123 -1.65567 -1.03017 0
M  V30 5041 O 503.393 -0.94642 -1.71522 0
M  V30 5042 H 501.973 -0.732049 0.148707 0
M  V30 5043 H 504.635 -1.64043 1.05242 0
M  V30 5044 H 503.731 -3.07579 0.529284 0
M  V30 5045 N 504.032 -0.577932 -1.46621 0
M  V30 5046 C 505.262 -0.0670668 -2.06491 0
M  V30 5047 C 505.67 1.24119 -1.42798 0
M  V30 5048 O 505.013 1.76016 -0.525759 0
M  V30 5049 C 505.075 0.177995 -3.59059 0
M  V30 5050 C 504.739 -1.04394 -4.44917 0
M  V30 5051 C 505.736 -1.95479 -4.81751 0
M  V30 5052 C 503.421 -1.26444 -4.86125 0
M  V30 5053 C 505.415 -3.06965 -5.58615 0
M  V30 5054 C 503.102 -2.38237 -5.62749 0
M  V30 5055 C 504.1 -3.28327 -5.98908 0
M  V30 5056 O 503.788 -4.38179 -6.73984 0
M  V30 5057 H 503.52 -0.0523159 -0.673973 0
M  V30 5058 H 506.074 -0.796966 -1.89308 0
M  V30 5059 H 504.304 0.962451 -3.74531 0
M  V30 5060 H 505.993 0.636782 -4.00874 0
M  V30 5061 H 506.759 -1.79657 -4.50498 0
M  V30 5062 H 502.638 -0.572316 -4.57434 0
M  V30 5063 H 506.182 -3.77309 -5.86757 0
M  V30 5064 H 502.079 -2.54023 -5.93416 0
M  V30 5065 H 502.847 -4.36486 -6.92403 0
M  V30 5066 N 505.51 1.54411 -0.315457 0
M  V30 5067 C 506.757 2.00419 0.289543 0
M  V30 5068 C 507.085 1.20373 1.52776 0
M  V30 5069 O 506.34 0.271769 1.93804 0
M  V30 5070 C 506.639 3.50936 0.676652 0
M  V30 5071 C 506.305 4.48532 -0.461472 0
M  V30 5072 C 504.967 4.74936 -0.773879 0
M  V30 5073 C 507.319 5.06567 -1.22637 0
M  V30 5074 C 504.647 5.56634 -1.85405 0
M  V30 5075 C 506.999 5.89441 -2.29657 0
M  V30 5076 C 505.663 6.1415 -2.61488 0
M  V30 5077 H 504.933 0.733386 0.105951 0
M  V30 5078 H 507.58 1.86434 -0.437554 0
M  V30 5079 H 505.885 3.62606 1.48405 0
M  V30 5080 H 507.582 3.83971 1.15618 0
M  V30 5081 H 504.172 4.28096 -0.207893 0
M  V30 5082 H 508.356 4.86157 -0.998271 0
M  V30 5083 H 503.612 5.74012 -2.10523 0
M  V30 5084 H 507.786 6.33432 -2.89374 0
M  V30 5085 H 505.413 6.77245 -3.45317 0
M  V30 5086 N 506.988 0.0434614 1.5754 0
M  V30 5087 C 508.216 -0.641835 1.96693 0
M  V30 5088 C 508.631 -1.64832 0.920652 0
M  V30 5089 O 507.988 -1.82247 -0.095993 0
M  V30 5090 C 508.039 -1.33557 3.35924 0
M  V30 5091 O 507.76 -0.369403 4.3654 0
M  V30 5092 C 509.261 -2.11135 3.89791 0
M  V30 5093 H 506.481 -0.176013 0.647503 0
M  V30 5094 H 509.025 0.107478 2.04217 0
M  V30 5095 H 507.18 -2.03617 3.29574 0
M  V30 5096 H 507.594 -0.863674 5.1734 0
M  V30 5097 H 509.068 -2.55107 4.89514 0
M  V30 5098 H 509.545 -2.95634 3.24803 0
M  V30 5099 H 510.151 -1.46002 3.99454 0
M  V30 5100 N 508.466 -1.55915 -0.229846 0
M  V30 5101 C 509.691 -1.8296 -0.976743 0
M  V30 5102 C 510.116 -0.622735 -1.77493 0
M  V30 5103 O 509.474 0.428431 -1.76165 0
M  V30 5104 C 509.522 -3.07916 -1.8767 0
M  V30 5105 O 508.626 -2.86028 -2.97088 0
M  V30 5106 H 507.967 -0.603453 -0.277021 0
M  V30 5107 H 510.497 -2.0312 -0.245669 0
M  V30 5108 H 510.507 -3.37802 -2.2881 0
M  V30 5109 H 509.182 -3.95389 -1.28996 0
M  V30 5110 H 507.759 -2.67355 -2.59954 0
M  V30 5111 N 509.944 0.496216 -1.49584 0
M  V30 5112 C 511.355 1.07765 -1.52459 0
M  V30 5113 C 511.706 1.93679 -0.31353 0
M  V30 5114 O 510.831 2.08588 0.576186 0
M  V30 5115 C 511.426 1.96111 -2.76271 0
M  V30 5116 C 509.985 2.49409 -2.81908 0
M  V30 5117 C 509.132 1.27142 -2.46435 0
M  V30 5118 H 512.083 0.279914 -1.56212 0
M  V30 5119 H 512.104 2.80862 -2.56704 0
M  V30 5120 H 511.616 1.33555 -3.64396 0
M  V30 5121 H 509.717 3.1559 -1.98074 0
M  V30 5122 H 509.83 2.86234 -3.84196 0
M  V30 5123 H 508.194 1.59818 -1.98319 0
M  V30 5124 H 508.977 0.662866 -3.3684 0
M  V30 5125 N 511.423 1.38739 0.74761 0
M  V30 5126 C 512.671 1.35007 1.50391 0
M  V30 5127 C 512.992 -0.0574274 1.94915 0
M  V30 5128 O 512.262 -1.00628 1.6808 0
M  V30 5129 H 510.842 0.496784 0.557866 0
M  V30 5130 H 513.504 1.73479 0.888319 0
M  V30 5131 H 512.6 2.00474 2.392 0
M  V30 5132 N 512.901 -0.976442 1.23707 0
M  V30 5133 C 514.149 -1.71487 1.06942 0
M  V30 5134 C 514.47 -1.9098 -0.393897 0
M  V30 5135 O 513.74 -1.48128 -1.28198 0
M  V30 5136 H 512.32 -0.635425 0.392739 0
M  V30 5137 H 514.982 -1.17515 1.55487 0
M  V30 5138 H 514.078 -2.70286 1.56051 0
M  V30 5139 N 514.379 -1.04941 -1.1758 0
M  V30 5140 C 515.609 -0.777166 -1.91425 0
M  V30 5141 C 516.017 0.670647 -1.76915 0
M  V30 5142 O 515.36 1.46965 -1.10213 0
M  V30 5143 C 515.422 -1.07495 -3.43052 0
M  V30 5144 C 515.086 -2.51844 -3.81345 0
M  V30 5145 C 516.083 -3.50047 -3.844 0
M  V30 5146 C 513.768 -2.86787 -4.12382 0
M  V30 5147 C 515.762 -4.81239 -4.17957 0
M  V30 5148 C 513.449 -4.18182 -4.45608 0
M  V30 5149 C 514.447 -5.15219 -4.48373 0
M  V30 5150 O 514.135 -6.44258 -4.80819 0
M  V30 5151 H 513.867 -0.282209 -0.614275 0
M  V30 5152 H 516.421 -1.40258 -1.50056 0
M  V30 5153 H 514.651 -0.392437 -3.84704 0
M  V30 5154 H 516.34 -0.78912 -3.98155 0
M  V30 5155 H 517.106 -3.24391 -3.60548 0
M  V30 5156 H 512.985 -2.11922 -4.09402 0
M  V30 5157 H 516.529 -5.56974 -4.2003 0
M  V30 5158 H 512.426 -4.43602 -4.68922 0
M  V30 5159 H 513.194 -6.49041 -4.98686 0
M  V30 5160 N 515.857 1.33968 -0.830081 0
M  V30 5161 C 517.087 2.01987 -0.434142 0
M  V30 5162 C 517.495 1.62639 0.96671 0
M  V30 5163 O 516.838 0.831151 1.63822 0
M  V30 5164 C 516.9 3.5648 -0.465018 0
M  V30 5165 C 516.564 4.19176 -1.82045 0
M  V30 5166 C 517.561 4.39181 -2.78237 0
M  V30 5167 C 515.246 4.55792 -2.11089 0
M  V30 5168 C 517.24 4.94937 -4.01642 0
M  V30 5169 C 514.927 5.11258 -3.34752 0
M  V30 5170 C 515.925 5.30775 -4.29845 0
M  V30 5171 O 515.613 5.85064 -5.51322 0
M  V30 5172 H 515.345 0.653847 -0.171639 0
M  V30 5173 H 517.899 1.72066 -1.12171 0
M  V30 5174 H 516.129 3.8569 0.279284 0
M  V30 5175 H 517.818 4.05804 -0.0881334 0
M  V30 5176 H 518.584 4.11249 -2.57097 0
M  V30 5177 H 514.463 4.39901 -1.3787 0
M  V30 5178 H 518.007 5.10086 -4.75876 0
M  V30 5179 H 513.904 5.38619 -3.55753 0
M  V30 5180 H 514.672 6.03489 -5.5294 0
M  V30 5181 N 517.335 0.585699 1.46312 0
M  V30 5182 C 518.298 -0.135673 2.28798 0
M  V30 5183 C 519.298 -0.815988 1.38558 0
M  V30 5184 O 520.488 -0.667487 1.60904 0
M  V30 5185 C 517.62 -1.20163 3.1902 0
M  V30 5186 H 518.813 0.589257 2.94054 0
M  V30 5187 H 516.366 0.343794 1.52472 0
M  V30 5188 H 517.101 -1.95804 2.58517 0
M  V30 5189 H 516.886 -0.718282 3.85465 0
M  V30 5190 H 518.376 -1.70749 3.81096 0
M  V30 5191 N 518.813 -1.54241 0.323641 0
M  V30 5192 C 520.061 -2.00174 -0.278359 0
M  V30 5193 C 520.382 -1.2134 -1.52648 0
M  V30 5194 O 519.652 -0.315244 -1.93347 0
M  V30 5195 H 518.232 -0.739463 -0.105845 0
M  V30 5196 H 520.894 -1.89864 0.440204 0
M  V30 5197 H 519.99 -3.07486 -0.5347 0
M  V30 5198 N 520.291 -0.0518155 -1.57515 0
M  V30 5199 C 521.702 0.483787 -1.80323 0
M  V30 5200 C 522.053 1.70879 -0.964099 0
M  V30 5201 O 521.178 2.15643 -0.180872 0
M  V30 5202 C 521.773 0.884459 -3.27052 0
M  V30 5203 C 520.332 1.36504 -3.50776 0
M  V30 5204 C 519.479 0.340539 -2.75201 0
M  V30 5205 H 522.43 -0.277691 -1.56252 0
M  V30 5206 H 522.451 1.74733 -3.38007 0
M  V30 5207 H 521.963 -0.00731093 -3.88099 0
M  V30 5208 H 520.064 2.27598 -2.95009 0
M  V30 5209 H 520.177 1.35675 -4.59488 0
M  V30 5210 H 518.541 0.81356 -2.41357 0
M  V30 5211 H 519.324 -0.543156 -3.38976 0
M  V30 5212 N 521.769 1.56035 0.221574 0
M  V30 5213 C 522.732 1.91584 1.2581 0
M  V30 5214 C 523.732 0.794425 1.39805 0
M  V30 5215 O 524.922 1.06217 1.38071 0
M  V30 5216 C 522.054 2.16663 2.63192 0
M  V30 5217 H 523.247 2.8429 0.954935 0
M  V30 5218 H 520.8 1.49316 0.461988 0
M  V30 5219 H 521.535 1.26508 2.98607 0
M  V30 5220 H 521.32 2.98358 2.5441 0
M  V30 5221 H 522.81 2.45262 3.37988 0
M  V30 5222 N 523.247 -0.488276 1.49845 0
M  V30 5223 C 524.495 -1.23911 1.59657 0
M  V30 5224 C 524.816 -1.92816 0.291005 0
M  V30 5225 O 524.086 -1.83328 -0.690485 0
M  V30 5226 H 522.666 -0.460357 0.588286 0
M  V30 5227 H 525.328 -0.564794 1.86537 0
M  V30 5228 H 524.424 -1.99625 2.39909 0
M  V30 5229 N 524.725 -1.39134 -0.740242 0
M  V30 5230 C 525.973 -1.35803 -1.49673 0
M  V30 5231 C 526.294 0.0470897 -1.94943 0
M  V30 5232 O 525.564 0.997347 -1.68611 0
M  V30 5233 H 524.144 -0.499736 -0.555224 0
M  V30 5234 H 526.806 -1.73947 -0.879107 0
M  V30 5235 H 525.902 -2.0174 -2.38133 0
M  V30 5236 N 526.204 0.969867 -1.24223 0
M  V30 5237 C 527.481 1.68774 -0.988664 0
M  V30 5238 C 527.861 2.05342 0.489673 0
M  V30 5239 O 527.209 1.75486 1.46345 0
M  V30 5240 C 527.419 2.92135 -1.90941 0
M  V30 5241 C 528.767 3.64422 -2.17903 0
M  V30 5242 O 529.791 3.02188 -1.88576 0
M  V30 5243 O 528.65 4.76446 -2.67697 0
M  V30 5244 H 525.744 0.737736 -0.37373 0
M  V30 5245 H 528.29 1.02415 -1.35312 0
M  V30 5246 H 527.062 2.61788 -2.90831 0
M  V30 5247 H 526.685 3.66228 -1.54798 0
M  V30 5248 N 527.682 1.05563 1.17022 0
M  V30 5249 C 529.093 0.793475 1.69 0
M  V30 5250 C 529.444 -0.683882 1.83895 0
M  V30 5251 O 528.569 -1.53116 1.5292 0
M  V30 5252 C 529.164 1.43376 3.06967 0
M  V30 5253 C 527.723 1.21956 3.56095 0
M  V30 5254 C 526.87 1.51494 2.3226 0
M  V30 5255 H 529.821 1.22008 1.01487 0
M  V30 5256 H 529.842 0.845068 3.70997 0
M  V30 5257 H 529.354 2.50899 2.96093 0
M  V30 5258 H 527.455 0.163749 3.7224 0
M  V30 5259 H 527.568 1.92713 4.38633 0
M  V30 5260 H 525.932 0.935175 2.3691 0
M  V30 5261 H 526.715 2.60159 2.23992 0
M  V30 5262 N 529.16 -1.33526 0.837174 0
M  V30 5263 C 530.408 -1.97446 0.431211 0
M  V30 5264 C 530.729 -1.6665 -1.01255 0
M  V30 5265 O 529.999 -0.964559 -1.70508 0
M  V30 5266 H 528.579 -0.73043 0.156463 0
M  V30 5267 H 531.241 -1.62918 1.06976 0
M  V30 5268 H 530.337 -3.07001 0.561877 0
M  V30 5269 N 530.638 -0.59345 -1.46 0
M  V30 5270 C 531.601 0.123538 -2.28867 0
M  V30 5271 C 532.601 0.808628 -1.38989 0
M  V30 5272 O 533.791 0.658945 -1.61256 0
M  V30 5273 C 530.923 1.1847 -3.19653 0
M  V30 5274 H 532.116 -0.604843 -2.93737 0
M  V30 5275 H 529.669 -0.351875 -1.52288 0
M  V30 5276 H 530.404 1.94431 -2.59552 0
M  V30 5277 H 530.189 0.69783 -3.8584 0
M  V30 5278 H 531.679 1.68726 -3.81997 0
M  V30 5279 N 532.116 1.54067 -0.331816 0
M  V30 5280 C 533.363 2.00715 0.268269 0
M  V30 5281 C 533.691 1.21986 1.51491 0
M  V30 5282 O 532.946 0.292309 1.93505 0
M  V30 5283 C 533.245 3.51634 0.639392 0
M  V30 5284 C 532.911 4.48018 -0.509019 0
M  V30 5285 C 531.573 4.74089 -0.824209 0
M  V30 5286 C 533.925 5.05237 -1.28003 0
M  V30 5287 C 531.253 5.54637 -1.91298 0
M  V30 5288 C 533.605 5.86972 -2.35895 0
M  V30 5289 C 532.269 6.11342 -2.67987 0
M  V30 5290 H 531.539 0.734469 0.0981667 0
M  V30 5291 H 534.186 1.8596 -0.457304 0
M  V30 5292 H 532.491 3.6416 1.44551 0
M  V30 5293 H 534.188 3.85175 1.11539 0
M  V30 5294 H 530.778 4.27851 -0.253287 0
M  V30 5295 H 534.962 4.8507 -1.04978 0
M  V30 5296 H 530.218 5.71747 -2.16599 0
M  V30 5297 H 534.392 6.30327 -2.96076 0
M  V30 5298 H 532.019 6.73544 -3.5248 0
M  V30 5299 N 533.594 0.0601682 1.57485 0
M  V30 5300 C 534.524 -0.90889 2.15085 0
M  V30 5301 C 535.505 -1.31838 1.07484 0
M  V30 5302 O 536.69 -1.3915 1.35466 0
M  V30 5303 C 533.82 -2.18059 2.7031 0
M  V30 5304 C 532.774 -1.91088 3.82974 0
M  V30 5305 C 532.1 -3.24789 4.24754 0
M  V30 5306 C 533.4 -1.22535 5.07723 0
M  V30 5307 H 535.094 -0.429093 2.96309 0
M  V30 5308 H 532.64 -0.204952 1.42534 0
M  V30 5309 H 534.593 -2.86258 3.09248 0
M  V30 5310 H 533.317 -2.6826 1.8629 0
M  V30 5311 H 531.976 -1.25297 3.44523 0
M  V30 5312 H 531.624 -3.72809 3.37672 0
M  V30 5313 H 531.324 -3.07538 5.00694 0
M  V30 5314 H 532.848 -3.94205 4.66299 0
M  V30 5315 H 534.262 -1.80783 5.4405 0
M  V30 5316 H 532.659 -1.1558 5.88864 0
M  V30 5317 H 533.729 -0.202692 4.84476 0
M  V30 5318 N 535.072 -1.5615 -0.213296 0
M  V30 5319 C 536.035 -1.92249 -1.24792 0
M  V30 5320 C 537.035 -0.801828 -1.39382 0
M  V30 5321 O 538.225 -1.06948 -1.37506 0
M  V30 5322 C 535.357 -2.18056 -2.62039 0
M  V30 5323 H 536.55 -2.84793 -0.939845 0
M  V30 5324 H 534.103 -1.49559 -0.454062 0
M  V30 5325 H 534.838 -1.2809 -2.97932 0
M  V30 5326 H 534.623 -2.99703 -2.52825 0
M  V30 5327 H 536.113 -2.47051 -3.36683 0
M  V30 5328 N 536.55 0.480323 -1.50102 0
M  V30 5329 C 537.483 1.59789 -1.62919 0
M  V30 5330 C 538.461 1.55429 -0.477557 0
M  V30 5331 O 539.645 1.75186 -0.695851 0
M  V30 5332 C 536.772 2.98351 -1.60325 0
M  V30 5333 C 535.818 3.20899 -2.80938 0
M  V30 5334 S 536.651 3.01791 -4.4236 0
M  V30 5335 C 537.807 4.42712 -4.42444 0
M  V30 5336 H 538.04 1.48676 -2.57454 0
M  V30 5337 H 535.573 0.666996 -1.3925 0
M  V30 5338 H 537.531 3.7824 -1.59514 0
M  V30 5339 H 536.192 3.06862 -0.670419 0
M  V30 5340 H 535.385 4.22102 -2.75401 0
M  V30 5341 H 534.987 2.48768 -2.79268 0
M  V30 5342 H 537.279 5.3518 -4.15438 0
M  V30 5343 H 538.222 4.53294 -5.43995 0
M  V30 5344 H 538.63 4.24359 -3.72263 0
M  V30 5345 N 538.028 1.39524 0.732853 0
M  V30 5346 C 539.305 1.27373 1.48444 0
M  V30 5347 C 539.685 -0.115725 2.10783 0
M  V30 5348 O 539.033 -1.12713 1.98766 0
M  V30 5349 C 539.243 2.39966 2.53412 0
M  V30 5350 C 540.591 2.79384 3.19733 0
M  V30 5351 O 541.615 2.39431 2.63725 0
M  V30 5352 O 540.474 3.48353 4.21085 0
M  V30 5353 H 537.568 0.499272 0.659285 0
M  V30 5354 H 540.114 1.51403 0.766496 0
M  V30 5355 H 538.886 3.32845 2.05742 0
M  V30 5356 H 538.509 2.17612 3.32762 0
M  V30 5357 N 539.506 -0.963266 1.24736 0
M  V30 5358 C 540.469 -2.04013 1.04457 0
M  V30 5359 C 541.469 -1.608 0.000335555 0
M  V30 5360 O 542.659 -1.72515 0.241719 0
M  V30 5361 C 539.791 -3.35858 0.584162 0
M  V30 5362 H 540.984 -2.23436 2.00041 0
M  V30 5363 H 538.537 -1.13914 1.07021 0
M  V30 5364 H 539.272 -3.22128 -0.374673 0
M  V30 5365 H 539.057 -3.68568 1.3379 0
M  V30 5366 H 540.547 -4.1502 0.463451 0
M  V30 5367 N 540.985 -1.06182 -1.16461 0
M  V30 5368 C 541.935 -0.641619 -2.18786 0
M  V30 5369 C 542.919 0.327122 -1.5754 0
M  V30 5370 O 544.111 0.142746 -1.76423 0
M  V30 5371 C 541.24 -0.0283734 -3.43288 0
M  V30 5372 C 540.326 -1.02154 -4.11613 0
M  V30 5373 N 540.717 -2.19671 -4.55608 0
M  V30 5374 C 539.015 -0.852229 -4.37782 0
M  V30 5375 C 539.716 -2.82583 -5.0845 0
M  V30 5376 N 538.692 -2.10318 -5.01266 0
M  V30 5377 H 542.494 -1.53684 -2.50516 0
M  V30 5378 H 540.008 -0.933349 -1.329 0
M  V30 5379 H 542.005 0.29049 -4.15887 0
M  V30 5380 H 540.665 0.862118 -3.13046 0
M  V30 5381 H 541.676 -2.57453 -4.49375 0
M  V30 5382 H 538.353 -0.0136314 -4.17498 0
M  V30 5383 H 539.743 -3.82298 -5.52538 0
M  V30 5384 N 542.463 1.3308 -0.844243 0
M  V30 5385 C 543.691 2.01808 -0.456203 0
M  V30 5386 C 544.106 1.63498 0.944131 0
M  V30 5387 O 543.463 0.85102 1.61443 0
M  V30 5388 C 543.514 3.56922 -0.573513 0
M  V30 5389 O 543.235 3.93851 -1.91868 0
M  V30 5390 C 544.736 4.42922 -0.183125 0
M  V30 5391 H 541.956 0.646273 -0.180477 0
M  V30 5392 H 544.5 1.69891 -1.1383 0
M  V30 5393 H 542.655 3.87352 0.0607367 0
M  V30 5394 H 543.069 4.88564 -1.90802 0
M  V30 5395 H 544.543 5.51093 -0.316241 0
M  V30 5396 H 545.02 4.30386 0.875477 0
M  V30 5397 H 545.626 4.1786 -0.792027 0
M  V30 5398 N 543.941 0.601185 1.45683 0
M  V30 5399 C 545.171 0.0999093 2.06358 0
M  V30 5400 C 545.579 -1.21831 1.44754 0
M  V30 5401 O 544.922 -1.75157 0.553695 0
M  V30 5402 C 544.984 -0.12085 3.59297 0
M  V30 5403 C 544.648 1.11459 4.432 0
M  V30 5404 C 545.645 2.03118 4.7858 0
M  V30 5405 C 543.33 1.34162 4.84051 0
M  V30 5406 C 545.324 3.15814 5.53661 0
M  V30 5407 C 543.011 2.4716 5.58888 0
M  V30 5408 C 544.009 3.37814 5.93608 0
M  V30 5409 O 543.697 4.48846 6.66928 0
M  V30 5410 H 543.429 0.0630316 0.673055 0
M  V30 5411 H 545.983 0.826982 1.88016 0
M  V30 5412 H 544.213 -0.902744 3.76015 0
M  V30 5413 H 545.902 -0.572925 4.01836 0
M  V30 5414 H 546.668 1.86801 4.47583 0
M  V30 5415 H 542.547 0.645018 4.56465 0
M  V30 5416 H 546.091 3.86596 5.8068 0
M  V30 5417 H 541.988 2.63432 5.89299 0
M  V30 5418 H 542.756 4.47446 6.85371 0
M  V30 5419 N 545.419 -1.53889 0.339982 0
M  V30 5420 C 546.369 -2.2165 -0.534354 0
M  V30 5421 C 547.353 -1.20266 -1.06887 0
M  V30 5422 O 548.545 -1.45827 -1.00316 0
M  V30 5423 C 545.674 -2.99014 -1.68659 0
M  V30 5424 C 544.76 -4.07751 -1.16618 0
M  V30 5425 N 545.151 -5.04469 -0.366717 0
M  V30 5426 C 543.449 -4.21998 -1.4434 0
M  V30 5427 C 544.15 -5.81638 -0.0847275 0
M  V30 5428 N 543.126 -5.39388 -0.675391 0
M  V30 5429 H 546.928 -2.93781 0.0835562 0
M  V30 5430 H 544.442 -1.61736 0.146665 0
M  V30 5431 H 546.439 -3.46056 -2.32489 0
M  V30 5432 H 545.099 -2.28408 -2.30781 0
M  V30 5433 H 546.11 -5.17899 -0.00811038 0
M  V30 5434 H 542.787 -3.62612 -2.06928 0
M  V30 5435 H 544.177 -6.69563 0.559943 0
M  V30 5436 N 546.897 -0.0685191 -1.57451 0
M  V30 5437 C 548.308 0.464634 -1.80826 0
M  V30 5438 C 548.659 1.69847 -0.982169 0
M  V30 5439 O 547.784 2.15439 -0.203734 0
M  V30 5440 C 548.379 0.849721 -3.27971 0
M  V30 5441 C 546.938 1.32776 -3.52204 0
M  V30 5442 C 546.085 0.311332 -2.75547 0
M  V30 5443 H 549.036 -0.294248 -1.55948 0
M  V30 5444 H 549.057 1.71138 -3.39841 0
M  V30 5445 H 548.569 -0.0484736 -3.8807 0
M  V30 5446 H 546.67 2.24456 -2.97406 0
M  V30 5447 H 546.783 1.30794 -4.60901 0
M  V30 5448 H 545.147 0.787915 -2.42206 0
M  V30 5449 H 545.93 -0.579078 -3.38381 0
M  V30 5450 N 548.375 1.56261 0.205012 0
M  V30 5451 C 549.325 1.90155 1.25798 0
M  V30 5452 C 550.309 0.766227 1.41484 0
M  V30 5453 O 551.501 1.02893 1.44021 0
M  V30 5454 C 548.63 2.23603 2.60493 0
M  V30 5455 C 547.716 3.43568 2.48639 0
M  V30 5456 N 548.107 4.61747 2.06455 0
M  V30 5457 C 546.405 3.4751 2.79558 0
M  V30 5458 C 547.106 5.43907 2.06253 0
M  V30 5459 N 546.082 4.84051 2.47377 0
M  V30 5460 H 549.884 2.79031 0.922986 0
M  V30 5461 H 547.398 1.57048 0.413501 0
M  V30 5462 H 549.395 2.46067 3.36537 0
M  V30 5463 H 548.055 1.36049 2.94823 0
M  V30 5464 H 549.066 4.86598 1.77321 0
M  V30 5465 H 545.743 2.70345 3.18151 0
M  V30 5466 H 547.133 6.48542 1.75622 0
M  V30 5467 N 549.853 -0.472356 1.50355 0
M  V30 5468 C 551.264 -1.05326 1.54154 0
M  V30 5469 C 551.615 -1.93155 0.344303 0
M  V30 5470 O 550.74 -2.09479 -0.542928 0
M  V30 5471 C 551.335 -1.91691 2.79356 0
M  V30 5472 C 549.894 -2.44892 2.8584 0
M  V30 5473 C 549.041 -1.23205 2.48426 0
M  V30 5474 H 551.992 -0.255027 1.56637 0
M  V30 5475 H 552.013 -2.76742 2.6114 0
M  V30 5476 H 551.525 -1.27741 3.66475 0
M  V30 5477 H 549.626 -3.12399 2.0307 0
M  V30 5478 H 549.739 -2.80086 3.88701 0
M  V30 5479 H 548.103 -1.56643 2.00836 0
M  V30 5480 H 548.886 -0.609194 3.37852 0
M  V30 5481 N 551.331 -1.39911 -0.725443 0
M  V30 5482 C 552.281 -1.35878 -1.83088 0
M  V30 5483 C 553.265 -0.237989 -1.5913 0
M  V30 5484 O 554.457 -0.476302 -1.70471 0
M  V30 5485 C 551.586 -1.21403 -3.21117 0
M  V30 5486 C 550.672 -2.38223 -3.50871 0
M  V30 5487 N 551.063 -3.63703 -3.51502 0
M  V30 5488 C 549.361 -2.31388 -3.81281 0
M  V30 5489 C 550.062 -4.4101 -3.79322 0
M  V30 5490 N 549.038 -3.7072 -3.97577 0
M  V30 5491 H 552.84 -2.3085 -1.81895 0
M  V30 5492 H 550.354 -1.33543 -0.924125 0
M  V30 5493 H 552.351 -1.16597 -4.00263 0
M  V30 5494 H 551.011 -0.273902 -3.23543 0
M  V30 5495 H 552.022 -3.96998 -3.32586 0
M  V30 5496 H 548.699 -1.45689 -3.91256 0
M  V30 5497 H 550.089 -5.49819 -3.86198 0
M  V30 5498 N 552.809 0.956637 -1.25245 0
M  V30 5499 C 554.22 1.51569 -1.09012 0
M  V30 5500 C 554.571 1.93322 0.334813 0
M  V30 5501 O 553.696 1.78421 1.22454 0
M  V30 5502 C 554.291 2.75444 -1.97271 0
M  V30 5503 C 552.85 3.27669 -1.8523 0
M  V30 5504 C 551.997 2.00517 -1.91542 0
M  V30 5505 H 554.948 0.773746 -1.3856 0
M  V30 5506 H 554.969 3.4919 -1.51151 0
M  V30 5507 H 554.481 2.45024 -3.00973 0
M  V30 5508 H 552.582 3.62914 -0.844045 0
M  V30 5509 H 552.695 3.9582 -2.69932 0
M  V30 5510 H 551.059 2.15727 -1.35404 0
M  V30 5511 H 551.842 1.72448 -2.96844 0
M  V30 5512 N 554.287 1.06798 1.15896 0
M  V30 5513 C 555.698 0.811355 1.68149 0
M  V30 5514 C 556.049 -0.664339 1.8461 0
M  V30 5515 O 555.174 -1.51485 1.54535 0
M  V30 5516 C 555.769 1.46624 3.05429 0
M  V30 5517 C 554.328 1.25726 3.54781 0
M  V30 5518 C 553.475 1.53949 2.3064 0
M  V30 5519 H 556.426 1.23078 1.00187 0
M  V30 5520 H 556.447 0.88437 3.7008 0
M  V30 5521 H 555.959 2.54025 2.93416 0
M  V30 5522 H 554.06 0.20322 3.72045 0
M  V30 5523 H 554.173 1.97354 4.36564 0
M  V30 5524 H 552.537 0.96025 2.35905 0
M  V30 5525 H 553.32 2.6252 2.2122 0
M  V30 5526 N 555.766 -1.3263 0.851289 0
M  V30 5527 C 557.177 -1.79653 0.5081 0
M  V30 5528 C 557.528 -1.70327 -0.973815 0
M  V30 5529 O 556.653 -1.25986 -1.75944 0
M  V30 5530 C 557.248 -3.26196 0.915515 0
M  V30 5531 C 555.807 -3.71187 0.624277 0
M  V30 5532 C 554.954 -2.53804 1.11709 0
M  V30 5533 H 557.905 -1.19976 1.03882 0
M  V30 5534 H 557.926 -3.79801 0.230535 0
M  V30 5535 H 557.438 -3.32952 1.99411 0
M  V30 5536 H 555.539 -3.69948 -0.443737 0
M  V30 5537 H 555.652 -4.64132 1.18821 0
M  V30 5538 H 554.016 -2.48964 0.537484 0
M  V30 5539 H 554.799 -2.63315 2.20272 0
M  V30 5540 N 557.244 -0.608902 -1.45362 0
M  V30 5541 C 558.207 0.0992563 -2.28985 0
M  V30 5542 C 559.207 0.793841 -1.39838 0
M  V30 5543 O 560.397 0.641804 -1.61946 0
M  V30 5544 C 557.529 1.15073 -3.20891 0
M  V30 5545 H 558.722 -0.635964 -2.93079 0
M  V30 5546 H 556.275 -0.368007 -1.51906 0
M  V30 5547 H 557.01 1.91667 -2.616 0
M  V30 5548 H 556.795 0.656867 -3.86559 0
M  V30 5549 H 558.285 1.64665 -3.83765 0
M  V30 5550 N 558.722 1.53707 -0.348139 0
M  V30 5551 C 559.952 2.05108 0.247864 0
M  V30 5552 C 560.36 1.22252 1.44399 0
M  V30 5553 O 559.703 0.251853 1.81965 0
M  V30 5554 C 559.765 3.52171 0.722187 0
M  V30 5555 C 559.429 4.5562 -0.354902 0
M  V30 5556 C 560.426 5.05883 -1.19911 0
M  V30 5557 C 558.111 4.99703 -0.510145 0
M  V30 5558 C 560.105 5.98814 -2.18406 0
M  V30 5559 C 557.792 5.92443 -1.49848 0
M  V30 5560 C 558.79 6.41887 -2.33389 0
M  V30 5561 O 558.478 7.32802 -3.3054 0
M  V30 5562 H 558.21 0.674086 0.0508296 0
M  V30 5563 H 560.764 1.99229 -0.49968 0
M  V30 5564 H 558.994 3.55529 1.52105 0
M  V30 5565 H 560.683 3.8652 1.23925 0
M  V30 5566 H 561.449 4.72586 -1.09028 0
M  V30 5567 H 557.328 4.60816 0.130274 0
M  V30 5568 H 560.872 6.3733 -2.83649 0
M  V30 5569 H 556.769 6.25155 -1.60786 0
M  V30 5570 H 557.537 7.50749 -3.26064 0
M  V30 5571 N 560.2 0.0768682 1.57412 0
M  V30 5572 C 561.447 -0.591085 1.93681 0
M  V30 5573 C 561.775 -1.69311 0.957286 0
M  V30 5574 O 561.03 -1.95682 -0.0262428 0
M  V30 5575 C 561.329 -1.20268 3.36557 0
M  V30 5576 C 560.995 -0.226286 4.50332 0
M  V30 5577 C 559.657 0.0423142 4.81181 0
M  V30 5578 C 562.009 0.441415 5.19327 0
M  V30 5579 C 559.337 0.985616 5.78362 0
M  V30 5580 C 561.689 1.37307 6.17519 0
M  V30 5581 C 560.353 1.65009 6.46783 0
M  V30 5582 H 559.623 -0.216293 0.70873 0
M  V30 5583 H 562.27 0.148824 1.90921 0
M  V30 5584 H 560.575 -2.01844 3.35807 0
M  V30 5585 H 562.272 -1.72688 3.61911 0
M  V30 5586 H 558.862 -0.445821 4.26275 0
M  V30 5587 H 563.046 0.247023 4.95685 0
M  V30 5588 H 558.302 1.20743 5.99359 0
M  V30 5589 H 562.476 1.89637 6.70083 0
M  V30 5590 H 560.103 2.38263 7.21897 0
M  V30 5591 N 561.678 -1.56367 -0.196722 0
M  V30 5592 C 562.926 -1.80172 -0.915554 0
M  V30 5593 C 563.247 -0.649649 -1.8386 0
M  V30 5594 O 562.517 0.332111 -1.93064 0
M  V30 5595 H 561.097 -0.664592 -0.341067 0
M  V30 5596 H 563.759 -1.93844 -0.202622 0
M  V30 5597 H 562.855 -2.7327 -1.50764 0
M  V30 5598 N 563.156 0.464375 -1.50603 0
M  V30 5599 C 564.086 1.56944 -1.72889 0
M  V30 5600 C 565.067 1.59979 -0.577997 0
M  V30 5601 O 566.252 1.76138 -0.817855 0
M  V30 5602 C 563.382 2.95225 -1.8292 0
M  V30 5603 C 562.336 3.07056 -2.98162 0
M  V30 5604 C 561.662 4.47051 -2.93343 0
M  V30 5605 C 562.962 2.83648 -4.38567 0
M  V30 5606 H 564.656 1.38547 -2.65415 0
M  V30 5607 H 562.202 0.665082 -1.27721 0
M  V30 5608 H 564.155 3.72467 -1.97095 0
M  V30 5609 H 562.879 3.14793 -0.870209 0
M  V30 5610 H 561.538 2.32248 -2.83648 0
M  V30 5611 H 561.186 4.63547 -1.95276 0
M  V30 5612 H 560.886 4.55902 -3.70712 0
M  V30 5613 H 562.41 5.26304 -3.09575 0
M  V30 5614 H 563.824 3.50636 -4.53572 0
M  V30 5615 H 562.221 3.03937 -5.17438 0
M  V30 5616 H 563.291 1.79451 -4.50472 0
M  V30 5617 N 564.634 1.40294 0.718013 0
M  V30 5618 C 566.045 1.34289 1.29705 0
M  V30 5619 C 566.396 0.0152228 1.96194 0
M  V30 5620 O 565.521 -0.88682 1.97394 0
M  V30 5621 C 566.116 2.43219 2.3586 0
M  V30 5622 C 564.675 2.40682 2.89394 0
M  V30 5623 C 563.822 2.24223 1.63154 0
M  V30 5624 H 566.773 1.50135 0.514312 0
M  V30 5625 H 566.794 2.10986 3.16647 0
M  V30 5626 H 566.306 3.39836 1.87439 0
M  V30 5627 H 564.407 1.47756 3.42051 0
M  V30 5628 H 564.52 3.36177 3.41353 0
M  V30 5629 H 562.884 1.71696 1.88129 0
M  V30 5630 H 563.667 3.22834 1.16761 0
M  V30 5631 N 566.112 -0.949982 1.2575 0
M  V30 5632 C 567.36 -1.6918 1.10555 0
M  V30 5633 C 567.681 -1.91773 -0.353298 0
M  V30 5634 O 566.951 -1.50814 -1.25027 0
M  V30 5635 H 565.531 -0.626952 0.406129 0
M  V30 5636 H 568.193 -1.1419 1.57945 0
M  V30 5637 H 567.289 -2.66915 1.61749 0
M  V30 5638 N 567.59 -1.07411 -1.15328 0
M  V30 5639 C 568.52 -0.716472 -2.22236 0
M  V30 5640 C 569.501 0.296373 -1.67498 0
M  V30 5641 O 570.686 0.168989 -1.93463 0
M  V30 5642 C 567.816 -0.114142 -3.47112 0
M  V30 5643 C 566.77 -1.05421 -4.14814 0
M  V30 5644 C 566.096 -0.314604 -5.33774 0
M  V30 5645 C 567.396 -2.38808 -4.64508 0
M  V30 5646 H 569.09 -1.61029 -2.52408 0
M  V30 5647 H 566.636 -0.775702 -1.21321 0
M  V30 5648 H 568.589 0.148001 -4.2114 0
M  V30 5649 H 567.313 0.814755 -3.16274 0
M  V30 5650 H 565.972 -1.30128 -3.42728 0
M  V30 5651 H 565.62 0.617772 -4.99192 0
M  V30 5652 H 565.32 -0.941209 -5.80013 0
M  V30 5653 H 566.844 -0.0602747 -6.1057 0
M  V30 5654 H 568.258 -2.18424 -5.3006 0
M  V30 5655 H 566.655 -2.97069 -5.21412 0
M  V30 5656 H 567.725 -3.01067 -3.80114 0
M  V30 5657 N 569.068 1.32177 -0.85831 0
M  V30 5658 C 570.315 1.97125 -0.463484 0
M  V30 5659 C 570.643 1.67907 0.981705 0
M  V30 5660 O 569.898 0.961717 1.70439 0
M  V30 5661 C 570.197 3.51372 -0.653658 0
M  V30 5662 C 569.863 4.00584 -2.06987 0
M  V30 5663 C 568.525 4.13733 -2.4572 0
M  V30 5664 C 570.877 4.26624 -2.99402 0
M  V30 5665 C 568.205 4.50268 -3.76132 0
M  V30 5666 C 570.557 4.64618 -4.29316 0
M  V30 5667 C 569.221 4.75975 -4.67979 0
M  V30 5668 H 568.491 0.72133 -0.169601 0
M  V30 5669 H 571.138 1.57517 -1.08907 0
M  V30 5670 H 569.443 3.91761 0.0551328 0
M  V30 5671 H 571.14 3.99655 -0.328163 0
M  V30 5672 H 567.73 3.90837 -1.75911 0
M  V30 5673 H 571.914 4.1597 -2.70708 0
M  V30 5674 H 567.17 4.57256 -4.05865 0
M  V30 5675 H 571.344 4.83722 -5.00985 0
M  V30 5676 H 568.971 5.04041 -5.69076 0
M  V30 5677 N 570.547 0.616602 1.45037 0
M  V30 5678 C 571.795 0.115103 2.01772 0
M  V30 5679 C 572.116 -1.2622 1.48639 0
M  V30 5680 O 571.386 -1.83563 0.684199 0
M  V30 5681 H 569.966 0.0395607 0.745952 0
M  V30 5682 H 572.628 0.800032 1.77723 0
M  V30 5683 H 571.724 0.0717274 3.12018 0
M  V30 5684 N 572.025 -1.5352 0.356285 0
M  V30 5685 C 573.436 -1.86282 -0.12492 0
M  V30 5686 C 573.787 -1.27717 -1.48939 0
M  V30 5687 O 572.912 -0.595614 -2.08042 0
M  V30 5688 C 573.507 -3.37995 -0.23345 0
M  V30 5689 C 572.066 -3.70588 -0.658899 0
M  V30 5690 C 571.213 -2.76581 0.199596 0
M  V30 5691 H 574.164 -1.47901 0.575423 0
M  V30 5692 H 574.185 -3.65475 -1.0587 0
M  V30 5693 H 573.697 -3.8059 0.759776 0
M  V30 5694 H 571.798 -3.33544 -1.66069 0
M  V30 5695 H 571.911 -4.77076 -0.439957 0
M  V30 5696 H 570.275 -2.52552 -0.330076 0
M  V30 5697 H 571.058 -3.22008 1.19019 0
M  V30 5698 N 573.503 -0.0852151 -1.57369 0
M  V30 5699 C 574.914 0.445428 -1.81309 0
M  V30 5700 C 575.265 1.68795 -1.00013 0
M  V30 5701 O 574.39 2.15211 -0.226573 0
M  V30 5702 C 574.985 0.814887 -3.28854 0
M  V30 5703 C 573.544 1.29032 -3.53592 0
M  V30 5704 C 572.691 0.282089 -2.75861 0
M  V30 5705 H 575.642 -0.310771 -1.55627 0
M  V30 5706 H 575.663 1.67524 -3.41637 0
M  V30 5707 H 575.175 -0.0896309 -3.87996 0
M  V30 5708 H 573.276 2.21289 -2.9977 0
M  V30 5709 H 573.389 1.25898 -4.62262 0
M  V30 5710 H 571.753 0.762182 -2.43029 0
M  V30 5711 H 572.536 -0.614936 -3.37748 0
M  V30 5712 N 574.981 1.5647 0.188427 0
M  V30 5713 C 576.392 1.70864 0.752494 0
M  V30 5714 C 576.743 0.692905 1.83557 0
M  V30 5715 O 575.868 -0.149307 2.15884 0
M  V30 5716 C 576.463 3.09789 1.37173 0
M  V30 5717 C 575.022 3.25925 1.88281 0
M  V30 5718 C 574.169 2.66817 0.755259 0
M  V30 5719 H 577.12 1.58657 -0.0367408 0
M  V30 5720 H 577.141 3.07489 2.24122 0
M  V30 5721 H 576.653 3.83693 0.583219 0
M  V30 5722 H 574.754 2.56948 2.6983 0
M  V30 5723 H 574.867 4.33498 2.04001 0
M  V30 5724 H 573.231 2.2617 1.17128 0
M  V30 5725 H 574.014 3.43294 -0.0211237 0
M  V30 5726 N 576.459 -0.456382 1.50847 0
M  V30 5727 C 577.87 -1.03685 1.55262 0
M  V30 5728 C 578.221 -1.92779 0.364771 0
M  V30 5729 O 577.346 -2.10043 -0.52068 0
M  V30 5730 C 577.941 -1.88718 2.81374 0
M  V30 5731 C 576.5 -2.41847 2.88422 0
M  V30 5732 C 575.647 -1.20564 2.49719 0
M  V30 5733 H 578.598 -0.238399 1.56899 0
M  V30 5734 H 578.619 -2.73957 2.6406 0
M  V30 5735 H 578.131 -1.23847 3.67809 0
M  V30 5736 H 576.232 -3.10228 2.06372 0
M  V30 5737 H 576.345 -2.75947 3.9165 0
M  V30 5738 H 574.709 -1.54504 2.02486 0
M  V30 5739 H 575.492 -0.573326 3.38479 0
M  V30 5740 N 577.937 -1.40673 -0.710563 0
M  V30 5741 C 579.183 -1.39428 -1.47267 0
M  V30 5742 C 579.516 0.00182129 -1.942 0
M  V30 5743 O 578.791 0.971387 -1.68506 0
M  V30 5744 C 579.074 -2.38812 -2.6952 0
M  V30 5745 C 578.927 -3.87467 -2.28449 0
M  V30 5746 C 580.246 -2.3566 -3.71689 0
M  V30 5747 H 577.365 -0.507768 -0.534173 0
M  V30 5748 H 580.007 -1.71843 -0.810547 0
M  V30 5749 H 578.157 -2.113 -3.26013 0
M  V30 5750 H 579.829 -4.25825 -1.77399 0
M  V30 5751 H 578.072 -4.03058 -1.60395 0
M  V30 5752 H 578.743 -4.5253 -3.16103 0
M  V30 5753 H 581.219 -2.6004 -3.24836 0
M  V30 5754 H 580.095 -3.07237 -4.54859 0
M  V30 5755 H 580.356 -1.36996 -4.20339 0
M  V30 5756 N 579.415 0.9433 -1.26252 0
M  V30 5757 C 580.826 1.50404 -1.10614 0
M  V30 5758 C 581.177 1.93666 0.31429 0
M  V30 5759 O 580.302 1.79709 1.20555 0
M  V30 5760 C 580.897 2.73336 -2.00182 0
M  V30 5761 C 579.456 3.25686 -1.88695 0
M  V30 5762 C 578.603 1.98474 -1.93658 0
M  V30 5763 H 581.554 0.759006 -1.39373 0
M  V30 5764 H 581.575 3.47567 -1.54847 0
M  V30 5765 H 581.087 2.41818 -3.03555 0
M  V30 5766 H 579.188 3.61998 -0.882489 0
M  V30 5767 H 579.301 3.92935 -2.74115 0
M  V30 5768 H 577.665 2.14278 -1.37684 0
M  V30 5769 H 578.448 1.6929 -2.98657 0
M  V30 5770 N 580.893 1.08022 1.14757 0
M  V30 5771 C 582.304 0.829144 1.67279 0
M  V30 5772 C 582.655 -0.644721 1.85305 0
M  V30 5773 O 581.78 -1.49838 1.56133 0
M  V30 5774 C 582.375 1.49855 3.03857 0
M  V30 5775 C 580.934 1.29482 3.53428 0
M  V30 5776 C 580.081 1.56386 2.28995 0
M  V30 5777 H 583.032 1.24134 0.988762 0
M  V30 5778 H 583.053 0.923572 3.69121 0
M  V30 5779 H 582.565 2.57123 2.90705 0
M  V30 5780 H 580.666 0.242669 3.71809 0
M  V30 5781 H 580.779 2.01974 4.34446 0
M  V30 5782 H 579.143 0.985217 2.34874 0
M  V30 5783 H 579.926 2.64851 2.18423 0
M  V30 5784 N 582.371 -1.3172 0.865308 0
M  V30 5785 C 583.601 -2.00765 0.487543 0
M  V30 5786 C 584.009 -1.65145 -0.92325 0
M  V30 5787 O 583.352 -0.874294 -1.61561 0
M  V30 5788 C 583.414 -3.55122 0.559369 0
M  V30 5789 C 583.078 -4.14202 1.93095 0
M  V30 5790 C 584.075 -4.3165 2.89784 0
M  V30 5791 C 581.76 -4.50036 2.23099 0
M  V30 5792 C 583.754 -4.84114 4.14623 0
M  V30 5793 C 581.441 -5.02203 3.48189 0
M  V30 5794 C 582.439 -5.19192 4.43767 0
M  V30 5795 O 582.127 -5.70241 5.6664 0
M  V30 5796 H 581.859 -0.649066 0.188915 0
M  V30 5797 H 584.413 -1.69032 1.16694 0
M  V30 5798 H 582.643 -3.86295 -0.176926 0
M  V30 5799 H 584.332 -4.05428 0.195694 0
M  V30 5800 H 585.098 -4.04288 2.6791 0
M  V30 5801 H 580.977 -4.36091 1.49485 0
M  V30 5802 H 584.521 -4.9729 4.89233 0
M  V30 5803 H 580.418 -5.28997 3.69908 0
M  V30 5804 H 581.186 -5.88617 5.68746 0
M  V30 5805 N 583.85 -0.624285 -1.44708 0
M  V30 5806 C 585.08 -0.132726 -2.06173 0
M  V30 5807 C 585.488 1.19513 -1.46674 0
M  V30 5808 O 584.831 1.74254 -0.581491 0
M  V30 5809 C 584.893 0.0636732 -3.59444 0
M  V30 5810 C 584.557 -1.18496 -4.4137 0
M  V30 5811 C 585.553 -2.10706 -4.75288 0
M  V30 5812 C 583.239 -1.41846 -4.81856 0
M  V30 5813 C 585.233 -3.24582 -5.48567 0
M  V30 5814 C 582.92 -2.5602 -5.54885 0
M  V30 5815 C 583.918 -3.47215 -5.88159 0
M  V30 5816 O 583.606 -4.59399 -6.59703 0
M  V30 5817 H 583.338 -0.0737313 -0.671967 0
M  V30 5818 H 585.892 -0.856789 -1.86677 0
M  V30 5819 H 584.122 0.842809 -3.77404 0
M  V30 5820 H 585.811 0.508924 -4.02697 0
M  V30 5821 H 586.577 -1.93898 -4.44554 0
M  V30 5822 H 582.456 -0.717556 -4.55381 0
M  V30 5823 H 586 -3.95785 -5.74456 0
M  V30 5824 H 581.897 -2.72774 -5.85034 0
M  V30 5825 H 582.665 -4.58293 -6.78166 0
M  V30 5826 N 585.328 1.53329 -0.364422 0
M  V30 5827 C 586.576 2.00842 0.225189 0
M  V30 5828 C 586.897 1.25345 1.49378 0
M  V30 5829 O 586.167 0.366396 1.92443 0
M  V30 5830 H 584.747 0.742009 0.0862027 0
M  V30 5831 H 587.409 1.8863 -0.490389 0
M  V30 5832 H 586.505 3.08795 0.452987 0
M  V30 5833 N 586.806 0.0935595 1.57322 0
M  V30 5834 C 588.031 -0.582324 1.99057 0
M  V30 5835 C 588.456 -1.61025 0.972242 0
M  V30 5836 O 587.814 -1.81202 -0.0594622 0
M  V30 5837 C 587.862 -1.20799 3.39765 0
M  V30 5838 O 586.966 -2.32382 3.40694 0
M  V30 5839 H 586.307 -0.147884 0.647323 0
M  V30 5840 H 588.837 0.174516 2.03854 0
M  V30 5841 H 588.847 -1.54966 3.77425 0
M  V30 5842 H 587.522 -0.454914 4.13405 0
M  V30 5843 H 586.099 -1.99845 3.14827 0
M  V30 5844 N 588.284 -1.56567 -0.180126 0
M  V30 5845 C 589.234 -1.92132 -1.22756 0
M  V30 5846 C 590.218 -0.788639 -1.40247 0
M  V30 5847 O 591.41 -1.05171 -1.42366 0
M  V30 5848 C 588.539 -2.27719 -2.56902 0
M  V30 5849 C 587.625 -3.47481 -2.43142 0
M  V30 5850 N 588.016 -4.64973 -1.99082 0
M  V30 5851 C 586.314 -3.51914 -2.73994 0
M  V30 5852 C 587.015 -5.47119 -1.97574 0
M  V30 5853 N 585.991 -4.87925 -2.39645 0
M  V30 5854 H 589.793 -2.80464 -0.878478 0
M  V30 5855 H 587.307 -1.57686 -0.388463 0
M  V30 5856 H 589.304 -2.51389 -3.32579 0
M  V30 5857 H 587.964 -1.40722 -2.92621 0
M  V30 5858 H 588.975 -4.89358 -1.69557 0
M  V30 5859 H 585.652 -2.75372 -3.13809 0
M  V30 5860 H 587.042 -6.51254 -1.65282 0
M  V30 5861 N 589.762 0.448376 -1.51087 0
M  V30 5862 C 590.692 1.55102 -1.74544 0
M  V30 5863 C 591.673 1.59357 -0.594932 0
M  V30 5864 O 592.858 1.75261 -0.836491 0
M  V30 5865 C 589.988 2.93268 -1.86041 0
M  V30 5866 C 588.942 3.03877 -3.01402 0
M  V30 5867 C 588.268 4.43914 -2.98068 0
M  V30 5868 C 589.568 2.7898 -4.41551 0
M  V30 5869 H 591.262 1.35724 -2.66869 0
M  V30 5870 H 588.808 0.651498 -1.28419 0
M  V30 5871 H 590.761 3.70356 -2.01034 0
M  V30 5872 H 589.485 3.13853 -0.903548 0
M  V30 5873 H 588.144 2.29227 -2.86096 0
M  V30 5874 H 587.792 4.6145 -2.00182 0
M  V30 5875 H 587.492 4.51944 -3.75527 0
M  V30 5876 H 589.016 5.22991 -3.1514 0
M  V30 5877 H 590.43 3.45805 -4.57265 0
M  V30 5878 H 588.827 2.98431 -5.20633 0
M  V30 5879 H 589.897 1.74663 -4.5235 0
M  V30 5880 N 591.24 1.41047 0.703093 0
M  V30 5881 C 592.656 1.23351 1.01275 0
M  V30 5882 C 592.856 0.11754 2.01157 0
M  V30 5883 O 591.912 -0.520518 2.47077 0
M  V30 5884 C 593.225 2.58001 1.54454 0
M  V30 5885 C 594.773 2.65119 1.66376 0
M  V30 5886 C 595.248 4.00067 2.22958 0
M  V30 5887 N 596.739 4.01875 2.30328 0
M  V30 5888 C 597.474 5.03087 2.75119 0
M  V30 5889 N 596.97 6.14692 3.19571 0
M  V30 5890 N 598.763 4.90451 2.74616 0
M  V30 5891 H 590.914 2.1236 0.0412686 0
M  V30 5892 H 593.177 0.944543 0.08089 0
M  V30 5893 H 592.883 3.40378 0.88521 0
M  V30 5894 H 592.757 2.79962 2.52786 0
M  V30 5895 H 595.144 1.83106 2.31422 0
M  V30 5896 H 595.225 2.46975 0.666089 0
M  V30 5897 H 594.869 4.82526 1.58529 0
M  V30 5898 H 594.799 4.15547 3.23462 0
M  V30 5899 H 597.29 3.21291 1.98949 0
M  V30 5900 H 597.603 6.87799 3.52352 0
M  V30 5901 H 595.948 6.18239 3.17498 0
M  V30 5902 H 599.139 4.0235 2.39233 0
M  V30 5903 H 599.312 5.6947 3.09206 0
M  V30 5904 N 592.718 -0.936591 1.26751 0
M  V30 5905 C 593.681 -2.01752 1.08761 0
M  V30 5906 C 594.681 -1.60763 0.0344435 0
M  V30 5907 O 595.871 -1.71963 0.278258 0
M  V30 5908 C 593.003 -3.34543 0.655271 0
M  V30 5909 H 594.196 -2.19143 2.04735 0
M  V30 5910 H 591.749 -1.11618 1.09413 0
M  V30 5911 H 592.484 -3.22851 -0.30626 0
M  V30 5912 H 592.269 -3.65647 1.41578 0
M  V30 5913 H 593.759 -4.13944 0.551378 0
M  V30 5914 N 594.196 -1.08629 -1.14182 0
M  V30 5915 C 595.473 -0.73002 -1.81466 0
M  V30 5916 C 595.853 0.785996 -1.95922 0
M  V30 5917 O 595.201 1.70535 -1.52086 0
M  V30 5918 C 595.411 -1.45957 -3.17014 0
M  V30 5919 C 596.759 -1.62008 -3.92477 0
M  V30 5920 O 597.783 -1.42141 -3.26611 0
M  V30 5921 O 596.642 -1.94806 -5.106 0
M  V30 5922 H 593.736 -0.261307 -0.784632 0
M  V30 5923 H 596.282 -1.188 -1.2118 0
M  V30 5924 H 595.054 -2.49221 -3.01669 0
M  V30 5925 H 594.677 -0.993222 -3.84995 0
M  V30 5926 N 595.674 1.31259 -0.872281 0
M  V30 5927 C 596.904 2.00504 -0.498183 0
M  V30 5928 C 597.312 1.65632 0.914479 0
M  V30 5929 O 596.655 0.882849 1.61095 0
M  V30 5930 C 596.717 3.5482 -0.578194 0
M  V30 5931 C 596.381 4.13172 -1.95289 0
M  V30 5932 C 597.378 4.30107 -2.92069 0
M  V30 5933 C 595.063 4.48846 -2.25483 0
M  V30 5934 C 597.057 4.81908 -4.17185 0
M  V30 5935 C 594.744 5.00349 -3.50847 0
M  V30 5936 C 595.742 5.16831 -4.46514 0
M  V30 5937 O 595.43 5.67228 -5.69656 0
M  V30 5938 H 595.162 0.648055 -0.192354 0
M  V30 5939 H 597.716 1.6841 -1.17589 0
M  V30 5940 H 595.946 3.86383 0.156438 0
M  V30 5941 H 597.635 4.05318 -0.217192 0
M  V30 5942 H 598.401 4.02862 -2.7005 0
M  V30 5943 H 594.28 4.35292 -1.51795 0
M  V30 5944 H 597.824 4.94688 -4.91863 0
M  V30 5945 H 593.721 5.27028 -3.72708 0
M  V30 5946 H 594.489 5.85592 -5.7186 0
M  V30 5947 N 597.152 0.631951 1.44375 0
M  V30 5948 C 598.398 0.13697 2.02337 0
M  V30 5949 C 598.731 -1.23826 1.49602 0
M  V30 5950 O 598.006 -1.8221 0.680415 0
M  V30 5951 C 598.289 0.124536 3.59885 0
M  V30 5952 C 598.142 1.53217 4.229 0
M  V30 5953 C 599.461 -0.550481 4.36644 0
M  V30 5954 H 596.58 0.051247 0.735216 0
M  V30 5955 H 599.222 0.808581 1.71936 0
M  V30 5956 H 597.372 -0.44737 3.85916 0
M  V30 5957 H 599.044 2.15303 4.07973 0
M  V30 5958 H 597.287 2.0858 3.80364 0
M  V30 5959 H 597.958 1.4755 5.31914 0
M  V30 5960 H 600.434 -0.0641154 4.16051 0
M  V30 5961 H 599.31 -0.528371 5.46351 0
M  V30 5962 H 599.571 -1.62097 4.11311 0
M  V30 5963 N 598.631 -1.53133 0.372548 0
M  V30 5964 C 600.042 -1.86404 -0.105155 0
M  V30 5965 C 600.393 -1.29289 -1.47576 0
M  V30 5966 O 599.518 -0.617646 -2.07398 0
M  V30 5967 C 600.113 -3.38223 -0.197588 0
M  V30 5968 C 598.672 -3.71266 -0.619556 0
M  V30 5969 C 597.819 -2.76353 0.228919 0
M  V30 5970 H 600.77 -1.47282 0.591077 0
M  V30 5971 H 600.791 -3.66577 -1.01987 0
M  V30 5972 H 600.303 -3.79763 0.800099 0
M  V30 5973 H 598.404 -3.35287 -1.62522 0
M  V30 5974 H 598.517 -4.77515 -0.389332 0
M  V30 5975 H 596.881 -2.52888 -0.303271 0
M  V30 5976 H 597.664 -3.20728 1.22428 0
M  V30 5977 N 600.109 -0.101901 -1.5727 0
M  V30 5978 C 601.072 0.840129 -2.13247 0
M  V30 5979 C 602.072 1.20625 -1.06331 0
M  V30 5980 O 603.262 1.13456 -1.32186 0
M  V30 5981 C 600.394 2.13372 -2.65867 0
M  V30 5982 H 601.587 0.353945 -2.97804 0
M  V30 5983 H 599.14 0.147167 -1.55606 0
M  V30 5984 H 599.875 2.66461 -1.84849 0
M  V30 5985 H 599.66 1.88085 -3.44044 0
M  V30 5986 H 601.15 2.80748 -3.09145 0
M  V30 5987 N 601.587 1.56661 0.17182 0
M  V30 5988 C 602.998 1.71652 0.734329 0
M  V30 5989 C 603.349 0.712335 1.82812 0
M  V30 5990 O 602.474 -0.126401 2.16031 0
M  V30 5991 C 603.069 3.11226 1.3388 0
M  V30 5992 C 601.628 3.27904 1.84813 0
M  V30 5993 C 600.775 2.67603 0.726917 0
M  V30 5994 H 603.726 1.5861 -0.0535665 0
M  V30 5995 H 603.747 3.09849 2.20849 0
M  V30 5996 H 603.259 3.8429 0.54249 0
M  V30 5997 H 601.36 2.59796 2.6709 0
M  V30 5998 H 601.473 4.35637 1.99392 0
M  V30 5999 H 599.837 2.274 1.14723 0
M  V30 6000 H 600.62 3.43252 -0.0575334 0
M  V30 6001 N 603.065 -0.440357 1.51323 0
M  V30 6002 C 604.29 -1.21716 1.67928 0
M  V30 6003 C 604.715 -1.84328 0.374826 0
M  V30 6004 O 604.073 -1.68675 -0.664706 0
M  V30 6005 C 604.121 -2.27914 2.79442 0
M  V30 6006 O 603.225 -3.33325 2.42834 0
M  V30 6007 H 602.566 -0.35674 0.560029 0
M  V30 6008 H 605.096 -0.520417 1.97871 0
M  V30 6009 H 605.106 -2.72746 3.03436 0
M  V30 6010 H 603.781 -1.8172 3.741 0
M  V30 6011 H 602.358 -2.9399 2.294 0
M  V30 6012 N 604.543 -1.41418 -0.695603 0
M  V30 6013 C 605.959 -1.23887 -1.00619 0
M  V30 6014 C 606.159 -0.128206 -2.01092 0
M  V30 6015 O 605.215 0.507408 -2.47349 0
M  V30 6016 C 606.528 -2.58816 -1.53083 0
M  V30 6017 C 608.076 -2.65998 -1.64967 0
M  V30 6018 C 608.551 -4.01244 -2.20833 0
M  V30 6019 N 610.042 -4.0309 -2.28194 0
M  V30 6020 C 610.777 -5.04539 -2.72448 0
M  V30 6021 N 610.273 -6.16378 -3.16306 0
M  V30 6022 N 612.066 -4.91901 -2.72011 0
M  V30 6023 H 604.217 -2.12379 -0.0300061 0
M  V30 6024 H 606.48 -0.944958 -0.0758797 0
M  V30 6025 H 606.186 -3.40842 -0.867147 0
M  V30 6026 H 606.06 -2.81299 -2.51298 0
M  V30 6027 H 608.447 -1.84331 -2.30448 0
M  V30 6028 H 608.528 -2.47325 -0.652982 0
M  V30 6029 H 608.172 -4.83359 -1.55968 0
M  V30 6030 H 608.102 -4.17257 -3.21254 0
M  V30 6031 H 610.593 -3.22341 -1.97242 0
M  V30 6032 H 610.906 -6.89658 -3.487 0
M  V30 6033 H 609.251 -6.19914 -3.14215 0
M  V30 6034 H 612.442 -4.03613 -2.37095 0
M  V30 6035 H 612.615 -5.71102 -3.06181 0
M  V30 6036 N 606.021 0.929856 -1.27246 0
M  V30 6037 C 607.246 1.71674 -1.16374 0
M  V30 6038 C 607.671 1.86064 0.276024 0
M  V30 6039 O 607.029 1.3591 1.19992 0
M  V30 6040 C 607.077 3.09526 -1.85003 0
M  V30 6041 O 606.181 3.96142 -1.14653 0
M  V30 6042 H 605.522 0.52629 -0.404863 0
M  V30 6043 H 608.052 1.16381 -1.68276 0
M  V30 6044 H 608.062 3.59852 -1.92276 0
M  V30 6045 H 606.737 2.98369 -2.89739 0
M  V30 6046 H 605.314 3.54584 -1.15433 0
M  V30 6047 N 607.499 1.09233 1.13605 0
M  V30 6048 C 608.447 0.724572 2.21027 0
M  V30 6049 C 609.441 -0.273595 1.67176 0
M  V30 6050 O 610.647 -0.135266 1.79491 0
M  V30 6051 H 607.022 0.216319 0.720215 0
M  V30 6052 H 608.993 1.63975 2.49309 0
M  V30 6053 C 607.742 0.159126 3.47336 0
M  V30 6054 H 607.065 0.918387 3.89109 0
M  V30 6055 H 608.505 -0.0602851 4.23957 0
M  V30 6056 C 606.964 -1.10514 3.18258 0
M  V30 6057 O 607.494 -2.18869 3.36837 0
M  V30 6058 N 605.7 -1.01886 2.72154 0
M  V30 6059 H 605.247 -0.137027 2.57235 0
M  V30 6060 H 605.205 -1.8655 2.53074 0
M  V30 6061 N 608.977 -1.30795 0.87923 0
M  V30 6062 C 609.924 -2.28282 0.339968 0
M  V30 6063 C 610.894 -1.56134 -0.566685 0
M  V30 6064 O 612.079 -1.84231 -0.496338 0
M  V30 6065 C 609.219 -3.42225 -0.444501 0
M  V30 6066 C 608.332 -4.29204 0.490717 0
M  V30 6067 C 607.467 -5.30302 -0.308784 0
M  V30 6068 C 606.506 -6.08929 0.622272 0
M  V30 6069 N 605.643 -7.01957 -0.14155 0
M  V30 6070 H 610.483 -2.73794 1.17647 0
M  V30 6071 H 608.02 -1.34682 0.591527 0
M  V30 6072 H 609.978 -4.07038 -0.915186 0
M  V30 6073 H 608.608 -2.97799 -1.24562 0
M  V30 6074 H 607.66 -3.6475 1.07988 0
M  V30 6075 H 608.972 -4.84045 1.20425 0
M  V30 6076 H 608.126 -6.00835 -0.841575 0
M  V30 6077 H 606.865 -4.7614 -1.05556 0
M  V30 6078 H 605.87 -5.37278 1.16674 0
M  V30 6079 H 607.095 -6.65178 1.36804 0
M  V30 6080 H 605.041 -6.50192 -0.870966 0
M  V30 6081 H 604.958 -7.54261 0.51246 0
M  V30 6082 H 606.226 -7.76741 -0.655271 0
M  V30 6083 N 610.455 -0.639598 -1.44038 0
M  V30 6084 C 611.871 -0.305953 -1.5664 0
M  V30 6085 C 612.071 1.19055 -1.62567 0
M  V30 6086 O 611.127 1.97492 -1.57331 0
M  V30 6087 C 612.44 -1.00533 -2.83397 0
M  V30 6088 C 613.988 -0.984278 -2.97121 0
M  V30 6089 C 614.463 -1.66428 -4.26691 0
M  V30 6090 N 615.954 -1.63127 -4.33525 0
M  V30 6091 C 616.689 -2.12629 -5.32519 0
M  V30 6092 N 616.185 -2.70359 -6.3787 0
M  V30 6093 N 617.978 -2.03208 -5.24083 0
M  V30 6094 H 610.129 -1.6109 -1.38434 0
M  V30 6095 H 612.392 -0.676672 -0.663942 0
M  V30 6096 H 612.098 -2.06034 -2.85032 0
M  V30 6097 H 611.972 -0.548362 -3.73193 0
M  V30 6098 H 614.359 0.0622792 -2.95034 0
M  V30 6099 H 614.44 -1.47981 -2.08651 0
M  V30 6100 H 614.084 -2.71034 -4.29538 0
M  V30 6101 H 614.014 -1.14351 -5.14034 0
M  V30 6102 H 616.505 -1.20987 -3.58009 0
M  V30 6103 H 616.818 -3.05842 -7.09704 0
M  V30 6104 H 615.163 -2.74414 -6.38531 0
M  V30 6105 H 618.354 -1.57823 -4.40692 0
M  V30 6106 H 618.527 -2.42097 -6.01077 0
M  V30 6107 N 611.933 1.52934 -0.380664 0
M  V30 6108 C 612.88 2.26197 0.458641 0
M  V30 6109 C 613.85 1.27462 1.06502 0
M  V30 6110 O 615.035 1.56274 1.09467 0
M  V30 6111 C 612.175 3.06571 1.58456 0
M  V30 6112 C 611.288 4.20222 1.00189 0
M  V30 6113 C 610.423 4.88007 2.09815 0
M  V30 6114 C 609.462 5.93665 1.49092 0
M  V30 6115 N 608.599 6.55081 2.52613 0
M  V30 6116 H 613.439 2.975 -0.172595 0
M  V30 6117 H 610.976 1.4678 -0.0969426 0
M  V30 6118 H 612.934 3.51455 2.24801 0
M  V30 6119 H 611.564 2.37494 2.18624 0
M  V30 6120 H 610.616 3.79714 0.228292 0
M  V30 6121 H 611.928 4.96102 0.518064 0
M  V30 6122 H 611.082 5.36151 2.83948 0
M  V30 6123 H 609.821 4.11632 2.61555 0
M  V30 6124 H 608.826 5.44868 0.7348 0
M  V30 6125 H 610.051 6.71969 0.981582 0
M  V30 6126 H 607.997 5.8155 3.03538 0
M  V30 6127 H 607.914 7.26548 2.08961 0
M  V30 6128 H 609.182 7.07871 3.26402 0
M  V30 6129 N 613.412 0.11024 1.57214 0
M  V30 6130 C 614.828 -0.24638 1.57687 0
M  V30 6131 C 615.028 -1.67344 1.12241 0
M  V30 6132 O 614.084 -2.39298 0.805783 0
M  V30 6133 C 615.397 -0.0210288 3.00693 0
M  V30 6134 C 616.945 -0.0876077 3.12877 0
M  V30 6135 C 617.42 0.10994 4.57868 0
M  V30 6136 N 618.911 0.0556135 4.63167 0
M  V30 6137 C 619.646 0.183495 5.73106 0
M  V30 6138 N 619.142 0.367058 6.91827 0
M  V30 6139 N 620.935 0.123689 5.61964 0
M  V30 6140 H 613.086 1.04246 1.85058 0
M  V30 6141 H 615.349 0.40979 0.854854 0
M  V30 6142 H 615.055 0.965203 3.38196 0
M  V30 6143 H 614.929 -0.756748 3.69531 0
M  V30 6144 H 617.316 -1.06436 2.75237 0
M  V30 6145 H 617.397 0.67985 2.466 0
M  V30 6146 H 617.041 1.08362 4.96206 0
M  V30 6147 H 616.971 -0.677397 5.22225 0
M  V30 6148 H 619.462 -0.0831062 3.77809 0
M  V30 6149 H 619.775 0.455739 7.71455 0
M  V30 6150 H 618.12 0.40292 6.93831 0
M  V30 6151 H 621.311 -0.0186928 4.68096 0
M  V30 6152 H 621.484 0.226797 6.47603 0
M  V30 6153 N 614.89 -1.56749 -0.16351 0
M  V30 6154 C 616.167 -1.73321 -0.906599 0
M  V30 6155 C 616.547 -0.673779 -2.00059 0
M  V30 6156 O 615.895 0.310121 -2.26386 0
M  V30 6157 C 616.105 -3.168 -1.46419 0
M  V30 6158 C 617.453 -3.77993 -1.93407 0
M  V30 6159 O 618.477 -3.20127 -1.56196 0
M  V30 6160 O 617.336 -4.79615 -2.61976 0
M  V30 6161 H 614.43 -0.708073 -0.427272 0
M  V30 6162 H 616.976 -1.69029 -0.150727 0
M  V30 6163 H 615.748 -3.85396 -0.677189 0
M  V30 6164 H 615.371 -3.2545 -2.28403 0
M  V30 6165 N 616.368 0.432326 -1.51554 0
M  V30 6166 C 617.779 1.01202 -1.56892 0
M  V30 6167 C 618.13 1.92175 -0.395394 0
M  V30 6168 O 617.255 2.10844 0.487198 0
M  V30 6169 C 617.85 1.84217 -2.8434 0
M  V30 6170 C 616.409 2.37228 -2.92233 0
M  V30 6171 C 615.556 1.16576 -2.51606 0
M  V30 6172 H 618.507 0.213407 -1.57259 0
M  V30 6173 H 618.528 2.69721 -2.68385 0
M  V30 6174 H 618.04 1.17979 -3.69733 0
M  V30 6175 H 616.141 3.06905 -2.11282 0
M  V30 6176 H 616.254 2.69682 -3.95991 0
M  V30 6177 H 614.618 1.51263 -2.04919 0
M  V30 6178 H 615.401 0.519404 -3.39348 0
M  V30 6179 N 617.846 1.41785 0.688094 0
M  V30 6180 C 618.756 1.46596 1.83158 0
M  V30 6181 C 619.772 0.355862 1.70322 0
M  V30 6182 O 620.948 0.604737 1.92106 0
M  V30 6183 C 618.013 1.35322 3.192 0
M  V30 6184 C 617.074 2.56711 3.4409 0
M  V30 6185 C 616.307 2.45965 4.73642 0
M  V30 6186 O 616.53 1.48827 5.50642 0
M  V30 6187 O 615.464 3.35859 4.99482 0
M  V30 6188 H 619.29 2.43083 1.82056 0
M  V30 6189 H 616.875 1.23404 0.842126 0
M  V30 6190 H 618.757 1.31347 4.00407 0
M  V30 6191 H 617.432 0.419536 3.2097 0
M  V30 6192 H 616.339 2.66262 2.62784 0
M  V30 6193 H 617.672 3.48933 3.47141 0
M  V30 6194 N 619.324 -0.923095 1.27737 0
M  V30 6195 C 620.234 -2.05765 1.12685 0
M  V30 6196 C 621.25 -1.73911 0.0557197 0
M  V30 6197 O 622.426 -1.99674 0.263137 0
M  V30 6198 C 619.491 -3.37804 0.780363 0
M  V30 6199 C 618.552 -3.83326 1.93286 0
M  V30 6200 C 617.785 -5.09064 1.60281 0
M  V30 6201 O 618.008 -5.6809 0.512828 0
M  V30 6202 O 616.942 -5.50071 2.44347 0
M  V30 6203 H 620.768 -2.21378 2.07907 0
M  V30 6204 H 618.353 -1.04299 1.06968 0
M  V30 6205 H 620.235 -4.17097 0.600668 0
M  V30 6206 H 618.91 -3.23387 -0.142291 0
M  V30 6207 H 617.817 -3.049 2.16764 0
M  V30 6208 H 619.15 -4.02292 2.83588 0
M  V30 6209 N 620.802 -1.09834 -1.13024 0
M  V30 6210 C 622.079 -0.749225 -1.80682 0
M  V30 6211 C 622.459 0.765171 -1.96744 0
M  V30 6212 O 621.807 1.68912 -1.53886 0
M  V30 6213 C 622.017 -1.49311 -3.15448 0
M  V30 6214 C 623.365 -1.66162 -3.90737 0
M  V30 6215 O 624.389 -1.45597 -3.25085 0
M  V30 6216 O 623.248 -2.00211 -5.08505 0
M  V30 6217 H 620.342 -0.269614 -0.781817 0
M  V30 6218 H 622.888 -1.20078 -1.19914 0
M  V30 6219 H 621.66 -2.52407 -2.99009 0
M  V30 6220 H 621.283 -1.034 -3.8392 0
M  V30 6221 N 622.28 1.30327 -0.886154 0
M  V30 6222 C 623.19 2.31854 -0.357866 0
M  V30 6223 C 624.206 1.65392 0.540502 0
M  V30 6224 O 625.382 1.96683 0.433339 0
M  V30 6225 C 622.447 3.44171 0.417999 0
M  V30 6226 C 621.508 4.26257 -0.510263 0
M  V30 6227 C 620.741 5.3321 0.228669 0
M  V30 6228 O 620.964 5.51542 1.45458 0
M  V30 6229 O 619.898 6.0042 -0.421832 0
M  V30 6230 H 623.724 2.78995 -1.19982 0
M  V30 6231 H 621.309 1.34518 -0.650028 0
M  V30 6232 H 623.191 4.12588 0.857251 0
M  V30 6233 H 621.866 2.99164 1.23623 0
M  V30 6234 H 620.773 3.60533 -0.99835 0
M  V30 6235 H 622.106 4.74871 -1.29454 0
M  V30 6236 N 623.758 0.647228 1.43697 0
M  V30 6237 C 624.668 -0.0487997 2.34549 0
M  V30 6238 C 625.684 -0.818586 1.53542 0
M  V30 6239 O 626.86 -0.767195 1.86215 0
M  V30 6240 C 623.925 -1.00734 3.31743 0
M  V30 6241 C 622.986 -0.23515 4.28655 0
M  V30 6242 C 622.219 -1.14803 5.21206 0
M  V30 6243 O 622.442 -2.38717 5.18045 0
M  V30 6244 O 621.376 -0.623667 5.9866 0
M  V30 6245 H 625.202 0.698863 2.9555 0
M  V30 6246 H 622.787 0.407412 1.43738 0
M  V30 6247 H 624.669 -1.55837 3.91526 0
M  V30 6248 H 623.344 -1.73534 2.73254 0
M  V30 6249 H 622.251 0.359319 3.7237 0
M  V30 6250 H 623.584 0.453152 4.9011 0
M  V30 6251 N 625.236 -1.5273 0.388769 0
M  V30 6252 C 626.484 -2.01174 -0.193208 0
M  V30 6253 C 626.805 -1.27705 -1.47365 0
M  V30 6254 O 626.075 -0.396966 -1.91836 0
M  V30 6255 H 624.655 -0.743287 -0.0743871 0
M  V30 6256 H 627.317 -1.87826 0.520336 0
M  V30 6257 H 626.413 -3.09477 -0.403803 0
M  V30 6258 N 626.714 -0.118576 -1.57153 0
M  V30 6259 C 627.962 0.538461 -1.94795 0
M  V30 6260 C 628.283 1.67243 -1.00274 0
M  V30 6261 O 627.553 1.95811 -0.0589692 0
M  V30 6262 H 626.133 0.201904 -0.719197 0
M  V30 6263 H 628.795 -0.187418 -1.93997 0
M  V30 6264 H 627.891 0.933315 -2.97818 0
M  V30 6265 N 628.193 1.56834 0.155195 0
M  V30 6266 C 629.441 1.82536 0.867462 0
M  V30 6267 C 629.762 0.698168 1.82073 0
M  V30 6268 O 629.032 -0.280807 1.93877 0
M  V30 6269 H 627.612 0.673401 0.323327 0
M  V30 6270 H 630.274 1.94313 0.151156 0
M  V30 6271 H 629.37 2.77171 1.43466 0
M  V30 6272 N 629.671 -0.424282 1.51781 0
M  V30 6273 C 630.601 -1.52305 1.7699 0
M  V30 6274 C 631.582 -1.5839 0.620209 0
M  V30 6275 O 632.767 -1.73908 0.864268 0
M  V30 6276 C 629.897 -2.90271 1.90683 0
M  V30 6277 C 628.851 -2.99043 3.06198 0
M  V30 6278 C 628.177 -4.39116 3.05092 0
M  V30 6279 C 629.477 -2.7192 4.45934 0
M  V30 6280 H 631.171 -1.31461 2.68995 0
M  V30 6281 H 628.717 -0.630985 1.29439 0
M  V30 6282 H 630.67 -3.6711 2.06901 0
M  V30 6283 H 629.394 -3.12376 0.953365 0
M  V30 6284 H 628.053 -2.24646 2.89706 0
M  V30 6285 H 627.701 -4.58207 2.07498 0
M  V30 6286 H 627.401 -4.45912 3.82669 0
M  V30 6287 H 628.925 -5.17911 3.2342 0
M  V30 6288 H 630.339 -3.38487 4.62709 0
M  V30 6289 H 628.736 -2.90111 5.25315 0
M  V30 6290 H 629.806 -1.67445 4.55072 0
M  V30 6291 N 631.149 -1.42148 -0.680565 0
M  V30 6292 C 632.396 -1.4231 -1.44063 0
M  V30 6293 C 632.724 -0.037488 -1.94464 0
M  V30 6294 O 631.979 0.953184 -1.70918 0
M  V30 6295 C 632.278 -2.38945 -2.65782 0
M  V30 6296 C 631.944 -3.85455 -2.33956 0
M  V30 6297 C 630.606 -4.25364 -2.24987 0
M  V30 6298 C 632.958 -4.77895 -2.08004 0
M  V30 6299 C 630.286 -5.55701 -1.88184 0
M  V30 6300 C 632.638 -6.08568 -1.72706 0
M  V30 6301 C 631.302 -6.47482 -1.62244 0
M  V30 6302 H 630.572 -0.520748 -0.527164 0
M  V30 6303 H 633.219 -1.7505 -0.776524 0
M  V30 6304 H 631.524 -1.99511 -3.37198 0
M  V30 6305 H 633.221 -2.36336 -3.23954 0
M  V30 6306 H 629.811 -3.53855 -2.41836 0
M  V30 6307 H 633.995 -4.47854 -2.1387 0
M  V30 6308 H 629.251 -5.84718 -1.78648 0
M  V30 6309 H 633.425 -6.79688 -1.5165 0
M  V30 6310 H 631.052 -7.48387 -1.33496 0
M  V30 6311 N 632.627 0.916307 -1.28225 0
M  V30 6312 C 634.038 1.48024 -1.13779 0
M  V30 6313 C 634.389 1.94289 0.273139 0
M  V30 6314 O 633.514 1.82226 1.16716 0
M  V30 6315 C 634.109 2.69029 -2.05935 0
M  V30 6316 C 632.668 3.2161 -1.95561 0
M  V30 6317 C 631.815 1.94321 -1.97825 0
M  V30 6318 H 634.766 0.729272 -1.40951 0
M  V30 6319 H 634.787 3.44204 -1.62184 0
M  V30 6320 H 634.299 2.35325 -3.08616 0
M  V30 6321 H 632.4 3.60045 -0.959076 0
M  V30 6322 H 632.513 3.87032 -2.82388 0
M  V30 6323 H 630.877 2.1131 -1.42198 0
M  V30 6324 H 631.66 1.62917 -3.0218 0
M  V30 6325 N 634.105 1.10431 1.1244 0
M  V30 6326 C 635.353 0.845045 1.83585 0
M  V30 6327 C 635.674 -0.631168 1.84503 0
M  V30 6328 O 634.944 -1.45825 1.30813 0
M  V30 6329 H 633.524 0.309628 0.679809 0
M  V30 6330 H 636.186 1.39458 1.36153 0
M  V30 6331 H 635.282 1.20786 2.8778 0
M  V30 6332 N 635.583 -1.29855 0.893053 0
M  V30 6333 C 636.493 -2.31661 0.370157 0
M  V30 6334 C 637.509 -1.65677 -0.531723 0
M  V30 6335 O 638.685 -1.9691 -0.422902 0
M  V30 6336 C 635.75 -3.44388 -0.399741 0
M  V30 6337 C 634.811 -4.2598 0.532861 0
M  V30 6338 C 634.044 -5.33324 -0.200388 0
M  V30 6339 O 634.267 -5.52305 -1.42531 0
M  V30 6340 O 633.201 -6.00188 0.453668 0
M  V30 6341 H 637.027 -2.78354 1.2146 0
M  V30 6342 H 634.612 -1.34171 0.657153 0
M  V30 6343 H 636.494 -4.13037 -0.835358 0
M  V30 6344 H 635.169 -2.99815 -1.22035 0
M  V30 6345 H 634.076 -3.59998 1.01746 0
M  V30 6346 H 635.409 -4.74178 1.3197 0
M  V30 6347 N 637.061 -0.65484 -1.43351 0
M  V30 6348 C 638.338 -0.0987371 -1.95351 0
M  V30 6349 C 638.718 1.38161 -1.59608 0
M  V30 6350 O 638.066 2.10791 -0.882021 0
M  V30 6351 C 638.276 -0.346684 -3.47274 0
M  V30 6352 C 639.624 -0.25249 -4.23849 0
M  V30 6353 O 640.648 -0.279332 -3.55103 0
M  V30 6354 O 639.507 -0.177584 -5.46211 0
M  V30 6355 H 636.601 0.0086829 -0.826954 0
M  V30 6356 H 639.147 -0.728189 -1.53282 0
M  V30 6357 H 637.919 -1.37296 -3.66423 0
M  V30 6358 H 637.542 0.315757 -3.96344 0
M  V30 6359 N 638.539 1.52521 -0.396863 0
M  V30 6360 C 639.502 2.2527 0.422604 0
M  V30 6361 C 640.502 1.27184 0.983913 0
M  V30 6362 O 641.692 1.51222 0.864723 0
M  V30 6363 C 638.824 3.01356 1.59365 0
M  V30 6364 H 640.017 2.99133 -0.214416 0
M  V30 6365 H 637.57 1.55587 -0.149128 0
M  V30 6366 H 638.305 2.31813 2.26789 0
M  V30 6367 H 638.09 3.73357 1.19779 0
M  V30 6368 H 639.58 3.56571 2.17363 0
M  V30 6369 N 640.017 0.126909 1.57088 0
M  V30 6370 C 641.245 -0.53667 1.99819 0
M  V30 6371 C 641.66 -1.5972 1.00673 0
M  V30 6372 O 641.017 -1.825 0.000747365 0
M  V30 6373 C 641.068 -1.15563 3.42531 0
M  V30 6374 O 640.789 -0.137483 4.37884 0
M  V30 6375 C 642.29 -1.90176 4.00435 0
M  V30 6376 H 639.51 -0.141443 0.655923 0
M  V30 6377 H 642.054 0.215578 2.03361 0
M  V30 6378 H 640.209 -1.85861 3.39904 0
M  V30 6379 H 640.623 -0.588229 5.21191 0
M  V30 6380 H 642.097 -2.28801 5.02349 0
M  V30 6381 H 642.574 -2.78002 3.40017 0
M  V30 6382 H 643.18 -1.24623 4.06632 0
M  V30 6383 N 641.495 -1.56914 -0.146875 0
M  V30 6384 C 642.425 -2.01308 -1.1831 0
M  V30 6385 C 643.406 -0.892664 -1.44795 0
M  V30 6386 O 644.591 -1.16048 -1.55713 0
M  V30 6387 C 641.721 -2.3938 -2.51624 0
M  V30 6388 C 640.675 -3.54608 -2.3966 0
M  V30 6389 C 640.001 -3.78493 -3.77686 0
M  V30 6390 C 641.301 -4.87269 -1.88058 0
M  V30 6391 H 642.995 -2.88123 -0.813964 0
M  V30 6392 H 640.541 -1.38615 -0.3901 0
M  V30 6393 H 642.494 -2.69037 -3.24341 0
M  V30 6394 H 641.218 -1.49502 -2.90373 0
M  V30 6395 H 639.877 -3.25116 -1.69396 0
M  V30 6396 H 639.525 -2.85866 -4.13871 0
M  V30 6397 H 639.225 -4.56039 -3.70543 0
M  V30 6398 H 640.749 -4.10576 -4.51951 0
M  V30 6399 H 642.163 -5.15644 -2.50568 0
M  V30 6400 H 640.56 -5.68622 -1.91805 0
M  V30 6401 H 641.63 -4.77634 -0.836277 0
M  V30 6402 N 642.974 0.416227 -1.52004 0
M  V30 6403 C 644.204 1.18401 -1.69307 0
M  V30 6404 C 644.612 1.84943 -0.399072 0
M  V30 6405 O 643.955 1.72406 0.634177 0
M  V30 6406 C 644.017 2.29465 -2.76742 0
M  V30 6407 C 643.681 1.83117 -4.18709 0
M  V30 6408 C 644.678 1.32286 -5.02789 0
M  V30 6409 C 642.363 1.90167 -4.64911 0
M  V30 6410 C 644.357 0.891178 -6.31139 0
M  V30 6411 C 642.044 1.4661 -5.93253 0
M  V30 6412 C 643.042 0.961696 -6.76196 0
M  V30 6413 O 642.73 0.532388 -8.02135 0
M  V30 6414 H 642.462 0.362098 -0.570843 0
M  V30 6415 H 645.016 0.496764 -1.99302 0
M  V30 6416 H 643.246 3.01531 -2.42107 0
M  V30 6417 H 644.935 2.91252 -2.82713 0
M  V30 6418 H 645.701 1.26218 -4.68288 0
M  V30 6419 H 641.58 2.28371 -4.00459 0
M  V30 6420 H 645.124 0.496788 -6.95829 0
M  V30 6421 H 641.021 1.52355 -6.27263 0
M  V30 6422 H 641.789 0.656339 -8.15864 0
M  V30 6423 N 644.452 1.42507 0.673017 0
M  V30 6424 C 645.868 1.25472 0.986355 0
M  V30 6425 C 646.068 0.160181 2.00862 0
M  V30 6426 O 645.124 -0.467993 2.48125 0
M  V30 6427 C 646.437 2.61219 1.48947 0
M  V30 6428 C 647.985 2.68589 1.60715 0
M  V30 6429 C 648.46 4.04707 2.14422 0
M  V30 6430 N 649.951 4.0667 2.21752 0
M  V30 6431 C 650.686 5.0881 2.64386 0
M  V30 6432 N 650.182 6.21332 3.0646 0
M  V30 6433 N 651.975 4.96166 2.64151 0
M  V30 6434 H 644.126 2.124 -0.00378532 0
M  V30 6435 H 646.389 0.946046 0.0608367 0
M  V30 6436 H 646.095 3.42179 0.812812 0
M  V30 6437 H 645.969 2.85261 2.46791 0
M  V30 6438 H 648.356 1.87974 2.27486 0
M  V30 6439 H 648.437 2.48333 0.613552 0
M  V30 6440 H 648.081 4.8578 1.48258 0
M  V30 6441 H 648.011 4.22315 3.14575 0
M  V30 6442 H 650.502 3.25438 1.92089 0
M  V30 6443 H 650.815 6.95118 3.37684 0
M  V30 6444 H 649.16 6.24835 3.04313 0
M  V30 6445 H 652.351 4.07334 2.30644 0
M  V30 6446 H 652.524 5.759 2.97057 0
M  V30 6447 N 645.93 -0.909495 1.28709 0
M  V30 6448 C 646.877 -2.01245 1.13 0
M  V30 6449 C 647.847 -1.6608 0.0259684 0
M  V30 6450 O 649.032 -1.89835 0.191687 0
M  V30 6451 C 646.172 -3.35644 0.802315 0
M  V30 6452 C 645.285 -3.83653 1.98582 0
M  V30 6453 C 644.42 -5.06582 1.59837 0
M  V30 6454 C 643.459 -5.46934 2.74827 0
M  V30 6455 N 642.596 -6.61053 2.36546 0
M  V30 6456 H 647.436 -2.14013 2.0737 0
M  V30 6457 H 644.973 -1.0482 1.03205 0
M  V30 6458 H 646.931 -4.12963 0.593057 0
M  V30 6459 H 645.561 -3.22631 -0.104457 0
M  V30 6460 H 644.613 -3.02454 2.30708 0
M  V30 6461 H 645.925 -4.09515 2.84779 0
M  V30 6462 H 645.079 -5.91457 1.35143 0
M  V30 6463 H 643.818 -4.82537 0.707753 0
M  V30 6464 H 642.823 -4.60599 3.00215 0
M  V30 6465 H 644.048 -5.72965 3.64538 0
M  V30 6466 H 641.994 -6.3863 1.49959 0
M  V30 6467 H 641.911 -6.86662 3.16277 0
M  V30 6468 H 643.179 -7.49221 2.15146 0
M  V30 6469 N 647.408 -1.11026 -1.11852 0
M  V30 6470 C 648.685 -0.768347 -1.79877 0
M  V30 6471 C 649.065 0.744261 -1.97545 0
M  V30 6472 O 648.413 1.67271 -1.55669 0
M  V30 6473 C 648.623 -1.52648 -3.13846 0
M  V30 6474 C 649.971 -1.70297 -3.88953 0
M  V30 6475 O 650.995 -1.49037 -3.23522 0
M  V30 6476 O 649.854 -2.05593 -5.06353 0
M  V30 6477 H 646.948 -0.277891 -0.778913 0
M  V30 6478 H 649.494 -1.21343 -1.18633 0
M  V30 6479 H 648.266 -2.55564 -2.96315 0
M  V30 6480 H 647.889 -1.07466 -3.82801 0
M  V30 6481 N 648.886 1.2938 -0.899927 0
M  V30 6482 C 650.135 1.9483 -0.521937 0
M  V30 6483 C 650.448 1.71725 0.936473 0
M  V30 6484 O 651.654 2.31282 1.42199 0
M  V30 6485 C 650.11 3.48911 -0.88255 0
M  V30 6486 C 649.718 3.80815 -2.35974 0
M  V30 6487 C 651.462 4.20595 -0.57448 0
M  V30 6488 C 649.369 5.28142 -2.66121 0
M  V30 6489 H 648.299 0.729285 -0.191468 0
M  V30 6490 H 650.95 1.47103 -1.09695 0
M  V30 6491 H 649.332 3.95293 -0.236459 0
M  V30 6492 H 650.506 3.45291 -3.05141 0
M  V30 6493 H 648.821 3.22271 -2.63686 0
M  V30 6494 H 651.418 5.29031 -0.776556 0
M  V30 6495 H 651.761 4.13442 0.487005 0
M  V30 6496 H 652.294 3.79945 -1.17842 0
M  V30 6497 H 649.033 5.4036 -3.71068 0
M  V30 6498 H 648.553 5.64913 -2.01578 0
M  V30 6499 H 650.232 5.95738 -2.52399 0
M  V30 6500 N 650.364 0.662433 1.43002 0
M  V30 6501 C 651.327 -0.0142016 2.29196 0
M  V30 6502 C 652.327 -0.741394 1.42688 0
M  V30 6503 O 653.517 -0.581257 1.64216 0
M  V30 6504 C 650.649 -1.03084 3.24941 0
M  V30 6505 H 651.842 0.7443 2.90517 0
M  V30 6506 H 649.395 0.424133 1.50435 0
M  V30 6507 H 650.13 -1.81826 2.68533 0
M  V30 6508 H 649.915 -0.512946 3.8873 0
M  V30 6509 H 651.405 -1.50308 3.89612 0
M  V30 6510 N 651.842 -1.52309 0.404946 0
M  V30 6511 C 653.09 -2.01368 -0.17186 0
M  V30 6512 C 653.411 -1.29261 -1.46002 0
M  V30 6513 O 652.681 -0.41729 -1.91404 0
M  V30 6514 H 651.261 -0.744034 -0.0664993 0
M  V30 6515 H 653.923 -1.87263 0.540228 0
M  V30 6516 H 653.019 -3.09888 -0.370957 0
M  V30 6517 N 653.32 -0.135238 -1.57019 0
M  V30 6518 C 654.25 0.805235 -2.19176 0
M  V30 6519 C 655.231 1.2656 -1.13651 0
M  V30 6520 O 656.416 1.32528 -1.4195 0
M  V30 6521 C 653.546 2.04914 -2.80406 0
M  V30 6522 C 652.5 1.72598 -3.91655 0
M  V30 6523 C 651.826 3.04154 -4.39766 0
M  V30 6524 C 653.126 0.981709 -5.12991 0
M  V30 6525 H 654.82 0.287232 -2.98019 0
M  V30 6526 H 652.366 0.136714 -1.4335 0
M  V30 6527 H 654.319 2.71178 -3.22553 0
M  V30 6528 H 653.043 2.59067 -1.98877 0
M  V30 6529 H 651.702 1.08717 -3.50109 0
M  V30 6530 H 651.35 3.56274 -3.55075 0
M  V30 6531 H 651.05 2.83299 -5.14796 0
M  V30 6532 H 652.574 3.71509 -4.84576 0
M  V30 6533 H 653.988 1.5462 -5.52056 0
M  V30 6534 H 652.385 0.873533 -5.93708 0
M  V30 6535 H 653.455 -0.0286887 -4.84892 0
M  V30 6536 N 654.798 1.5699 0.138552 0
M  V30 6537 C 656.023 1.88344 0.86841 0
M  V30 6538 C 656.448 0.725159 1.7356 0
M  V30 6539 O 655.806 -0.324992 1.78363 0
M  V30 6540 C 655.854 3.18334 1.69398 0
M  V30 6541 O 654.958 3.02863 2.79907 0
M  V30 6542 H 654.299 0.618577 0.241367 0
M  V30 6543 H 656.829 2.04207 0.126826 0
M  V30 6544 H 656.839 3.50567 2.08726 0
M  V30 6545 H 655.514 4.02238 1.05725 0
M  V30 6546 H 654.091 2.82056 2.43924 0
M  V30 6547 N 656.276 -0.40816 1.52223 0
M  V30 6548 C 657.223 -1.49737 1.75635 0
M  V30 6549 C 658.193 -1.5493 0.598824 0
M  V30 6550 O 659.378 -1.71487 0.83648 0
M  V30 6551 C 656.518 -2.87174 1.91376 0
M  V30 6552 C 655.631 -2.91283 3.19027 0
M  V30 6553 C 654.766 -4.20026 3.25195 0
M  V30 6554 C 653.805 -4.18113 4.47044 0
M  V30 6555 N 652.942 -5.38429 4.50598 0
M  V30 6556 H 657.782 -1.29075 2.68596 0
M  V30 6557 H 655.319 -0.626518 1.33091 0
M  V30 6558 H 657.277 -3.66959 1.98486 0
M  V30 6559 H 655.907 -3.06329 1.01795 0
M  V30 6560 H 654.959 -2.03984 3.21084 0
M  V30 6561 H 656.271 -2.85734 4.08849 0
M  V30 6562 H 655.425 -5.08204 3.31382 0
M  V30 6563 H 654.164 -4.28271 2.33313 0
M  V30 6564 H 653.169 -3.28325 4.41002 0
M  V30 6565 H 654.394 -4.11507 5.40221 0
M  V30 6566 H 652.34 -5.4734 3.616 0
M  V30 6567 H 652.257 -5.34879 5.34266 0
M  V30 6568 H 653.525 -6.28557 4.61016 0
M  V30 6569 N 657.755 -1.42862 -0.66545 0
M  V30 6570 C 658.98 -1.47456 -1.45848 0
M  V30 6571 C 659.405 -0.0900312 -1.87884 0
M  V30 6572 O 658.763 0.913587 -1.56599 0
M  V30 6573 C 658.811 -2.41514 -2.67774 0
M  V30 6574 O 657.915 -1.89296 -3.66389 0
M  V30 6575 H 657.256 -0.499236 -0.437789 0
M  V30 6576 H 659.786 -1.8765 -0.815394 0
M  V30 6577 H 659.796 -2.58409 -3.15735 0
M  V30 6578 H 658.471 -3.42099 -2.36519 0
M  V30 6579 H 657.048 -1.82003 -3.25468 0
M  V30 6580 N 659.233 0.902656 -1.29189 0
M  V30 6581 C 660.479 1.65532 -1.17163 0
M  V30 6582 C 660.812 1.92216 0.276879 0
M  V30 6583 O 660.087 1.53048 1.20027 0
M  V30 6584 C 660.37 3.00629 -1.98228 0
M  V30 6585 C 660.223 2.81029 -3.51202 0
M  V30 6586 C 661.542 4.01321 -1.80635 0
M  V30 6587 H 658.661 0.60071 -0.426985 0
M  V30 6588 H 661.303 1.04578 -1.5863 0
M  V30 6589 H 659.453 3.52656 -1.62991 0
M  V30 6590 H 661.125 2.35927 -3.96404 0
M  V30 6591 H 659.368 2.1587 -3.76275 0
M  V30 6592 H 660.039 3.77014 -4.03192 0
M  V30 6593 H 662.515 3.58394 -2.11406 0
M  V30 6594 H 661.391 4.93792 -2.3971 0
M  V30 6595 H 661.652 4.35505 -0.760754 0
M  V30 6596 N 660.711 1.11618 1.11262 0
M  V30 6597 C 661.659 0.771291 2.1944 0
M  V30 6598 C 662.653 -0.238073 1.67719 0
M  V30 6599 O 663.859 -0.0971628 1.79738 0
M  V30 6600 H 660.234 0.231548 0.715465 0
M  V30 6601 H 662.205 1.69226 2.45775 0
M  V30 6602 C 660.954 0.232765 3.4692 0
M  V30 6603 H 660.277 1.00072 3.87073 0
M  V30 6604 H 661.717 0.0296561 4.2399 0
M  V30 6605 C 660.176 -1.03738 3.20531 0
M  V30 6606 O 660.706 -2.11675 3.41404 0
M  V30 6607 N 658.912 -0.960906 2.74253 0
M  V30 6608 H 658.459 -0.0824323 2.57468 0
M  V30 6609 H 658.417 -1.8114 2.56974 0
M  V30 6610 N 662.189 -1.289 0.906776 0
M  V30 6611 C 663.099 -2.31256 0.394707 0
M  V30 6612 C 664.115 -1.66231 -0.514121 0
M  V30 6613 O 665.291 -1.97347 -0.401994 0
M  V30 6614 C 662.356 -3.44792 -0.363191 0
M  V30 6615 C 661.417 -4.25391 0.578012 0
M  V30 6616 C 660.65 -5.33506 -0.143811 0
M  V30 6617 O 660.873 -5.53786 -1.36665 0
M  V30 6618 O 659.807 -5.99673 0.5173 0
M  V30 6619 H 663.633 -2.77051 1.24405 0
M  V30 6620 H 661.218 -1.33466 0.671346 0
M  V30 6621 H 663.1 -4.139 -0.791503 0
M  V30 6622 H 661.775 -3.01093 -1.18848 0
M  V30 6623 H 660.682 -3.58899 1.05558 0
M  V30 6624 H 662.015 -4.72752 1.36992 0
M  V30 6625 N 663.667 -0.670007 -1.42649 0
M  V30 6626 C 664.597 -0.00258501 -2.335 0
M  V30 6627 C 665.578 0.794364 -1.50412 0
M  V30 6628 O 666.763 0.75248 -1.79029 0
M  V30 6629 C 663.893 0.952748 -3.33976 0
M  V30 6630 C 662.847 0.264733 -4.2718 0
M  V30 6631 C 662.173 1.33267 -5.17826 0
M  V30 6632 C 663.473 -0.853289 -5.15283 0
M  V30 6633 H 665.167 -0.761326 -2.89559 0
M  V30 6634 H 662.713 -0.367561 -1.3923 0
M  V30 6635 H 664.666 1.4287 -3.96442 0
M  V30 6636 H 663.39 1.74285 -2.7621 0
M  V30 6637 H 662.049 -0.190938 -3.66102 0
M  V30 6638 H 661.697 2.11464 -4.5639 0
M  V30 6639 H 661.397 0.877476 -5.81011 0
M  V30 6640 H 662.921 1.80965 -5.83167 0
M  V30 6641 H 664.335 -0.458763 -5.71462 0
M  V30 6642 H 662.732 -1.23398 -5.87276 0
M  V30 6643 H 663.802 -1.70412 -4.53969 0
M  V30 6644 N 665.145 1.52092 -0.413018 0
M  V30 6645 C 666.077 2.24819 0.445994 0
M  V30 6646 C 667.09 1.27925 1.00692 0
M  V30 6647 O 668.279 1.53845 0.905204 0
M  V30 6648 C 665.379 2.96951 1.6332 0
M  V30 6649 C 664.552 4.20746 1.19548 0
M  V30 6650 C 663.611 4.75668 2.25003 0
M  V30 6651 O 662.637 5.38148 1.85434 0
M  V30 6652 N 663.839 4.57579 3.57214 0
M  V30 6653 H 666.604 2.99176 -0.177209 0
M  V30 6654 H 664.165 1.60102 -0.240601 0
M  V30 6655 H 666.157 3.30586 2.33441 0
M  V30 6656 H 664.727 2.25756 2.16225 0
M  V30 6657 H 663.947 3.92881 0.32224 0
M  V30 6658 H 665.235 5.01132 0.880033 0
M  V30 6659 H 664.633 4.07758 3.92109 0
M  V30 6660 H 663.19 4.95642 4.23299 0
M  V30 6661 N 666.623 0.143563 1.56945 0
M  V30 6662 C 667.573 -0.809115 2.1316 0
M  V30 6663 C 668.557 -1.21176 1.05855 0
M  V30 6664 O 669.749 -1.17875 1.3204 0
M  V30 6665 C 666.878 -2.04957 2.75405 0
M  V30 6666 C 665.964 -1.67018 3.89828 0
M  V30 6667 N 666.355 -0.998822 4.9584 0
M  V30 6668 C 664.653 -1.96313 4.00471 0
M  V30 6669 C 665.354 -0.816217 5.75945 0
M  V30 6670 N 664.33 -1.349 5.26596 0
M  V30 6671 H 668.132 -0.286919 2.92496 0
M  V30 6672 H 665.646 -0.0580948 1.62296 0
M  V30 6673 H 667.643 -2.74201 3.14037 0
M  V30 6674 H 666.303 -2.57697 1.97541 0
M  V30 6675 H 667.314 -0.659975 5.13678 0
M  V30 6676 H 663.991 -2.50927 3.33679 0
M  V30 6677 H 665.381 -0.287353 6.71285 0
M  V30 6678 N 668.101 -1.57061 -0.130224 0
M  V30 6679 C 669.329 -1.88432 -0.854456 0
M  V30 6680 C 669.744 -0.733608 -1.73964 0
M  V30 6681 O 669.101 0.296029 -1.80083 0
M  V30 6682 C 669.152 -3.1918 -1.69724 0
M  V30 6683 O 668.873 -4.2982 -0.847705 0
M  V30 6684 C 670.374 -3.6418 -2.5276 0
M  V30 6685 H 667.594 -0.624193 -0.246221 0
M  V30 6686 H 670.138 -2.04159 -0.11798 0
M  V30 6687 H 668.293 -3.05156 -2.3866 0
M  V30 6688 H 668.707 -5.04689 -1.42792 0
M  V30 6689 H 670.181 -4.58457 -3.07443 0
M  V30 6690 H 670.658 -2.90285 -3.29592 0
M  V30 6691 H 671.264 -3.80954 -1.89087 0
M  V30 6692 N 669.579 0.400081 -1.52437 0
M  V30 6693 C 670.509 1.4947 -1.7939 0
M  V30 6694 C 671.49 1.57383 -0.645329 0
M  V30 6695 O 672.675 1.72511 -0.891826 0
M  V30 6696 C 669.805 2.87201 -1.95276 0
M  V30 6697 C 668.759 2.94134 -3.10917 0
M  V30 6698 C 668.085 4.34207 -3.1204 0
M  V30 6699 C 669.385 2.64791 -4.50203 0
M  V30 6700 H 671.079 1.27165 -2.71052 0
M  V30 6701 H 668.625 0.610312 -1.30427 0
M  V30 6702 H 670.578 3.63772 -2.12715 0
M  V30 6703 H 669.302 3.10819 -1.00294 0
M  V30 6704 H 667.961 2.20009 -2.93243 0
M  V30 6705 H 667.609 4.54848 -2.14761 0
M  V30 6706 H 667.309 4.39768 -3.89715 0
M  V30 6707 H 668.833 5.127 -3.31619 0
M  V30 6708 H 670.247 3.31083 -4.68035 0
M  V30 6709 H 668.644 2.81717 -5.29864 0
M  V30 6710 H 669.714 1.60184 -4.57678 0
M  V30 6711 N 671.057 1.43213 0.657864 0
M  V30 6712 C 671.989 1.43974 1.78337 0
M  V30 6713 C 673.002 0.336482 1.59285 0
M  V30 6714 O 674.191 0.600631 1.68091 0
M  V30 6715 C 671.291 1.23242 3.15697 0
M  V30 6716 C 670.464 2.46319 3.61449 0
M  V30 6717 C 669.523 2.2088 4.77597 0
M  V30 6718 O 668.549 2.942 4.87273 0
M  V30 6719 N 669.751 1.22251 5.67481 0
M  V30 6720 H 672.516 2.40993 1.78164 0
M  V30 6721 H 670.077 1.3831 0.841549 0
M  V30 6722 H 672.069 1.04113 3.91079 0
M  V30 6723 H 670.639 0.346849 3.1067 0
M  V30 6724 H 669.859 2.80904 2.76563 0
M  V30 6725 H 671.147 3.28239 3.88763 0
M  V30 6726 H 670.545 0.616433 5.62331 0
M  V30 6727 H 669.102 1.09107 6.42603 0
M  V30 6728 N 672.536 -0.895792 1.29666 0
M  V30 6729 C 673.499 -1.98189 1.15124 0
M  V30 6730 C 674.499 -1.60572 0.0855717 0
M  V30 6731 O 675.689 -1.70991 0.332826 0
M  V30 6732 C 672.821 -3.32289 0.761372 0
M  V30 6733 H 674.014 -2.12518 2.11603 0
M  V30 6734 H 671.567 -1.0808 1.12908 0
M  V30 6735 H 672.302 -3.23662 -0.203393 0
M  V30 6736 H 672.087 -3.60958 1.53139 0
M  V30 6737 H 673.577 -4.1198 0.682792 0
M  V30 6738 N 674.014 -1.12206 -1.10668 0
M  V30 6739 C 674.944 -0.810086 -2.18997 0
M  V30 6740 C 675.925 0.225065 -1.68604 0
M  V30 6741 O 677.11 0.086783 -1.94006 0
M  V30 6742 C 674.24 -0.261262 -3.46316 0
M  V30 6743 C 673.194 -1.2292 -4.09969 0
M  V30 6744 C 672.52 -0.540713 -5.31959 0
M  V30 6745 C 673.82 -2.58295 -4.53962 0
M  V30 6746 H 675.514 -1.7159 -2.45352 0
M  V30 6747 H 673.06 -0.82646 -1.17922 0
M  V30 6748 H 675.013 -0.0307522 -4.21389 0
M  V30 6749 H 673.737 0.679879 -3.19445 0
M  V30 6750 H 672.396 -1.44548 -3.369 0
M  V30 6751 H 672.044 0.405492 -5.01363 0
M  V30 6752 H 671.744 -1.18637 -5.75499 0
M  V30 6753 H 673.268 -0.319184 -6.09765 0
M  V30 6754 H 674.682 -2.40709 -5.20319 0
M  V30 6755 H 673.079 -3.18916 -5.08343 0
M  V30 6756 H 674.149 -3.16918 -3.67002 0
M  V30 6757 N 675.492 1.28418 -0.913599 0
M  V30 6758 C 676.908 1.47411 -0.611728 0
M  V30 6759 C 677.108 1.83018 0.843008 0
M  V30 6760 O 676.164 1.93505 1.6221 0
M  V30 6761 C 677.477 2.57703 -1.5495 0
M  V30 6762 C 679.025 2.71572 -1.5562 0
M  V30 6763 C 679.5 3.85008 -2.48058 0
M  V30 6764 N 680.991 3.92361 -2.46184 0
M  V30 6765 C 681.726 4.79516 -3.14407 0
M  V30 6766 N 681.222 5.71262 -3.91958 0
M  V30 6767 N 683.015 4.73125 -3.03495 0
M  V30 6768 H 675.166 1.03585 -1.85429 0
M  V30 6769 H 677.429 0.515907 -0.795326 0
M  V30 6770 H 677.135 2.38298 -2.58663 0
M  V30 6771 H 677.009 3.54801 -1.28048 0
M  V30 6772 H 679.396 2.90366 -0.526441 0
M  V30 6773 H 679.477 1.75006 -1.86565 0
M  V30 6774 H 679.121 3.66969 -3.51136 0
M  V30 6775 H 679.051 4.80971 -2.14416 0
M  V30 6776 H 681.542 3.26749 -1.89851 0
M  V30 6777 H 681.855 6.34593 -4.41034 0
M  V30 6778 H 680.2 5.71103 -3.96063 0
M  V30 6779 H 683.391 4.00442 -2.42413 0
M  V30 6780 H 683.564 5.40834 -3.56935 0
M  V30 6781 N 676.97 0.677563 1.42291 0
M  V30 6782 C 678.386 0.347376 1.55774 0
M  V30 6783 C 678.586 -1.14703 1.65667 0
M  V30 6784 O 677.642 -1.93252 1.62512 0
M  V30 6785 C 678.955 1.08011 2.80631 0
M  V30 6786 C 680.503 1.06271 2.94407 0
M  V30 6787 C 680.978 1.77683 4.22129 0
M  V30 6788 N 682.469 1.74564 4.29047 0
M  V30 6789 C 683.204 2.26673 5.26694 0
M  V30 6790 N 682.7 2.87176 6.30477 0
M  V30 6791 N 684.493 2.17032 5.18511 0
M  V30 6792 H 676.644 1.64703 1.34114 0
M  V30 6793 H 678.907 0.694038 0.645768 0
M  V30 6794 H 678.613 2.13518 2.79469 0
M  V30 6795 H 678.487 0.647115 3.71608 0
M  V30 6796 H 680.874 0.0159658 2.95096 0
M  V30 6797 H 680.955 1.53461 2.04654 0
M  V30 6798 H 680.599 2.82327 4.22201 0
M  V30 6799 H 680.529 1.2794 5.10822 0
M  V30 6800 H 683.02 1.30436 3.54676 0
M  V30 6801 H 683.333 3.24551 7.01346 0
M  V30 6802 H 681.678 2.91247 6.31031 0
M  V30 6803 H 684.869 1.69451 4.36353 0
M  V30 6804 H 685.042 2.57948 5.94446 0
M  V30 6805 N 678.448 -1.51871 0.421078 0
M  V30 6806 C 679.358 -2.31077 -0.405069 0
M  V30 6807 C 680.374 -1.39301 -1.04265 0
M  V30 6808 O 681.55 -1.72376 -1.04157 0
M  V30 6809 C 678.615 -3.12556 -1.50032 0
M  V30 6810 C 677.676 -4.20088 -0.884559 0
M  V30 6811 C 676.909 -4.97673 -1.92762 0
M  V30 6812 O 677.132 -4.75696 -3.14753 0
M  V30 6813 O 676.066 -5.82203 -1.52719 0
M  V30 6814 H 679.892 -3.02742 0.241086 0
M  V30 6815 H 677.477 -1.48263 0.183991 0
M  V30 6816 H 679.359 -3.6326 -2.13589 0
M  V30 6817 H 678.034 -2.43672 -2.13086 0
M  V30 6818 H 676.941 -3.73502 -0.211379 0
M  V30 6819 H 678.274 -4.91298 -0.297763 0
M  V30 6820 N 679.926 -0.151884 -1.56866 0
M  V30 6821 C 681.154 0.504813 -2.00647 0
M  V30 6822 C 681.569 1.58098 -1.03201 0
M  V30 6823 O 680.926 1.82476 -0.0297814 0
M  V30 6824 C 680.977 1.10099 -3.44326 0
M  V30 6825 O 680.698 0.0678021 -4.38048 0
M  V30 6826 C 682.199 1.83782 -4.03409 0
M  V30 6827 H 679.419 0.130989 -0.65809 0
M  V30 6828 H 681.963 -0.247903 -2.02992 0
M  V30 6829 H 680.118 1.8043 -3.42817 0
M  V30 6830 H 680.532 0.505237 -5.22061 0
M  V30 6831 H 682.006 2.2078 -5.05925 0
M  V30 6832 H 682.483 2.72557 -3.44397 0
M  V30 6833 H 683.089 1.18138 -4.08563 0
M  V30 6834 N 681.404 1.57128 0.121893 0
M  V30 6835 C 682.334 2.03165 1.15092 0
M  V30 6836 C 683.315 0.915587 1.43356 0
M  V30 6837 O 684.5 1.1851 1.53847 0
M  V30 6838 C 681.63 2.43352 2.47784 0
M  V30 6839 C 680.584 3.58376 2.33989 0
M  V30 6840 C 679.91 3.84454 3.71617 0
M  V30 6841 C 681.21 4.90199 1.80283 0
M  V30 6842 H 682.904 2.89382 0.768023 0
M  V30 6843 H 680.45 1.39218 0.367998 0
M  V30 6844 H 682.403 2.74163 3.20019 0
M  V30 6845 H 681.127 1.54103 2.87958 0
M  V30 6846 H 679.786 3.2777 1.64202 0
M  V30 6847 H 679.434 2.92414 4.09271 0
M  V30 6848 H 679.134 4.61877 3.6324 0
M  V30 6849 H 680.658 4.17714 4.45362 0
M  V30 6850 H 682.072 5.19565 2.42333 0
M  V30 6851 H 680.469 5.71601 1.82735 0
M  V30 6852 H 681.539 4.78904 0.760184 0
M  V30 6853 N 682.882 -0.391992 1.52647 0
M  V30 6854 C 684.107 -1.16312 1.71716 0
M  V30 6855 C 684.532 -1.83042 0.433279 0
M  V30 6856 O 683.89 -1.70705 -0.610707 0
M  V30 6857 C 683.938 -2.18908 2.86551 0
M  V30 6858 O 683.042 -3.2543 2.53316 0
M  V30 6859 H 682.383 -0.338743 0.571095 0
M  V30 6860 H 684.913 -0.457202 1.99426 0
M  V30 6861 H 684.923 -2.62954 3.1196 0
M  V30 6862 H 683.598 -1.69726 3.79692 0
M  V30 6863 H 682.175 -2.86543 2.38637 0
M  V30 6864 N 684.36 -1.4356 -0.65026 0
M  V30 6865 C 685.59 -1.48563 -1.4357 0
M  V30 6866 C 685.998 -0.103041 -1.88919 0
M  V30 6867 O 685.341 0.897602 -1.60277 0
M  V30 6868 C 685.403 -2.37181 -2.70158 0
M  V30 6869 C 685.067 -3.84673 -2.4673 0
M  V30 6870 C 686.064 -4.75704 -2.09765 0
M  V30 6871 C 683.749 -4.29189 -2.60963 0
M  V30 6872 C 685.743 -6.09249 -1.87334 0
M  V30 6873 C 683.43 -5.62787 -2.38147 0
M  V30 6874 C 684.428 -6.52634 -2.01389 0
M  V30 6875 O 684.116 -7.83761 -1.78813 0
M  V30 6876 H 683.848 -0.506743 -0.447423 0
M  V30 6877 H 686.402 -1.89001 -0.80423 0
M  V30 6878 H 684.632 -1.91636 -3.35876 0
M  V30 6879 H 686.321 -2.33354 -3.32116 0
M  V30 6880 H 687.087 -4.42589 -1.98343 0
M  V30 6881 H 682.966 -3.59529 -2.88548 0
M  V30 6882 H 686.51 -6.7934 -1.58567 0
M  V30 6883 H 682.407 -5.95469 -2.49173 0
M  V30 6884 H 683.175 -7.95368 -1.93214 0
M  V30 6885 N 685.838 0.888903 -1.30139 0
M  V30 6886 C 687.086 1.63713 -1.18501 0
M  V30 6887 C 687.407 1.9324 0.261399 0
M  V30 6888 O 686.677 1.56608 1.17689 0
M  V30 6889 H 685.257 0.606861 -0.435579 0
M  V30 6890 H 687.919 1.06525 -1.63213 0
M  V30 6891 H 687.015 2.58894 -1.743 0
M  V30 6892 N 687.317 1.12792 1.10072 0
M  V30 6893 C 688.267 0.768086 2.14673 0
M  V30 6894 C 689.251 -0.234716 1.59179 0
M  V30 6895 O 690.443 -0.039643 1.76956 0
M  V30 6896 C 687.572 0.228472 3.42539 0
M  V30 6897 C 686.658 1.25979 4.04957 0
M  V30 6898 N 687.049 2.4586 4.42025 0
M  V30 6899 C 685.347 1.10602 4.32069 0
M  V30 6900 C 686.048 3.11747 4.9111 0
M  V30 6901 N 685.024 2.39185 4.88151 0
M  V30 6902 H 688.826 1.68029 2.4113 0
M  V30 6903 H 686.34 1.00925 1.27232 0
M  V30 6904 H 688.337 -0.0475216 4.16873 0
M  V30 6905 H 686.997 -0.678136 3.1754 0
M  V30 6906 H 688.008 2.83215 4.33601 0
M  V30 6907 H 684.685 0.257021 4.16708 0
M  V30 6908 H 686.075 4.13862 5.29309 0
M  V30 6909 N 688.795 -1.27931 0.920396 0
M  V30 6910 C 690.023 -1.98805 0.573087 0
M  V30 6911 C 690.438 -1.68724 -0.847201 0
M  V30 6912 O 689.795 -0.943699 -1.56207 0
M  V30 6913 C 689.846 -3.52971 0.780633 0
M  V30 6914 O 689.567 -3.81994 2.14504 0
M  V30 6915 C 691.068 -4.411 0.44105 0
M  V30 6916 H 688.288 -0.634651 0.21785 0
M  V30 6917 H 690.832 -1.62965 1.23542 0
M  V30 6918 H 688.987 -3.87048 0.165204 0
M  V30 6919 H 689.401 -4.76609 2.18962 0
M  V30 6920 H 690.875 -5.48312 0.637006 0
M  V30 6921 H 691.352 -4.34758 -0.62306 0
M  V30 6922 H 691.958 -4.12532 1.0343 0
M  V30 6923 N 690.273 -0.685099 -1.4193 0
M  V30 6924 C 691.521 -0.21124 -2.00993 0
M  V30 6925 C 691.842 1.18985 -1.54491 0
M  V30 6926 O 691.112 1.8009 -0.771 0
M  V30 6927 H 689.692 -0.0751059 -0.743215 0
M  V30 6928 H 692.354 -0.883915 -1.73704 0
M  V30 6929 H 691.45 -0.220513 -3.1132 0
M  V30 6930 N 691.751 1.51645 -0.429126 0
M  V30 6931 C 692.997 2.02314 0.140286 0
M  V30 6932 C 693.33 1.31314 1.43074 0
M  V30 6933 O 692.605 0.425531 1.89788 0
M  V30 6934 C 692.888 3.5822 0.36749 0
M  V30 6935 C 692.741 4.39846 -0.941039 0
M  V30 6936 C 694.06 4.25055 1.14089 0
M  V30 6937 H 691.179 0.735335 0.0495112 0
M  V30 6938 H 693.821 1.81358 -0.566514 0
M  V30 6939 H 691.971 3.76207 0.969556 0
M  V30 6940 H 693.643 4.33527 -1.57646 0
M  V30 6941 H 691.886 4.05259 -1.54751 0
M  V30 6942 H 692.557 5.47069 -0.73621 0
M  V30 6943 H 695.033 4.11288 0.630986 0
M  V30 6944 H 693.909 5.34038 1.26863 0
M  V30 6945 H 694.17 3.85358 2.16683 0
M  V30 6946 N 693.229 0.160201 1.56784 0
M  V30 6947 C 694.477 -0.486625 1.96154 0
M  V30 6948 C 694.798 -1.64525 1.04673 0
M  V30 6949 O 694.068 -1.95586 0.110864 0
M  V30 6950 H 692.648 -0.182764 0.724297 0
M  V30 6951 H 695.31 0.238787 1.93432 0
M  V30 6952 H 694.406 -0.854025 3.00188 0
M  V30 6953 N 694.707 -1.5719 -0.113559 0
M  V30 6954 C 695.937 -1.89053 -0.833212 0
M  V30 6955 C 696.345 -0.750139 -1.73694 0
M  V30 6956 O 695.688 0.287808 -1.81431 0
M  V30 6957 C 695.75 -3.15986 -1.71443 0
M  V30 6958 C 695.414 -4.46271 -0.984449 0
M  V30 6959 C 696.411 -5.18897 -0.322741 0
M  V30 6960 C 694.096 -4.92963 -0.964011 0
M  V30 6961 C 696.09 -6.3644 0.349646 0
M  V30 6962 C 693.777 -6.10422 -0.287828 0
M  V30 6963 C 694.775 -6.82009 0.36784 0
M  V30 6964 O 694.463 -7.97233 1.03322 0
M  V30 6965 H 694.195 -0.630225 -0.244526 0
M  V30 6966 H 696.749 -2.05152 -0.100847 0
M  V30 6967 H 694.979 -2.95984 -2.48858 0
M  V30 6968 H 696.668 -3.33826 -2.309 0
M  V30 6969 H 697.434 -4.83875 -0.330114 0
M  V30 6970 H 693.313 -4.37143 -1.46379 0
M  V30 6971 H 696.857 -6.92254 0.861996 0
M  V30 6972 H 692.754 -6.449 -0.278237 0
M  V30 6973 H 693.522 -8.13105 0.938247 0
M  V30 6974 N 696.185 0.383891 -1.52853 0
M  V30 6975 C 697.425 1.13731 -1.69837 0
M  V30 6976 C 697.789 1.87086 -0.431611 0
M  V30 6977 O 698.99 2.64518 -0.477886 0
M  V30 6978 C 697.261 2.08551 -2.90243 0
M  V30 6979 S 698.82 2.9166 -3.27841 0
M  V30 6980 H 695.638 0.384911 -0.5978 0
M  V30 6981 H 698.24 0.42103 -1.90913 0
M  V30 6982 H 696.944 1.53392 -3.80656 0
M  V30 6983 H 696.475 2.8468 -2.71516 0
M  V30 6984 H 698.49 4.10723 -2.78426 0
M  V30 6985 N 697.663 1.43903 0.642637 0
M  V30 6986 C 699.074 1.40975 1.22404 0
M  V30 6987 C 699.425 0.1192 1.95838 0
M  V30 6988 O 698.55 -0.780939 2.01818 0
M  V30 6989 C 699.145 2.5538 2.22636 0
M  V30 6990 C 697.704 2.55684 2.76229 0
M  V30 6991 C 696.851 2.32556 1.51039 0
M  V30 6992 H 699.802 1.5265 0.434006 0
M  V30 6993 H 699.823 2.27474 3.05017 0
M  V30 6994 H 699.335 3.49294 1.69161 0
M  V30 6995 H 697.436 1.65679 3.33738 0
M  V30 6996 H 697.549 3.53799 3.23053 0
M  V30 6997 H 695.913 1.81427 1.78764 0
M  V30 6998 H 696.696 3.28569 0.99484 0
M  V30 6999 N 699.141 -0.881989 1.30609 0
M  V30 7000 C 700.073 -1.99375 1.13058 0
M  V30 7001 C 701.086 -1.62636 0.0729879 0
M  V30 7002 O 702.275 -1.75621 0.319301 0
M  V30 7003 C 699.375 -3.31536 0.702651 0
M  V30 7004 C 698.548 -3.96693 1.84265 0
M  V30 7005 C 697.607 -5.07158 1.40277 0
M  V30 7006 O 696.633 -5.28628 2.11048 0
M  V30 7007 N 697.835 -5.79808 0.283449 0
M  V30 7008 H 700.6 -2.14981 2.08814 0
M  V30 7009 H 698.161 -1.05526 1.22784 0
M  V30 7010 H 700.153 -4.02804 0.391331 0
M  V30 7011 H 698.723 -3.12175 -0.162954 0
M  V30 7012 H 697.943 -3.1856 2.32192 0
M  V30 7013 H 699.231 -4.36964 2.60653 0
M  V30 7014 H 698.629 -5.64871 -0.306189 0
M  V30 7015 H 697.186 -6.51792 0.0315985 0
M  V30 7016 N 700.619 -1.13374 -1.09472 0
M  V30 7017 C 701.551 -0.768466 -2.15933 0
M  V30 7018 C 702.564 0.209585 -1.61445 0
M  V30 7019 O 703.753 -0.010539 -1.78497 0
M  V30 7020 C 700.853 -0.118266 -3.38694 0
M  V30 7021 C 700.026 -1.12829 -4.22597 0
M  V30 7022 C 699.085 -0.503875 -5.23782 0
M  V30 7023 O 698.111 -1.16374 -5.57177 0
M  V30 7024 N 699.313 0.724288 -5.75964 0
M  V30 7025 H 702.078 -1.68457 -2.47876 0
M  V30 7026 H 699.639 -1.02668 -1.25183 0
M  V30 7027 H 701.631 0.311698 -4.03498 0
M  V30 7028 H 700.201 0.700769 -3.04644 0
M  V30 7029 H 699.421 -1.73556 -3.53938 0
M  V30 7030 H 700.709 -1.81095 -4.75481 0
M  V30 7031 H 700.107 1.27918 -5.51048 0
M  V30 7032 H 698.664 1.09692 -6.42504 0
M  V30 7033 N 702.098 1.27442 -0.927168 0
M  V30 7034 C 703.346 1.94007 -0.566203 0
M  V30 7035 C 703.667 1.7323 0.895345 0
M  V30 7036 O 702.937 1.07973 1.63459 0
M  V30 7037 H 701.517 0.717917 -0.206409 0
M  V30 7038 H 704.179 1.55161 -1.17945 0
M  V30 7039 H 703.275 3.02401 -0.772028 0
M  V30 7040 N 703.576 0.692616 1.41565 0
M  V30 7041 C 704.987 0.297478 1.84315 0
M  V30 7042 C 705.338 -1.16379 1.57957 0
M  V30 7043 O 704.463 -1.89303 1.0485 0
M  V30 7044 C 705.058 0.533136 3.34579 0
M  V30 7045 C 703.617 0.191944 3.7591 0
M  V30 7046 C 702.764 0.816873 2.64995 0
M  V30 7047 H 705.715 0.893488 1.31158 0
M  V30 7048 H 705.736 -0.209105 3.79925 0
M  V30 7049 H 705.248 1.59674 3.53731 0
M  V30 7050 H 703.349 -0.867512 3.6236 0
M  V30 7051 H 703.462 0.644902 4.7474 0
M  V30 7052 H 701.826 0.246715 2.53502 0
M  V30 7053 H 702.609 1.88429 2.86966 0
M  V30 7054 N 705.054 -1.51416 0.437162 0
M  V30 7055 C 706.294 -2.03995 -0.128538 0
M  V30 7056 C 706.658 -1.31417 -1.39977 0
M  V30 7057 O 707.859 -1.74369 -2.0457 0
M  V30 7058 C 706.13 -3.55757 -0.342317 0
M  V30 7059 S 707.689 -4.3006 -0.871446 0
M  V30 7060 H 704.507 -0.710283 -0.0319322 0
M  V30 7061 H 707.109 -1.86177 0.596526 0
M  V30 7062 H 705.813 -4.06148 0.589233 0
M  V30 7063 H 705.344 -3.77869 -1.09447 0
M  V30 7064 H 707.359 -4.47248 -2.14903 0
M  V30 7065 N 706.532 -0.168513 -1.56696 0
M  V30 7066 C 707.762 0.482802 -2.0088 0
M  V30 7067 C 708.17 1.57537 -1.0478 0
M  V30 7068 O 707.513 1.83656 -0.0402746 0
M  V30 7069 C 707.575 1.1236 -3.4149 0
M  V30 7070 C 707.239 0.173027 -4.56672 0
M  V30 7071 C 708.236 -0.607565 -5.16338 0
M  V30 7072 C 705.921 0.0696691 -5.02252 0
M  V30 7073 C 707.915 -1.47874 -6.2001 0
M  V30 7074 C 705.602 -0.805096 -6.05773 0
M  V30 7075 C 706.6 -1.57789 -6.64524 0
M  V30 7076 O 706.288 -2.43804 -7.66038 0
M  V30 7077 H 706.02 0.128246 -0.663723 0
M  V30 7078 H 708.574 -0.266532 -2.03663 0
M  V30 7079 H 706.804 1.921 -3.35611 0
M  V30 7080 H 708.493 1.67683 -3.69645 0
M  V30 7081 H 709.259 -0.53787 -4.82008 0
M  V30 7082 H 705.138 0.660957 -4.56237 0
M  V30 7083 H 708.682 -2.0824 -6.65794 0
M  V30 7084 H 704.579 -0.876005 -6.39528 0
M  V30 7085 H 705.347 -2.37289 -7.83349 0
M  V30 7086 N 708.01 1.57248 0.105221 0
M  V30 7087 C 709.238 1.89768 0.82437 0
M  V30 7088 C 709.653 0.761192 1.72775 0
M  V30 7089 O 709.01 -0.267342 1.80531 0
M  V30 7090 C 709.061 3.2184 1.64625 0
M  V30 7091 O 708.782 4.31115 0.779217 0
M  V30 7092 C 710.283 3.68155 2.46935 0
M  V30 7093 H 707.503 0.628031 0.236259 0
M  V30 7094 H 710.047 2.04321 0.085485 0
M  V30 7095 H 708.202 3.08915 2.33775 0
M  V30 7096 H 708.616 5.06897 1.34745 0
M  V30 7097 H 710.09 4.6329 3.00111 0
M  V30 7098 H 710.567 2.95492 3.24932 0
M  V30 7099 H 711.173 3.83914 1.83002 0
M  V30 7100 N 709.488 -0.375779 1.53054 0
M  V30 7101 C 710.438 -1.45965 1.75152 0
M  V30 7102 C 711.422 -1.49059 0.605823 0
M  V30 7103 O 712.614 -1.54472 0.864133 0
M  V30 7104 C 709.743 -2.83524 1.93569 0
M  V30 7105 C 708.829 -2.84949 3.1411 0
M  V30 7106 N 709.22 -2.56029 4.36214 0
M  V30 7107 C 707.518 -3.16113 3.14625 0
M  V30 7108 C 708.219 -2.64873 5.17897 0
M  V30 7109 N 707.195 -2.99159 4.53878 0
M  V30 7110 H 710.997 -1.22454 2.67175 0
M  V30 7111 H 708.511 -0.583867 1.51541 0
M  V30 7112 H 710.508 -3.61578 2.07525 0
M  V30 7113 H 709.168 -3.08008 1.02768 0
M  V30 7114 H 710.179 -2.29808 4.64121 0
M  V30 7115 H 706.856 -3.45977 2.3368 0
M  V30 7116 H 708.246 -2.45947 6.25268 0
M  V30 7117 N 710.966 -1.44241 -0.634997 0
M  V30 7118 C 712.191 -1.50516 -1.42687 0
M  V30 7119 C 712.616 -0.129864 -1.87651 0
M  V30 7120 O 711.974 0.880164 -1.58502 0
M  V30 7121 C 712.022 -2.4714 -2.62591 0
M  V30 7122 O 711.126 -1.97025 -3.62291 0
M  V30 7123 H 710.467 -0.50841 -0.427101 0
M  V30 7124 H 712.997 -1.89337 -0.775408 0
M  V30 7125 H 713.007 -2.65048 -3.10183 0
M  V30 7126 H 711.682 -3.47039 -2.29209 0
M  V30 7127 H 710.259 -1.88866 -3.21534 0
M  V30 7128 N 712.444 0.87505 -1.31075 0
M  V30 7129 C 713.692 1.62447 -1.20231 0
M  V30 7130 C 714.013 1.93506 0.240888 0
M  V30 7131 O 713.283 1.57847 1.16022 0
M  V30 7132 H 711.863 0.602207 -0.441991 0
M  V30 7133 H 714.525 1.04788 -1.64334 0
M  V30 7134 H 713.621 2.57031 -1.77036 0
M  V30 7135 N 713.922 1.13953 1.08869 0
M  V30 7136 C 715.333 0.916649 1.62648 0
M  V30 7137 C 715.684 -0.545589 1.88462 0
M  V30 7138 O 714.809 -1.41351 1.63856 0
M  V30 7139 C 715.404 1.65751 2.95486 0
M  V30 7140 C 713.963 1.48034 3.46068 0
M  V30 7141 C 713.11 1.68305 2.20383 0
M  V30 7142 H 716.061 1.292 0.921572 0
M  V30 7143 H 716.082 1.11794 3.63707 0
M  V30 7144 H 715.594 2.72171 2.76667 0
M  V30 7145 H 713.695 0.439416 3.7 0
M  V30 7146 H 713.808 2.24719 4.23129 0
M  V30 7147 H 712.172 1.10833 2.29321 0
M  V30 7148 H 712.955 2.76057 2.04077 0
M  V30 7149 N 715.4 -1.26948 0.933913 0
M  V30 7150 C 716.63 -1.97898 0.593279 0
M  V30 7151 C 717.038 -1.69806 -0.834412 0
M  V30 7152 O 716.381 -0.958704 -1.56699 0
M  V30 7153 C 716.443 -3.51657 0.746825 0
M  V30 7154 C 716.107 -4.03384 2.14779 0
M  V30 7155 C 717.104 -4.15682 3.12257 0
M  V30 7156 C 714.789 -4.37577 2.46641 0
M  V30 7157 C 716.783 -4.61455 4.39702 0
M  V30 7158 C 714.47 -4.8304 3.7432 0
M  V30 7159 C 715.468 -4.94939 4.70664 0
M  V30 7160 O 715.156 -5.39403 5.96071 0
M  V30 7161 H 714.888 -0.63814 0.223055 0
M  V30 7162 H 717.442 -1.62608 1.2549 0
M  V30 7163 H 715.672 -3.8669 0.0280889 0
M  V30 7164 H 717.361 -4.03821 0.410328 0
M  V30 7165 H 718.127 -3.89519 2.88964 0
M  V30 7166 H 714.006 -4.27554 1.72391 0
M  V30 7167 H 717.55 -4.70658 5.14905 0
M  V30 7168 H 713.447 -5.08646 3.97429 0
M  V30 7169 H 714.215 -5.57641 5.99148 0
M  V30 7170 N 716.879 -0.700114 -1.41195 0
M  V30 7171 C 718.127 -0.232546 -2.00758 0
M  V30 7172 C 718.448 1.1734 -1.55745 0
M  V30 7173 O 717.718 1.79262 -0.790058 0
M  V30 7174 H 716.298 -0.0829845 -0.742376 0
M  V30 7175 H 718.96 -0.902289 -1.72756 0
M  V30 7176 H 718.056 -0.253521 -3.11069 0
M  V30 7177 N 718.357 1.51182 -0.445186 0
M  V30 7178 C 719.604 2.02152 0.118645 0
M  V30 7179 C 719.932 1.32888 1.42025 0
M  V30 7180 O 719.187 0.435041 1.90803 0
M  V30 7181 C 719.486 3.55408 0.376797 0
M  V30 7182 C 719.152 4.43008 -0.839945 0
M  V30 7183 C 717.814 4.66669 -1.17361 0
M  V30 7184 C 720.166 4.9435 -1.65127 0
M  V30 7185 C 717.494 5.38919 -2.31913 0
M  V30 7186 C 719.846 5.67857 -2.78786 0
M  V30 7187 C 718.51 5.89779 -3.12597 0
M  V30 7188 H 717.78 0.739727 0.0434152 0
M  V30 7189 H 720.427 1.82055 -0.593984 0
M  V30 7190 H 718.732 3.73879 1.1714 0
M  V30 7191 H 720.429 3.92388 0.826602 0
M  V30 7192 H 717.019 4.24793 -0.569958 0
M  V30 7193 H 721.203 4.75947 -1.4067 0
M  V30 7194 H 716.459 5.54105 -2.58413 0
M  V30 7195 H 720.633 6.06628 -3.42017 0
M  V30 7196 H 718.26 6.45542 -4.01471 0
M  V30 7197 N 719.835 0.176821 1.56605 0
M  V30 7198 C 720.767 -0.782836 2.15417 0
M  V30 7199 C 721.78 -1.18982 1.11117 0
M  V30 7200 O 722.969 -1.12872 1.38283 0
M  V30 7201 C 720.069 -2.06596 2.68647 0
M  V30 7202 C 719.242 -1.82167 3.9766 0
M  V30 7203 C 718.301 -2.94751 4.35899 0
M  V30 7204 O 717.327 -2.65148 5.03672 0
M  V30 7205 N 718.529 -4.2267 3.97907 0
M  V30 7206 H 721.294 -0.280012 2.98389 0
M  V30 7207 H 718.855 -0.00577529 1.61899 0
M  V30 7208 H 720.847 -2.81018 2.91223 0
M  V30 7209 H 719.417 -2.48054 1.90232 0
M  V30 7210 H 718.637 -0.916208 3.83405 0
M  V30 7211 H 719.925 -1.6322 4.81909 0
M  V30 7212 H 719.323 -4.4958 3.43357 0
M  V30 7213 H 717.88 -4.93778 4.25472 0
M  V30 7214 N 721.313 -1.57302 -0.09688 0
M  V30 7215 C 722.724 -1.7496 -0.651595 0
M  V30 7216 C 723.075 -0.798746 -1.79205 0
M  V30 7217 O 722.2 0.0231858 -2.16388 0
M  V30 7218 C 722.795 -3.17259 -1.18878 0
M  V30 7219 C 721.354 -3.36348 -1.68958 0
M  V30 7220 C 720.501 -2.70766 -0.598413 0
M  V30 7221 H 723.452 -1.58173 0.12918 0
M  V30 7222 H 723.473 -3.20033 -2.05814 0
M  V30 7223 H 722.985 -3.8644 -0.358523 0
M  V30 7224 H 721.086 -2.72243 -2.5439 0
M  V30 7225 H 721.199 -4.44654 -1.7838 0
M  V30 7226 H 719.563 -2.32615 -1.03743 0
M  V30 7227 H 720.346 -3.42586 0.221238 0
M  V30 7228 N 722.791 0.367657 -1.53252 0
M  V30 7229 C 723.741 1.45035 -1.75923 0
M  V30 7230 C 724.725 1.48736 -0.613719 0
M  V30 7231 O 725.917 1.54012 -0.872313 0
M  V30 7232 C 723.046 2.82493 -1.9507 0
M  V30 7233 C 722.132 2.83279 -3.15617 0
M  V30 7234 N 722.523 2.53712 -4.37566 0
M  V30 7235 C 720.821 3.1444 -3.16297 0
M  V30 7236 C 721.522 2.62123 -5.19294 0
M  V30 7237 N 720.498 2.96747 -4.55458 0
M  V30 7238 H 724.3 1.21035 -2.6782 0
M  V30 7239 H 721.814 0.575822 -1.51849 0
M  V30 7240 H 723.811 3.60473 -2.0944 0
M  V30 7241 H 722.471 3.07459 -1.044 0
M  V30 7242 H 723.482 2.27344 -4.65333 0
M  V30 7243 H 720.159 3.44733 -2.35511 0
M  V30 7244 H 721.549 2.42628 -6.26563 0
M  V30 7245 N 724.269 1.44576 0.627338 0
M  V30 7246 C 725.201 1.47724 1.75243 0
M  V30 7247 C 726.214 0.370193 1.58535 0
M  V30 7248 O 727.403 0.636151 1.66779 0
M  V30 7249 C 724.503 1.2991 3.13012 0
M  V30 7250 C 723.676 2.5393 3.56143 0
M  V30 7251 C 722.735 2.30961 4.72804 0
M  V30 7252 O 721.761 3.04469 4.80923 0
M  V30 7253 N 722.963 1.34261 5.6476 0
M  V30 7254 H 725.728 2.44718 1.73012 0
M  V30 7255 H 723.289 1.40064 0.812022 0
M  V30 7256 H 725.281 1.12385 3.88782 0
M  V30 7257 H 723.851 0.412668 3.09864 0
M  V30 7258 H 723.071 2.86707 2.70542 0
M  V30 7259 H 724.359 3.36411 3.81713 0
M  V30 7260 H 723.757 0.735573 5.60897 0
M  V30 7261 H 722.314 1.22713 6.40144 0
M  V30 7262 N 725.747 -0.868086 1.31537 0
M  V30 7263 C 726.972 -1.65926 1.24432 0
M  V30 7264 C 727.397 -1.87169 -0.186936 0
M  V30 7265 O 726.755 -1.4148 -1.13371 0
M  V30 7266 C 726.803 -3.00347 1.9956 0
M  V30 7267 O 725.907 -3.90221 1.33422 0
M  V30 7268 H 725.248 -0.506375 0.429512 0
M  V30 7269 H 727.778 -1.0822 1.73637 0
M  V30 7270 H 727.788 -3.50269 2.09226 0
M  V30 7271 H 726.463 -2.84205 3.03645 0
M  V30 7272 H 725.04 -3.48672 1.32219 0
M  V30 7273 N 727.225 -1.14528 -1.08264 0
M  V30 7274 C 728.455 -0.936604 -1.8415 0
M  V30 7275 C 728.863 0.518298 -1.81962 0
M  V30 7276 O 728.206 1.37096 -1.22272 0
M  V30 7277 C 728.268 -1.36182 -3.32708 0
M  V30 7278 C 727.932 -2.83257 -3.58629 0
M  V30 7279 C 728.929 -3.81366 -3.5335 0
M  V30 7280 C 726.614 -3.20704 -3.86593 0
M  V30 7281 C 728.608 -5.14929 -3.75668 0
M  V30 7282 C 726.295 -4.54443 -4.08564 0
M  V30 7283 C 727.293 -5.51365 -4.03095 0
M  V30 7284 O 726.981 -6.8269 -4.24488 0
M  V30 7285 H 726.713 -0.333254 -0.588148 0
M  V30 7286 H 729.267 -1.5247 -1.3763 0
M  V30 7287 H 727.497 -0.717063 -3.79994 0
M  V30 7288 H 729.186 -1.12372 -3.90035 0
M  V30 7289 H 729.952 -3.53781 -3.31759 0
M  V30 7290 H 725.831 -2.45857 -3.89969 0
M  V30 7291 H 729.375 -5.90568 -3.71315 0
M  V30 7292 H 725.272 -4.81747 -4.29639 0
M  V30 7293 H 726.04 -6.8897 -4.41886 0
M  V30 7294 N 728.703 1.26451 -0.940633 0
M  V30 7295 C 729.613 2.30128 -0.455881 0
M  V30 7296 C 730.629 1.67536 0.469867 0
M  V30 7297 O 731.805 1.98344 0.349529 0
M  V30 7298 C 728.87 3.45634 0.271648 0
M  V30 7299 C 727.931 4.23709 -0.690594 0
M  V30 7300 C 727.164 5.337 0.00231047 0
M  V30 7301 O 727.387 5.57215 1.21935 0
M  V30 7302 O 726.321 5.98091 -0.676111 0
M  V30 7303 H 730.147 2.73655 -1.31707 0
M  V30 7304 H 727.732 1.3164 -0.706497 0
M  V30 7305 H 729.614 4.15853 0.681486 0
M  V30 7306 H 728.289 3.04138 1.10824 0
M  V30 7307 H 727.196 3.55974 -1.15037 0
M  V30 7308 H 728.529 4.68953 -1.49478 0
M  V30 7309 N 730.181 0.707592 1.40822 0
M  V30 7310 C 731.427 0.244031 2.01326 0
M  V30 7311 C 731.76 -1.15722 1.55955 0
M  V30 7312 O 731.035 -1.78347 0.776044 0
M  V30 7313 C 731.318 0.315128 3.58718 0
M  V30 7314 C 731.171 1.75419 4.14184 0
M  V30 7315 C 732.49 -0.318251 4.38948 0
M  V30 7316 H 729.609 0.0901471 0.731466 0
M  V30 7317 H 732.251 0.898584 1.67408 0
M  V30 7318 H 730.401 -0.242176 3.87744 0
M  V30 7319 H 732.073 2.36626 3.95987 0
M  V30 7320 H 730.316 2.28449 3.68773 0
M  V30 7321 H 730.987 1.75538 5.23345 0
M  V30 7322 H 733.463 0.156514 4.15806 0
M  V30 7323 H 732.339 -0.238019 5.48384 0
M  V30 7324 H 732.6 -1.40067 4.19325 0
M  V30 7325 N 731.66 -1.50943 0.453197 0
M  V30 7326 C 733.071 -1.86699 -0.00619892 0
M  V30 7327 C 733.422 -1.3693 -1.40515 0
M  V30 7328 O 732.547 -0.726715 -2.03833 0
M  V30 7329 C 733.142 -3.38795 -0.018025 0
M  V30 7330 C 731.701 -3.74028 -0.421885 0
M  V30 7331 C 730.848 -2.74752 0.375087 0
M  V30 7332 H 733.799 -1.43942 0.668317 0
M  V30 7333 H 733.82 -3.71468 -0.824125 0
M  V30 7334 H 733.332 -3.74988 1.00028 0
M  V30 7335 H 731.433 -3.43431 -1.44521 0
M  V30 7336 H 731.546 -4.78908 -0.135664 0
M  V30 7337 H 729.91 -2.5414 -0.168794 0
M  V30 7338 H 730.693 -3.13787 1.39256 0
M  V30 7339 N 733.138 -0.185124 -1.56509 0
M  V30 7340 C 734.554 0.170865 -1.58683 0
M  V30 7341 C 734.754 1.61799 -1.20098 0
M  V30 7342 O 733.81 2.35181 -0.919038 0
M  V30 7343 C 735.123 -0.122459 -3.00451 0
M  V30 7344 C 736.671 -0.0617699 -3.12939 0
M  V30 7345 C 737.146 -0.328269 -4.56822 0
M  V30 7346 N 738.637 -0.276533 -4.62374 0
M  V30 7347 C 739.372 -0.456722 -5.71578 0
M  V30 7348 N 738.868 -0.69672 -6.89288 0
M  V30 7349 N 740.661 -0.391669 -5.60734 0
M  V30 7350 H 732.812 -1.12956 -1.79874 0
M  V30 7351 H 735.075 -0.45011 -0.834329 0
M  V30 7352 H 734.781 -1.12546 -3.33206 0
M  V30 7353 H 734.655 0.579578 -3.72721 0
M  V30 7354 H 737.042 0.931826 -2.80002 0
M  V30 7355 H 737.123 -0.796732 -2.43076 0
M  V30 7356 H 736.767 -1.31914 -4.9047 0
M  V30 7357 H 736.697 0.427465 -5.24862 0
M  V30 7358 H 739.188 -0.0972458 -3.77775 0
M  V30 7359 H 739.501 -0.823291 -7.68402 0
M  V30 7360 H 737.846 -0.733497 -6.91119 0
M  V30 7361 H 741.037 -0.204663 -4.67652 0
M  V30 7362 H 741.21 -0.535518 -6.45783 0
M  V30 7363 N 734.616 1.57351 0.0885366 0
M  V30 7364 C 735.846 1.90355 0.80303 0
M  V30 7365 C 736.254 0.777678 1.72478 0
M  V30 7366 O 735.597 -0.258908 1.81866 0
M  V30 7367 C 735.659 3.18674 1.66395 0
M  V30 7368 C 735.323 4.4778 0.913327 0
M  V30 7369 C 736.32 5.19345 0.240148 0
M  V30 7370 C 734.005 4.94434 0.885462 0
M  V30 7371 C 735.999 6.35803 -0.450854 0
M  V30 7372 C 733.686 6.10802 0.190679 0
M  V30 7373 C 734.684 6.81337 -0.476295 0
M  V30 7374 O 734.372 7.95488 -1.15992 0
M  V30 7375 H 734.104 0.634035 0.234469 0
M  V30 7376 H 736.658 2.05287 0.0681959 0
M  V30 7377 H 734.888 2.99906 2.44117 0
M  V30 7378 H 736.577 3.37458 2.2556 0
M  V30 7379 H 737.343 4.84339 0.253092 0
M  V30 7380 H 733.222 4.39417 1.39406 0
M  V30 7381 H 736.766 6.90795 -0.972019 0
M  V30 7382 H 732.663 6.45261 0.175603 0
M  V30 7383 H 733.431 8.11509 -1.06749 0
M  V30 7384 N 736.094 -0.359525 1.53444 0
M  V30 7385 C 737.34 -1.10315 1.70172 0
M  V30 7386 C 737.673 -1.88788 0.455287 0
M  V30 7387 O 736.948 -1.86635 -0.547514 0
M  V30 7388 C 737.231 -2.05744 2.95536 0
M  V30 7389 C 737.084 -1.3084 4.3035 0
M  V30 7390 C 738.403 -3.05784 3.16518 0
M  V30 7391 H 735.522 -0.399662 0.619225 0
M  V30 7392 H 738.164 -0.383338 1.86093 0
M  V30 7393 H 736.314 -2.67125 2.82093 0
M  V30 7394 H 737.986 -0.721959 4.55615 0
M  V30 7395 H 736.229 -0.610283 4.29486 0
M  V30 7396 H 736.9 -2.00718 5.14214 0
M  V30 7397 H 739.376 -2.5451 3.29187 0
M  V30 7398 H 738.252 -3.69772 4.05659 0
M  V30 7399 H 738.513 -3.76289 2.32076 0
M  V30 7400 N 737.572 -1.44907 -0.619662 0
M  V30 7401 C 738.983 -1.42905 -1.20146 0
M  V30 7402 C 739.334 -0.150341 -1.95623 0
M  V30 7403 O 738.459 0.748732 -2.03034 0
M  V30 7404 C 739.054 -2.58889 -2.18545 0
M  V30 7405 C 737.613 -2.60046 -2.72127 0
M  V30 7406 C 736.76 -2.3493 -1.4732 0
M  V30 7407 H 739.711 -1.53321 -0.409666 0
M  V30 7408 H 739.732 -2.32298 -3.0136 0
M  V30 7409 H 739.244 -3.51941 -1.63583 0
M  V30 7410 H 737.345 -1.70968 -3.3106 0
M  V30 7411 H 737.458 -3.58893 -3.17384 0
M  V30 7412 H 735.822 -1.84248 -1.75855 0
M  V30 7413 H 736.605 -3.3011 -0.942442 0
M  V30 7414 N 739.05 0.861098 -1.31996 0
M  V30 7415 C 740 1.95703 -1.1698 0
M  V30 7416 C 740.984 1.60709 -0.0784201 0
M  V30 7417 O 742.176 1.74365 -0.304262 0
M  V30 7418 C 739.305 3.31606 -0.888388 0
M  V30 7419 C 738.391 3.7284 -2.02117 0
M  V30 7420 N 738.782 3.85957 -3.26911 0
M  V30 7421 C 737.08 4.02419 -1.92289 0
M  V30 7422 C 737.781 4.21333 -4.01065 0
M  V30 7423 N 736.757 4.32502 -3.29307 0
M  V30 7424 H 740.559 2.03968 -2.11599 0
M  V30 7425 H 738.073 1.05245 -1.23682 0
M  V30 7426 H 740.07 4.09881 -0.761782 0
M  V30 7427 H 738.73 3.24662 0.0494898 0
M  V30 7428 H 739.741 3.70449 -3.61923 0
M  V30 7429 H 736.418 4.03814 -1.06022 0
M  V30 7430 H 737.808 4.39005 -5.08649 0
M  V30 7431 N 740.528 1.15101 1.07655 0
M  V30 7432 C 741.939 0.933848 1.61667 0
M  V30 7433 C 742.29 -0.525569 1.8903 0
M  V30 7434 O 741.415 -1.39605 1.65346 0
M  V30 7435 C 742.01 1.68876 2.93711 0
M  V30 7436 C 740.569 1.51697 3.44478 0
M  V30 7437 C 739.716 1.70633 2.18586 0
M  V30 7438 H 742.667 1.30171 0.907816 0
M  V30 7439 H 742.688 1.15645 3.625 0
M  V30 7440 H 742.2 2.7509 2.73764 0
M  V30 7441 H 740.301 0.478635 3.69513 0
M  V30 7442 H 740.414 2.29194 4.20722 0
M  V30 7443 H 738.778 1.13259 2.28132 0
M  V30 7444 H 739.561 2.78206 2.01137 0
M  V30 7445 N 742.006 -1.2595 0.947325 0
M  V30 7446 C 743.417 -1.75389 0.639963 0
M  V30 7447 C 743.768 -1.77081 -0.844788 0
M  V30 7448 O 742.893 -1.3869 -1.66114 0
M  V30 7449 C 743.488 -3.18506 1.15496 0
M  V30 7450 C 742.047 -3.65534 0.897894 0
M  V30 7451 C 741.194 -2.44818 1.30228 0
M  V30 7452 H 744.145 -1.1194 1.12495 0
M  V30 7453 H 744.166 -3.77045 0.511627 0
M  V30 7454 H 743.678 -3.17243 2.23559 0
M  V30 7455 H 741.779 -3.72221 -0.168096 0
M  V30 7456 H 741.892 -4.54039 1.52922 0
M  V30 7457 H 740.256 -2.44291 0.720678 0
M  V30 7458 H 741.039 -2.46251 2.39198 0
M  V30 7459 N 743.484 -0.715051 -1.40445 0
M  V30 7460 C 744.895 -0.326763 -1.83818 0
M  V30 7461 C 745.246 1.13851 -1.59789 0
M  V30 7462 O 744.371 1.87611 -1.07848 0
M  V30 7463 C 744.966 -0.586297 -3.33688 0
M  V30 7464 C 743.525 -0.251724 -3.75557 0
M  V30 7465 C 742.672 -0.858928 -2.63662 0
M  V30 7466 H 745.623 -0.914241 -1.2972 0
M  V30 7467 H 745.644 0.148636 -3.8021 0
M  V30 7468 H 745.156 -1.65281 -3.51146 0
M  V30 7469 H 743.257 0.809754 -3.63695 0
M  V30 7470 H 743.37 -0.720348 -4.73654 0
M  V30 7471 H 741.734 -0.287013 -2.53078 0
M  V30 7472 H 742.517 -1.9297 -2.83932 0
M  V30 7473 N 744.962 1.50701 -0.461195 0
M  V30 7474 C 746.373 1.867 -0.00370227 0
M  V30 7475 C 746.724 1.37673 1.39787 0
M  V30 7476 O 745.849 0.737515 2.03445 0
M  V30 7477 C 746.444 3.388 5.75786e-05 0
M  V30 7478 C 745.003 3.74247 0.402044 0
M  V30 7479 C 744.15 2.74549 -0.389652 0
M  V30 7480 H 747.101 1.43585 -0.675942 0
M  V30 7481 H 747.122 3.719 0.804414 0
M  V30 7482 H 746.634 3.74452 -1.02015 0
M  V30 7483 H 744.735 3.44192 1.42697 0
M  V30 7484 H 744.848 4.78973 0.110265 0
M  V30 7485 H 743.212 2.54226 0.155314 0
M  V30 7486 H 743.995 3.13044 -1.40919 0
M  V30 7487 N 746.441 0.193421 1.56409 0
M  V30 7488 C 747.852 -0.319471 1.83946 0
M  V30 7489 C 748.203 -1.61505 1.11403 0
M  V30 7490 O 747.328 -2.13139 0.374289 0
M  V30 7491 C 747.923 -0.586411 3.33686 0
M  V30 7492 C 746.482 -1.04368 3.61641 0
M  V30 7493 C 745.629 -0.0913834 2.77149 0
M  V30 7494 H 748.58 0.417242 1.53117 0
M  V30 7495 H 748.601 -1.43591 3.52366 0
M  V30 7496 H 748.113 0.356701 3.86457 0
M  V30 7497 H 746.214 -2.00113 3.14302 0
M  V30 7498 H 746.327 -0.937549 4.69837 0
M  V30 7499 H 744.691 -0.592954 2.47702 0
M  V30 7500 H 745.474 0.846142 3.32709 0
M  V30 7501 N 747.919 -1.57396 -0.0801906 0
M  V30 7502 C 749.147 -1.91055 -0.794075 0
M  V30 7503 C 749.562 -0.788583 -1.71542 0
M  V30 7504 O 748.919 0.238587 -1.80934 0
M  V30 7505 C 748.97 -3.24418 -1.59484 0
M  V30 7506 O 748.691 -4.323 -0.710532 0
M  V30 7507 C 750.192 -3.72037 -2.41046 0
M  V30 7508 H 747.412 -0.63171 -0.226238 0
M  V30 7509 H 749.956 -2.04431 -0.0529685 0
M  V30 7510 H 748.111 -3.12595 -2.2883 0
M  V30 7511 H 748.525 -5.08976 -1.26663 0
M  V30 7512 H 749.999 -4.68006 -2.92702 0
M  V30 7513 H 750.476 -3.00624 -3.2019 0
M  V30 7514 H 751.082 -3.86777 -1.76871 0
M  V30 7515 N 749.397 0.351382 -1.53633 0
M  V30 7516 C 750.622 1.11718 -1.74739 0
M  V30 7517 C 751.047 1.81829 -0.481657 0
M  V30 7518 O 750.405 1.72264 0.565233 0
M  V30 7519 C 750.453 2.11234 -2.92254 0
M  V30 7520 O 749.557 3.186 -2.61855 0
M  V30 7521 H 748.898 0.323482 -0.579875 0
M  V30 7522 H 751.428 0.404167 -2.00568 0
M  V30 7523 H 751.438 2.54591 -3.18822 0
M  V30 7524 H 750.113 1.59599 -3.84058 0
M  V30 7525 H 748.69 2.80115 -2.4615 0
M  V30 7526 N 750.875 1.45233 0.611969 0
M  V30 7527 C 751.825 1.49997 1.71711 0
M  V30 7528 C 752.809 0.363689 1.56736 0
M  V30 7529 O 754.001 0.610261 1.66147 0
M  V30 7530 C 751.13 1.46537 3.10454 0
M  V30 7531 C 750.216 2.65351 3.30831 0
M  V30 7532 N 750.607 3.90485 3.21489 0
M  V30 7533 C 748.905 2.60955 3.61688 0
M  V30 7534 C 749.606 4.69758 3.43078 0
M  V30 7535 N 748.582 4.01141 3.66861 0
M  V30 7536 H 752.384 2.44574 1.62975 0
M  V30 7537 H 749.898 1.40464 0.815082 0
M  V30 7538 H 751.895 1.48035 3.89732 0
M  V30 7539 H 750.555 0.530139 3.20343 0
M  V30 7540 H 751.566 4.22171 2.99987 0
M  V30 7541 H 748.243 1.76319 3.78441 0
M  V30 7542 H 749.633 5.7877 3.41285 0
M  V30 7543 N 752.353 -0.854086 1.3245 0
M  V30 7544 C 753.285 -1.96932 1.17262 0
M  V30 7545 C 754.298 -1.62445 0.107469 0
M  V30 7546 O 755.487 -1.74904 0.356481 0
M  V30 7547 C 752.587 -3.29971 0.772817 0
M  V30 7548 C 751.76 -3.92695 1.92638 0
M  V30 7549 C 750.819 -5.04068 1.51003 0
M  V30 7550 O 749.845 -5.24032 2.22213 0
M  V30 7551 N 751.047 -5.79076 0.406371 0
M  V30 7552 H 753.812 -2.10503 2.13327 0
M  V30 7553 H 751.373 -1.02897 1.24995 0
M  V30 7554 H 753.365 -4.01883 0.476684 0
M  V30 7555 H 751.935 -3.1245 -0.0967 0
M  V30 7556 H 751.155 -3.13563 2.38897 0
M  V30 7557 H 752.443 -4.31337 2.69863 0
M  V30 7558 H 751.841 -5.65393 -0.186302 0
M  V30 7559 H 750.398 -6.51579 0.169846 0
M  V30 7560 N 753.831 -1.1567 -1.07043 0
M  V30 7561 C 754.794 -0.858906 -2.12498 0
M  V30 7562 C 755.794 0.142735 -1.60165 0
M  V30 7563 O 756.984 -0.0872678 -1.73981 0
M  V30 7564 C 754.116 -0.283021 -3.39723 0
M  V30 7565 H 755.309 -1.79368 -2.40348 0
M  V30 7566 H 752.862 -0.964608 -1.22984 0
M  V30 7567 H 753.597 0.659796 -3.17517 0
M  V30 7568 H 753.382 -1.00467 -3.7901 0
M  V30 7569 H 754.872 -0.0923543 -4.17498 0
M  V30 7570 N 755.309 1.25446 -0.953992 0
M  V30 7571 C 756.272 2.24156 -0.478179 0
M  V30 7572 C 757.272 1.55278 0.417776 0
M  V30 7573 O 758.462 1.72866 0.215155 0
M  V30 7574 C 755.594 3.39495 0.309202 0
M  V30 7575 H 756.787 2.67764 -1.35064 0
M  V30 7576 H 754.34 1.37822 -0.737206 0
M  V30 7577 H 755.075 3.01307 1.19936 0
M  V30 7578 H 754.86 3.90679 -0.333562 0
M  V30 7579 H 756.35 4.12796 0.631594 0
M  V30 7580 N 756.787 0.722489 1.40064 0
M  V30 7581 C 757.719 0.0349057 2.29173 0
M  V30 7582 C 758.732 -0.716571 1.46182 0
M  V30 7583 O 759.921 -0.562806 1.69395 0
M  V30 7584 C 757.021 -0.974839 3.24577 0
M  V30 7585 C 756.194 -0.287471 4.36454 0
M  V30 7586 C 755.253 -1.20356 5.12251 0
M  V30 7587 O 754.279 -0.685753 5.65054 0
M  V30 7588 N 755.481 -2.53422 5.22262 0
M  V30 7589 H 758.246 0.800058 2.88824 0
M  V30 7590 H 755.807 0.57068 1.51509 0
M  V30 7591 H 757.799 -1.59002 3.72157 0
M  V30 7592 H 756.369 -1.6413 2.66046 0
M  V30 7593 H 755.589 0.508008 3.90913 0
M  V30 7594 H 756.877 0.189382 5.08447 0
M  V30 7595 H 756.275 -2.97981 4.80857 0
M  V30 7596 H 754.832 -3.10067 5.73325 0
M  V30 7597 N 758.265 -1.50454 0.469181 0
M  V30 7598 C 759.228 -2.2703 -0.314643 0
M  V30 7599 C 760.228 -1.31734 -0.922111 0
M  V30 7600 O 761.418 -1.55176 -0.791588 0
M  V30 7601 C 758.55 -3.08616 -1.44806 0
M  V30 7602 H 759.743 -2.97769 0.356892 0
M  V30 7603 H 757.296 -1.54698 0.223191 0
M  V30 7604 H 758.031 -2.42369 -2.1547 0
M  V30 7605 H 757.816 -3.78647 -1.01829 0
M  V30 7606 H 759.306 -3.66536 -2.00103 0
M  V30 7607 N 759.743 -0.201713 -1.56304 0
M  V30 7608 C 760.675 0.748466 -2.16635 0
M  V30 7609 C 761.688 1.172 -1.12996 0
M  V30 7610 O 762.877 1.10658 -1.40061 0
M  V30 7611 C 759.977 2.02296 -2.719 0
M  V30 7612 C 759.15 1.75818 -4.00508 0
M  V30 7613 C 758.209 2.87779 -4.40533 0
M  V30 7614 O 757.235 2.57101 -5.07826 0
M  V30 7615 N 758.437 4.16287 -4.04581 0
M  V30 7616 H 761.202 0.232505 -2.98797 0
M  V30 7617 H 758.763 -0.0199822 -1.61888 0
M  V30 7618 H 760.755 2.7635 -2.95657 0
M  V30 7619 H 759.325 2.44996 -1.94154 0
M  V30 7620 H 758.545 0.855095 -3.84814 0
M  V30 7621 H 759.833 1.55532 -4.84445 0
M  V30 7622 H 759.231 4.44061 -3.50466 0
M  V30 7623 H 757.788 4.86946 -4.33274 0
M  V30 7624 N 761.222 1.57436 0.0718424 0
M  V30 7625 C 762.633 1.75975 0.623678 0
M  V30 7626 C 762.984 0.827155 1.77912 0
M  V30 7627 O 762.109 0.0112425 2.16397 0
M  V30 7628 C 762.704 3.1911 1.13816 0
M  V30 7629 C 761.263 3.38994 1.63586 0
M  V30 7630 C 760.41 2.71684 0.555261 0
M  V30 7631 H 763.361 1.57948 -0.154328 0
M  V30 7632 H 763.382 3.23267 2.00696 0
M  V30 7633 H 762.894 3.86962 0.296998 0
M  V30 7634 H 760.995 2.76256 2.50027 0
M  V30 7635 H 761.108 4.47436 1.71283 0
M  V30 7636 H 759.472 2.34236 1.00029 0
M  V30 7637 H 760.255 3.42191 -0.275712 0
M  V30 7638 N 762.7 -0.34323 1.53817 0
M  V30 7639 C 764.111 -0.918823 1.62525 0
M  V30 7640 C 764.462 -1.89542 0.506765 0
M  V30 7641 O 763.587 -2.13326 -0.363441 0
M  V30 7642 C 764.182 -1.67326 2.94597 0
M  V30 7643 C 762.741 -2.19786 3.05567 0
M  V30 7644 C 761.888 -1.01708 2.57974 0
M  V30 7645 H 764.839 -0.121358 1.58235 0
M  V30 7646 H 764.86 -2.53615 2.83654 0
M  V30 7647 H 764.372 -0.962223 3.75983 0
M  V30 7648 H 762.473 -2.94065 2.28816 0
M  V30 7649 H 762.586 -2.46135 4.1104 0
M  V30 7650 H 760.95 -1.39058 2.13389 0
M  V30 7651 H 761.733 -0.320671 3.41799 0
M  V30 7652 N 764.178 -1.45556 -0.604258 0
M  V30 7653 C 765.589 -1.44171 -1.18624 0
M  V30 7654 C 765.94 -0.171081 -1.95453 0
M  V30 7655 O 765.065 0.727156 -2.03817 0
M  V30 7656 C 765.66 -2.61193 -2.15786 0
M  V30 7657 C 764.219 -2.62918 -2.69353 0
M  V30 7658 C 763.366 -2.36479 -1.4482 0
M  V30 7659 H 766.317 -1.53747 -0.393381 0
M  V30 7660 H 766.338 -2.35481 -2.98879 0
M  V30 7661 H 765.85 -3.53656 -1.59841 0
M  V30 7662 H 763.951 -1.7447 -3.29228 0
M  V30 7663 H 764.064 -3.6224 -3.13559 0
M  V30 7664 H 762.428 -1.86103 -1.73891 0
M  V30 7665 H 763.211 -3.31091 -0.907376 0
M  V30 7666 N 765.656 0.84705 -1.32902 0
M  V30 7667 C 767.067 1.41785 -1.21466 0
M  V30 7668 C 767.418 1.95464 0.169767 0
M  V30 7669 O 766.543 1.88157 1.06892 0
M  V30 7670 C 767.138 2.57734 -2.19906 0
M  V30 7671 C 765.697 3.10791 -2.12334 0
M  V30 7672 C 764.844 1.83562 -2.07847 0
M  V30 7673 H 767.795 0.653532 -1.44619 0
M  V30 7674 H 767.816 3.35123 -1.80202 0
M  V30 7675 H 767.328 2.18635 -3.20656 0
M  V30 7676 H 765.429 3.54455 -1.14858 0
M  V30 7677 H 765.542 3.71519 -3.02506 0
M  V30 7678 H 763.906 2.03475 -1.53199 0
M  V30 7679 H 764.689 1.4667 -3.10392 0
M  V30 7680 N 767.134 1.16236 1.06428 0
M  V30 7681 C 768.382 0.941171 1.78847 0
M  V30 7682 C 768.703 -0.53248 1.87589 0
M  V30 7683 O 767.973 -1.38686 1.38358 0
M  V30 7684 H 766.553 0.345228 0.66244 0
M  V30 7685 H 769.215 1.46479 1.28569 0
M  V30 7686 H 768.311 1.35871 2.80972 0
M  V30 7687 N 768.612 -1.24939 0.960631 0
M  V30 7688 C 769.84 -1.96881 0.636045 0
M  V30 7689 C 770.255 -1.71334 -0.793093 0
M  V30 7690 O 769.612 -0.992917 -1.53125 0
M  V30 7691 C 769.663 -3.50309 0.892533 0
M  V30 7692 O 769.384 -3.74977 2.26548 0
M  V30 7693 C 770.885 -4.39474 0.581159 0
M  V30 7694 H 768.105 -0.627399 0.237931 0
M  V30 7695 H 770.649 -1.58952 1.28664 0
M  V30 7696 H 768.804 -3.86326 0.288257 0
M  V30 7697 H 769.218 -4.69401 2.34014 0
M  V30 7698 H 770.692 -5.46008 0.811125 0
M  V30 7699 H 771.169 -4.3652 -0.48443 0
M  V30 7700 H 771.775 -4.09032 1.16502 0
M  V30 7701 N 770.09 -0.729906 -1.39679 0
M  V30 7702 C 771.022 -0.0470588 -2.29152 0
M  V30 7703 C 772.035 0.708808 -1.4656 0
M  V30 7704 O 773.224 0.553815 -1.69691 0
M  V30 7705 C 770.324 0.957612 -3.25089 0
M  V30 7706 C 769.497 0.264321 -4.36601 0
M  V30 7707 C 768.556 1.17638 -5.12882 0
M  V30 7708 O 767.582 0.655777 -5.6541 0
M  V30 7709 N 768.784 2.50649 -5.23598 0
M  V30 7710 H 771.549 -0.815364 -2.88395 0
M  V30 7711 H 769.11 -0.578707 -1.51204 0
M  V30 7712 H 771.102 1.57026 -3.72995 0
M  V30 7713 H 769.672 1.62716 -2.66912 0
M  V30 7714 H 768.892 -0.528732 -3.90638 0
M  V30 7715 H 770.18 -0.216344 -5.0834 0
M  V30 7716 H 769.578 2.95427 -4.82431 0
M  V30 7717 H 768.135 3.07022 -5.74961 0
M  V30 7718 N 771.568 1.50203 -0.477153 0
M  V30 7719 C 772.531 2.27194 0.302599 0
M  V30 7720 C 773.531 1.32221 0.915112 0
M  V30 7721 O 774.721 1.55593 0.783348 0
M  V30 7722 C 771.853 3.0938 1.43167 0
M  V30 7723 H 773.046 2.97575 -0.372678 0
M  V30 7724 H 770.599 1.54578 -0.231392 0
M  V30 7725 H 771.334 2.43509 2.14182 0
M  V30 7726 H 771.119 3.79181 0.998197 0
M  V30 7727 H 772.609 3.67592 1.98157 0
M  V30 7728 N 773.046 0.209999 1.56195 0
M  V30 7729 C 774.457 -0.299943 1.84275 0
M  V30 7730 C 774.808 -1.60314 1.1311 0
M  V30 7731 O 773.933 -2.1273 0.396874 0
M  V30 7732 C 774.528 -0.550986 3.3429 0
M  V30 7733 C 773.087 -1.00526 3.62728 0
M  V30 7734 C 772.234 -0.0619828 2.77231 0
M  V30 7735 H 775.185 0.433458 1.52666 0
M  V30 7736 H 775.206 -1.39846 3.53869 0
M  V30 7737 H 774.718 0.397669 3.86057 0
M  V30 7738 H 772.819 -1.96768 3.16407 0
M  V30 7739 H 772.932 -0.887664 4.70805 0
M  V30 7740 H 771.296 -0.566648 2.48317 0
M  V30 7741 H 772.079 0.881383 3.31793 0
M  V30 7742 N 774.524 -1.57472 -0.0634922 0
M  V30 7743 C 775.434 -2.07621 -1.09227 0
M  V30 7744 C 776.45 -1.00746 -1.41867 0
M  V30 7745 O 777.626 -1.32269 -1.51878 0
M  V30 7746 C 774.691 -2.51707 -2.38421 0
M  V30 7747 C 773.752 -3.72917 -2.12676 0
M  V30 7748 C 772.985 -4.14891 -3.3571 0
M  V30 7749 O 773.208 -3.56663 -4.45137 0
M  V30 7750 O 772.142 -5.07616 -3.23434 0
M  V30 7751 H 775.968 -2.95612 -0.696205 0
M  V30 7752 H 773.553 -1.46787 -0.27819 0
M  V30 7753 H 775.435 -2.80547 -3.14438 0
M  V30 7754 H 774.11 -1.66842 -2.77391 0
M  V30 7755 H 773.017 -3.49148 -1.34337 0
M  V30 7756 H 774.35 -4.5866 -1.78583 0
M  V30 7757 N 776.003 0.335068 -1.53997 0
M  V30 7758 C 776.966 1.39481 -1.81872 0
M  V30 7759 C 777.966 1.4524 -0.690078 0
M  V30 7760 O 779.156 1.45467 -0.958377 0
M  V30 7761 C 776.288 2.78329 -1.9684 0
M  V30 7762 H 777.481 1.16024 -2.76547 0
M  V30 7763 H 775.034 0.569926 -1.45539 0
M  V30 7764 H 775.769 3.07058 -1.04337 0
M  V30 7765 H 775.554 2.75544 -2.78958 0
M  V30 7766 H 777.044 3.55016 -2.19894 0
M  V30 7767 N 777.481 1.45874 0.596531 0
M  V30 7768 C 778.431 1.5181 1.70111 0
M  V30 7769 C 779.415 0.380293 1.56341 0
M  V30 7770 O 780.607 0.627849 1.6549 0
M  V30 7771 C 777.736 1.49822 3.08883 0
M  V30 7772 C 776.822 2.68845 3.27998 0
M  V30 7773 N 777.213 3.93873 3.17329 0
M  V30 7774 C 775.511 2.64777 3.589 0
M  V30 7775 C 776.212 4.73371 3.38076 0
M  V30 7776 N 775.188 4.0501 3.62585 0
M  V30 7777 H 778.99 2.46289 1.60372 0
M  V30 7778 H 776.504 1.41321 0.800138 0
M  V30 7779 H 778.501 1.5216 3.8814 0
M  V30 7780 H 777.161 0.564086 3.19763 0
M  V30 7781 H 778.172 4.25329 2.95492 0
M  V30 7782 H 774.849 1.80323 3.7655 0
M  V30 7783 H 776.239 5.82357 3.35127 0
M  V30 7784 N 778.959 -0.83999 1.33349 0
M  V30 7785 C 780.199 -1.60888 1.26073 0
M  V30 7786 C 780.563 -1.91234 -0.17129 0
M  V30 7787 O 781.764 -2.66269 -0.36799 0
M  V30 7788 C 780.035 -2.88438 2.11042 0
M  V30 7789 S 781.594 -3.79116 2.20944 0
M  V30 7790 H 778.412 -0.55166 0.448545 0
M  V30 7791 H 781.014 -0.99359 1.68369 0
M  V30 7792 H 779.718 -2.64113 3.14121 0
M  V30 7793 H 779.249 -3.54974 1.69579 0
M  V30 7794 H 781.264 -4.76921 1.36969 0
M  V30 7795 N 780.437 -1.16799 -1.0581 0
M  V30 7796 C 781.683 -0.953935 -1.78963 0
M  V30 7797 C 782.016 0.516638 -1.87202 0
M  V30 7798 O 781.291 1.38338 -1.36721 0
M  V30 7799 C 781.574 -1.58808 -3.23191 0
M  V30 7800 C 781.427 -3.13032 -3.23003 0
M  V30 7801 C 782.746 -1.2868 -4.20867 0
M  V30 7802 H 779.865 -0.347972 -0.64968 0
M  V30 7803 H 782.507 -1.44204 -1.23715 0
M  V30 7804 H 780.657 -1.17303 -3.70368 0
M  V30 7805 H 782.329 -3.63553 -2.83949 0
M  V30 7806 H 780.572 -3.46108 -2.61518 0
M  V30 7807 H 781.243 -3.52527 -4.24769 0
M  V30 7808 H 783.719 -1.6461 -3.82155 0
M  V30 7809 H 782.595 -1.75645 -5.20038 0
M  V30 7810 H 782.856 -0.206491 -4.41618 0
M  V30 7811 N 781.915 1.24427 -0.967243 0
M  V30 7812 C 782.878 2.23637 -0.501927 0
M  V30 7813 C 783.878 1.55712 0.401283 0
M  V30 7814 O 785.068 1.73085 0.196808 0
M  V30 7815 C 782.2 3.39804 0.273176 0
M  V30 7816 H 783.393 2.66317 -1.37897 0
M  V30 7817 H 780.946 1.37033 -0.751783 0
M  V30 7818 H 781.681 3.02562 1.16733 0
M  V30 7819 H 781.466 3.90303 -0.37498 0
M  V30 7820 H 782.956 4.13443 0.587776 0
M  V30 7821 N 783.393 0.737304 1.3929 0
M  V30 7822 C 784.303 0.100464 2.34385 0
M  V30 7823 C 785.319 -0.719282 1.58437 0
M  V30 7824 O 786.495 -0.647216 1.90717 0
M  V30 7825 C 783.56 -0.794325 3.37478 0
M  V30 7826 C 782.621 0.0379345 4.29283 0
M  V30 7827 C 781.854 -0.814241 5.27452 0
M  V30 7828 O 782.077 -2.05288 5.32177 0
M  V30 7829 O 781.011 -0.241679 6.01415 0
M  V30 7830 H 784.837 0.885407 2.90507 0
M  V30 7831 H 782.422 0.497999 1.40856 0
M  V30 7832 H 784.304 -1.30622 4.00644 0
M  V30 7833 H 782.979 -1.55804 2.83737 0
M  V30 7834 H 781.886 0.595405 3.69331 0
M  V30 7835 H 783.219 0.763926 4.86236 0
M  V30 7836 N 784.871 -1.49948 0.485112 0
M  V30 7837 C 786.096 -2.073 -0.0645059 0
M  V30 7838 C 786.521 -1.345 -1.31497 0
M  V30 7839 O 785.879 -0.39687 -1.76903 0
M  V30 7840 C 785.927 -3.59201 -0.317304 0
M  V30 7841 O 785.031 -3.88085 -1.39514 0
M  V30 7842 H 784.372 -0.663723 0.0191822 0
M  V30 7843 H 786.902 -1.92963 0.680179 0
M  V30 7844 H 786.912 -4.04227 -0.553604 0
M  V30 7845 H 785.587 -4.11602 0.596387 0
M  V30 7846 H 784.164 -3.54885 -1.14504 0
M  V30 7847 N 786.349 -0.21828 -1.56081 0
M  V30 7848 C 787.577 0.419258 -2.02608 0
M  V30 7849 C 787.992 1.53578 -1.09814 0
M  V30 7850 O 787.349 1.82185 -0.107149 0
M  V30 7851 C 787.4 0.953955 -3.48686 0
M  V30 7852 O 787.121 -0.11805 -4.37941 0
M  V30 7853 C 788.622 1.66506 -4.10841 0
M  V30 7854 H 785.842 0.10296 -0.663054 0
M  V30 7855 H 788.386 -0.333776 -2.01758 0
M  V30 7856 H 786.541 1.65727 -3.50162 0
M  V30 7857 H 786.955 0.283359 -5.23734 0
M  V30 7858 H 788.429 1.99123 -5.14834 0
M  V30 7859 H 788.906 2.57705 -3.55647 0
M  V30 7860 H 789.512 1.00703 -4.13206 0
M  V30 7861 N 787.827 1.57504 0.0551401 0
M  V30 7862 C 789.076 1.87237 0.750009 0
M  V30 7863 C 789.389 0.813268 1.77891 0
M  V30 7864 O 790.595 0.99898 2.52453 0
M  V30 7865 C 789.051 3.32187 1.38491 0
M  V30 7866 C 788.659 4.46267 0.393707 0
M  V30 7867 C 790.403 3.71101 2.06117 0
M  V30 7868 C 788.31 5.82265 1.03547 0
M  V30 7869 H 787.24 0.698524 0.283866 0
M  V30 7870 H 789.891 1.835 0.00365997 0
M  V30 7871 H 788.273 3.30588 2.18008 0
M  V30 7872 H 789.447 4.59289 -0.372865 0
M  V30 7873 H 787.762 4.16015 -0.17902 0
M  V30 7874 H 790.359 4.70012 2.54937 0
M  V30 7875 H 790.702 3.01751 2.86796 0
M  V30 7876 H 791.235 3.74762 1.33409 0
M  V30 7877 H 787.974 6.54949 0.268644 0
M  V30 7878 H 787.494 5.73012 1.7725 0
M  V30 7879 H 789.173 6.28148 1.55047 0
M  V30 7880 N 789.305 -0.326896 1.54172 0
M  V30 7881 C 790.716 -0.901533 1.63491 0
M  V30 7882 C 791.067 -1.88994 0.52684 0
M  V30 7883 O 790.192 -2.137 -0.340794 0
M  V30 7884 C 790.787 -1.64192 2.96355 0
M  V30 7885 C 789.346 -2.16533 3.07881 0
M  V30 7886 C 788.493 -0.98966 2.59039 0
M  V30 7887 H 791.444 -0.104568 1.58355 0
M  V30 7888 H 791.465 -2.50592 2.86328 0
M  V30 7889 H 790.977 -0.922291 3.76982 0
M  V30 7890 H 789.078 -2.91622 2.31922 0
M  V30 7891 H 789.191 -2.41762 4.13628 0
M  V30 7892 H 787.555 -1.36787 2.14852 0
M  V30 7893 H 788.338 -0.284401 3.4212 0
M  V30 7894 N 790.784 -1.46188 -0.588786 0
M  V30 7895 C 791.694 -1.58865 -1.72624 0
M  V30 7896 C 792.71 -0.472348 -1.67466 0
M  V30 7897 O 793.886 -0.735638 -1.87484 0
M  V30 7898 C 790.951 -1.56989 -3.0912 0
M  V30 7899 C 790.012 -2.79804 -3.25589 0
M  V30 7900 C 789.245 -2.78009 -4.55573 0
M  V30 7901 O 789.468 -1.86406 -5.39082 0
M  V30 7902 O 788.402 -3.6947 -4.75159 0
M  V30 7903 H 792.228 -2.55047 -1.64878 0
M  V30 7904 H 789.813 -1.28912 -0.755115 0
M  V30 7905 H 791.695 -1.58618 -3.90408 0
M  V30 7906 H 790.37 -0.639648 -3.17317 0
M  V30 7907 H 789.277 -2.83732 -2.43818 0
M  V30 7908 H 790.61 -3.72017 -3.22279 0
M  V30 7909 N 792.262 0.832906 -1.33792 0
M  V30 7910 C 793.225 1.92471 -1.24449 0
M  V30 7911 C 794.225 1.59981 -0.162085 0
M  V30 7912 O 795.415 1.69208 -0.414029 0
M  V30 7913 C 792.547 3.28278 -0.919044 0
M  V30 7914 H 793.74 2.0218 -2.21502 0
M  V30 7915 H 791.293 1.0257 -1.17936 0
M  V30 7916 H 792.028 3.24263 0.048738 0
M  V30 7917 H 791.813 3.53241 -1.70187 0
M  V30 7918 H 793.303 4.08253 -0.878576 0
M  V30 7919 N 793.74 1.17359 1.05189 0
M  V30 7920 C 794.988 0.960087 1.77839 0
M  V30 7921 C 795.309 -0.512554 1.88143 0
M  V30 7922 O 794.579 -1.3721 1.39822 0
M  V30 7923 H 793.159 0.352234 0.658741 0
M  V30 7924 H 795.821 1.47834 1.27008 0
M  V30 7925 H 794.917 1.38843 2.79516 0
M  V30 7926 N 795.218 -1.23913 0.973828 0
M  V30 7927 C 796.181 -2.23367 0.51378 0
M  V30 7928 C 797.181 -1.55923 -0.39302 0
M  V30 7929 O 798.371 -1.73187 -0.187626 0
M  V30 7930 C 795.503 -3.39944 -0.255152 0
M  V30 7931 H 796.696 -2.65581 1.39307 0
M  V30 7932 H 794.249 -1.36632 0.759039 0
M  V30 7933 H 794.984 -3.03177 -1.15127 0
M  V30 7934 H 794.769 -3.90098 0.395673 0
M  V30 7935 H 796.259 -4.13749 -0.565842 0
M  V30 7936 N 796.696 -0.74468 -1.38897 0
M  V30 7937 C 797.659 -0.11945 -2.28889 0
M  V30 7938 C 798.659 0.656942 -1.46768 0
M  V30 7939 O 799.849 0.484525 -1.67326 0
M  V30 7940 C 796.981 0.839635 -3.30398 0
M  V30 7941 H 798.174 -0.912414 -2.85683 0
M  V30 7942 H 795.727 -0.511119 -1.47707 0
M  V30 7943 H 796.462 1.6586 -2.78677 0
M  V30 7944 H 796.247 0.285432 -3.9106 0
M  V30 7945 H 797.737 1.27337 -3.97712 0
M  V30 7946 N 798.174 1.49689 -0.493057 0
M  V30 7947 C 799.422 2.02027 0.0541642 0
M  V30 7948 C 799.743 1.37554 1.38217 0
M  V30 7949 O 799.013 0.528174 1.88646 0
M  V30 7950 H 797.593 0.746646 0.0230069 0
M  V30 7951 H 800.255 1.83795 -0.648489 0
M  V30 7952 H 799.351 3.11523 0.189652 0
M  V30 7953 N 799.652 0.226554 1.55963 0
M  V30 7954 C 800.6 -0.697922 2.21882 0
M  V30 7955 C 801.594 -1.19586 1.19981 0
M  V30 7956 O 802.8 -1.15511 1.38048 0
M  V30 7957 H 799.175 -0.243501 0.711485 0
M  V30 7958 H 801.146 -0.118576 2.98164 0
M  V30 7959 C 799.895 -1.89309 2.91646 0
M  V30 7960 H 799.218 -1.51906 3.69817 0
M  V30 7961 H 800.658 -2.51762 3.41162 0
M  V30 7962 C 799.117 -2.75162 1.94391 0
M  V30 7963 O 799.647 -3.74071 1.46402 0
M  V30 7964 N 797.853 -2.41302 1.61932 0
M  V30 7965 H 797.4 -1.60923 2.01151 0
M  V30 7966 H 797.358 -2.99023 0.971219 0
M  V30 7967 N 801.13 -1.57531 -0.0467866 0
M  V30 7968 C 802.355 -1.93087 -0.757123 0
M  V30 7969 C 802.78 -0.825116 -1.69037 0
M  V30 7970 O 802.138 0.220449 -1.79955 0
M  V30 7971 C 802.186 -3.27669 -1.5055 0
M  V30 7972 O 801.29 -3.18667 -2.61773 0
M  V30 7973 H 800.631 -0.631597 -0.204892 0
M  V30 7974 H 803.161 -2.04599 -0.00755232 0
M  V30 7975 H 803.171 -3.6214 -1.87932 0
M  V30 7976 H 801.846 -4.07717 -0.820931 0
M  V30 7977 H 800.423 -2.95798 -2.27064 0
M  V30 7978 N 802.608 0.318715 -1.54344 0
M  V30 7979 C 803.856 1.054 -1.72439 0
M  V30 7980 C 804.177 1.88388 -0.503495 0
M  V30 7981 O 803.447 1.89866 0.48246 0
M  V30 7982 H 802.027 0.392124 -0.635805 0
M  V30 7983 H 804.689 0.35398 -1.91659 0
M  V30 7984 H 803.785 1.71726 -2.60608 0
M  V30 7985 N 804.086 1.46499 0.581025 0
M  V30 7986 C 805.497 1.4604 1.16315 0
M  V30 7987 C 805.848 0.202154 1.95156 0
M  V30 7988 O 804.973 -0.694638 2.04948 0
M  V30 7989 C 805.568 2.64593 2.11604 0
M  V30 7990 C 804.127 2.6717 2.65136 0
M  V30 7991 C 803.274 2.38753 1.4104 0
M  V30 7992 H 806.225 1.54354 0.368871 0
M  V30 7993 H 806.246 2.40207 2.95095 0
M  V30 7994 H 805.758 3.56154 1.54194 0
M  V30 7995 H 803.859 1.79685 3.26411 0
M  V30 7996 H 803.972 3.67182 3.07757 0
M  V30 7997 H 802.336 1.88845 1.70908 0
M  V30 7998 H 803.119 3.32493 0.854588 0
M  V30 7999 N 805.565 -0.825799 1.34232 0
M  V30 8000 C 806.981 -1.11848 1.13851 0
M  V30 8001 C 807.181 -2.01405 -0.0619031 0
M  V30 8002 O 806.237 -2.41465 -0.738287 0
M  V30 8003 C 807.55 -1.76797 2.43235 0
M  V30 8004 C 809.098 -1.89304 2.49265 0
M  V30 8005 C 809.573 -2.57669 3.78643 0
M  V30 8006 N 811.064 -2.65171 3.79788 0
M  V30 8007 C 811.799 -3.1879 4.76614 0
M  V30 8008 N 811.295 -3.72995 5.83821 0
M  V30 8009 N 813.088 -3.17164 4.64073 0
M  V30 8010 H 805.239 -0.230049 2.11151 0
M  V30 8011 H 807.502 -0.164609 0.9336 0
M  V30 8012 H 807.208 -1.18455 3.31152 0
M  V30 8013 H 807.082 -2.76693 2.56361 0
M  V30 8014 H 809.469 -2.46796 1.6179 0
M  V30 8015 H 809.55 -0.883191 2.4007 0
M  V30 8016 H 809.194 -2.00833 4.66507 0
M  V30 8017 H 809.124 -3.59152 3.8512 0
M  V30 8018 H 811.615 -2.26746 3.02315 0
M  V30 8019 H 811.928 -4.12151 6.53721 0
M  V30 8020 H 810.273 -3.71246 5.87538 0
M  V30 8021 H 813.464 -2.74082 3.79469 0
M  V30 8022 H 813.637 -3.58647 5.397 0
M  V30 8023 N 807.043 -1.17915 -1.04565 0
M  V30 8024 C 807.953 -0.916449 -2.15959 0
M  V30 8025 C 808.969 0.117655 -1.73602 0
M  V30 8026 O 810.145 -0.063089 -2.01301 0
M  V30 8027 C 807.21 -0.440262 -3.43893 0
M  V30 8028 C 806.271 -1.54172 -4.00661 0
M  V30 8029 C 805.504 -1.08816 -5.22489 0
M  V30 8030 O 805.727 0.0551547 -5.70373 0
M  V30 8031 O 804.661 -1.88383 -5.7166 0
M  V30 8032 H 808.487 -1.8484 -2.40972 0
M  V30 8033 H 806.072 -0.960552 -1.14428 0
M  V30 8034 H 807.954 -0.182537 -4.21004 0
M  V30 8035 H 806.629 0.46346 -3.20365 0
M  V30 8036 H 805.536 -1.85341 -3.24961 0
M  V30 8037 H 806.869 -2.42139 -4.2852 0
M  V30 8038 N 808.521 1.23394 -0.980386 0
M  V30 8039 C 809.798 1.87242 -0.565667 0
M  V30 8040 C 810.178 1.88151 0.957197 0
M  V30 8041 O 809.526 1.36309 1.8339 0
M  V30 8042 C 809.736 3.28743 -1.17172 0
M  V30 8043 C 811.084 4.05335 -1.26446 0
M  V30 8044 O 812.108 3.37962 -1.12517 0
M  V30 8045 O 810.967 5.25908 -1.48604 0
M  V30 8046 H 808.061 0.80477 -0.190459 0
M  V30 8047 H 810.607 1.3127 -1.07547 0
M  V30 8048 H 809.379 3.22647 -2.21392 0
M  V30 8049 H 809.002 3.92305 -0.646739 0
M  V30 8050 N 809.999 0.752036 1.385 0
M  V30 8051 C 811.227 0.318274 2.04437 0
M  V30 8052 C 811.642 -1.05285 1.56718 0
M  V30 8053 O 810.999 -1.66844 0.73956 0
M  V30 8054 C 811.05 0.330106 3.5999 0
M  V30 8055 O 810.771 1.64712 4.05957 0
M  V30 8056 C 812.272 -0.117713 4.43144 0
M  V30 8057 H 809.492 0.136228 0.657026 0
M  V30 8058 H 812.036 1.02045 1.7722 0
M  V30 8059 H 810.191 -0.323323 3.86048 0
M  V30 8060 H 810.605 1.57225 5.0038 0
M  V30 8061 H 812.079 -0.0582735 5.51969 0
M  V30 8062 H 812.556 -1.16538 4.23457 0
M  V30 8063 H 813.162 0.506784 4.2227 0
M  V30 8064 N 811.477 -1.49425 0.500989 0
M  V30 8065 C 812.425 -2.30771 -0.291149 0
M  V30 8066 C 813.419 -1.3938 -0.962787 0
M  V30 8067 O 814.625 -1.56431 -0.890477 0
M  V30 8068 H 811 -0.743499 -0.11275 0
M  V30 8069 H 812.971 -2.95501 0.414917 0
M  V30 8070 C 811.72 -3.20725 -1.34279 0
M  V30 8071 H 811.043 -3.90975 -0.83538 0
M  V30 8072 H 812.483 -3.80583 -1.86903 0
M  V30 8073 C 810.942 -2.40334 -2.36095 0
M  V30 8074 O 811.472 -2.10749 -3.41976 0
M  V30 8075 N 809.678 -2.02359 -2.08565 0
M  V30 8076 H 809.225 -2.26619 -1.22482 0
M  V30 8077 H 809.183 -1.48878 -2.76916 0
M  V30 8078 N 812.955 -0.234822 -1.55841 0
M  V30 8079 C 814.366 0.270588 -1.84729 0
M  V30 8080 C 814.717 1.58494 -1.15646 0
M  V30 8081 O 813.842 2.12071 -0.430667 0
M  V30 8082 C 814.437 0.497733 -3.35124 0
M  V30 8083 C 812.996 0.947428 -3.64281 0
M  V30 8084 C 812.143 0.01787 -2.77294 0
M  V30 8085 H 815.094 -0.457691 -1.51957 0
M  V30 8086 H 815.115 1.34199 -3.56049 0
M  V30 8087 H 814.627 -0.459037 -3.85376 0
M  V30 8088 H 812.728 1.91709 -3.19497 0
M  V30 8089 H 812.841 0.812651 -4.72158 0
M  V30 8090 H 811.205 0.527071 -2.49187 0
M  V30 8091 H 811.988 -0.934056 -3.30349 0
M  V30 8092 N 814.433 1.57553 0.0384317 0
M  V30 8093 C 815.365 2.02726 1.06934 0
M  V30 8094 C 816.378 0.938502 1.33026 0
M  V30 8095 O 817.567 1.21595 1.30678 0
M  V30 8096 C 814.667 2.37958 2.41308 0
M  V30 8097 C 813.84 3.69098 2.34703 0
M  V30 8098 C 812.899 3.91623 3.51451 0
M  V30 8099 O 811.925 4.628 3.31368 0
M  V30 8100 N 813.127 3.36538 4.72993 0
M  V30 8101 H 815.892 2.91781 0.684381 0
M  V30 8102 H 813.453 1.60307 0.226542 0
M  V30 8103 H 815.445 2.50172 3.18113 0
M  V30 8104 H 814.015 1.54621 2.71682 0
M  V30 8105 H 813.235 3.67325 1.43059 0
M  V30 8106 H 814.523 4.55144 2.27424 0
M  V30 8107 H 813.921 2.78828 4.92211 0
M  V30 8108 H 812.478 3.54148 5.47195 0
M  V30 8109 N 815.911 -0.310526 1.54511 0
M  V30 8110 C 816.843 -1.40405 1.8116 0
M  V30 8111 C 817.856 -1.47261 0.694114 0
M  V30 8112 O 819.045 -1.49751 0.971441 0
M  V30 8113 C 816.145 -2.78849 1.92604 0
M  V30 8114 C 815.318 -2.95041 3.22908 0
M  V30 8115 C 814.377 -4.13925 3.24889 0
M  V30 8116 O 813.403 -4.06463 3.98467 0
M  V30 8117 N 814.605 -5.24099 2.496 0
M  V30 8118 H 817.37 -1.17903 2.75534 0
M  V30 8119 H 814.931 -0.500564 1.53967 0
M  V30 8120 H 816.923 -3.5661 1.91342 0
M  V30 8121 H 815.493 -2.94342 1.05268 0
M  V30 8122 H 814.713 -2.04472 3.37023 0
M  V30 8123 H 816.001 -3.02763 4.08916 0
M  V30 8124 H 815.399 -5.33039 1.89435 0
M  V30 8125 H 813.956 -6.0023 2.54102 0
M  V30 8126 N 817.389 -1.46805 -0.573248 0
M  V30 8127 C 818.8 -1.46655 -1.15539 0
M  V30 8128 C 819.151 -0.2125 -1.95046 0
M  V30 8129 O 818.276 0.683759 -2.05314 0
M  V30 8130 C 818.871 -2.65711 -2.10198 0
M  V30 8131 C 817.43 -2.68572 -2.63716 0
M  V30 8132 C 816.577 -2.39498 -1.39772 0
M  V30 8133 H 819.528 -1.54547 -0.36068 0
M  V30 8134 H 819.549 -2.41768 -2.93817 0
M  V30 8135 H 819.061 -3.56967 -1.52303 0
M  V30 8136 H 817.162 -1.81414 -3.25453 0
M  V30 8137 H 817.275 -3.68809 -3.05805 0
M  V30 8138 H 815.639 -1.89749 -1.69904 0
M  V30 8139 H 816.422 -3.32942 -0.836943 0
M  V30 8140 N 818.867 0.818669 -1.34668 0
M  V30 8141 C 820.095 1.60674 -1.30351 0
M  V30 8142 C 820.51 1.88408 0.121546 0
M  V30 8143 O 819.867 1.47849 1.06991 0
M  V30 8144 C 819.918 2.94516 -2.09625 0
M  V30 8145 O 819.639 2.6799 -3.46573 0
M  V30 8146 C 821.14 3.8891 -2.12754 0
M  V30 8147 H 818.36 0.499306 -0.448258 0
M  V30 8148 H 820.904 1.01828 -1.77345 0
M  V30 8149 H 819.059 3.49908 -1.66262 0
M  V30 8150 H 819.473 3.53361 -3.87603 0
M  V30 8151 H 820.947 4.79972 -2.72637 0
M  V30 8152 H 821.424 4.24599 -1.12306 0
M  V30 8153 H 822.03 3.39453 -2.56225 0
M  V30 8154 N 820.346 1.18468 1.03938 0
M  V30 8155 C 821.574 1.00576 1.80809 0
M  V30 8156 C 821.989 -0.445786 1.83462 0
M  V30 8157 O 821.346 -1.30964 1.27101 0
M  V30 8158 C 821.397 1.55491 3.26351 0
M  V30 8159 O 821.118 2.94963 3.23926 0
M  V30 8160 C 822.619 1.42236 4.19862 0
M  V30 8161 H 819.839 0.35508 0.56935 0
M  V30 8162 H 822.383 1.57046 1.30984 0
M  V30 8163 H 820.538 1.03195 3.73403 0
M  V30 8164 H 820.952 3.20598 4.15111 0
M  V30 8165 H 822.426 1.85455 5.19914 0
M  V30 8166 H 822.903 0.371267 4.37628 0
M  V30 8167 H 823.509 1.9361 3.78675 0
M  V30 8168 N 821.824 -1.22873 0.986916 0
M  V30 8169 C 822.734 -2.28277 0.540978 0
M  V30 8170 C 823.75 -1.69164 -0.407363 0
M  V30 8171 O 824.926 -1.99504 -0.275674 0
M  V30 8172 C 821.991 -3.46404 -0.143181 0
M  V30 8173 C 821.052 -4.20854 0.847375 0
M  V30 8174 C 820.285 -5.33341 0.19577 0
M  V30 8175 O 820.508 -5.61356 -1.0117 0
M  V30 8176 O 819.442 -5.95169 0.897623 0
M  V30 8177 H 823.268 -2.68578 1.41773 0
M  V30 8178 H 820.853 -1.28927 0.754867 0
M  V30 8179 H 822.735 -4.18096 -0.526676 0
M  V30 8180 H 821.41 -3.08041 -0.994593 0
M  V30 8181 H 820.317 -3.51459 1.28169 0
M  V30 8182 H 821.65 -4.63082 1.6678 0
M  V30 8183 N 823.302 -0.75937 -1.38099 0
M  V30 8184 C 824.55 -0.317485 -1.99591 0
M  V30 8185 C 824.871 1.10628 -1.60581 0
M  V30 8186 O 824.141 1.7575 -0.865378 0
M  V30 8187 H 822.721 -0.114397 -0.738189 0
M  V30 8188 H 825.383 -0.974749 -1.68774 0
M  V30 8189 H 824.479 -0.385227 -3.09713 0
M  V30 8190 N 824.78 1.49157 -0.508906 0
M  V30 8191 C 825.73 2.26215 0.284705 0
M  V30 8192 C 826.714 1.31401 0.928586 0
M  V30 8193 O 827.906 1.56073 0.834877 0
M  V30 8194 C 825.035 3.15906 1.34382 0
M  V30 8195 C 824.121 4.18186 0.705785 0
M  V30 8196 N 824.512 5.05419 -0.196214 0
M  V30 8197 C 822.81 4.35425 0.965457 0
M  V30 8198 C 823.511 5.78977 -0.562222 0
M  V30 8199 N 822.487 5.43553 0.0717389 0
M  V30 8200 H 826.289 2.91033 -0.409543 0
M  V30 8201 H 823.803 1.59104 -0.325508 0
M  V30 8202 H 825.8 3.6975 1.92589 0
M  V30 8203 H 824.46 2.52642 2.03966 0
M  V30 8204 H 825.471 5.14781 -0.567526 0
M  V30 8205 H 822.148 3.83363 1.65346 0
M  V30 8206 H 823.538 6.59192 -1.30062 0
M  V30 8207 N 826.258 0.243083 1.55714 0
M  V30 8208 C 827.208 -0.671915 2.17875 0
M  V30 8209 C 828.192 -1.14199 1.13347 0
M  V30 8210 O 829.384 -1.09239 1.39269 0
M  V30 8211 C 826.513 -1.87027 2.87881 0
M  V30 8212 C 825.599 -1.41888 3.99661 0
M  V30 8213 N 825.99 -0.681465 5.01188 0
M  V30 8214 C 824.288 -1.70447 4.12145 0
M  V30 8215 C 824.989 -0.448285 5.7997 0
M  V30 8216 N 823.965 -1.01137 5.34109 0
M  V30 8217 H 827.767 -0.100321 2.93729 0
M  V30 8218 H 825.281 0.0452371 1.62337 0
M  V30 8219 H 827.278 -2.53674 3.3084 0
M  V30 8220 H 825.938 -2.44613 2.13529 0
M  V30 8221 H 826.949 -0.331959 5.16835 0
M  V30 8222 H 823.626 -2.29198 3.48962 0
M  V30 8223 H 825.016 0.140141 6.71754 0
M  V30 8224 N 827.736 -1.57571 -0.0300757 0
M  V30 8225 C 829.152 -1.54869 -0.385703 0
M  V30 8226 C 829.352 -0.969068 -1.76667 0
M  V30 8227 O 828.408 -0.589676 -2.45518 0
M  V30 8228 C 829.721 -2.99313 -0.288482 0
M  V30 8229 C 831.269 -3.10857 -0.365638 0
M  V30 8230 C 831.744 -4.5703 -0.297878 0
M  V30 8231 N 833.235 -4.61825 -0.356703 0
M  V30 8232 C 833.97 -5.72466 -0.327146 0
M  V30 8233 N 833.466 -6.92349 -0.249941 0
M  V30 8234 N 835.259 -5.60836 -0.376801 0
M  V30 8235 H 827.41 -1.936 0.87367 0
M  V30 8236 H 829.673 -0.887924 0.332106 0
M  V30 8237 H 829.379 -3.45443 0.66047 0
M  V30 8238 H 829.253 -3.61332 -1.08253 0
M  V30 8239 H 831.64 -2.64676 -1.30502 0
M  V30 8240 H 831.721 -2.51671 0.457744 0
M  V30 8241 H 831.365 -5.03879 0.637835 0
M  V30 8242 H 831.295 -5.14127 -1.13935 0
M  V30 8243 H 833.786 -3.75571 -0.418926 0
M  V30 8244 H 834.099 -7.7245 -0.23246 0
M  V30 8245 H 832.444 -6.94664 -0.216004 0
M  V30 8246 H 835.635 -4.66073 -0.435101 0
M  V30 8247 H 835.808 -6.47052 -0.350298 0
M  V30 8248 N 829.214 0.302327 -1.54673 0
M  V30 8249 C 830.462 1.03565 -1.73547 0
M  V30 8250 C 830.783 1.87843 -0.523448 0
M  V30 8251 O 830.053 1.90367 0.462295 0
M  V30 8252 H 828.633 0.385358 -0.639928 0
M  V30 8253 H 831.295 0.333632 -1.92023 0
M  V30 8254 H 830.391 1.68952 -2.62415 0
M  V30 8255 N 830.692 1.47107 0.565454 0
M  V30 8256 C 831.639 1.58974 1.6732 0
M  V30 8257 C 832.609 0.433146 1.60353 0
M  V30 8258 O 833.794 0.652141 1.79309 0
M  V30 8259 C 830.934 1.60224 3.05651 0
M  V30 8260 C 830.047 2.86741 3.23116 0
M  V30 8261 C 829.182 2.79381 4.51796 0
M  V30 8262 C 828.221 4.0076 4.62664 0
M  V30 8263 N 827.358 3.91685 5.8269 0
M  V30 8264 H 832.198 2.53588 1.56515 0
M  V30 8265 H 829.735 1.25791 0.762558 0
M  V30 8266 H 831.693 1.58933 3.85741 0
M  V30 8267 H 830.323 0.691285 3.15311 0
M  V30 8268 H 829.375 2.97936 2.36513 0
M  V30 8269 H 830.687 3.7665 3.27011 0
M  V30 8270 H 829.841 2.76293 5.40136 0
M  V30 8271 H 828.58 1.87142 4.50366 0
M  V30 8272 H 827.585 4.04162 3.72738 0
M  V30 8273 H 828.81 4.94117 4.6586 0
M  V30 8274 H 826.756 3.02243 5.82224 0
M  V30 8275 H 826.673 4.75264 5.87929 0
M  V30 8276 H 827.941 3.92599 6.73414 0
M  V30 8277 N 832.17 -0.811516 1.35101 0
M  V30 8278 C 833.117 -1.92308 1.27617 0
M  V30 8279 C 834.087 -1.6543 0.149091 0
M  V30 8280 O 835.272 -1.8789 0.331974 0
M  V30 8281 C 832.412 -3.28768 1.04908 0
M  V30 8282 C 831.525 -3.67865 2.26493 0
M  V30 8283 C 830.66 -4.9333 1.96974 0
M  V30 8284 C 829.699 -5.25041 3.1464 0
M  V30 8285 N 828.836 -6.41685 2.84929 0
M  V30 8286 H 833.676 -1.98041 2.22674 0
M  V30 8287 H 831.213 -0.968755 1.10696 0
M  V30 8288 H 833.171 -4.07426 0.897749 0
M  V30 8289 H 831.801 -3.22517 0.135151 0
M  V30 8290 H 830.853 -2.84507 2.52507 0
M  V30 8291 H 832.165 -3.87263 3.14371 0
M  V30 8292 H 831.319 -5.79803 1.78643 0
M  V30 8293 H 830.058 -4.75958 1.06374 0
M  V30 8294 H 829.063 -4.3706 3.33554 0
M  V30 8295 H 830.288 -5.44346 4.06035 0
M  V30 8296 H 828.234 -6.25747 1.96918 0
M  V30 8297 H 828.151 -6.6131 3.66341 0
M  V30 8298 H 829.419 -7.31198 2.70128 0
M  V30 8299 N 833.648 -1.19017 -1.03309 0
M  V30 8300 C 834.578 -0.94772 -2.13402 0
M  V30 8301 C 835.559 0.117383 -1.69694 0
M  V30 8302 O 836.744 -0.0367733 -1.94165 0
M  V30 8303 C 833.874 -0.480977 -3.43953 0
M  V30 8304 C 832.828 -1.48743 -4.01322 0
M  V30 8305 C 832.154 -0.877924 -5.27443 0
M  V30 8306 C 833.454 -2.86642 -4.36616 0
M  V30 8307 H 835.148 -1.86846 -2.33942 0
M  V30 8308 H 832.694 -0.899781 -1.12427 0
M  V30 8309 H 834.647 -0.298677 -4.2034 0
M  V30 8310 H 833.371 0.475348 -3.23122 0
M  V30 8311 H 832.03 -1.65681 -3.27025 0
M  V30 8312 H 831.678 0.0858232 -5.02927 0
M  V30 8313 H 831.378 -1.54996 -5.66789 0
M  V30 8314 H 832.902 -0.706326 -6.06501 0
M  V30 8315 H 834.316 -2.73312 -5.03958 0
M  V30 8316 H 832.713 -3.50599 -4.87032 0
M  V30 8317 H 833.783 -3.39617 -3.46105 0
M  V30 8318 N 835.127 1.22348 -0.993418 0
M  V30 8319 C 836.373 1.91393 -0.67056 0
M  V30 8320 C 836.706 1.77163 0.795428 0
M  V30 8321 O 835.981 1.14084 1.57528 0
M  V30 8322 C 836.264 3.43589 -1.0779 0
M  V30 8323 C 836.117 3.66867 -2.60248 0
M  V30 8324 C 837.436 4.35545 -0.631527 0
M  V30 8325 H 834.555 0.695057 -0.24508 0
M  V30 8326 H 837.197 1.44213 -1.23703 0
M  V30 8327 H 835.347 3.83903 -0.595902 0
M  V30 8328 H 837.019 3.35954 -3.16121 0
M  V30 8329 H 835.262 3.1113 -3.02293 0
M  V30 8330 H 835.933 4.73457 -2.838 0
M  V30 8331 H 838.409 4.0275 -1.04554 0
M  V30 8332 H 837.285 5.40707 -0.944831 0
M  V30 8333 H 837.546 4.39618 0.467779 0
M  V30 8334 N 836.605 0.766683 1.37694 0
M  V30 8335 C 837.537 0.107798 2.28946 0
M  V30 8336 C 838.55 -0.669701 1.48387 0
M  V30 8337 O 839.739 -0.508629 1.711 0
M  V30 8338 C 836.839 -0.871084 3.27514 0
M  V30 8339 C 836.012 -0.148471 4.37148 0
M  V30 8340 C 835.071 -1.03998 5.1582 0
M  V30 8341 O 834.097 -0.505639 5.6695 0
M  V30 8342 N 835.299 -2.36679 5.3006 0
M  V30 8343 H 838.064 0.89154 2.86132 0
M  V30 8344 H 835.625 0.618593 1.49616 0
M  V30 8345 H 837.617 -1.47081 3.77027 0
M  V30 8346 H 836.187 -1.55582 2.71133 0
M  V30 8347 H 835.407 0.632117 3.89099 0
M  V30 8348 H 836.695 0.351045 5.07588 0
M  V30 8349 H 836.093 -2.82532 4.90094 0
M  V30 8350 H 834.65 -2.9167 5.82899 0
M  V30 8351 N 838.083 -1.48885 0.516809 0
M  V30 8352 C 839.046 -2.27916 -0.242256 0
M  V30 8353 C 840.046 -1.34601 -0.879735 0
M  V30 8354 O 841.236 -1.57616 -0.74182 0
M  V30 8355 C 838.368 -3.13067 -1.34914 0
M  V30 8356 H 839.561 -2.96483 0.451444 0
M  V30 8357 H 837.114 -1.5391 0.272294 0
M  V30 8358 H 837.849 -2.49102 -2.07651 0
M  V30 8359 H 837.634 -3.81695 -0.897313 0
M  V30 8360 H 839.124 -3.72716 -1.88341 0
M  V30 8361 N 839.561 -0.251338 -1.55583 0
M  V30 8362 C 840.786 0.379136 -2.03905 0
M  V30 8363 C 841.211 1.50428 -1.12929 0
M  V30 8364 O 840.569 1.80882 -0.123114 0
M  V30 8365 C 840.617 0.86009 -3.50193 0
M  V30 8366 O 839.721 1.96932 -3.62342 0
M  V30 8367 H 839.062 0.0820183 -0.658915 0
M  V30 8368 H 841.592 -0.378692 -2.01065 0
M  V30 8369 H 841.602 1.16214 -3.91099 0
M  V30 8370 H 840.277 0.0367559 -4.15884 0
M  V30 8371 H 838.854 1.67163 -3.33333 0
M  V30 8372 N 841.039 1.57585 0.0217189 0
M  V30 8373 C 842.002 2.06004 1.00474 0
M  V30 8374 C 843.002 0.965461 1.2859 0
M  V30 8375 O 844.192 1.22884 1.23471 0
M  V30 8376 C 841.324 2.48319 2.33561 0
M  V30 8377 H 842.517 2.94112 0.586346 0
M  V30 8378 H 840.07 1.53973 0.268716 0
M  V30 8379 H 840.805 1.63389 2.80133 0
M  V30 8380 H 840.59 3.28239 2.1448 0
M  V30 8381 H 842.08 2.86181 3.04122 0
M  V30 8382 N 842.517 -0.29412 1.54831 0
M  V30 8383 C 843.742 -1.05156 1.78765 0
M  V30 8384 C 844.167 -1.79916 0.548809 0
M  V30 8385 O 843.525 -1.74243 -0.500909 0
M  V30 8386 C 843.573 -2.00242 2.99893 0
M  V30 8387 O 842.677 -3.08662 2.73499 0
M  V30 8388 H 842.018 -0.301737 0.591482 0
M  V30 8389 H 844.548 -0.329449 2.0193 0
M  V30 8390 H 844.558 -2.42583 3.28051 0
M  V30 8391 H 843.233 -1.45235 3.89717 0
M  V30 8392 H 841.81 -2.70786 2.56377 0
M  V30 8393 N 843.995 -1.47404 -0.557645 0
M  V30 8394 C 845.243 -1.53703 -1.31224 0
M  V30 8395 C 845.564 -0.200742 -1.93964 0
M  V30 8396 O 844.834 0.775253 -1.79907 0
M  V30 8397 H 843.414 -0.566171 -0.487299 0
M  V30 8398 H 846.076 -1.83699 -0.651195 0
M  V30 8399 H 845.172 -2.30335 -2.10599 0
M  V30 8400 N 845.473 0.80434 -1.35529 0
M  V30 8401 C 846.719 1.56385 -1.29118 0
M  V30 8402 C 847.052 1.9374 0.133536 0
M  V30 8403 O 846.327 1.6153 1.08344 0
M  V30 8404 C 846.61 2.85097 -2.19981 0
M  V30 8405 C 846.463 2.54204 -3.7108 0
M  V30 8406 C 847.782 3.86817 -2.09907 0
M  V30 8407 H 844.901 0.567382 -0.470368 0
M  V30 8408 H 847.543 0.925235 -1.6595 0
M  V30 8409 H 845.693 3.39594 -1.88701 0
M  V30 8410 H 847.365 2.05872 -4.12813 0
M  V30 8411 H 845.608 1.87364 -3.91251 0
M  V30 8412 H 846.279 3.46068 -4.30048 0
M  V30 8413 H 848.755 3.41725 -2.37409 0
M  V30 8414 H 847.631 4.7465 -2.75678 0
M  V30 8415 H 847.892 4.28663 -1.08171 0
M  V30 8416 N 846.951 1.19563 1.02676 0
M  V30 8417 C 847.914 0.937182 2.09164 0
M  V30 8418 C 848.914 -0.0831927 1.60585 0
M  V30 8419 O 850.104 0.15178 1.73538 0
M  V30 8420 C 847.236 0.408912 3.38439 0
M  V30 8421 H 848.429 1.88164 2.33526 0
M  V30 8422 H 845.982 1.00959 1.19319 0
M  V30 8423 H 846.717 -0.541497 3.19747 0
M  V30 8424 H 846.502 1.14464 3.7502 0
M  V30 8425 H 847.992 0.247242 4.16867 0
M  V30 8426 N 848.429 -1.21819 0.999893 0
M  V30 8427 C 849.361 -2.23356 0.514256 0
M  V30 8428 C 850.374 -1.5795 -0.394413 0
M  V30 8429 O 851.563 -1.77427 -0.195428 0
M  V30 8430 C 848.663 -3.37797 -0.273207 0
M  V30 8431 C 847.836 -4.32791 0.633293 0
M  V30 8432 C 846.895 -5.26098 -0.103673 0
M  V30 8433 O 845.921 -5.66881 0.513269 0
M  V30 8434 N 847.123 -5.63764 -1.38383 0
M  V30 8435 H 849.888 -2.65653 1.3874 0
M  V30 8436 H 847.449 -1.3619 0.875431 0
M  V30 8437 H 849.441 -3.97209 -0.775053 0
M  V30 8438 H 848.011 -2.94527 -1.0475 0
M  V30 8439 H 847.231 -3.71595 1.31571 0
M  V30 8440 H 848.519 -4.93196 1.25039 0
M  V30 8441 H 847.917 -5.32614 -1.90627 0
M  V30 8442 H 846.474 -6.25562 -1.83073 0
M  V30 8443 N 849.908 -0.773975 -1.37286 0
M  V30 8444 C 851.133 -0.349561 -2.04433 0
M  V30 8445 C 851.558 1.02082 -1.5799 0
M  V30 8446 O 850.916 1.65458 -0.741172 0
M  V30 8447 C 850.964 -0.404292 -3.58326 0
M  V30 8448 O 850.068 0.594447 -4.08093 0
M  V30 8449 H 849.409 -0.150959 -0.646612 0
M  V30 8450 H 851.939 -1.05079 -1.75555 0
M  V30 8451 H 851.949 -0.262378 -4.07155 0
M  V30 8452 H 850.624 -1.40403 -3.91484 0
M  V30 8453 H 849.201 0.415468 -3.70578 0
M  V30 8454 N 851.386 1.48609 -0.524698 0
M  V30 8455 C 852.333 2.29539 0.240956 0
M  V30 8456 C 853.303 1.37033 0.938681 0
M  V30 8457 O 854.488 1.65996 0.940737 0
M  V30 8458 C 851.628 3.20278 1.28514 0
M  V30 8459 C 850.741 4.27858 0.596798 0
M  V30 8460 C 849.876 5.05784 1.62346 0
M  V30 8461 C 848.915 6.05173 0.918287 0
M  V30 8462 N 848.052 6.76176 1.89025 0
M  V30 8463 H 852.892 2.945 -0.455368 0
M  V30 8464 H 850.429 1.45188 -0.236403 0
M  V30 8465 H 852.387 3.71281 1.90279 0
M  V30 8466 H 851.017 2.57251 1.94992 0
M  V30 8467 H 850.069 3.80162 -0.134668 0
M  V30 8468 H 851.381 4.98782 0.0428506 0
M  V30 8469 H 850.535 5.60775 2.31553 0
M  V30 8470 H 849.274 4.34687 2.2113 0
M  V30 8471 H 848.279 5.49391 0.21212 0
M  V30 8472 H 849.504 6.78265 0.336633 0
M  V30 8473 H 847.45 6.07834 2.46726 0
M  V30 8474 H 847.367 7.43157 1.3876 0
M  V30 8475 H 848.635 7.35759 2.57446 0
M  V30 8476 N 852.864 0.259585 1.55447 0
M  V30 8477 C 853.774 -0.645026 2.25558 0
M  V30 8478 C 854.79 -1.18291 1.27606 0
M  V30 8479 O 855.966 -1.21649 1.6051 0
M  V30 8480 C 853.031 -1.81964 2.9511 0
M  V30 8481 C 852.092 -1.31997 4.08504 0
M  V30 8482 C 851.325 -2.43861 4.74729 0
M  V30 8483 O 851.548 -3.62876 4.40088 0
M  V30 8484 O 850.482 -2.12898 5.6299 0
M  V30 8485 H 854.308 -0.0775399 3.03601 0
M  V30 8486 H 851.893 0.0275859 1.49375 0
M  V30 8487 H 853.775 -2.50485 3.38873 0
M  V30 8488 H 852.45 -2.37451 2.19997 0
M  V30 8489 H 851.357 -0.601676 3.6923 0
M  V30 8490 H 852.69 -0.811045 4.85472 0
M  V30 8491 N 854.342 -1.57594 -0.0133615 0
M  V30 8492 C 855.753 -1.78168 -0.557937 0
M  V30 8493 C 856.104 -0.892616 -1.74719 0
M  V30 8494 O 855.229 -0.0915491 -2.16206 0
M  V30 8495 C 855.824 -3.23115 -1.01894 0
M  V30 8496 C 854.383 -3.44831 -1.50892 0
M  V30 8497 C 853.53 -2.73558 -0.454044 0
M  V30 8498 H 856.481 -1.57266 0.212843 0
M  V30 8499 H 856.502 -3.30493 -1.8856 0
M  V30 8500 H 856.014 -3.87798 -0.153175 0
M  V30 8501 H 854.115 -2.85345 -2.39602 0
M  V30 8502 H 854.228 -4.53485 -1.54559 0
M  V30 8503 H 852.592 -2.37787 -0.912666 0
M  V30 8504 H 853.375 -3.40932 0.402524 0
M  V30 8505 N 855.82 0.285905 -1.54985 0
M  V30 8506 C 857.048 1.03776 -1.78992 0
M  V30 8507 C 857.463 1.80402 -0.556814 0
M  V30 8508 O 856.82 1.76242 0.473801 0
M  V30 8509 C 856.871 2.0065 -3.00702 0
M  V30 8510 O 856.592 1.27131 -4.19249 0
M  V30 8511 C 858.093 2.87753 -3.37214 0
M  V30 8512 H 855.313 0.307126 -0.596586 0
M  V30 8513 H 857.857 0.3206 -2.01971 0
M  V30 8514 H 856.012 2.67847 -2.79887 0
M  V30 8515 H 856.426 1.92316 -4.8797 0
M  V30 8516 H 857.9 3.51548 -4.2558 0
M  V30 8517 H 858.377 3.56848 -2.56039 0
M  V30 8518 H 858.983 2.26065 -3.60242 0
M  V30 8519 N 857.298 1.47698 0.54982 0
M  V30 8520 C 858.526 1.5833 1.33188 0
M  V30 8521 C 858.941 0.236193 1.87317 0
M  V30 8522 O 858.298 -0.77167 1.65383 0
M  V30 8523 C 858.349 2.61438 2.49664 0
M  V30 8524 O 858.07 3.9092 1.97771 0
M  V30 8525 C 859.571 2.82324 3.41772 0
M  V30 8526 H 856.791 0.53443 0.405741 0
M  V30 8527 H 859.335 1.93375 0.665309 0
M  V30 8528 H 857.49 2.29307 3.12245 0
M  V30 8529 H 857.904 4.47323 2.73866 0
M  V30 8530 H 859.378 3.58316 4.19897 0
M  V30 8531 H 859.855 1.90416 3.95776 0
M  V30 8532 H 860.461 3.15682 2.85 0
M  V30 8533 N 858.776 -0.797141 1.35954 0
M  V30 8534 C 860.187 -1.37179 1.26644 0
M  V30 8535 C 860.538 -1.9596 -0.0971046 0
M  V30 8536 O 859.663 -1.91994 -0.998355 0
M  V30 8537 C 860.258 -2.49395 2.2932 0
M  V30 8538 C 858.817 -3.02697 2.23722 0
M  V30 8539 C 857.964 -1.75721 2.14517 0
M  V30 8540 H 860.915 -0.599407 1.46945 0
M  V30 8541 H 860.936 -3.28204 1.92515 0
M  V30 8542 H 860.448 -2.06584 3.2855 0
M  V30 8543 H 858.549 -3.49948 1.27934 0
M  V30 8544 H 858.662 -3.60036 3.16087 0
M  V30 8545 H 857.026 -1.97649 1.60646 0
M  V30 8546 H 857.809 -1.35049 3.15621 0
M  V30 8547 N 860.254 -1.20106 -1.0204 0
M  V30 8548 C 861.201 -0.946468 -2.10501 0
M  V30 8549 C 862.171 0.121902 -1.65652 0
M  V30 8550 O 863.356 -0.0220244 -1.90787 0
M  V30 8551 C 860.496 -0.500499 -3.41451 0
M  V30 8552 C 859.609 -1.63659 -3.998 0
M  V30 8553 C 858.744 -1.14131 -5.18794 0
M  V30 8554 C 857.783 -2.25074 -5.69217 0
M  V30 8555 N 856.92 -1.76791 -6.79477 0
M  V30 8556 H 861.76 -1.87506 -2.31615 0
M  V30 8557 H 859.297 -0.934693 -1.13587 0
M  V30 8558 H 861.255 -0.223276 -4.16602 0
M  V30 8559 H 859.885 0.391099 -3.20422 0
M  V30 8560 H 858.937 -2.02882 -3.21781 0
M  V30 8561 H 860.249 -2.47213 -4.33229 0
M  V30 8562 H 859.403 -0.819826 -6.01135 0
M  V30 8563 H 858.142 -0.275615 -4.86921 0
M  V30 8564 H 857.147 -2.58043 -4.85483 0
M  V30 8565 H 858.372 -3.12114 -6.03127 0
M  V30 8566 H 856.318 -0.925428 -6.4944 0
M  V30 8567 H 856.235 -2.53928 -7.12079 0
M  V30 8568 H 857.503 -1.47631 -7.65392 0
M  V30 8569 N 861.732 1.21287 -1.00634 0
M  V30 8570 C 862.695 2.21927 -0.572821 0
M  V30 8571 C 863.695 1.5691 0.351541 0
M  V30 8572 O 864.885 1.73623 0.141643 0
M  V30 8573 C 862.017 3.40501 0.164932 0
M  V30 8574 H 863.21 2.61795 -1.463 0
M  V30 8575 H 860.763 1.34571 -0.794998 0
M  V30 8576 H 861.498 3.06123 1.07049 0
M  V30 8577 H 861.283 3.88912 -0.498962 0
M  V30 8578 H 862.773 4.15103 0.455945 0
M  V30 8579 N 863.21 0.781244 1.36873 0
M  V30 8580 C 864.157 0.172146 2.30157 0
M  V30 8581 C 865.127 -0.679328 1.51573 0
M  V30 8582 O 866.312 -0.629713 1.80109 0
M  V30 8583 C 863.452 -0.693534 3.38059 0
M  V30 8584 C 862.565 0.175586 4.31643 0
M  V30 8585 C 861.7 -0.695695 5.26625 0
M  V30 8586 C 860.739 0.17538 6.11849 0
M  V30 8587 N 859.876 -0.654416 6.99043 0
M  V30 8588 H 864.716 0.973133 2.81663 0
M  V30 8589 H 862.253 0.491469 1.38647 0
M  V30 8590 H 864.211 -1.21035 3.99257 0
M  V30 8591 H 862.841 -1.46003 2.87894 0
M  V30 8592 H 861.893 0.810295 3.7167 0
M  V30 8593 H 863.205 0.847107 4.91554 0
M  V30 8594 H 862.359 -1.27863 5.93073 0
M  V30 8595 H 861.098 -1.40087 4.67148 0
M  V30 8596 H 860.103 0.77078 5.4437 0
M  V30 8597 H 861.328 0.87803 6.734 0
M  V30 8598 H 859.274 -1.34403 6.42084 0
M  V30 8599 H 859.191 -0.0403998 7.55989 0
M  V30 8600 H 860.459 -1.22144 7.69871 0
M  V30 8601 N 864.689 -1.48329 0.532571 0
M  V30 8602 C 865.914 -2.074 0.00147755 0
M  V30 8603 C 866.339 -1.38615 -1.27151 0
M  V30 8604 O 865.697 -0.452949 -1.75551 0
M  V30 8605 C 865.745 -3.60029 -0.202866 0
M  V30 8606 O 864.849 -3.92327 -1.27097 0
M  V30 8607 H 864.19 -0.662777 0.0402883 0
M  V30 8608 H 866.72 -1.90701 0.741224 0
M  V30 8609 H 866.73 -4.05783 -0.424722 0
M  V30 8610 H 865.405 -4.09496 0.727033 0
M  V30 8611 H 863.982 -3.58348 -1.03156 0
M  V30 8612 N 866.167 -0.267825 -1.55308 0
M  V30 8613 C 867.413 0.351556 -1.9973 0
M  V30 8614 C 867.746 1.56049 -1.15596 0
M  V30 8615 O 867.021 1.93203 -0.224274 0
M  V30 8616 C 867.304 0.74091 -3.52395 0
M  V30 8617 C 867.157 -0.474861 -4.47286 0
M  V30 8618 C 868.476 1.5801 -4.10756 0
M  V30 8619 H 865.595 0.126308 -0.726096 0
M  V30 8620 H 868.237 -0.373316 -1.86296 0
M  V30 8621 H 866.387 1.35851 -3.63973 0
M  V30 8622 H 868.059 -1.1134 -4.47662 0
M  V30 8623 H 866.302 -1.11425 -4.19246 0
M  V30 8624 H 866.973 -0.158782 -5.51772 0
M  V30 8625 H 869.449 1.05857 -4.0241 0
M  V30 8626 H 868.325 1.82135 -5.17801 0
M  V30 8627 H 868.586 2.55878 -3.60526 0
M  V30 8628 N 867.645 1.57599 0.00500368 0
M  V30 8629 C 868.87 1.95026 0.705663 0
M  V30 8630 C 869.295 0.869643 1.6679 0
M  V30 8631 O 868.653 -0.172659 1.80476 0
M  V30 8632 C 868.701 3.31545 1.4181 0
M  V30 8633 O 867.805 3.25495 2.53232 0
M  V30 8634 H 867.146 0.636808 0.188074 0
M  V30 8635 H 869.676 2.04547 -0.046696 0
M  V30 8636 H 869.686 3.66996 1.78265 0
M  V30 8637 H 868.361 4.09751 0.712543 0
M  V30 8638 H 866.938 3.01714 2.19142 0
M  V30 8639 N 869.123 -0.277682 1.55134 0
M  V30 8640 C 870.086 -1.32635 1.86924 0
M  V30 8641 C 871.086 -1.42578 0.743507 0
M  V30 8642 O 872.276 -1.4181 1.01171 0
M  V30 8643 C 869.408 -2.70832 2.07034 0
M  V30 8644 H 870.601 -1.0568 2.80663 0
M  V30 8645 H 868.154 -0.515517 1.47554 0
M  V30 8646 H 868.889 -3.02974 1.15661 0
M  V30 8647 H 868.674 -2.65001 2.88993 0
M  V30 8648 H 870.164 -3.46611 2.32918 0
M  V30 8649 N 870.601 -1.47988 -0.541979 0
M  V30 8650 C 871.551 -1.58019 -1.64359 0
M  V30 8651 C 872.535 -0.438056 -1.54822 0
M  V30 8652 O 873.727 -0.688837 -1.63046 0
M  V30 8653 C 870.856 -1.61182 -3.03109 0
M  V30 8654 C 869.942 -2.80834 -3.17794 0
M  V30 8655 N 870.333 -4.05379 -3.02492 0
M  V30 8656 C 868.631 -2.77914 -3.48826 0
M  V30 8657 C 869.332 -4.85592 -3.20274 0
M  V30 8658 N 868.308 -4.18188 -3.47304 0
M  V30 8659 H 872.11 -2.52071 -1.5112 0
M  V30 8660 H 869.624 -1.44193 -0.747137 0
M  V30 8661 H 871.621 -1.66461 -3.82226 0
M  V30 8662 H 870.281 -0.682375 -3.17449 0
M  V30 8663 H 871.292 -4.36003 -2.79503 0
M  V30 8664 H 867.969 -1.94174 -3.69598 0
M  V30 8665 H 869.359 -5.94394 -3.13282 0
M  V30 8666 N 872.079 0.78992 -1.36375 0
M  V30 8667 C 873.009 1.91683 -1.33341 0
M  V30 8668 C 873.99 1.68861 -0.204965 0
M  V30 8669 O 875.175 1.89982 -0.402531 0
M  V30 8670 C 872.305 3.28696 -1.12143 0
M  V30 8671 C 871.259 3.66041 -2.21806 0
M  V30 8672 C 870.585 5.01399 -1.85751 0
M  V30 8673 C 871.885 3.74677 -3.63888 0
M  V30 8674 H 873.579 1.94478 -2.27637 0
M  V30 8675 H 871.125 0.934271 -1.09578 0
M  V30 8676 H 873.078 4.07151 -1.08656 0
M  V30 8677 H 871.802 3.26287 -0.142974 0
M  V30 8678 H 870.461 2.89883 -2.24418 0
M  V30 8679 H 870.109 4.9551 -0.864817 0
M  V30 8680 H 869.809 5.27355 -2.59173 0
M  V30 8681 H 871.333 5.82274 -1.83819 0
M  V30 8682 H 872.747 4.43324 -3.63506 0
M  V30 8683 H 871.144 4.12118 -4.3621 0
M  V30 8684 H 872.214 2.75795 -3.9883 0
M  V30 8685 N 873.557 1.20646 1.01402 0
M  V30 8686 C 874.504 0.957618 2.09996 0
M  V30 8687 C 875.474 -0.113115 1.65714 0
M  V30 8688 O 876.659 0.032142 1.90773 0
M  V30 8689 C 873.799 0.5186 3.41181 0
M  V30 8690 C 872.912 1.65777 3.98926 0
M  V30 8691 C 872.047 1.16881 5.18182 0
M  V30 8692 C 871.086 2.2809 5.68015 0
M  V30 8693 N 870.223 1.80392 6.7853 0
M  V30 8694 H 875.063 1.88732 2.30617 0
M  V30 8695 H 872.6 0.940703 1.13089 0
M  V30 8696 H 874.558 0.245367 4.16478 0
M  V30 8697 H 873.188 -0.3741 3.20625 0
M  V30 8698 H 872.24 2.04586 3.207 0
M  V30 8699 H 873.552 2.49507 4.31912 0
M  V30 8700 H 872.706 0.851694 6.00692 0
M  V30 8701 H 871.445 0.301434 4.86768 0
M  V30 8702 H 870.45 2.60614 4.84108 0
M  V30 8703 H 871.675 3.15308 6.01463 0
M  V30 8704 H 869.621 0.959856 6.4894 0
M  V30 8705 H 869.538 2.57701 7.10722 0
M  V30 8706 H 870.806 1.51688 7.64598 0
M  V30 8707 N 875.035 -1.20752 1.01276 0
M  V30 8708 C 876.26 -1.94547 0.718769 0
M  V30 8709 C 876.685 -1.7404 -0.713563 0
M  V30 8710 O 876.043 -1.03221 -1.49047 0
M  V30 8711 C 876.091 -3.44823 1.05497 0
M  V30 8712 O 875.195 -4.12072 0.164516 0
M  V30 8713 H 874.536 -0.607931 0.267051 0
M  V30 8714 H 877.066 -1.53292 1.35509 0
M  V30 8715 H 877.076 -3.95427 1.00507 0
M  V30 8716 H 875.751 -3.59072 2.09858 0
M  V30 8717 H 874.328 -3.71909 0.271615 0
M  V30 8718 N 876.513 -0.788492 -1.36457 0
M  V30 8719 C 877.762 -0.357052 -1.98515 0
M  V30 8720 C 878.075 1.0769 -1.63285 0
M  V30 8721 O 879.281 1.61057 -2.1857 0
M  V30 8722 C 877.737 -0.587449 -3.55073 0
M  V30 8723 C 877.345 -2.03276 -3.99228 0
M  V30 8724 C 879.089 -0.220468 -4.23927 0
M  V30 8725 C 876.996 -2.20987 -5.48561 0
M  V30 8726 H 875.926 -0.129762 -0.74275 0
M  V30 8727 H 878.577 -0.969995 -1.55767 0
M  V30 8728 H 876.959 0.0951918 -3.95886 0
M  V30 8729 H 878.133 -2.75173 -3.69617 0
M  V30 8730 H 876.448 -2.3579 -3.43208 0
M  V30 8731 H 879.045 -0.331085 -5.33674 0
M  V30 8732 H 879.388 0.831306 -4.07915 0
M  V30 8733 H 879.921 -0.856309 -3.88474 0
M  V30 8734 H 876.66 -3.24543 -5.69519 0
M  V30 8735 H 876.18 -1.53594 -5.79801 0
M  V30 8736 H 877.859 -2.01656 -6.14771 0
M  V30 8737 N 877.991 1.48044 -0.54043 0
M  V30 8738 C 879.238 2.02497 -0.0101567 0
M  V30 8739 C 879.566 1.41651 1.33286 0
M  V30 8740 O 878.821 0.555504 1.8765 0
M  V30 8741 C 879.12 3.57085 0.150008 0
M  V30 8742 C 878.786 4.36769 -1.11998 0
M  V30 8743 C 877.448 4.58261 -1.46801 0
M  V30 8744 C 879.8 4.82848 -1.96232 0
M  V30 8745 C 877.128 5.23079 -2.65717 0
M  V30 8746 C 879.48 5.48977 -3.14335 0
M  V30 8747 C 878.144 5.68705 -3.49472 0
M  V30 8748 H 877.414 0.740991 -0.00371661 0
M  V30 8749 H 880.061 1.77909 -0.708562 0
M  V30 8750 H 878.366 3.80572 0.931259 0
M  V30 8751 H 880.063 3.96851 0.575384 0
M  V30 8752 H 876.653 4.20309 -0.838957 0
M  V30 8753 H 880.837 4.66038 -1.70654 0
M  V30 8754 H 876.093 5.36549 -2.93129 0
M  V30 8755 H 880.267 5.83649 -3.79904 0
M  V30 8756 H 877.894 6.18703 -4.41713 0
M  V30 8757 N 879.47 0.276058 1.55163 0
M  V30 8758 C 880.71 -0.341634 2.01525 0
M  V30 8759 C 881.074 -1.52979 1.16023 0
M  V30 8760 O 882.275 -2.21718 1.51968 0
M  V30 8761 C 880.546 -0.713294 3.5021 0
M  V30 8762 S 882.105 -1.31739 4.18558 0
M  V30 8763 H 878.923 -0.1062 0.703024 0
M  V30 8764 H 881.525 0.398112 1.91404 0
M  V30 8765 H 880.229 0.160311 4.10087 0
M  V30 8766 H 879.76 -1.48448 3.64317 0
M  V30 8767 H 881.775 -2.60595 4.22261 0
M  V30 8768 N 880.948 -1.576 0.00335426 0
M  V30 8769 C 881.858 -2.12067 -1.00322 0
M  V30 8770 C 882.874 -1.06672 -1.37467 0
M  V30 8771 O 884.05 -1.38592 -1.46131 0
M  V30 8772 C 881.115 -2.61593 -2.27531 0
M  V30 8773 C 880.176 -3.81602 -1.96668 0
M  V30 8774 C 879.409 -4.28756 -3.17811 0
M  V30 8775 O 879.632 -3.75222 -4.2961 0
M  V30 8776 O 878.566 -5.20877 -3.01613 0
M  V30 8777 H 882.392 -2.98299 -0.570199 0
M  V30 8778 H 879.977 -1.47835 -0.215682 0
M  V30 8779 H 881.859 -2.93631 -3.02256 0
M  V30 8780 H 880.534 -1.78457 -2.70065 0
M  V30 8781 H 879.441 -3.54531 -1.19408 0
M  V30 8782 H 880.774 -4.65822 -1.58968 0
M  V30 8783 N 882.426 0.269451 -1.5528 0
M  V30 8784 C 883.336 1.35511 -1.91505 0
M  V30 8785 C 884.352 1.53854 -0.812712 0
M  V30 8786 O 885.528 1.67912 -1.1121 0
M  V30 8787 C 882.593 2.6937 -2.18267 0
M  V30 8788 C 881.654 2.59743 -3.41807 0
M  V30 8789 C 880.887 3.87219 -3.67283 0
M  V30 8790 O 881.11 4.88066 -2.95208 0
M  V30 8791 O 880.044 3.87209 -4.60818 0
M  V30 8792 H 883.87 1.07785 -2.8393 0
M  V30 8793 H 881.455 0.468282 -1.41871 0
M  V30 8794 H 883.337 3.48513 -2.36889 0
M  V30 8795 H 882.012 2.96874 -1.29024 0
M  V30 8796 H 880.919 1.78964 -3.28516 0
M  V30 8797 H 882.252 2.37188 -4.3128 0
M  V30 8798 N 883.904 1.48273 0.534124 0
M  V30 8799 C 884.834 1.6538 1.64839 0
M  V30 8800 C 885.815 0.502741 1.62501 0
M  V30 8801 O 887 0.734799 1.79762 0
M  V30 8802 C 884.13 1.68949 3.03436 0
M  V30 8803 C 883.084 2.83513 3.20631 0
M  V30 8804 C 882.41 2.72169 4.60248 0
M  V30 8805 C 883.71 4.24858 3.03797 0
M  V30 8806 H 885.404 2.58663 1.50777 0
M  V30 8807 H 882.95 1.24479 0.723937 0
M  V30 8808 H 884.903 1.79505 3.81256 0
M  V30 8809 H 883.627 0.722415 3.1851 0
M  V30 8810 H 882.286 2.72505 2.45227 0
M  V30 8811 H 881.934 1.7344 4.72152 0
M  V30 8812 H 881.634 3.49042 4.72698 0
M  V30 8813 H 883.158 2.84687 5.40172 0
M  V30 8814 H 884.572 4.36721 3.71413 0
M  V30 8815 H 882.969 5.02697 3.27743 0
M  V30 8816 H 884.039 4.41611 2.0027 0
M  V30 8817 N 885.382 -0.782676 1.36792 0
M  V30 8818 C 886.312 -1.90973 1.34356 0
M  V30 8819 C 887.293 -1.6875 0.213917 0
M  V30 8820 O 888.478 -1.89766 0.412601 0
M  V30 8821 C 885.608 -3.28097 1.13884 0
M  V30 8822 C 884.562 -3.6486 2.23744 0
M  V30 8823 C 883.888 -5.00406 1.88408 0
M  V30 8824 C 885.188 -3.72742 3.6587 0
M  V30 8825 H 886.882 -1.93268 2.28665 0
M  V30 8826 H 884.428 -0.928447 1.10072 0
M  V30 8827 H 886.381 -4.06569 1.10813 0
M  V30 8828 H 885.105 -3.26206 0.160275 0
M  V30 8829 H 883.764 -2.88689 2.25952 0
M  V30 8830 H 883.412 -4.95044 0.891083 0
M  V30 8831 H 883.112 -5.25973 2.61966 0
M  V30 8832 H 884.636 -5.81291 1.86905 0
M  V30 8833 H 886.05 -4.4139 3.65852 0
M  V30 8834 H 884.447 -4.09798 4.38389 0
M  V30 8835 H 885.517 -2.73676 4.00287 0
M  V30 8836 N 886.86 -1.21182 -1.00761 0
M  V30 8837 C 887.808 -0.965728 -2.11604 0
M  V30 8838 C 888.802 0.0861028 -1.69181 0
M  V30 8839 O 890.008 -0.0650558 -1.79882 0
M  V30 8840 H 886.383 -0.295023 -0.691712 0
M  V30 8841 H 888.354 -1.90667 -2.2954 0
M  V30 8842 C 887.103 -0.544164 -3.43415 0
M  V30 8843 H 886.426 -1.34515 -3.76491 0
M  V30 8844 H 887.866 -0.411268 -4.22001 0
M  V30 8845 C 886.325 0.744583 -3.28569 0
M  V30 8846 O 886.855 1.80078 -3.59075 0
M  V30 8847 N 885.061 0.710083 -2.81791 0
M  V30 8848 H 884.608 -0.14971 -2.57165 0
M  V30 8849 H 884.566 1.57268 -2.72239 0
M  V30 8850 N 888.338 1.20213 -1.01915 0
M  V30 8851 C 889.285 2.2309 -0.591571 0
M  V30 8852 C 890.255 1.61465 0.389649 0
M  V30 8853 O 891.44 1.88606 0.288511 0
M  V30 8854 C 888.58 3.45045 0.0614028 0
M  V30 8855 C 887.693 4.21091 -0.964688 0
M  V30 8856 C 886.828 5.30448 -0.282499 0
M  V30 8857 C 885.867 5.98241 -1.29517 0
M  V30 8858 N 885.004 6.99182 -0.639472 0
M  V30 8859 H 889.844 2.59023 -1.47347 0
M  V30 8860 H 887.381 1.27274 -0.737547 0
M  V30 8861 H 889.339 4.14688 0.45714 0
M  V30 8862 H 887.969 3.09797 0.906937 0
M  V30 8863 H 887.021 3.50489 -1.47857 0
M  V30 8864 H 888.333 4.67662 -1.73475 0
M  V30 8865 H 887.487 6.06466 0.168603 0
M  V30 8866 H 886.226 4.84922 0.519843 0
M  V30 8867 H 885.231 5.20982 -1.75663 0
M  V30 8868 H 886.456 6.45853 -2.09884 0
M  V30 8869 H 884.402 6.55844 0.142955 0
M  V30 8870 H 884.319 7.43893 -1.34756 0
M  V30 8871 H 885.587 7.79212 -0.212047 0
M  V30 8872 N 889.816 0.795718 1.36037 0
M  V30 8873 C 891.232 0.478145 1.52269 0
M  V30 8874 C 891.432 -1.0025 1.74792 0
M  V30 8875 O 890.488 -1.78783 1.78305 0
M  V30 8876 C 891.801 1.31406 2.70468 0
M  V30 8877 C 893.349 1.3084 2.84341 0
M  V30 8878 C 893.824 2.12819 4.05551 0
M  V30 8879 N 895.315 2.10298 4.12709 0
M  V30 8880 C 896.05 2.70495 5.05589 0
M  V30 8881 N 895.546 3.39576 6.03871 0
M  V30 8882 N 897.339 2.60195 4.98252 0
M  V30 8883 H 889.49 1.75477 1.19673 0
M  V30 8884 H 891.753 0.74627 0.584624 0
M  V30 8885 H 891.459 2.36435 2.60368 0
M  V30 8886 H 891.333 0.959726 3.64786 0
M  V30 8887 H 893.72 0.266003 2.93899 0
M  V30 8888 H 893.801 1.70254 1.90912 0
M  V30 8889 H 893.445 3.17093 3.96755 0
M  V30 8890 H 893.375 1.70772 4.98141 0
M  V30 8891 H 895.866 1.60026 3.42345 0
M  V30 8892 H 896.179 3.82823 6.71317 0
M  V30 8893 H 894.524 3.43679 6.04077 0
M  V30 8894 H 897.715 2.05823 4.20422 0
M  V30 8895 H 897.888 3.074 5.70447 0
M  V30 8896 N 891.294 -1.47756 0.548274 0
M  V30 8897 C 892.54 -2.02789 0.0209265 0
M  V30 8898 C 892.873 -1.42268 -1.32187 0
M  V30 8899 O 892.148 -0.575001 -1.85806 0
M  V30 8900 C 892.431 -3.60007 -0.0816674 0
M  V30 8901 C 892.284 -4.30977 1.28759 0
M  V30 8902 C 893.603 -4.32777 -0.799515 0
M  V30 8903 H 890.722 -0.736944 0.00907884 0
M  V30 8904 H 893.364 -1.76282 0.708839 0
M  V30 8905 H 891.514 -3.82722 -0.667537 0
M  V30 8906 H 893.186 -4.19629 1.91597 0
M  V30 8907 H 891.429 -3.9168 1.86466 0
M  V30 8908 H 892.1 -5.39488 1.16861 0
M  V30 8909 H 894.576 -4.15001 -0.30216 0
M  V30 8910 H 893.452 -5.42431 -0.840239 0
M  V30 8911 H 893.713 -4.01358 -1.85375 0
M  V30 8912 N 892.772 -0.284283 -1.55015 0
M  V30 8913 C 893.735 0.586182 -2.21577 0
M  V30 8914 C 894.735 1.07427 -1.1965 0
M  V30 8915 O 895.925 0.972977 -1.44495 0
M  V30 8916 C 893.057 1.80973 -2.88897 0
M  V30 8917 H 894.25 0.00487253 -2.999 0
M  V30 8918 H 891.803 -0.0349696 -1.56261 0
M  V30 8919 H 892.538 2.43131 -2.14611 0
M  V30 8920 H 892.323 1.46757 -3.636 0
M  V30 8921 H 893.813 2.42853 -3.39724 0
M  V30 8922 O 894.289 1.608 -0.150255 0
M  V30 8923 H 894.98 1.88563 0.443155 0
M  V30 END ATOM
M  V30 BEGIN BOND
M  V30 END BOND
M  V30 END CTAB
M  END
$$$$
