drugbank_target|Q99714 3-hydroxyacyl-CoA dehydrogenase type-2 (DB00157; DB02820; DB09568)
 OpenBabel12092119293D

  0  0  0     0  0            999 V3000
M  V30 BEGIN CTAB
M  V30 COUNTS 3829 3855 0 0 0
M  V30 BEGIN ATOM
M  V30 1 H -0.908 1.98254 -0.117106 0
M  V30 2 N 0 1.576 0 0
M  V30 3 C 0.933 2.03868 1.02534 0
M  V30 4 C 1.911 0.928543 1.3348 0
M  V30 5 O 3.095 1.19667 1.45644 0
M  V30 6 C 0.222 2.43627 2.35294 0
M  V30 7 C -0.732 3.65373 2.2001 0
M  V30 8 S 0.101 5.13292 1.52614 0
M  V30 9 C 1.257 5.56322 2.86805 0
M  V30 10 H 1.49 2.90518 0.631377 0
M  V30 11 H -0.977 1.52953 0.210867 0
M  V30 12 H 0.981 2.67203 3.11629 0
M  V30 13 H -0.358 1.57376 2.7183 0
M  V30 14 H -1.165 3.90944 3.18086 0
M  V30 15 H -1.563 3.418 1.51819 0
M  V30 16 H 0.729 5.58782 3.83104 0
M  V30 17 H 1.672 6.56266 2.65933 0
M  V30 18 H 2.08 4.83886 2.90714 0
M  V30 19 N 1.4781 -0.272755 1.55222 0
M  V30 20 C 2.4411 -1.32041 1.87344 0
M  V30 21 C 3.4411 -1.42342 0.74803 0
M  V30 22 O 4.6311 -1.41488 1.0162 0
M  V30 23 C 1.7631 -2.70173 2.07893 0
M  V30 24 H 2.9561 -1.04789 2.80997 0
M  V30 25 H 0.5091 -0.51083 1.47717 0
M  V30 26 H 1.2441 -3.02605 1.16622 0
M  V30 27 H 1.0291 -2.64082 2.89833 0
M  V30 28 H 2.5191 -3.45869 2.34017 0
M  V30 29 N 2.9562 -1.48159 -0.537278 0
M  V30 30 C 3.9192 -1.61665 -1.62472 0
M  V30 31 C 4.9192 -0.490395 -1.5314 0
M  V30 32 O 6.1092 -0.755998 -1.5694 0
M  V30 33 C 3.2412 -1.57997 -3.02076 0
M  V30 34 H 4.4342 -2.58621 -1.51839 0
M  V30 35 H 1.9872 -1.36647 -0.758771 0
M  V30 36 H 2.7222 -0.624913 -3.18222 0
M  V30 37 H 2.5072 -2.39755 -3.10258 0
M  V30 38 H 3.9972 -1.70627 -3.81151 0
M  V30 39 N 4.4343 0.785586 -1.36625 0
M  V30 40 C 5.3973 1.87999 -1.31107 0
M  V30 41 C 6.3973 1.59316 -0.217959 0
M  V30 42 O 7.5873 1.67656 -0.472977 0
M  V30 43 C 4.7193 3.24861 -1.03334 0
M  V30 44 H 5.9123 1.94307 -2.2844 0
M  V30 45 H 3.4653 0.983813 -1.21453 0
M  V30 46 H 4.2003 3.24235 -0.0647432 0
M  V30 47 H 3.9853 3.4707 -1.82441 0
M  V30 48 H 5.4753 4.04929 -1.02088 0
M  V30 49 N 5.9124 1.20967 1.01018 0
M  V30 50 C 7.1524 1.03511 1.76252 0
M  V30 51 C 7.5164 -0.42458 1.87247 0
M  V30 52 O 8.7174 -0.719508 2.58991 0
M  V30 53 C 6.9884 1.70726 3.13986 0
M  V30 54 S 8.5474 1.68458 4.05176 0
M  V30 55 H 5.3654 0.371037 0.606508 0
M  V30 56 H 7.9674 1.53628 1.20908 0
M  V30 57 H 6.6714 2.76128 3.03614 0
M  V30 58 H 6.2024 1.20767 3.74405 0
M  V30 59 H 8.2174 0.721987 4.90919 0
M  V30 60 N 7.3905 -1.2043 1.01659 0
M  V30 61 C 8.8065 -1.41852 0.731442 0
M  V30 62 C 9.0065 -1.89358 -0.688898 0
M  V30 63 O 8.0625 -2.06247 -1.45666 0
M  V30 64 C 9.3755 -2.44019 1.75714 0
M  V30 65 C 10.9235 -2.57785 1.77527 0
M  V30 66 C 11.3985 -3.63194 2.79023 0
M  V30 67 N 12.8895 -3.70678 2.77763 0
M  V30 68 C 13.6245 -4.51897 3.52954 0
M  V30 69 N 13.1205 -5.36921 4.37821 0
M  V30 70 N 14.9135 -4.4643 3.41551 0
M  V30 71 H 7.0645 -0.879093 1.93354 0
M  V30 72 H 9.3275 -0.448425 0.835236 0
M  V30 73 H 9.0335 -2.1611 2.77469 0
M  V30 74 H 8.9075 -3.43007 1.56927 0
M  V30 75 H 11.2945 -2.85023 0.764569 0
M  V30 76 H 11.3755 -1.58992 2.00387 0
M  V30 77 H 11.0195 -3.36699 3.80258 0
M  V30 78 H 10.9495 -4.61609 2.53425 0
M  V30 79 H 13.4405 -3.09944 2.16201 0
M  V30 80 H 13.7535 -5.95981 4.91962 0
M  V30 81 H 12.0985 -5.36424 4.41899 0
M  V30 82 H 15.2895 -3.79042 2.74672 0
M  V30 83 H 15.4625 -5.09491 4.00404 0
M  V30 84 N 8.8686 -0.792821 -1.36206 0
M  V30 85 C 10.0936 -0.377701 -2.03932 0
M  V30 86 C 10.5186 0.998947 -1.59382 0
M  V30 87 O 9.8766 1.64421 -0.763903 0
M  V30 88 C 9.9246 -0.453635 -3.57735 0
M  V30 89 O 9.0286 0.538151 -4.08874 0
M  V30 90 H 8.3696 -0.159855 -0.644471 0
M  V30 91 H 10.8996 -1.07488 -1.7409 0
M  V30 92 H 10.9096 -0.318464 -4.06755 0
M  V30 93 H 9.5846 -1.45784 -3.89512 0
M  V30 94 H 8.1616 0.364359 -3.71116 0
M  V30 95 N 10.3467 1.47872 -0.545128 0
M  V30 96 C 11.5927 2.02793 -0.0166104 0
M  V30 97 C 11.9257 1.41987 1.32489 0
M  V30 98 O 11.2007 0.571045 1.85928 0
M  V30 99 C 11.4837 3.59989 0.0893294 0
M  V30 100 C 11.3367 4.3125 -1.27841 0
M  V30 101 C 12.6557 4.32606 0.808724 0
M  V30 102 H 9.7747 0.736962 -0.00751035 0
M  V30 103 H 12.4167 1.76433 -0.705085 0
M  V30 104 H 10.5667 3.82579 0.675681 0
M  V30 105 H 12.2387 4.20035 -1.90704 0
M  V30 106 H 10.4817 3.92076 -1.85632 0
M  V30 107 H 11.1527 5.39736 -1.15713 0
M  V30 108 H 13.6287 4.14936 0.310992 0
M  V30 109 H 12.5047 5.42251 0.851782 0
M  V30 110 H 12.7657 4.00963 1.86229 0
M  V30 111 N 11.8248 0.280983 1.55075 0
M  V30 112 C 12.7718 -0.603937 2.22758 0
M  V30 113 C 13.7418 -1.1452 1.20309 0
M  V30 114 O 14.9268 -1.19343 1.48869 0
M  V30 115 C 12.0668 -1.77947 2.95684 0
M  V30 116 C 11.1798 -1.2715 4.12864 0
M  V30 117 C 10.3148 -2.4093 4.7342 0
M  V30 118 C 9.3538 -1.87165 5.82783 0
M  V30 119 N 8.4908 -2.94441 6.37377 0
M  V30 120 H 13.3308 -0.020124 2.97993 0
M  V30 121 H 10.8678 0.00183425 1.471 0
M  V30 122 H 12.8258 -2.47055 3.36184 0
M  V30 123 H 11.4558 -2.33522 2.22861 0
M  V30 124 H 10.5078 -0.473331 3.77444 0
M  V30 125 H 11.8198 -0.837751 4.91715 0
M  V30 126 H 10.9738 -3.18021 5.1667 0
M  V30 127 H 9.7128 -2.87623 3.93859 0
M  V30 128 H 8.7178 -1.08556 5.38976 0
M  V30 129 H 9.9428 -1.41401 6.64216 0
M  V30 130 H 7.8888 -3.40505 5.60707 0
M  V30 131 H 7.8058 -2.55501 7.11516 0
M  V30 132 H 9.0738 -3.71489 6.85285 0
M  V30 133 N 13.3029 -1.57598 0.00835791 0
M  V30 134 C 14.5509 -1.90551 -0.6734 0
M  V30 135 C 14.8719 -0.883301 -1.73847 0
M  V30 136 O 14.1419 0.0781442 -1.95744 0
M  V30 137 H 12.7219 -0.703312 -0.251717 0
M  V30 138 H 15.3839 -1.94833 0.0512592 0
M  V30 139 H 14.4799 -2.9056 -1.13935 0
M  V30 140 N 14.781 0.264519 -1.55364 0
M  V30 141 C 15.711 1.33121 -1.91836 0
M  V30 142 C 16.692 1.51101 -0.781192 0
M  V30 143 O 17.877 1.64003 -1.04003 0
M  V30 144 C 15.007 2.68921 -2.19769 0
M  V30 145 C 13.961 2.65661 -3.35571 0
M  V30 146 C 13.287 4.05093 -3.49004 0
M  V30 147 C 14.587 2.24187 -4.71739 0
M  V30 148 H 16.281 1.02844 -2.81182 0
M  V30 149 H 13.827 0.493286 -1.35287 0
M  V30 150 H 15.78 3.43663 -2.43872 0
M  V30 151 H 14.504 3.00799 -1.27231 0
M  V30 152 H 13.163 1.93377 -3.1145 0
M  V30 153 H 12.811 4.34206 -2.53917 0
M  V30 154 H 12.511 4.03804 -4.26868 0
M  V30 155 H 14.035 4.81561 -3.75408 0
M  V30 156 H 15.449 2.88654 -4.9533 0
M  V30 157 H 13.846 2.34044 -5.52579 0
M  V30 158 H 14.916 1.19327 -4.69988 0
M  V30 159 N 16.2591 1.48442 0.529413 0
M  V30 160 C 17.5051 1.5672 1.28711 0
M  V30 161 C 17.8381 0.2406 1.92704 0
M  V30 162 O 17.1131 -0.753454 1.79313 0
M  V30 163 C 17.3961 2.70587 2.37603 0
M  V30 164 C 17.2491 4.12953 1.78297 0
M  V30 165 C 18.5681 2.80212 3.39366 0
M  V30 166 H 15.6871 0.570474 0.466613 0
M  V30 167 H 18.3291 1.80617 0.589706 0
M  V30 168 H 16.4791 2.50342 2.97088 0
M  V30 169 H 18.1511 4.44639 1.22858 0
M  V30 170 H 16.3941 4.19927 1.0883 0
M  V30 171 H 17.0651 4.88448 2.57144 0
M  V30 172 H 19.5411 2.98553 2.89836 0
M  V30 173 H 18.4171 3.61611 4.12951 0
M  V30 174 H 18.6781 1.88393 3.99951 0
M  V30 175 N 17.7372 -0.778329 1.37039 0
M  V30 176 C 18.7002 -1.87301 1.32102 0
M  V30 177 C 19.7002 -1.59198 0.226405 0
M  V30 178 O 20.8902 -1.67403 0.481861 0
M  V30 179 C 18.0222 -3.24309 1.05055 0
M  V30 180 H 19.2152 -1.93093 2.29467 0
M  V30 181 H 16.7682 -0.977358 1.21973 0
M  V30 182 H 17.5032 -3.24196 0.0819373 0
M  V30 183 H 17.2882 -3.46098 1.84279 0
M  V30 184 H 18.7782 -4.04382 1.04234 0
M  V30 185 N 19.2153 -1.21501 -1.00376 0
M  V30 186 C 20.4613 -1.03452 -1.74429 0
M  V30 187 C 20.7943 0.430764 -1.89362 0
M  V30 188 O 20.0693 1.31962 -1.42886 0
M  V30 189 C 20.3523 -1.73375 -3.15615 0
M  V30 190 C 20.2053 -3.27431 -3.08397 0
M  V30 191 C 21.5243 -1.47732 -4.14564 0
M  V30 192 H 18.6433 -0.377226 -0.633143 0
M  V30 193 H 21.2853 -1.49693 -1.17013 0
M  V30 194 H 19.4353 -1.34064 -3.64636 0
M  V30 195 H 21.1073 -3.76119 -2.67081 0
M  V30 196 H 19.3503 -3.5767 -2.45468 0
M  V30 197 H 20.0213 -3.71524 -4.08258 0
M  V30 198 H 22.4973 -1.8186 -3.74254 0
M  V30 199 H 21.3733 -1.99169 -5.11491 0
M  V30 200 H 21.6343 -0.407589 -4.40217 0
M  V30 201 N 20.6934 1.19889 -1.02296 0
M  V30 202 C 21.9424 1.88743 -0.711257 0
M  V30 203 C 22.2554 1.80112 0.762817 0
M  V30 204 O 23.4614 2.44161 1.18733 0
M  V30 205 C 21.9174 3.38525 -1.22185 0
M  V30 206 C 21.5254 3.55727 -2.72328 0
M  V30 207 C 23.2694 4.12893 -0.985864 0
M  V30 208 C 21.1764 4.99369 -3.16835 0
M  V30 209 H 20.1064 0.706885 -0.262353 0
M  V30 210 H 22.7574 1.35586 -1.23648 0
M  V30 211 H 21.1394 3.91044 -0.624571 0
M  V30 212 H 22.3134 3.13564 -3.3766 0
M  V30 213 H 20.6284 2.94739 -2.9414 0
M  V30 214 H 23.2254 5.18813 -1.29374 0
M  V30 215 H 23.5684 4.16228 0.0775055 0
M  V30 216 H 24.1014 3.66494 -1.54684 0
M  V30 217 H 20.8404 5.01193 -4.22476 0
M  V30 218 H 20.3604 5.42317 -2.56228 0
M  V30 219 H 22.0394 5.67988 -3.09837 0
M  V30 220 N 22.1715 0.800033 1.35784 0
M  V30 221 C 23.3995 0.389606 2.03199 0
M  V30 222 C 23.8145 -0.997375 1.60306 0
M  V30 223 O 23.1715 -1.64154 0.797481 0
M  V30 224 C 23.2225 0.455855 3.58614 0
M  V30 225 O 22.9435 1.78815 3.99946 0
M  V30 226 C 24.4445 0.0374032 4.43284 0
M  V30 227 H 21.6645 0.159132 0.651857 0
M  V30 228 H 24.2085 1.08183 1.73541 0
M  V30 229 H 22.3635 -0.188057 3.86943 0
M  V30 230 H 22.7775 1.74636 4.94573 0
M  V30 231 H 24.2515 0.134882 5.51835 0
M  V30 232 H 24.7285 -1.01651 4.27275 0
M  V30 233 H 25.3345 0.654215 4.20238 0
M  V30 234 N 23.6496 -1.47581 0.552962 0
M  V30 235 C 24.8976 -2.02082 0.0272703 0
M  V30 236 C 25.2186 -1.4301 -1.32563 0
M  V30 237 O 24.4886 -0.603745 -1.86365 0
M  V30 238 H 23.0686 -0.746966 0.00709182 0
M  V30 239 H 25.7306 -1.81033 0.722008 0
M  V30 240 H 24.8266 -3.12034 -0.0639951 0
M  V30 241 N 25.1277 -0.289203 -1.54924 0
M  V30 242 C 26.3757 0.322879 -1.99504 0
M  V30 243 C 26.6967 1.55313 -1.1791 0
M  V30 244 O 25.9667 1.94001 -0.272097 0
M  V30 245 H 24.5467 0.122291 -0.736922 0
M  V30 246 H 27.2087 -0.397802 -1.90797 0
M  V30 247 H 26.3047 0.603061 -3.06218 0
M  V30 248 N 26.6058 1.57591 -0.0167156 0
M  V30 249 C 27.5688 2.08393 0.954204 0
M  V30 250 C 28.5688 0.996531 1.26198 0
M  V30 251 O 29.7588 1.25858 1.20438 0
M  V30 252 C 26.8908 2.5394 2.27436 0
M  V30 253 H 28.0838 2.95455 0.514451 0
M  V30 254 H 25.6368 1.54582 0.231089 0
M  V30 255 H 26.3718 1.70171 2.76066 0
M  V30 256 H 26.1568 3.33371 2.06412 0
M  V30 257 H 27.6468 2.93512 2.97053 0
M  V30 258 N 28.0839 -0.256276 1.55502 0
M  V30 259 C 29.3089 -1.00766 1.81276 0
M  V30 260 C 29.7339 -1.78524 0.59252 0
M  V30 261 O 29.0919 -1.75413 -0.45827 0
M  V30 262 C 29.1399 -1.92869 3.04687 0
M  V30 263 O 28.2439 -3.019 2.80945 0
M  V30 264 H 27.5849 -0.287224 0.598664 0
M  V30 265 H 30.1149 -0.280109 2.02674 0
M  V30 266 H 30.1249 -2.34511 3.33869 0
M  V30 267 H 28.7999 -1.35689 3.93143 0
M  V30 268 H 27.3769 -2.64454 2.62904 0
M  V30 269 N 29.562 -1.4872 -0.521534 0
M  V30 270 C 30.81 -1.56857 -1.27437 0
M  V30 271 C 31.131 -0.247982 -1.93417 0
M  V30 272 O 30.401 0.731151 -1.81744 0
M  V30 273 H 28.981 -0.577885 -0.473347 0
M  V30 274 H 31.643 -1.85233 -0.606205 0
M  V30 275 H 30.739 -2.35402 -2.0492 0
M  V30 276 N 31.0401 0.771051 -1.3745 0
M  V30 277 C 31.9701 1.89827 -1.3597 0
M  V30 278 C 32.9511 1.68562 -0.228216 0
M  V30 279 O 34.1361 1.8941 -0.428675 0
M  V30 280 C 31.2661 3.2712 -1.16662 0
M  V30 281 C 30.2201 3.6295 -2.2683 0
M  V30 282 C 29.5461 4.98791 -1.92644 0
M  V30 283 C 30.8461 3.69627 -3.69017 0
M  V30 284 H 32.5401 1.91323 -2.30295 0
M  V30 285 H 30.0861 0.919082 -1.10855 0
M  V30 286 H 32.0391 4.05615 -1.14256 0
M  V30 287 H 30.7631 3.26059 -0.187926 0
M  V30 288 H 29.4221 2.86763 -2.28392 0
M  V30 289 H 29.0701 4.94271 -0.933021 0
M  V30 290 H 28.7701 5.23733 -2.66416 0
M  V30 291 H 30.2941 5.79685 -1.91826 0
M  V30 292 H 31.7081 4.38273 -3.69581 0
M  V30 293 H 30.1051 4.06067 -4.41848 0
M  V30 294 H 31.1751 2.70273 -4.02592 0
M  V30 295 N 32.5182 1.22032 0.997298 0
M  V30 296 C 33.7662 1.04016 1.73278 0
M  V30 297 C 34.0872 -0.426255 1.90284 0
M  V30 298 O 33.3572 -1.30694 1.45931 0
M  V30 299 H 31.9372 0.381897 0.642 0
M  V30 300 H 34.5992 1.5347 1.20137 0
M  V30 301 H 33.6952 1.51441 2.72896 0
M  V30 302 N 33.9963 -1.19345 1.0293 0
M  V30 303 C 34.9263 -2.2481 0.631105 0
M  V30 304 C 35.9073 -1.66245 -0.360104 0
M  V30 305 O 37.0923 -1.92677 -0.242726 0
M  V30 306 C 34.2223 -3.47295 -0.0184607 0
M  V30 307 C 33.1763 -4.18536 0.895073 0
M  V30 308 C 32.5023 -5.34586 0.110592 0
M  V30 309 C 33.8023 -4.73287 2.209 0
M  V30 310 H 35.4963 -2.58372 1.51275 0
M  V30 311 H 33.0423 -1.24194 0.728818 0
M  V30 312 H 34.9953 -4.20268 -0.308675 0
M  V30 313 H 33.7193 -3.12933 -0.934907 0
M  V30 314 H 32.3783 -3.47446 1.16949 0
M  V30 315 H 32.0263 -4.96469 -0.807902 0
M  V30 316 H 31.7263 -5.83183 0.719087 0
M  V30 317 H 33.2503 -6.10355 -0.172871 0
M  V30 318 H 34.6643 -5.38013 1.98028 0
M  V30 319 H 33.0613 -5.32373 2.76946 0
M  V30 320 H 34.1313 -3.91331 2.86336 0
M  V30 321 N 35.4744 -0.807222 -1.35358 0
M  V30 322 C 36.4374 -0.223665 -2.28106 0
M  V30 323 C 37.4374 0.589354 -1.4961 0
M  V30 324 O 38.6274 0.407745 -1.69361 0
M  V30 325 C 35.7594 0.688149 -3.33882 0
M  V30 326 H 36.9524 -1.04169 -2.81227 0
M  V30 327 H 34.5054 -0.577921 -1.45223 0
M  V30 328 H 35.2404 1.52984 -2.85948 0
M  V30 329 H 35.0254 0.10687 -3.91954 0
M  V30 330 H 36.5154 1.09075 -4.03104 0
M  V30 331 N 36.9525 1.47285 -0.560781 0
M  V30 332 C 38.1805 2.06855 -0.0430262 0
M  V30 333 C 38.5955 1.41291 1.25229 0
M  V30 334 O 37.9525 0.510648 1.7521 0
M  V30 335 C 38.0035 3.61178 0.152518 0
M  V30 336 O 37.7245 4.24285 -1.0915 0
M  V30 337 C 39.2255 4.37624 0.707145 0
M  V30 338 H 36.4455 0.669319 -0.0474652 0
M  V30 339 H 38.9895 1.89237 -0.77521 0
M  V30 340 H 37.1445 3.78298 0.834843 0
M  V30 341 H 37.5585 5.16868 -0.891482 0
M  V30 342 H 39.0325 5.46271 0.793244 0
M  V30 343 H 39.5095 4.04152 1.71923 0
M  V30 344 H 40.1155 4.25257 0.0604027 0
M  V30 345 N 38.4306 0.297415 1.54768 0
M  V30 346 C 39.3936 -0.567375 2.22066 0
M  V30 347 C 40.3936 -1.06409 1.20556 0
M  V30 348 O 41.5836 -0.960691 1.45315 0
M  V30 349 C 38.7156 -1.78517 2.90421 0
M  V30 350 H 39.9086 0.0205534 2.99893 0
M  V30 351 H 37.4616 0.0482163 1.56226 0
M  V30 352 H 38.1966 -2.41303 2.16664 0
M  V30 353 H 37.9816 -1.43669 3.64831 0
M  V30 354 H 39.4716 -2.39964 3.41771 0
M  V30 355 N 39.9087 -1.5758 0.0250728 0
M  V30 356 C 40.8187 -2.1343 -0.973905 0
M  V30 357 C 41.8347 -1.08556 -1.35984 0
M  V30 358 O 43.0107 -1.40592 -1.44207 0
M  V30 359 C 40.0757 -2.64703 -2.23904 0
M  V30 360 C 39.1367 -3.84276 -1.91391 0
M  V30 361 C 38.3697 -4.33095 -3.11873 0
M  V30 362 O 38.5927 -3.81107 -4.24398 0
M  V30 363 O 37.5267 -5.24984 -2.94406 0
M  V30 364 H 41.3527 -2.99057 -0.529036 0
M  V30 365 H 38.9377 -1.48118 -0.195288 0
M  V30 366 H 40.8197 -2.97769 -2.98181 0
M  V30 367 H 39.4947 -1.82161 -2.6758 0
M  V30 368 H 38.4017 -3.56143 -1.14511 0
M  V30 369 H 39.7347 -4.67968 -1.52534 0
M  V30 370 N 41.3868 0.248026 -1.55636 0
M  V30 371 C 42.8028 0.596483 -1.48035 0
M  V30 372 C 43.0028 1.88386 -0.715039 0
M  V30 373 O 42.0588 2.51319 -0.243944 0
M  V30 374 C 43.3718 0.700258 -2.92433 0
M  V30 375 C 44.9198 0.792659 -3.02797 0
M  V30 376 C 45.3948 0.928005 -4.485 0
M  V30 377 N 46.8858 0.992903 -4.52433 0
M  V30 378 C 47.6208 1.11687 -5.62418 0
M  V30 379 N 47.1168 1.20645 -6.82214 0
M  V30 380 N 48.9098 1.14994 -5.50212 0
M  V30 381 H 41.0608 -0.597109 -2.03834 0
M  V30 382 H 43.3238 -0.205925 -0.925364 0
M  V30 383 H 43.0298 -0.175658 -3.51261 0
M  V30 384 H 42.9038 1.57255 -3.42857 0
M  V30 385 H 45.2908 1.65903 -2.4405 0
M  V30 386 H 45.3718 -0.104762 -2.55585 0
M  V30 387 H 45.0158 0.0661971 -5.07857 0
M  V30 388 H 44.9458 1.84045 -4.93391 0
M  V30 389 H 47.4368 0.935064 -3.66149 0
M  V30 390 H 47.7498 1.30008 -7.61786 0
M  V30 391 H 46.0948 1.17605 -6.84977 0
M  V30 392 H 49.2858 1.07643 -4.55555 0
M  V30 393 H 49.4588 1.24311 -6.35965 0
M  V30 394 N 42.8649 1.48995 0.513639 0
M  V30 395 C 43.7949 1.67636 1.62544 0
M  V30 396 C 44.7759 0.525087 1.61793 0
M  V30 397 O 45.9609 0.759502 1.78732 0
M  V30 398 C 43.0909 1.73114 3.01079 0
M  V30 399 C 42.0449 2.87905 3.16693 0
M  V30 400 C 41.3709 2.78486 4.56453 0
M  V30 401 C 42.6709 4.29005 2.97913 0
M  V30 402 H 44.3649 2.60716 1.47198 0
M  V30 403 H 41.9109 1.25465 0.706714 0
M  V30 404 H 43.8639 1.84742 3.78746 0
M  V30 405 H 42.5879 0.766241 3.17484 0
M  V30 406 H 41.2469 2.75859 2.41448 0
M  V30 407 H 40.8949 1.7993 4.69717 0
M  V30 408 H 40.5949 3.55523 4.67843 0
M  V30 409 H 42.1189 2.92104 5.36197 0
M  V30 410 H 43.5329 4.41798 3.65359 0
M  V30 411 H 41.9299 5.07166 3.20785 0
M  V30 412 H 42.9999 4.44329 1.94165 0
M  V30 413 N 44.343 -0.763751 1.37857 0
M  V30 414 C 45.589 -1.52483 1.33704 0
M  V30 415 C 45.922 -1.94051 -0.0759612 0
M  V30 416 O 45.197 -1.64675 -1.03501 0
M  V30 417 C 45.48 -2.78441 2.28348 0
M  V30 418 C 45.333 -2.43075 3.78463 0
M  V30 419 C 46.652 -3.80415 2.21298 0
M  V30 420 H 43.771 -0.553169 0.487005 0
M  V30 421 H 46.413 -0.875562 1.68624 0
M  V30 422 H 44.563 -3.33842 1.987 0
M  V30 423 H 46.235 -1.93527 4.18742 0
M  V30 424 H 44.478 -1.75666 3.96641 0
M  V30 425 H 45.149 -3.33149 4.40132 0
M  V30 426 H 47.625 -3.34527 2.47449 0
M  V30 427 H 46.501 -4.66257 2.89647 0
M  V30 428 H 46.762 -4.25262 1.20849 0
M  V30 429 N 45.8211 -1.22559 -0.990812 0
M  V30 430 C 47.0691 -1.04933 -1.72724 0
M  V30 431 C 47.3901 0.416158 -1.90508 0
M  V30 432 O 46.6601 1.29918 -1.46622 0
M  V30 433 H 45.2401 -0.385296 -0.639965 0
M  V30 434 H 47.9021 -1.54105 -1.19322 0
M  V30 435 H 46.9981 -1.52886 -2.72089 0
M  V30 436 N 47.2992 1.18797 -1.03562 0
M  V30 437 C 48.2312 2.21731 -0.580337 0
M  V30 438 C 49.2442 1.59051 0.347349 0
M  V30 439 O 50.4332 1.77929 0.142669 0
M  V30 440 C 47.5332 3.38459 0.172805 0
M  V30 441 C 46.7062 4.3072 -0.761496 0
M  V30 442 C 45.7652 5.26174 -0.0525547 0
M  V30 443 O 44.7912 5.65108 -0.681333 0
M  V30 444 N 45.9932 5.67624 1.21586 0
M  V30 445 H 48.7582 2.61417 -1.46565 0
M  V30 446 H 46.3192 1.33531 -0.915476 0
M  V30 447 H 48.3112 3.99335 0.656793 0
M  V30 448 H 46.8812 2.97507 0.959602 0
M  V30 449 H 46.1012 3.67525 -1.42544 0
M  V30 450 H 47.3892 4.89267 -1.39626 0
M  V30 451 H 46.7872 5.38038 1.74732 0
M  V30 452 H 45.3442 6.30721 1.64421 0
M  V30 453 N 48.7773 0.814389 1.34928 0
M  V30 454 C 50.0253 0.397636 1.9815 0
M  V30 455 C 50.3463 -1.04069 1.64908 0
M  V30 456 O 49.6163 -1.72121 0.93548 0
M  V30 457 H 48.1963 0.144043 0.732981 0
M  V30 458 H 50.8583 1.04195 1.6471 0
M  V30 459 H 49.9543 0.509688 3.0791 0
M  V30 460 N 50.2554 -1.46986 0.568584 0
M  V30 461 C 51.2184 -2.28624 -0.162366 0
M  V30 462 C 52.2184 -1.37596 -0.832103 0
M  V30 463 O 53.4084 -1.60115 -0.68622 0
M  V30 464 C 50.5404 -3.17596 -1.23878 0
M  V30 465 H 51.7334 -2.94722 0.554899 0
M  V30 466 H 49.2864 -1.52863 0.325976 0
M  V30 467 H 50.0214 -2.56214 -1.98808 0
M  V30 468 H 49.8064 -3.846 -0.763219 0
M  V30 469 H 51.2964 -3.79078 -1.75185 0
M  V30 470 N 51.7335 -0.305618 -1.54608 0
M  V30 471 C 52.9585 0.307562 -2.05107 0
M  V30 472 C 53.3835 1.46385 -1.18123 0
M  V30 473 O 52.7415 1.8034 -0.186324 0
M  V30 474 C 52.7895 0.73704 -3.52987 0
M  V30 475 O 51.8935 1.84134 -3.6901 0
M  V30 476 H 51.2345 0.0589143 -0.661381 0
M  V30 477 H 53.7645 -0.448807 -1.99617 0
M  V30 478 H 53.7745 1.02459 -3.94925 0
M  V30 479 H 52.4495 -0.108773 -4.15758 0
M  V30 480 H 51.0265 1.55398 -3.38978 0
M  V30 481 N 53.2116 1.57565 -0.0334293 0
M  V30 482 C 54.1746 2.09393 0.932048 0
M  V30 483 C 55.1746 1.00986 1.25134 0
M  V30 484 O 56.3646 1.27129 1.19096 0
M  V30 485 C 53.4966 2.56338 2.2473 0
M  V30 486 H 54.6896 2.95984 0.483085 0
M  V30 487 H 52.2426 1.54819 0.21468 0
M  V30 488 H 52.9776 1.7309 2.74245 0
M  V30 489 H 52.7626 3.35542 2.02865 0
M  V30 490 H 54.2526 2.96646 2.93923 0
M  V30 491 N 54.6897 -0.239769 1.55765 0
M  V30 492 C 55.9357 -0.968234 1.78194 0
M  V30 493 C 56.2687 -1.84701 0.599938 0
M  V30 494 O 55.5437 -1.9031 -0.401524 0
M  V30 495 C 55.8267 -1.8227 3.10564 0
M  V30 496 C 55.6797 -0.971633 4.3918 0
M  V30 497 C 56.9987 -2.80388 3.39221 0
M  V30 498 H 54.1177 -0.350572 0.648281 0
M  V30 499 H 56.7597 -0.238259 1.885 0
M  V30 500 H 54.9097 -2.44507 3.01908 0
M  V30 501 H 56.5817 -0.367408 4.59835 0
M  V30 502 H 54.8247 -0.276276 4.32919 0
M  V30 503 H 55.4957 -1.60346 5.28198 0
M  V30 504 H 57.9717 -2.28287 3.47885 0
M  V30 505 H 56.8477 -3.3729 4.33044 0
M  V30 506 H 57.1087 -3.57212 2.60484 0
M  V30 507 N 56.1678 -1.49265 -0.50573 0
M  V30 508 C 57.0978 -1.68495 -1.61653 0
M  V30 509 C 58.0788 -0.53366 -1.61512 0
M  V30 510 O 59.2638 -0.76897 -1.78327 0
M  V30 511 C 56.3938 -1.74709 -3.00157 0
M  V30 512 C 55.3478 -2.89581 -3.15162 0
M  V30 513 C 54.6738 -2.80903 -4.5497 0
M  V30 514 C 55.9738 -4.30578 -2.95634 0
M  V30 515 H 57.6678 -2.61493 -1.45814 0
M  V30 516 H 55.2138 -1.25838 -0.70005 0
M  V30 517 H 57.1668 -1.86748 -3.77761 0
M  V30 518 H 55.8908 -0.783067 -3.17074 0
M  V30 519 H 54.5498 -2.77136 -2.39982 0
M  V30 520 H 54.1978 -1.82419 -4.68756 0
M  V30 521 H 53.8978 -3.57999 -4.65951 0
M  V30 522 H 55.4218 -2.94944 -5.34641 0
M  V30 523 H 56.8358 -4.4373 -3.63011 0
M  V30 524 H 55.2328 -5.0886 -3.18091 0
M  V30 525 H 56.3028 -4.45352 -1.91806 0
M  V30 526 N 57.6459 0.756429 -1.3826 0
M  V30 527 C 58.5759 1.88374 -1.37976 0
M  V30 528 C 59.5569 1.68311 -0.246082 0
M  V30 529 O 60.7419 1.88944 -0.44874 0
M  V30 530 C 57.8719 3.25864 -1.20125 0
M  V30 531 C 56.8259 3.60523 -2.30666 0
M  V30 532 C 56.1519 4.9672 -1.97923 0
M  V30 533 C 57.4519 3.65692 -3.72916 0
M  V30 534 H 59.1459 1.88869 -2.32312 0
M  V30 535 H 56.6919 0.907272 -1.11824 0
M  V30 536 H 58.6449 4.0438 -1.18552 0
M  V30 537 H 57.3689 3.25841 -0.222498 0
M  V30 538 H 56.0279 2.84324 -2.3142 0
M  V30 539 H 55.6759 4.93253 -0.985393 0
M  V30 540 H 55.3759 5.20878 -2.71955 0
M  V30 541 H 56.8999 5.77618 -1.97964 0
M  V30 542 H 58.3139 4.34328 -3.74208 0
M  V30 543 H 56.7109 4.01358 -4.4613 0
M  V30 544 H 57.7809 2.65987 -4.05436 0
M  V30 545 N 59.124 1.23083 0.984299 0
M  V30 546 C 60.401 0.9689 1.69917 0
M  V30 547 C 60.781 -0.513604 2.04757 0
M  V30 548 O 60.129 -1.48383 1.73767 0
M  V30 549 C 60.339 1.87518 2.94343 0
M  V30 550 C 61.687 2.13636 3.6694 0
M  V30 551 O 62.711 1.85036 3.04368 0
M  V30 552 O 61.57 2.62119 4.79537 0
M  V30 553 H 58.664 0.365095 0.742048 0
M  V30 554 H 61.21 1.34107 1.03987 0
M  V30 555 H 59.982 2.87756 2.65164 0
M  V30 556 H 59.605 1.50514 3.6801 0
M  V30 557 N 60.6021 -1.18246 1.0419 0
M  V30 558 C 61.5321 -2.24127 0.654914 0
M  V30 559 C 62.5131 -1.66617 -0.342451 0
M  V30 560 O 63.6981 -1.92924 -0.222277 0
M  V30 561 C 60.8281 -3.47295 0.0183757 0
M  V30 562 C 59.7821 -4.17563 0.939414 0
M  V30 563 C 59.1081 -5.34438 0.167286 0
M  V30 564 C 60.4081 -4.70917 2.25908 0
M  V30 565 H 62.1021 -2.56753 1.54007 0
M  V30 566 H 59.6481 -1.23414 0.74195 0
M  V30 567 H 61.6011 -4.20572 -0.264082 0
M  V30 568 H 60.3251 -3.13907 -0.901664 0
M  V30 569 H 58.9841 -3.46186 1.20628 0
M  V30 570 H 58.6321 -4.97298 -0.7552 0
M  V30 571 H 58.3321 -5.82388 0.780901 0
M  V30 572 H 59.8561 -6.10504 -0.108125 0
M  V30 573 H 61.2701 -5.35882 2.03724 0
M  V30 574 H 59.6671 -5.29406 2.82577 0
M  V30 575 H 60.7371 -3.88272 2.9047 0
M  V30 576 N 62.0802 -0.821533 -1.34494 0
M  V30 577 C 63.4912 -0.467956 -1.8074 0
M  V30 578 C 63.8422 1.01151 -1.68116 0
M  V30 579 O 62.9672 1.78707 -1.22036 0
M  V30 580 C 63.5622 -0.842627 -3.28154 0
M  V30 581 C 62.1212 -0.541439 -3.72485 0
M  V30 582 C 61.2682 -1.06028 -2.56229 0
M  V30 583 H 64.2192 -1.01183 -1.22261 0
M  V30 584 H 64.2402 -0.145876 -3.8022 0
M  V30 585 H 63.7522 -1.91945 -3.37311 0
M  V30 586 H 61.8532 0.526034 -3.68868 0
M  V30 587 H 61.9662 -1.08453 -4.66663 0
M  V30 588 H 60.3302 -0.481892 -2.501 0
M  V30 589 H 61.1132 -2.14352 -2.68157 0
M  V30 590 N 63.5583 1.46682 -0.576371 0
M  V30 591 C 64.5063 2.31953 0.17335 0
M  V30 592 C 65.5003 1.44098 0.89062 0
M  V30 593 O 66.7063 1.60759 0.809728 0
M  V30 594 H 63.0813 0.748273 0.0747727 0
M  V30 595 H 65.0523 2.93007 -0.564738 0
M  V30 596 C 63.8013 3.27142 1.17786 0
M  V30 597 H 63.1243 3.94719 0.635361 0
M  V30 598 H 64.5643 3.896 1.67296 0
M  V30 599 C 63.0233 2.52036 2.23561 0
M  V30 600 O 63.5533 2.27877 3.3081 0
M  V30 601 N 61.7593 2.12709 1.97998 0
M  V30 602 H 61.3063 2.32557 1.10792 0
M  V30 603 H 61.2643 1.62776 2.68982 0
M  V30 604 N 65.0364 0.313813 1.54444 0
M  V30 605 C 66.2614 -0.296681 2.05267 0
M  V30 606 C 66.6864 -1.45757 1.18897 0
M  V30 607 O 66.0444 -1.80239 0.195886 0
M  V30 608 C 66.0924 -0.71831 3.53373 0
M  V30 609 O 65.1964 -1.82175 3.69981 0
M  V30 610 H 64.5374 -0.0554061 0.661684 0
M  V30 611 H 67.0674 0.459387 1.99376 0
M  V30 612 H 67.0774 -1.00364 3.95463 0
M  V30 613 H 65.7524 0.130821 4.15694 0
M  V30 614 H 64.3294 -1.53598 3.39797 0
M  V30 615 N 66.5145 -1.57545 0.0417849 0
M  V30 616 C 67.7625 -1.91937 -0.632829 0
M  V30 617 C 68.0835 -0.919978 -1.71934 0
M  V30 618 O 67.3535 0.0366064 -1.95866 0
M  V30 619 H 65.9335 -0.708493 -0.236742 0
M  V30 620 H 68.5955 -1.9468 0.0925745 0
M  V30 621 H 67.6915 -2.92912 -1.07746 0
M  V30 622 N 67.9926 0.231505 -1.5589 0
M  V30 623 C 69.2406 0.955461 -1.78088 0
M  V30 624 C 69.5616 1.85262 -0.608533 0
M  V30 625 O 68.8316 1.92277 0.375035 0
M  V30 626 H 67.4116 0.355787 -0.656829 0
M  V30 627 H 70.0736 0.245751 -1.93344 0
M  V30 628 H 69.1696 1.56814 -2.69844 0
M  V30 629 N 69.4707 1.49531 0.497807 0
M  V30 630 C 70.3807 1.69176 1.62532 0
M  V30 631 C 71.3967 0.5744 1.64246 0
M  V30 632 O 72.5727 0.849497 1.82608 0
M  V30 633 C 69.6377 1.75695 2.98885 0
M  V30 634 C 68.6987 2.9929 3.07773 0
M  V30 635 C 67.9317 3.05488 4.37622 0
M  V30 636 O 68.1547 2.19192 5.26603 0
M  V30 637 O 67.0887 3.9798 4.51548 0
M  V30 638 H 70.9147 2.647 1.48887 0
M  V30 639 H 68.4997 1.3331 0.674441 0
M  V30 640 H 70.3817 1.82317 3.79919 0
M  V30 641 H 69.0567 0.8335 3.12785 0
M  V30 642 H 67.9637 2.98183 2.25915 0
M  V30 643 H 69.2967 3.91125 2.98801 0
M  V30 644 N 70.9488 -0.749086 1.3866 0
M  V30 645 C 71.9118 -1.84457 1.36045 0
M  V30 646 C 72.9118 -1.58682 0.260122 0
M  V30 647 O 74.1018 -1.66343 0.517261 0
M  V30 648 C 71.2338 -3.22008 1.11911 0
M  V30 649 H 72.4268 -1.88182 2.33512 0
M  V30 650 H 69.9798 -0.951266 1.24019 0
M  V30 651 H 70.7148 -3.2395 0.150686 0
M  V30 652 H 70.4998 -3.42111 1.91579 0
M  V30 653 H 71.9898 -4.0208 1.12788 0
M  V30 654 N 72.4269 -1.23603 -0.977757 0
M  V30 655 C 73.3589 -0.977369 -2.07317 0
M  V30 656 C 74.3719 0.0495845 -1.62724 0
M  V30 657 O 75.5609 -0.186261 -1.77526 0
M  V30 658 C 72.6609 -0.451216 -3.35883 0
M  V30 659 C 71.8339 -1.53896 -4.09432 0
M  V30 660 C 70.8929 -1.01721 -5.16274 0
M  V30 661 O 69.9189 -1.70676 -5.43009 0
M  V30 662 N 71.1209 0.153594 -5.80297 0
M  V30 663 H 73.8859 -1.92047 -2.30082 0
M  V30 664 H 71.4469 -1.14497 -1.14465 0
M  V30 665 H 73.4389 -0.0871574 -4.04606 0
M  V30 666 H 72.0089 0.397368 -3.10064 0
M  V30 667 H 71.2289 -2.07566 -3.35127 0
M  V30 668 H 72.5169 -2.27037 -4.55337 0
M  V30 669 H 71.9149 0.730323 -5.60966 0
M  V30 670 H 70.4719 0.458892 -6.50183 0
M  V30 671 N 73.905 1.17692 -1.04816 0
M  V30 672 C 74.868 2.19787 -0.650117 0
M  V30 673 C 75.868 1.58044 0.296427 0
M  V30 674 O 77.058 1.74012 0.0808097 0
M  V30 675 C 74.19 3.40869 0.0456987 0
M  V30 676 H 75.383 2.56516 -1.5537 0
M  V30 677 H 72.936 1.31708 -0.841594 0
M  V30 678 H 73.671 3.09681 0.962726 0
M  V30 679 H 73.456 3.86928 -0.634727 0
M  V30 680 H 74.946 4.16445 0.310432 0
M  V30 681 N 75.3831 0.828654 1.34056 0
M  V30 682 C 76.3301 0.252567 2.29414 0
M  V30 683 C 77.3001 -0.62588 1.53857 0
M  V30 684 O 78.4851 -0.566312 1.82202 0
M  V30 685 C 75.6251 -0.574831 3.40279 0
M  V30 686 C 74.7381 0.326499 4.30764 0
M  V30 687 C 73.8731 -0.511016 5.28736 0
M  V30 688 C 72.9121 0.389342 6.1086 0
M  V30 689 N 72.0491 -0.409439 7.00905 0
M  V30 690 H 76.8891 1.07108 2.78086 0
M  V30 691 H 74.4261 0.539677 1.36843 0
M  V30 692 H 76.3841 -1.06992 4.03248 0
M  V30 693 H 75.0141 -1.35841 2.92826 0
M  V30 694 H 74.0661 0.939837 3.68607 0
M  V30 695 H 75.3781 1.01857 4.88289 0
M  V30 696 H 74.5321 -1.07035 5.97184 0
M  V30 697 H 73.2711 -1.23657 4.71763 0
M  V30 698 H 72.2761 0.960769 5.4134 0
M  V30 699 H 73.5011 1.1131 6.69916 0
M  V30 700 H 71.4471 -1.11856 6.46393 0
M  V30 701 H 71.3641 0.224126 7.55668 0
M  V30 702 H 72.6321 -0.951336 7.73673 0
M  V30 703 N 76.8612 -1.46375 0.584142 0
M  V30 704 C 77.8082 -2.30323 -0.148286 0
M  V30 705 C 78.7782 -1.40703 -0.882713 0
M  V30 706 O 79.9632 -1.69651 -0.873099 0
M  V30 707 C 77.1032 -3.25196 -1.15507 0
M  V30 708 C 76.2162 -4.29915 -0.423943 0
M  V30 709 C 75.3512 -5.11914 -1.41838 0
M  V30 710 C 74.3902 -6.08381 -0.673736 0
M  V30 711 N 73.5272 -6.83242 -1.6163 0
M  V30 712 H 78.3672 -2.92427 0.573644 0
M  V30 713 H 75.9042 -1.44118 0.294703 0
M  V30 714 H 77.8622 -3.78646 -1.75166 0
M  V30 715 H 76.4922 -2.64898 -1.8447 0
M  V30 716 H 75.5442 -3.7931 0.287714 0
M  V30 717 H 76.8562 -4.98549 0.158128 0
M  V30 718 H 76.0102 -5.69648 -2.08773 0
M  V30 719 H 74.7492 -4.43243 -2.03438 0
M  V30 720 H 73.7542 -5.49799 0.00938483 0
M  V30 721 H 74.9792 -6.79071 -0.0631082 0
M  V30 722 H 72.9252 -6.1728 -2.22038 0
M  V30 723 H 72.8422 -7.48144 -1.08707 0
M  V30 724 H 74.1102 -7.45534 -2.27596 0
M  V30 725 N 78.3393 -0.321999 -1.54275 0
M  V30 726 C 79.2693 0.537411 -2.27231 0
M  V30 727 C 80.2503 1.12064 -1.27968 0
M  V30 728 O 81.4353 1.14606 -1.56777 0
M  V30 729 C 78.5653 1.69919 -3.02894 0
M  V30 730 C 77.5193 1.24534 -4.09482 0
M  V30 731 C 76.8453 2.49394 -4.72977 0
M  V30 732 C 78.1453 0.361335 -5.21049 0
M  V30 733 H 79.8393 -0.0711406 -2.99315 0
M  V30 734 H 77.3853 -0.0356555 -1.43956 0
M  V30 735 H 79.3383 2.30668 -3.52662 0
M  V30 736 H 78.0623 2.33431 -2.28424 0
M  V30 737 H 76.7213 0.660782 -3.60596 0
M  V30 738 H 76.3693 3.11265 -3.95124 0
M  V30 739 H 76.0693 2.19718 -5.44975 0
M  V30 740 H 77.5933 3.10908 -5.25517 0
M  V30 741 H 79.0073 0.875072 -5.66582 0
M  V30 742 H 77.4043 0.157428 -5.99893 0
M  V30 743 H 78.4743 -0.60822 -4.8107 0
M  V30 744 N 79.8174 1.5752 -0.0501392 0
M  V30 745 C 81.0654 1.9227 0.622642 0
M  V30 746 C 81.3864 0.929083 1.71444 0
M  V30 747 O 80.6564 -0.0262186 1.95882 0
M  V30 748 H 79.2364 0.709739 0.232981 0
M  V30 749 H 81.8984 1.94628 -0.102898 0
M  V30 750 H 80.9944 2.93479 1.06191 0
M  V30 751 N 81.2955 -0.223234 1.56011 0
M  V30 752 C 82.2435 -1.29627 1.93131 0
M  V30 753 C 83.2375 -1.48608 0.813146 0
M  V30 754 O 84.4435 -1.49802 0.997966 0
M  V30 755 H 80.8185 -0.434563 0.613726 0
M  V30 756 H 82.7895 -0.955995 2.82672 0
M  V30 757 C 81.5385 -2.63983 2.26292 0
M  V30 758 H 80.8615 -2.50185 3.11846 0
M  V30 759 H 82.3015 -3.3788 2.56151 0
M  V30 760 C 80.7605 -3.18866 1.08747 0
M  V30 761 O 81.2905 -4.00192 0.347727 0
M  V30 762 N 79.4965 -2.77217 0.871743 0
M  V30 763 H 79.0435 -2.1119 1.47501 0
M  V30 764 H 79.0015 -3.1428 0.0869905 0
M  V30 765 N 82.7736 -1.49793 -0.48987 0
M  V30 766 C 83.7216 -1.67783 -1.61095 0
M  V30 767 C 84.7156 -0.543683 -1.60438 0
M  V30 768 O 85.9216 -0.723647 -1.64813 0
M  V30 769 H 82.2966 -0.529255 -0.534222 0
M  V30 770 H 84.2676 -2.61861 -1.43078 0
M  V30 771 C 83.0166 -1.77191 -2.99164 0
M  V30 772 H 82.3396 -2.63841 -3.0038 0
M  V30 773 H 83.7796 -1.93809 -3.77113 0
M  V30 774 C 82.2386 -0.519203 -3.32875 0
M  V30 775 O 82.7686 0.350124 -4.00171 0
M  V30 776 N 80.9746 -0.378816 -2.8812 0
M  V30 777 H 80.5216 -1.08725 -2.33531 0
M  V30 778 H 80.4796 0.458239 -3.11043 0
M  V30 779 N 84.2517 0.741722 -1.39055 0
M  V30 780 C 85.4917 1.51385 -1.37338 0
M  V30 781 C 85.8557 1.91972 0.0330513 0
M  V30 782 O 87.0567 2.68229 0.175174 0
M  V30 783 C 85.3277 2.72481 -2.31276 0
M  V30 784 S 86.8867 3.62211 -2.47687 0
M  V30 785 H 83.7047 0.517906 -0.487129 0
M  V30 786 H 86.3067 0.86969 -1.7509 0
M  V30 787 H 85.0107 2.40793 -3.32336 0
M  V30 788 H 84.5417 3.41832 -1.94716 0
M  V30 789 H 86.5567 4.65812 -1.70978 0
M  V30 790 N 85.7298 1.2412 0.971189 0
M  V30 791 C 86.9758 1.08041 1.71625 0
M  V30 792 C 87.3088 -0.380407 1.90438 0
M  V30 793 O 86.5838 -1.28127 1.46334 0
M  V30 794 C 86.8668 1.81682 3.10908 0
M  V30 795 C 86.7198 3.35493 2.99608 0
M  V30 796 C 88.0388 1.58671 4.10501 0
M  V30 797 H 85.1578 0.39388 0.622919 0
M  V30 798 H 87.7998 1.52743 1.13003 0
M  V30 799 H 85.9498 1.43684 3.60953 0
M  V30 800 H 87.6218 3.83068 2.57015 0
M  V30 801 H 85.8648 3.64052 2.35899 0
M  V30 802 H 86.5358 3.82217 3.98264 0
M  V30 803 H 89.0118 1.91719 3.69301 0
M  V30 804 H 87.8878 2.1266 5.06031 0
M  V30 805 H 88.1488 0.524161 4.38982 0
M  V30 806 N 87.2079 -1.17134 1.05439 0
M  V30 807 C 88.4549 -1.87456 0.765942 0
M  V30 808 C 88.7829 -1.81189 -0.707153 0
M  V30 809 O 88.0379 -1.21633 -1.5331 0
M  V30 810 C 88.3369 -3.36833 1.19491 0
M  V30 811 C 88.0029 -3.63301 2.67063 0
M  V30 812 C 86.6649 -3.70234 3.07376 0
M  V30 813 C 89.0169 -3.74575 3.62413 0
M  V30 814 C 86.3449 -3.85933 4.41896 0
M  V30 815 C 88.6969 -3.91793 4.9667 0
M  V30 816 C 87.3609 -3.96966 5.36633 0
M  V30 817 H 86.6309 -0.685948 0.280278 0
M  V30 818 H 89.2779 -1.38556 1.32192 0
M  V30 819 H 87.5829 -3.87807 0.557969 0
M  V30 820 H 89.2799 -3.89611 0.948893 0
M  V30 821 H 85.8699 -3.58532 2.34846 0
M  V30 822 H 90.0539 -3.68537 3.32406 0
M  V30 823 H 85.3099 -3.88187 4.72357 0
M  V30 824 H 89.4839 -3.99458 5.70444 0
M  V30 825 H 87.1109 -4.08883 6.40874 0
M  V30 826 N 88.686 -0.835752 -1.33615 0
M  V30 827 C 89.649 -0.272 -2.2758 0
M  V30 828 C 90.649 0.557487 -1.50827 0
M  V30 829 O 91.839 0.37173 -1.70188 0
M  V30 830 C 88.971 0.617173 -3.35267 0
M  V30 831 H 90.164 -1.10111 -2.78954 0
M  V30 832 H 87.717 -0.608594 -1.43965 0
M  V30 833 H 88.452 1.46884 -2.89129 0
M  V30 834 H 88.237 0.0237066 -3.92093 0
M  V30 835 H 89.727 1.005 -4.05326 0
M  V30 836 N 90.1641 1.46063 -0.591896 0
M  V30 837 C 91.5751 1.85944 -0.167822 0
M  V30 838 C 91.9261 1.49429 1.27143 0
M  V30 839 O 91.0511 0.913515 1.96173 0
M  V30 840 C 91.6461 3.37489 -0.297794 0
M  V30 841 C 90.2051 3.76332 0.0714732 0
M  V30 842 C 89.3521 2.7006 -0.629509 0
M  V30 843 H 92.3031 1.37087 -0.799555 0
M  V30 844 H 92.3241 3.77532 0.474349 0
M  V30 845 H 91.8361 3.64034 -1.3454 0
M  V30 846 H 89.9371 3.55405 1.11886 0
M  V30 847 H 90.0501 4.78088 -0.311245 0
M  V30 848 H 88.4141 2.54607 -0.0687867 0
M  V30 849 H 89.1971 2.99444 -1.67894 0
M  V30 850 N 91.6422 0.330177 1.54103 0
M  V30 851 C 92.6052 -0.520144 2.2322 0
M  V30 852 C 93.6052 -1.03828 1.22786 0
M  V30 853 O 94.7952 -0.929652 1.4732 0
M  V30 854 C 91.9272 -1.72317 2.94142 0
M  V30 855 H 93.1202 0.0841605 2.99782 0
M  V30 856 H 90.6732 0.0813433 1.56088 0
M  V30 857 H 91.4082 -2.36653 2.21734 0
M  V30 858 H 91.1932 -1.35898 3.67796 0
M  V30 859 H 92.6832 -2.3266 3.46784 0
M  V30 860 N 93.1203 -1.57491 0.0584922 0
M  V30 861 C 94.3973 -1.84346 -0.653918 0
M  V30 862 C 94.7773 -0.948355 -1.88599 0
M  V30 863 O 94.1253 -0.0112403 -2.28497 0
M  V30 864 C 94.3353 -3.34239 -1.00425 0
M  V30 865 C 95.6833 -4.01431 -1.38342 0
M  V30 866 O 96.7073 -3.38907 -1.09637 0
M  V30 867 O 95.5663 -5.11683 -1.91943 0
M  V30 868 H 92.6603 -0.761112 -0.323478 0
M  V30 869 H 95.2063 -1.6947 0.0884125 0
M  V30 870 H 93.9783 -3.91089 -0.128625 0
M  V30 871 H 93.6013 -3.54329 -1.80378 0
M  V30 872 N 94.5984 0.214957 -1.56127 0
M  V30 873 C 95.8444 0.939762 -1.79712 0
M  V30 874 C 96.1774 1.83723 -0.629247 0
M  V30 875 O 95.4524 1.90925 0.371197 0
M  V30 876 C 95.7354 1.77306 -3.13424 0
M  V30 877 C 95.5884 0.90164 -4.40671 0
M  V30 878 C 96.9074 2.74956 -3.43638 0
M  V30 879 H 94.0264 0.340214 -0.653776 0
M  V30 880 H 96.6684 0.20824 -1.88855 0
M  V30 881 H 94.8184 2.39673 -3.0576 0
M  V30 882 H 96.4904 0.294206 -4.60361 0
M  V30 883 H 94.7334 0.207368 -4.33304 0
M  V30 884 H 95.4044 1.51923 -5.30682 0
M  V30 885 H 97.8804 2.22724 -3.51473 0
M  V30 886 H 96.7564 3.30358 -4.38355 0
M  V30 887 H 97.0174 3.53023 -2.66134 0
M  V30 888 N 96.0765 1.50051 0.48192 0
M  V30 889 C 97.3045 1.64237 1.25832 0
M  V30 890 C 97.7195 0.321336 1.86045 0
M  V30 891 O 97.0765 -0.695478 1.68729 0
M  V30 892 C 97.1275 2.72548 2.37487 0
M  V30 893 O 96.8485 3.99529 1.79745 0
M  V30 894 C 98.3495 2.9761 3.28547 0
M  V30 895 H 95.5695 0.55237 0.380957 0
M  V30 896 H 98.1135 1.96207 0.576467 0
M  V30 897 H 96.2685 2.43303 3.01467 0
M  V30 898 H 96.6825 4.59342 2.5319 0
M  V30 899 H 98.1565 3.77084 4.03127 0
M  V30 900 H 98.6335 2.0826 3.86684 0
M  V30 901 H 99.2395 3.28345 2.70314 0
M  V30 902 N 97.5546 -0.734337 1.39446 0
M  V30 903 C 98.7796 -1.52866 1.40167 0
M  V30 904 C 99.2046 -1.881 -0.00171513 0
M  V30 905 O 98.5626 -1.51957 -0.988879 0
M  V30 906 C 98.6106 -2.79235 2.28167 0
M  V30 907 O 97.7146 -3.75185 1.71201 0
M  V30 908 H 97.0556 -0.461618 0.477289 0
M  V30 909 H 99.5856 -0.905949 1.8345 0
M  V30 910 H 99.5956 -3.27963 2.42702 0
M  V30 911 H 98.2706 -2.52923 3.30156 0
M  V30 912 H 96.8476 -3.33958 1.65912 0
M  V30 913 N 99.0327 -1.24633 -0.964593 0
M  V30 914 C 99.9427 -1.05859 -2.09359 0
M  V30 915 C 100.959 0.00148855 -1.74 0
M  V30 916 O 102.135 -0.197346 -2.00431 0
M  V30 917 C 99.1997 -0.668879 -3.40187 0
M  V30 918 C 98.2607 -1.80578 -3.89474 0
M  V30 919 C 97.4937 -1.43457 -5.14058 0
M  V30 920 O 97.7167 -0.325775 -5.69469 0
M  V30 921 O 96.6507 -2.2613 -5.57807 0
M  V30 922 H 100.477 -2.00516 -2.28094 0
M  V30 923 H 98.0617 -1.03481 -1.0776 0
M  V30 924 H 99.9437 -0.463211 -4.18846 0
M  V30 925 H 98.6187 0.248536 -3.22744 0
M  V30 926 H 97.5257 -2.06623 -3.11862 0
M  V30 927 H 98.8587 -2.70208 -4.11398 0
M  V30 928 N 100.511 1.16574 -1.06058 0
M  V30 929 C 101.458 2.20883 -0.669263 0
M  V30 930 C 102.428 1.62729 0.332918 0
M  V30 931 O 103.613 1.895 0.222346 0
M  V30 932 C 100.753 3.45049 -0.0593572 0
M  V30 933 C 99.8658 4.17458 -1.11143 0
M  V30 934 C 99.0008 5.29135 -0.467916 0
M  V30 935 C 98.0398 5.93343 -1.50369 0
M  V30 936 N 97.1768 6.96516 -0.883706 0
M  V30 937 H 102.017 2.53709 -1.5632 0
M  V30 938 H 99.5538 1.24616 -0.781625 0
M  V30 939 H 101.512 4.16033 0.311771 0
M  V30 940 H 100.142 3.12781 0.797992 0
M  V30 941 H 99.1938 3.45101 -1.60029 0
M  V30 942 H 100.506 4.61307 -1.89731 0
M  V30 943 H 99.6598 6.06684 -0.0436871 0
M  V30 944 H 98.3988 4.86443 0.349864 0
M  V30 945 H 97.4038 5.14517 -1.93784 0
M  V30 946 H 98.6288 6.38114 -2.32352 0
M  V30 947 H 96.5748 6.55943 -0.086595 0
M  V30 948 H 96.4918 7.38723 -1.607 0
M  V30 949 H 97.7598 7.77993 -0.484543 0
M  V30 950 N 101.989 0.842826 1.3317 0
M  V30 951 C 103.266 0.362216 1.92217 0
M  V30 952 C 103.646 -1.15289 1.76838 0
M  V30 953 O 102.994 -1.96914 1.15919 0
M  V30 954 C 103.204 0.813495 3.39387 0
M  V30 955 C 104.552 0.823804 4.16532 0
M  V30 956 O 105.576 0.757358 3.48055 0
M  V30 957 O 104.435 0.915193 5.38782 0
M  V30 958 H 101.529 0.103317 0.820521 0
M  V30 959 H 104.075 0.928942 1.42017 0
M  V30 960 H 102.847 1.85624 3.4447 0
M  V30 961 H 102.47 0.223561 3.96971 0
M  V30 962 N 103.467 -1.45747 0.599634 0
M  V30 963 C 104.713 -2.02592 0.0918643 0
M  V30 964 C 105.046 -1.46806 -1.27128 0
M  V30 965 O 104.321 -0.639658 -1.83681 0
M  V30 966 C 104.604 -3.60073 0.0443398 0
M  V30 967 C 104.457 -4.26208 1.43759 0
M  V30 968 C 105.776 -4.35309 -0.647608 0
M  V30 969 H 102.895 -0.736175 0.034857 0
M  V30 970 H 105.537 -1.73694 0.770081 0
M  V30 971 H 103.687 -3.84823 -0.533224 0
M  V30 972 H 105.359 -4.12668 2.06162 0
M  V30 973 H 103.602 -3.84916 2.00056 0
M  V30 974 H 104.273 -5.35069 1.35665 0
M  V30 975 H 106.749 -4.15805 -0.156776 0
M  V30 976 H 105.625 -5.45038 -0.649942 0
M  V30 977 H 105.886 -4.07598 -1.71219 0
M  V30 978 N 104.945 -0.338344 -1.53925 0
M  V30 979 C 105.877 0.555117 -2.22376 0
M  V30 980 C 106.89 1.06812 -1.22862 0
M  V30 981 O 108.079 0.979163 -1.49247 0
M  V30 982 C 105.179 1.77609 -2.88631 0
M  V30 983 C 104.352 1.39927 -4.14414 0
M  V30 984 C 103.411 2.47936 -4.64127 0
M  V30 985 O 102.437 2.11461 -5.28463 0
M  V30 986 N 103.639 3.79107 -4.39612 0
M  V30 987 H 106.404 -0.0310778 -2.99684 0
M  V30 988 H 103.965 -0.162226 -1.61085 0
M  V30 989 H 105.957 2.49287 -3.18807 0
M  V30 990 H 104.527 2.26978 -2.14941 0
M  V30 991 H 103.747 0.513481 -3.90841 0
M  V30 992 H 105.035 1.12341 -4.96243 0
M  V30 993 H 104.433 4.11531 -3.88148 0
M  V30 994 H 102.99 4.4697 -4.74406 0
M  V30 995 N 106.423 1.57458 -0.0668435 0
M  V30 996 C 107.651 1.97624 0.612565 0
M  V30 997 C 108.066 0.94502 1.63447 0
M  V30 998 O 107.423 -0.0689276 1.8237 0
M  V30 999 C 107.474 3.37869 1.28555 0
M  V30 1000 O 107.195 4.3704 0.304557 0
M  V30 1001 C 108.696 3.92882 2.05325 0
M  V30 1002 H 105.916 0.650045 0.166381 0
M  V30 1003 H 108.46 2.04035 -0.137782 0
M  V30 1004 H 106.615 3.3256 1.98702 0
M  V30 1005 H 107.029 5.18565 0.786779 0
M  V30 1006 H 108.503 4.93247 2.47812 0
M  V30 1007 H 108.98 3.29156 2.9078 0
M  V30 1008 H 109.586 4.01577 1.40056 0
M  V30 1009 N 107.901 -0.206675 1.56239 0
M  V30 1010 C 108.864 -1.23976 1.92776 0
M  V30 1011 C 109.864 -1.39041 0.807729 0
M  V30 1012 O 111.054 -1.37051 1.0753 0
M  V30 1013 C 108.186 -2.61112 2.19165 0
M  V30 1014 H 109.379 -0.927764 2.85189 0
M  V30 1015 H 106.932 -0.447718 1.4975 0
M  V30 1016 H 107.667 -2.97386 1.29352 0
M  V30 1017 H 107.452 -2.51552 3.00772 0
M  V30 1018 H 108.942 -3.35633 2.48476 0
M  V30 1019 N 109.379 -1.50304 -0.473955 0
M  V30 1020 C 110.309 -1.71886 -1.58042 0
M  V30 1021 C 111.29 -0.567799 -1.60344 0
M  V30 1022 O 112.475 -0.806623 -1.76656 0
M  V30 1023 C 109.605 -1.81036 -2.96384 0
M  V30 1024 C 108.559 -2.962 -3.08949 0
M  V30 1025 C 107.885 -2.9049 -4.48909 0
M  V30 1026 C 109.185 -4.36752 -2.86434 0
M  V30 1027 H 110.879 -2.64527 -1.40234 0
M  V30 1028 H 108.425 -1.27295 -0.673201 0
M  V30 1029 H 110.378 -1.94719 -3.73714 0
M  V30 1030 H 109.102 -0.850147 -3.15341 0
M  V30 1031 H 107.761 -2.82164 -2.3405 0
M  V30 1032 H 107.409 -1.92321 -4.64781 0
M  V30 1033 H 107.109 -3.67802 -4.58253 0
M  V30 1034 H 108.633 -3.06218 -5.28264 0
M  V30 1035 H 110.047 -4.5133 -3.53517 0
M  V30 1036 H 108.444 -5.15493 -3.07225 0
M  V30 1037 H 109.514 -4.49321 -1.82316 0
M  V30 1038 N 110.857 0.726932 -1.39834 0
M  V30 1039 C 111.82 1.82269 -1.38962 0
M  V30 1040 C 112.82 1.58248 -0.285334 0
M  V30 1041 O 114.01 1.65499 -0.54366 0
M  V30 1042 C 111.142 3.20186 -1.17019 0
M  V30 1043 H 112.335 1.84443 -2.36476 0
M  V30 1044 H 109.888 0.931416 -1.25516 0
M  V30 1045 H 110.623 3.23669 -0.202204 0
M  V30 1046 H 110.408 3.3902 -1.96998 0
M  V30 1047 H 111.898 4.00235 -1.1917 0
M  V30 1048 N 112.336 1.25143 0.95797 0
M  V30 1049 C 113.266 1.07711 2.07173 0
M  V30 1050 C 114.247 -0.0128462 1.70095 0
M  V30 1051 O 115.432 0.156061 1.93572 0
M  V30 1052 C 112.562 0.691503 3.40346 0
M  V30 1053 C 111.516 1.73132 3.9142 0
M  V30 1054 C 110.842 1.20049 5.21049 0
M  V30 1055 C 112.142 3.1294 4.1817 0
M  V30 1056 H 113.836 2.00873 2.22014 0
M  V30 1057 H 111.382 0.967191 1.06684 0
M  V30 1058 H 113.335 0.556505 4.17709 0
M  V30 1059 H 112.059 -0.275819 3.25433 0
M  V30 1060 H 110.718 1.8547 3.16222 0
M  V30 1061 H 110.366 0.223499 5.02503 0
M  V30 1062 H 110.066 1.89545 5.56189 0
M  V30 1063 H 111.59 1.07782 6.01012 0
M  V30 1064 H 113.004 3.03775 4.86203 0
M  V30 1065 H 111.401 3.79875 4.64559 0
M  V30 1066 H 112.471 3.6025 3.24573 0
M  V30 1067 N 113.814 -1.1601 1.06675 0
M  V30 1068 C 114.777 -2.18724 0.685001 0
M  V30 1069 C 115.777 -1.58496 -0.271246 0
M  V30 1070 O 116.967 -1.74119 -0.0531156 0
M  V30 1071 C 114.099 -3.40899 0.00853648 0
M  V30 1072 H 115.292 -2.54011 1.59431 0
M  V30 1073 H 112.845 -1.30352 0.862441 0
M  V30 1074 H 113.58 -3.11173 -0.913337 0
M  V30 1075 H 113.365 -3.8587 0.696204 0
M  V30 1076 H 114.855 -4.16886 -0.24414 0
M  V30 1077 N 115.292 -0.849877 -1.32721 0
M  V30 1078 C 116.239 -0.289033 -2.28983 0
M  V30 1079 C 117.209 0.601324 -1.54833 0
M  V30 1080 O 118.394 0.537253 -1.8308 0
M  V30 1081 C 115.534 0.520623 -3.4115 0
M  V30 1082 C 114.647 -0.394989 -4.3019 0
M  V30 1083 C 113.782 0.426834 -5.29482 0
M  V30 1084 C 112.821 -0.486476 -6.10164 0
M  V30 1085 N 111.958 0.297879 -7.01468 0
M  V30 1086 H 116.798 -1.11519 -2.76347 0
M  V30 1087 H 114.335 -0.56138 -1.35967 0
M  V30 1088 H 116.293 1.00563 -4.04899 0
M  V30 1089 H 114.923 1.31165 -2.9495 0
M  V30 1090 H 113.975 -0.99836 -3.67065 0
M  V30 1091 H 115.287 -1.09612 -4.86607 0
M  V30 1092 H 114.441 0.975205 -5.98811 0
M  V30 1093 H 113.18 1.16136 -4.73671 0
M  V30 1094 H 112.185 -1.04677 -5.39743 0
M  V30 1095 H 113.41 -1.21953 -6.6806 0
M  V30 1096 H 111.356 1.01558 -6.48091 0
M  V30 1097 H 111.273 -0.344318 -7.55216 0
M  V30 1098 H 112.541 0.828131 -7.75089 0
M  V30 1099 N 116.77 1.45427 -0.607355 0
M  V30 1100 C 118.018 2.01841 -0.102253 0
M  V30 1101 C 118.339 1.47832 1.27164 0
M  V30 1102 O 117.609 0.672497 1.83995 0
M  V30 1103 H 116.189 0.746188 -0.0348101 0
M  V30 1104 H 118.851 1.78229 -0.7887 0
M  V30 1105 H 117.947 3.12057 -0.0518585 0
M  V30 1106 N 118.248 0.346503 1.53744 0
M  V30 1107 C 119.195 -0.508914 2.25119 0
M  V30 1108 C 120.165 -1.09315 1.25058 0
M  V30 1109 O 121.35 -1.12921 1.53797 0
M  V30 1110 C 118.49 -1.65246 3.02965 0
M  V30 1111 C 117.603 -1.09525 4.17886 0
M  V30 1112 C 116.738 -2.20634 4.83212 0
M  V30 1113 C 115.777 -1.62279 5.90196 0
M  V30 1114 N 114.914 -2.67143 6.49291 0
M  V30 1115 H 119.754 0.106283 2.9781 0
M  V30 1116 H 117.291 0.0642227 1.4696 0
M  V30 1117 H 119.249 -2.32574 3.4636 0
M  V30 1118 H 117.879 -2.2386 2.32565 0
M  V30 1119 H 116.931 -0.312818 3.79112 0
M  V30 1120 H 118.243 -0.628444 4.94825 0
M  V30 1121 H 117.397 -2.95821 5.29693 0
M  V30 1122 H 116.136 -2.70659 4.05703 0
M  V30 1123 H 115.141 -0.855989 5.43096 0
M  V30 1124 H 116.366 -1.13102 6.69615 0
M  V30 1125 H 114.312 -3.16417 5.74645 0
M  V30 1126 H 114.229 -2.25093 7.21713 0
M  V30 1127 H 115.497 -3.4209 7.00425 0
M  V30 1128 N 119.726 -1.57421 0.075193 0
M  V30 1129 C 120.973 -1.93618 -0.593146 0
M  V30 1130 C 121.301 -0.955484 -1.69413 0
M  V30 1131 O 120.556 0.0283251 -1.9568 0
M  V30 1132 C 120.855 -3.36428 -1.20626 0
M  V30 1133 C 120.521 -4.50307 -0.231078 0
M  V30 1134 C 119.183 -4.81186 0.0371936 0
M  V30 1135 C 121.535 -5.19374 0.435888 0
M  V30 1136 C 118.863 -5.78466 0.979461 0
M  V30 1137 C 121.215 -6.17665 1.3665 0
M  V30 1138 C 119.879 -6.46958 1.6432 0
M  V30 1139 H 119.149 -0.708499 -0.217047 0
M  V30 1140 H 121.796 -1.90937 0.146793 0
M  V30 1141 H 120.101 -3.35592 -2.02201 0
M  V30 1142 H 121.798 -3.61727 -1.73073 0
M  V30 1143 H 118.388 -4.26227 -0.450357 0
M  V30 1144 H 122.572 -4.95711 0.241748 0
M  V30 1145 H 117.828 -5.99487 1.20106 0
M  V30 1146 H 122.002 -6.70284 1.88924 0
M  V30 1147 H 119.629 -7.2215 2.37494 0
M  V30 1148 N 121.204 0.198386 -1.56346 0
M  V30 1149 C 122.452 0.91747 -1.80075 0
M  V30 1150 C 122.773 1.83929 -0.647692 0
M  V30 1151 O 122.043 1.93029 0.334166 0
M  V30 1152 H 120.623 0.341774 -0.664228 0
M  V30 1153 H 123.285 0.204684 -1.93822 0
M  V30 1154 H 122.381 1.51055 -2.7311 0
M  V30 1155 N 122.682 1.50554 0.465978 0
M  V30 1156 C 124.098 1.38093 0.800154 0
M  V30 1157 C 124.298 0.440988 1.96615 0
M  V30 1158 O 123.354 -0.114499 2.5224 0
M  V30 1159 C 124.667 2.79565 1.10742 0
M  V30 1160 C 126.215 2.88516 1.21357 0
M  V30 1161 C 126.69 4.30833 1.55393 0
M  V30 1162 N 128.181 4.33807 1.62375 0
M  V30 1163 C 128.916 5.40927 1.90225 0
M  V30 1164 N 128.412 6.58247 2.16062 0
M  V30 1165 N 130.205 5.28376 1.9177 0
M  V30 1166 H 122.356 2.10237 -0.302366 0
M  V30 1167 H 124.619 0.945203 -0.0727746 0
M  V30 1168 H 124.325 3.50208 0.323661 0
M  V30 1169 H 124.199 3.17125 2.04234 0
M  V30 1170 H 126.586 2.1809 1.98799 0
M  V30 1171 H 126.667 2.54492 0.258321 0
M  V30 1172 H 126.311 5.01799 0.784889 0
M  V30 1173 H 126.241 4.62347 2.52076 0
M  V30 1174 H 128.732 3.49212 1.44427 0
M  V30 1175 H 129.045 7.3569 2.36601 0
M  V30 1176 H 127.39 6.61413 2.13444 0
M  V30 1177 H 130.581 4.35715 1.71085 0
M  V30 1178 H 130.754 6.11944 2.13139 0
M  V30 1179 N 124.16 -0.719506 1.40217 0
M  V30 1180 C 125.406 -1.48152 1.38488 0
M  V30 1181 C 125.739 -1.94195 -0.0141867 0
M  V30 1182 O 125.014 -1.67884 -0.982096 0
M  V30 1183 C 125.297 -2.71035 2.37091 0
M  V30 1184 C 125.15 -2.30912 3.86005 0
M  V30 1185 C 126.469 -3.73182 2.33288 0
M  V30 1186 H 123.588 -0.537395 0.504357 0
M  V30 1187 H 126.23 -0.821472 1.71324 0
M  V30 1188 H 124.38 -3.27352 2.0922 0
M  V30 1189 H 126.052 -1.80107 4.24687 0
M  V30 1190 H 124.295 -1.62958 4.02029 0
M  V30 1191 H 124.966 -3.18978 4.50508 0
M  V30 1192 H 127.442 -3.26485 2.57966 0
M  V30 1193 H 126.318 -4.56806 3.04334 0
M  V30 1194 H 126.579 -4.21202 1.34317 0
M  V30 1195 N 125.638 -1.25649 -0.95132 0
M  V30 1196 C 126.915 -1.01361 -1.67288 0
M  V30 1197 C 127.295 0.459135 -2.06046 0
M  V30 1198 O 126.643 1.43723 -1.7764 0
M  V30 1199 C 126.853 -1.95256 -2.89268 0
M  V30 1200 C 128.201 -2.23289 -3.61147 0
M  V30 1201 O 129.225 -1.93041 -2.99355 0
M  V30 1202 O 128.084 -2.74741 -4.72419 0
M  V30 1203 H 125.178 -0.38464 -0.732107 0
M  V30 1204 H 127.724 -1.36817 -1.00395 0
M  V30 1205 H 126.496 -2.94685 -2.57442 0
M  V30 1206 H 126.119 -1.60218 -3.6389 0
M  V30 1207 N 127.117 1.15442 -1.07289 0
M  V30 1208 C 128.363 1.86489 -0.796846 0
M  V30 1209 C 128.696 1.82078 0.675371 0
M  V30 1210 O 127.971 1.24346 1.4956 0
M  V30 1211 C 128.254 3.35626 -1.30489 0
M  V30 1212 C 128.107 3.48673 -2.84161 0
M  V30 1213 C 129.426 4.30357 -0.920907 0
M  V30 1214 H 126.545 0.677144 -0.290939 0
M  V30 1215 H 129.187 1.35633 -1.33056 0
M  V30 1216 H 127.337 3.79068 -0.850883 0
M  V30 1217 H 129.009 3.14099 -3.37846 0
M  V30 1218 H 127.252 2.90253 -3.22391 0
M  V30 1219 H 127.923 4.53453 -3.14777 0
M  V30 1220 H 130.399 3.94871 -1.3121 0
M  V30 1221 H 129.275 5.33193 -1.30372 0
M  V30 1222 H 129.536 4.4176 0.173226 0
M  V30 1223 N 128.595 0.856903 1.32268 0
M  V30 1224 C 129.558 0.308171 2.27119 0
M  V30 1225 C 130.558 -0.533421 1.51695 0
M  V30 1226 O 131.748 -0.344607 1.70757 0
M  V30 1227 C 128.88 -0.563757 3.36206 0
M  V30 1228 H 130.073 1.14535 2.77167 0
M  V30 1229 H 127.626 0.631421 1.42978 0
M  V30 1230 H 128.361 -1.42266 2.91429 0
M  V30 1231 H 128.146 0.0386749 3.92081 0
M  V30 1232 H 129.636 -0.940386 4.06874 0
M  V30 1233 N 130.073 -1.45103 0.615059 0
M  V30 1234 C 131.319 -2.02483 0.113347 0
M  V30 1235 C 131.652 -1.48146 -1.25564 0
M  V30 1236 O 130.927 -0.659104 -1.82992 0
M  V30 1237 C 131.21 -3.60005 0.0825278 0
M  V30 1238 C 131.063 -4.2466 1.48271 0
M  V30 1239 C 132.382 -4.35972 -0.601401 0
M  V30 1240 H 129.501 -0.735764 0.0426632 0
M  V30 1241 H 132.143 -1.72868 0.788461 0
M  V30 1242 H 130.293 -3.85367 -0.492378 0
M  V30 1243 H 131.965 -4.10458 2.10527 0
M  V30 1244 H 130.208 -3.82772 2.04127 0
M  V30 1245 H 130.879 -5.336 1.41332 0
M  V30 1246 H 133.355 -4.15947 -0.112666 0
M  V30 1247 H 132.231 -5.45697 -0.592097 0
M  V30 1248 H 132.492 -4.09391 -1.66887 0
M  V30 1249 N 131.551 -0.354651 -1.53558 0
M  V30 1250 C 132.499 0.512195 -2.26891 0
M  V30 1251 C 133.493 1.09263 -1.29452 0
M  V30 1252 O 134.699 1.03709 -1.47121 0
M  V30 1253 H 131.074 0.183878 -0.729173 0
M  V30 1254 H 133.045 -0.128202 -2.98124 0
M  V30 1255 C 131.794 1.64563 -3.06291 0
M  V30 1256 H 131.117 1.20829 -3.81104 0
M  V30 1257 H 132.557 2.22711 -3.60799 0
M  V30 1258 C 131.016 2.58158 -2.16462 0
M  V30 1259 O 131.546 3.60695 -1.76811 0
M  V30 1260 N 129.752 2.27096 -1.81317 0
M  V30 1261 H 129.299 1.43751 -2.1376 0
M  V30 1262 H 129.257 2.89975 -1.21498 0
M  V30 1263 N 133.029 1.57378 -0.0835403 0
M  V30 1264 C 134.269 1.95808 0.586381 0
M  V30 1265 C 134.633 0.963706 1.66062 0
M  V30 1266 O 135.834 1.23608 2.38693 0
M  V30 1267 C 134.105 3.38808 1.13771 0
M  V30 1268 S 135.664 3.99225 1.82112 0
M  V30 1269 H 132.482 0.684675 0.191679 0
M  V30 1270 H 135.084 1.94843 -0.160194 0
M  V30 1271 H 133.788 4.08954 0.344197 0
M  V30 1272 H 133.319 3.43344 1.92038 0
M  V30 1273 H 135.334 3.87087 3.10449 0
M  V30 1274 N 134.507 -0.190092 1.56449 0
M  V30 1275 C 135.47 -1.21925 1.9408 0
M  V30 1276 C 136.47 -1.38176 0.822431 0
M  V30 1277 O 137.66 -1.35903 1.08977 0
M  V30 1278 C 134.792 -2.58773 2.21922 0
M  V30 1279 H 135.985 -0.897464 2.86157 0
M  V30 1280 H 133.538 -0.43181 1.50217 0
M  V30 1281 H 134.273 -2.95998 1.32499 0
M  V30 1282 H 134.058 -2.48348 3.03424 0
M  V30 1283 H 135.548 -3.32978 2.52022 0
M  V30 1284 N 135.985 -1.50799 -0.457987 0
M  V30 1285 C 137.233 -1.62121 -1.2067 0
M  V30 1286 C 137.554 -0.329793 -1.92191 0
M  V30 1287 O 136.824 0.653409 -1.84682 0
M  V30 1288 H 135.404 -0.597441 -0.448411 0
M  V30 1289 H 138.066 -1.87637 -0.527096 0
M  V30 1290 H 137.162 -2.43882 -1.94751 0
M  V30 1291 N 137.463 0.71206 -1.40597 0
M  V30 1292 C 138.712 1.46754 -1.38369 0
M  V30 1293 C 139.025 1.95598 0.0097839 0
M  V30 1294 O 140.231 2.71059 0.154677 0
M  V30 1295 C 138.687 2.65289 -2.43207 0
M  V30 1296 C 138.295 2.23301 -3.88382 0
M  V30 1297 C 140.039 3.43008 -2.50091 0
M  V30 1298 C 137.946 3.38696 -4.84808 0
M  V30 1299 H 136.876 0.55118 -0.514506 0
M  V30 1300 H 139.527 0.774616 -1.66349 0
M  V30 1301 H 137.909 3.36769 -2.08332 0
M  V30 1302 H 139.083 1.59218 -4.32419 0
M  V30 1303 H 137.398 1.58618 -3.85006 0
M  V30 1304 H 139.995 4.28881 -3.1932 0
M  V30 1305 H 140.338 3.87065 -1.53253 0
M  V30 1306 H 140.871 2.78574 -2.83974 0
M  V30 1307 H 137.61 2.99668 -5.82992 0
M  V30 1308 H 137.13 4.01683 -4.45433 0
M  V30 1309 H 138.809 4.04712 -5.04794 0
M  V30 1310 N 138.941 1.26152 0.944643 0
M  V30 1311 C 139.904 1.07474 2.0244 0
M  V30 1312 C 140.904 0.0242064 1.60782 0
M  V30 1313 O 142.094 0.267302 1.72137 0
M  V30 1314 C 139.226 0.633956 3.34953 0
M  V30 1315 H 140.419 2.03336 2.20442 0
M  V30 1316 H 137.972 1.087 1.12312 0
M  V30 1317 H 138.707 -0.326811 3.22649 0
M  V30 1318 H 138.492 1.39247 3.66542 0
M  V30 1319 H 139.982 0.52501 4.14287 0
M  V30 1320 N 140.419 -1.14872 1.07899 0
M  V30 1321 C 141.665 -1.86064 0.806725 0
M  V30 1322 C 141.998 -1.82434 -0.665706 0
M  V30 1323 O 141.273 -1.25138 -1.48899 0
M  V30 1324 C 141.556 -3.34929 1.32267 0
M  V30 1325 C 141.409 -3.47161 2.86006 0
M  V30 1326 C 142.728 -4.29863 0.943717 0
M  V30 1327 H 139.847 -0.675591 0.294526 0
M  V30 1328 H 142.489 -1.34925 1.33773 0
M  V30 1329 H 140.639 -3.78611 0.870974 0
M  V30 1330 H 142.311 -3.12302 3.39507 0
M  V30 1331 H 140.554 -2.88539 3.23925 0
M  V30 1332 H 141.225 -4.51777 3.17177 0
M  V30 1333 H 143.701 -3.9417 1.33302 0
M  V30 1334 H 142.577 -5.32494 1.33198 0
M  V30 1335 H 142.838 -4.41846 -0.149796 0
M  V30 1336 N 141.898 -0.863906 -1.31812 0
M  V30 1337 C 142.861 -0.320212 -2.26952 0
M  V30 1338 C 143.861 0.525369 -1.51975 0
M  V30 1339 O 145.051 0.335547 -1.70938 0
M  V30 1340 C 142.183 0.545919 -3.365 0
M  V30 1341 H 143.376 -1.16004 -2.76556 0
M  V30 1342 H 140.929 -0.638995 -1.42641 0
M  V30 1343 H 141.664 1.40718 -2.92179 0
M  V30 1344 H 141.449 -0.0594674 -3.92055 0
M  V30 1345 H 142.939 0.918796 -4.07367 0
M  V30 1346 N 143.376 1.44774 -0.622745 0
M  V30 1347 C 144.601 2.06999 -0.128968 0
M  V30 1348 C 145.026 1.4617 1.1839 0
M  V30 1349 O 144.384 0.560007 1.72434 0
M  V30 1350 C 144.432 3.60595 -0.0188351 0
M  V30 1351 O 143.536 3.99398 1.02739 0
M  V30 1352 H 142.877 0.659047 -0.0809544 0
M  V30 1353 H 145.407 1.85784 -0.85705 0
M  V30 1354 H 145.417 4.07627 0.174476 0
M  V30 1355 H 144.092 4.04252 -0.977384 0
M  V30 1356 H 142.669 3.64011 0.809326 0
M  V30 1357 N 144.854 0.36279 1.53368 0
M  V30 1358 C 145.801 -0.485008 2.25646 0
M  V30 1359 C 146.771 -1.07982 1.2621 0
M  V30 1360 O 147.956 -1.11284 1.54986 0
M  V30 1361 C 145.096 -1.62023 3.04701 0
M  V30 1362 C 144.209 -1.05086 4.19024 0
M  V30 1363 C 143.344 -2.15496 4.85525 0
M  V30 1364 C 142.383 -1.5601 5.91884 0
M  V30 1365 N 141.52 -2.60241 6.52088 0
M  V30 1366 H 146.36 0.137864 2.97681 0
M  V30 1367 H 143.897 0.0798061 1.46883 0
M  V30 1368 H 145.855 -2.28887 3.48807 0
M  V30 1369 H 144.485 -2.2138 2.34927 0
M  V30 1370 H 143.537 -0.27259 3.79422 0
M  V30 1371 H 144.849 -0.575926 4.95464 0
M  V30 1372 H 144.003 -2.90186 5.32801 0
M  V30 1373 H 142.742 -2.66341 4.08551 0
M  V30 1374 H 141.747 -0.798338 5.43973 0
M  V30 1375 H 142.972 -1.05994 6.70777 0
M  V30 1376 H 140.918 -3.10304 5.77968 0
M  V30 1377 H 140.835 -2.17426 7.24059 0
M  V30 1378 H 142.103 -3.34641 7.04014 0
M  V30 1379 N 146.332 -1.57332 0.0918853 0
M  V30 1380 C 147.56 -1.98574 -0.581048 0
M  V30 1381 C 147.975 -0.970903 -1.61923 0
M  V30 1382 O 147.332 0.0399054 -1.82456 0
M  V30 1383 C 147.383 -3.39872 -1.23164 0
M  V30 1384 O 147.104 -4.37469 -0.234989 0
M  V30 1385 C 148.605 -3.96099 -1.99049 0
M  V30 1386 H 145.825 -0.65261 -0.156018 0
M  V30 1387 H 148.369 -2.0379 0.170225 0
M  V30 1388 H 146.524 -3.35679 -1.93386 0
M  V30 1389 H 146.938 -5.19751 -0.70418 0
M  V30 1390 H 148.412 -4.97127 -2.39934 0
M  V30 1391 H 148.889 -3.3374 -2.85507 0
M  V30 1392 H 149.495 -4.03755 -1.3365 0
M  V30 1393 N 147.81 0.181792 -1.56548 0
M  V30 1394 C 149.04 0.914618 -1.85252 0
M  V30 1395 C 149.448 1.76791 -0.673914 0
M  V30 1396 O 148.791 1.80009 0.366416 0
M  V30 1397 C 148.853 1.85019 -3.08234 0
M  V30 1398 C 148.517 1.17754 -4.41569 0
M  V30 1399 C 149.514 0.548035 -5.17003 0
M  V30 1400 C 147.199 1.17742 -4.88305 0
M  V30 1401 C 149.193 -0.0726128 -6.37359 0
M  V30 1402 C 146.88 0.552946 -6.08593 0
M  V30 1403 C 147.878 -0.070978 -6.82963 0
M  V30 1404 O 147.566 -0.685635 -8.00971 0
M  V30 1405 H 147.298 0.271695 -0.618998 0
M  V30 1406 H 149.852 0.189944 -2.0452 0
M  V30 1407 H 148.082 2.61491 -2.84885 0
M  V30 1408 H 149.771 2.45195 -3.23472 0
M  V30 1409 H 150.537 0.540174 -4.81982 0
M  V30 1410 H 146.416 1.65246 -4.30366 0
M  V30 1411 H 149.96 -0.560213 -6.95347 0
M  V30 1412 H 145.857 0.558354 -6.43081 0
M  V30 1413 H 146.625 -0.58385 -8.16415 0
M  V30 1414 N 149.288 1.51039 0.449983 0
M  V30 1415 C 150.236 1.71995 1.5659 0
M  V30 1416 C 151.23 0.586029 1.5894 0
M  V30 1417 O 152.436 0.76709 1.62837 0
M  V30 1418 H 148.811 0.543233 0.520001 0
M  V30 1419 H 150.782 2.65562 1.36085 0
M  V30 1420 C 149.531 1.8506 2.9436 0
M  V30 1421 H 148.854 2.71712 2.93279 0
M  V30 1422 H 150.294 2.0374 3.71842 0
M  V30 1423 C 148.753 0.607277 3.31382 0
M  V30 1424 O 149.283 -0.243903 4.00959 0
M  V30 1425 N 147.489 0.455073 2.87015 0
M  V30 1426 H 147.036 1.14879 2.30566 0
M  V30 1427 H 146.994 -0.375611 3.12148 0
M  V30 1428 N 150.766 -0.704594 1.40972 0
M  V30 1429 C 151.696 -1.83124 1.44872 0
M  V30 1430 C 152.677 -1.67281 0.30838 0
M  V30 1431 O 153.862 -1.87149 0.518556 0
M  V30 1432 C 150.992 -3.21181 1.32136 0
M  V30 1433 C 149.946 -3.51714 2.43888 0
M  V30 1434 C 149.272 -4.89032 2.16222 0
M  V30 1435 C 150.572 -3.516 3.86232 0
M  V30 1436 H 152.266 -1.80117 2.39161 0
M  V30 1437 H 149.812 -0.865145 1.15114 0
M  V30 1438 H 151.765 -3.99702 1.33479 0
M  V30 1439 H 150.489 -3.24791 0.343279 0
M  V30 1440 H 149.148 -2.75539 2.41813 0
M  V30 1441 H 148.796 -4.89256 1.16778 0
M  V30 1442 H 148.496 -5.10426 2.911 0
M  V30 1443 H 150.02 -5.69873 2.19265 0
M  V30 1444 H 151.434 -4.2014 3.9007 0
M  V30 1445 H 149.831 -3.84523 4.60719 0
M  V30 1446 H 150.901 -2.50757 4.15029 0
M  V30 1447 N 152.244 -1.26651 -0.937939 0
M  V30 1448 C 153.191 -1.0849 -2.03712 0
M  V30 1449 C 154.161 0.011033 -1.66096 0
M  V30 1450 O 155.346 -0.149353 -1.90215 0
M  V30 1451 C 152.486 -0.72735 -3.37348 0
M  V30 1452 C 151.599 -1.89986 -3.87981 0
M  V30 1453 C 150.734 -1.48513 -5.10017 0
M  V30 1454 C 149.773 -2.62575 -5.5292 0
M  V30 1455 N 148.91 -2.21762 -6.66158 0
M  V30 1456 H 153.75 -2.02551 -2.18579 0
M  V30 1457 H 151.287 -1.00844 -1.07093 0
M  V30 1458 H 153.245 -0.50092 -4.14182 0
M  V30 1459 H 151.875 0.176298 -3.22318 0
M  V30 1460 H 150.927 -2.23913 -3.07518 0
M  V30 1461 H 152.239 -2.75586 -4.15757 0
M  V30 1462 H 151.393 -1.21934 -5.94321 0
M  V30 1463 H 150.132 -0.60009 -4.83994 0
M  V30 1464 H 149.137 -2.8988 -4.67172 0
M  V30 1465 H 150.362 -3.51685 -5.80943 0
M  V30 1466 H 148.308 -1.35696 -6.41812 0
M  V30 1467 H 148.225 -3.00903 -6.93537 0
M  V30 1468 H 149.493 -1.98403 -7.53828 0
M  V30 1469 N 153.722 1.14298 -1.08507 0
M  V30 1470 C 154.669 2.19414 -0.715965 0
M  V30 1471 C 155.639 1.63399 0.298326 0
M  V30 1472 O 156.824 1.89929 0.182101 0
M  V30 1473 C 153.964 3.44845 -0.132534 0
M  V30 1474 C 153.077 4.15007 -1.19973 0
M  V30 1475 C 152.212 5.28024 -0.580048 0
M  V30 1476 C 151.251 5.9002 -1.62921 0
M  V30 1477 N 150.388 6.94485 -1.03125 0
M  V30 1478 H 155.228 2.50336 -1.61666 0
M  V30 1479 H 152.765 1.2293 -0.807882 0
M  V30 1480 H 154.723 4.16601 0.223454 0
M  V30 1481 H 153.353 3.14403 0.731467 0
M  V30 1482 H 152.405 3.41629 -1.67313 0
M  V30 1483 H 153.717 4.57178 -1.99473 0
M  V30 1484 H 152.871 6.06455 -0.172364 0
M  V30 1485 H 151.61 4.87076 0.246603 0
M  V30 1486 H 150.615 5.10291 -2.04654 0
M  V30 1487 H 151.84 6.33042 -2.45835 0
M  V30 1488 H 149.786 6.55612 -0.225711 0
M  V30 1489 H 149.703 7.35148 -1.76334 0
M  V30 1490 H 150.971 7.7679 -0.649458 0
M  V30 1491 N 155.201 0.870884 1.31352 0
M  V30 1492 C 156.449 0.48132 1.96285 0
M  V30 1493 C 156.77 -0.969813 1.69173 0
M  V30 1494 O 156.04 -1.67998 1.00764 0
M  V30 1495 H 154.62 0.175002 0.726212 0
M  V30 1496 H 157.282 1.11087 1.60143 0
M  V30 1497 H 156.378 0.639825 3.05471 0
M  V30 1498 N 156.679 -1.44442 0.630414 0
M  V30 1499 C 157.611 -2.2892 -0.113347 0
M  V30 1500 C 158.624 -1.41243 -0.80959 0
M  V30 1501 O 159.813 -1.65402 -0.671156 0
M  V30 1502 C 156.913 -3.17594 -1.18266 0
M  V30 1503 C 156.086 -4.33682 -0.569073 0
M  V30 1504 C 155.145 -5.03397 -1.53226 0
M  V30 1505 O 154.171 -5.59438 -1.04967 0
M  V30 1506 N 155.373 -5.04783 -2.86661 0
M  V30 1507 H 158.138 -2.93392 0.611636 0
M  V30 1508 H 155.699 -1.54881 0.471523 0
M  V30 1509 H 157.691 -3.61097 -1.82732 0
M  V30 1510 H 156.261 -2.54876 -1.80988 0
M  V30 1511 H 155.481 -3.9338 0.254187 0
M  V30 1512 H 156.769 -5.08608 -0.139767 0
M  V30 1513 H 156.167 -4.60584 -3.28449 0
M  V30 1514 H 154.724 -5.52077 -3.46489 0
M  V30 1515 N 158.157 -0.370918 -1.53173 0
M  V30 1516 C 159.385 0.217704 -2.05751 0
M  V30 1517 C 159.8 1.42018 -1.24404 0
M  V30 1518 O 159.157 1.80245 -0.286033 0
M  V30 1519 C 159.208 0.605954 -3.56385 0
M  V30 1520 O 158.929 -0.548734 -4.3465 0
M  V30 1521 C 160.43 1.2524 -4.25241 0
M  V30 1522 H 157.65 0.0371659 -0.66997 0
M  V30 1523 H 160.194 -0.530832 -1.9749 0
M  V30 1524 H 158.349 1.3044 -3.6478 0
M  V30 1525 H 158.763 -0.23376 -5.23979 0
M  V30 1526 H 160.237 1.47458 -5.3194 0
M  V30 1527 H 160.714 2.2143 -3.79296 0
M  V30 1528 H 161.32 0.595233 -4.21114 0
M  V30 1529 N 159.635 1.57281 -0.100228 0
M  V30 1530 C 160.585 2.10848 0.86759 0
M  V30 1531 C 161.569 1.02473 1.24049 0
M  V30 1532 O 162.761 1.28739 1.21471 0
M  V30 1533 C 159.89 2.69648 2.12474 0
M  V30 1534 C 158.976 3.85074 1.77704 0
M  V30 1535 N 159.367 4.92897 1.13518 0
M  V30 1536 C 157.665 3.94905 2.07282 0
M  V30 1537 C 158.366 5.73475 0.974735 0
M  V30 1538 N 157.342 5.22675 1.4937 0
M  V30 1539 H 161.144 2.91594 0.367471 0
M  V30 1540 H 158.658 1.62074 0.102829 0
M  V30 1541 H 160.655 3.06356 2.82757 0
M  V30 1542 H 159.315 1.90359 2.63047 0
M  V30 1543 H 160.326 5.11662 0.801381 0
M  V30 1544 H 157.003 3.26633 2.60033 0
M  V30 1545 H 158.393 6.70238 0.472364 0
M  V30 1546 N 161.113 -0.173488 1.56642 0
M  V30 1547 C 162.341 -0.906095 1.86004 0
M  V30 1548 C 162.756 -1.75921 0.685355 0
M  V30 1549 O 162.113 -1.79198 -0.345578 0
M  V30 1550 C 162.164 -1.78462 3.14378 0
M  V30 1551 O 161.885 -0.965914 4.27319 0
M  V30 1552 C 163.386 -2.62707 3.57071 0
M  V30 1553 H 160.606 -0.263341 0.617165 0
M  V30 1554 H 163.15 -0.174236 2.03756 0
M  V30 1555 H 161.305 -2.46984 2.98459 0
M  V30 1556 H 161.719 -1.56655 5.00559 0
M  V30 1557 H 163.193 -3.19969 4.49804 0
M  V30 1558 H 163.67 -3.37472 2.81086 0
M  V30 1559 H 164.276 -1.99521 3.75595 0
M  V30 1560 N 162.591 -1.51276 -0.441967 0
M  V30 1561 C 163.521 -1.752 -1.54361 0
M  V30 1562 C 164.502 -0.601682 -1.59103 0
M  V30 1563 O 165.687 -0.843913 -1.74905 0
M  V30 1564 C 162.817 -1.87282 -2.92477 0
M  V30 1565 C 161.771 -3.02687 -3.02596 0
M  V30 1566 C 161.097 -2.99947 -4.42647 0
M  V30 1567 C 162.397 -4.4273 -2.77106 0
M  V30 1568 H 164.091 -2.67442 -1.34592 0
M  V30 1569 H 161.637 -1.28694 -0.646048 0
M  V30 1570 H 163.59 -2.02602 -3.695 0
M  V30 1571 H 162.314 -0.916844 -3.13467 0
M  V30 1572 H 160.973 -2.87065 -2.28012 0
M  V30 1573 H 160.621 -2.02136 -4.60597 0
M  V30 1574 H 160.321 -3.77439 -4.50348 0
M  V30 1575 H 161.845 -3.17354 -5.2165 0
M  V30 1576 H 163.259 -4.58727 -3.43864 0
M  V30 1577 H 161.656 -5.21893 -2.96222 0
M  V30 1578 H 162.726 -4.53087 -1.72744 0
M  V30 1579 N 164.069 0.697108 -1.41344 0
M  V30 1580 C 164.979 1.84088 -1.45427 0
M  V30 1581 C 165.995 1.70545 -0.34501 0
M  V30 1582 O 167.171 1.92488 -0.592492 0
M  V30 1583 C 164.236 3.20056 -1.33286 0
M  V30 1584 C 163.297 3.45718 -2.54514 0
M  V30 1585 C 162.53 4.75199 -2.42944 0
M  V30 1586 O 162.753 5.51579 -1.45318 0
M  V30 1587 O 161.687 5.0161 -3.32672 0
M  V30 1588 H 165.513 1.836 -2.41919 0
M  V30 1589 H 163.098 0.849966 -1.22866 0
M  V30 1590 H 164.98 4.01236 -1.28794 0
M  V30 1591 H 163.655 3.2123 -0.39909 0
M  V30 1592 H 162.562 2.64474 -2.64583 0
M  V30 1593 H 163.895 3.49356 -3.46715 0
M  V30 1594 N 165.547 1.27147 0.931209 0
M  V30 1595 C 166.824 1.0401 1.65654 0
M  V30 1596 C 167.204 -0.426297 2.06751 0
M  V30 1597 O 166.552 -1.40879 1.79904 0
M  V30 1598 C 166.762 1.99834 2.86125 0
M  V30 1599 C 168.11 2.29007 3.57549 0
M  V30 1600 O 169.134 1.97779 2.96246 0
M  V30 1601 O 167.993 2.82222 4.67989 0
M  V30 1602 H 165.087 0.396239 0.725895 0
M  V30 1603 H 167.633 1.38397 0.982056 0
M  V30 1604 H 166.405 2.98744 2.52721 0
M  V30 1605 H 166.028 1.65987 3.61295 0
M  V30 1606 N 167.025 -1.13721 1.09112 0
M  V30 1607 C 168.272 -1.84924 0.825192 0
M  V30 1608 C 168.6 -1.83347 -0.649151 0
M  V30 1609 O 167.855 -1.26449 -1.49362 0
M  V30 1610 C 168.154 -3.32861 1.30146 0
M  V30 1611 C 167.82 -3.54621 2.78486 0
M  V30 1612 C 166.482 -3.60268 3.18999 0
M  V30 1613 C 168.834 -3.62855 3.74146 0
M  V30 1614 C 166.162 -3.71679 4.53951 0
M  V30 1615 C 168.514 -3.75793 5.08883 0
M  V30 1616 C 167.178 -3.79692 5.4899 0
M  V30 1617 H 166.448 -0.676684 0.301959 0
M  V30 1618 H 169.095 -1.3428 1.36533 0
M  V30 1619 H 167.4 -3.85835 0.681064 0
M  V30 1620 H 169.097 -3.86395 1.07236 0
M  V30 1621 H 165.687 -3.50879 2.46134 0
M  V30 1622 H 169.871 -3.57775 3.43963 0
M  V30 1623 H 165.127 -3.72963 4.84467 0
M  V30 1624 H 169.301 -3.81107 5.82864 0
M  V30 1625 H 166.928 -3.88287 6.53558 0
M  V30 1626 N 168.503 -0.877838 -1.30888 0
M  V30 1627 C 169.435 -0.296607 -2.27273 0
M  V30 1628 C 170.448 0.544799 -1.53414 0
M  V30 1629 O 171.637 0.365511 -1.74718 0
M  V30 1630 C 168.737 0.597481 -3.33592 0
M  V30 1631 C 167.91 -0.213251 -4.3688 0
M  V30 1632 C 166.969 0.610208 -5.2265 0
M  V30 1633 O 165.995 0.035441 -5.69189 0
M  V30 1634 N 167.197 1.92071 -5.47804 0
M  V30 1635 H 169.962 -1.12492 -2.77787 0
M  V30 1636 H 167.523 -0.740105 -1.43993 0
M  V30 1637 H 169.515 1.15425 -3.87891 0
M  V30 1638 H 168.085 1.32647 -2.83061 0
M  V30 1639 H 167.305 -0.951466 -3.82545 0
M  V30 1640 H 168.593 -0.769262 -5.02951 0
M  V30 1641 H 167.991 2.4107 -5.11763 0
M  V30 1642 H 166.548 2.42508 -6.05007 0
M  V30 1643 N 169.982 1.44106 -0.638065 0
M  V30 1644 C 171.398 1.56672 -0.304286 0
M  V30 1645 C 171.598 1.6244 1.19228 0
M  V30 1646 O 170.654 1.57121 1.9766 0
M  V30 1647 C 171.967 2.83503 -1.00231 0
M  V30 1648 C 173.515 2.97226 -0.981116 0
M  V30 1649 C 173.99 4.26868 -1.65974 0
M  V30 1650 N 175.481 4.33698 -1.62666 0
M  V30 1651 C 176.216 5.32745 -2.12063 0
M  V30 1652 N 175.712 6.38157 -2.6968 0
M  V30 1653 N 177.505 5.24299 -2.02651 0
M  V30 1654 H 169.656 1.38605 -1.60942 0
M  V30 1655 H 171.919 0.664661 -0.675965 0
M  V30 1656 H 171.625 2.85251 -2.0573 0
M  V30 1657 H 171.499 3.73251 -0.54439 0
M  V30 1658 H 173.886 2.95027 0.0654188 0
M  V30 1659 H 173.967 2.08808 -1.47759 0
M  V30 1660 H 173.611 4.29826 -2.70576 0
M  V30 1661 H 173.541 5.14156 -1.13804 0
M  V30 1662 H 176.032 3.58138 -1.20606 0
M  V30 1663 H 176.345 7.10029 -3.05087 0
M  V30 1664 H 174.69 6.38823 -2.73734 0
M  V30 1665 H 177.881 4.4086 -1.57353 0
M  V30 1666 H 178.054 6.01334 -2.41457 0
M  V30 1667 N 171.46 0.379036 1.52974 0
M  V30 1668 C 172.706 -0.206727 2.01744 0
M  V30 1669 C 173.039 -1.47314 1.26539 0
M  V30 1670 O 172.314 -1.91084 0.362903 0
M  V30 1671 C 172.597 -0.485066 3.56818 0
M  V30 1672 C 172.45 0.795919 4.42702 0
M  V30 1673 C 173.769 -1.28003 4.21074 0
M  V30 1674 H 170.888 -0.0736607 0.73331 0
M  V30 1675 H 173.53 0.506581 1.83122 0
M  V30 1676 H 171.68 -1.09272 3.72816 0
M  V30 1677 H 173.352 1.43307 4.38476 0
M  V30 1678 H 171.595 1.41344 4.10127 0
M  V30 1679 H 172.266 0.555947 5.49193 0
M  V30 1680 H 174.742 -0.765867 4.08991 0
M  V30 1681 H 173.618 -1.44352 5.29579 0
M  V30 1682 H 173.879 -2.29236 3.78026 0
M  V30 1683 N 172.938 -1.57226 0.108567 0
M  V30 1684 C 173.868 -2.17778 -0.84232 0
M  V30 1685 C 174.849 -1.11487 -1.2847 0
M  V30 1686 O 176.034 -1.39681 -1.34918 0
M  V30 1687 C 173.164 -2.76888 -2.09644 0
M  V30 1688 C 172.118 -3.88669 -1.79221 0
M  V30 1689 C 171.444 -4.34541 -3.11574 0
M  V30 1690 C 172.744 -5.11251 -1.06864 0
M  V30 1691 H 174.438 -2.97489 -0.337774 0
M  V30 1692 H 171.984 -1.43097 -0.161025 0
M  V30 1693 H 173.937 -3.17904 -2.76614 0
M  V30 1694 H 172.661 -1.94451 -2.62405 0
M  V30 1695 H 171.32 -3.48213 -1.14644 0
M  V30 1696 H 170.968 -3.48977 -3.62249 0
M  V30 1697 H 170.668 -5.09914 -2.91996 0
M  V30 1698 H 172.192 -4.782 -3.7968 0
M  V30 1699 H 173.606 -5.49352 -1.63968 0
M  V30 1700 H 172.003 -5.9214 -0.974178 0
M  V30 1701 H 173.073 -4.8487 -0.0536168 0
M  V30 1702 N 174.416 0.165178 -1.56732 0
M  V30 1703 C 175.693 0.908443 -1.73224 0
M  V30 1704 C 176.073 2.0013 -0.67165 0
M  V30 1705 O 175.421 2.26353 0.31253 0
M  V30 1706 C 175.631 1.46756 -3.16644 0
M  V30 1707 C 176.979 1.93809 -3.77787 0
M  V30 1708 O 178.003 1.56537 -3.1996 0
M  V30 1709 O 176.862 2.62486 -4.79336 0
M  V30 1710 H 173.956 0.428025 -0.707618 0
M  V30 1711 H 176.502 0.152526 -1.69013 0
M  V30 1712 H 175.274 0.68129 -3.85323 0
M  V30 1713 H 174.897 2.28749 -3.25207 0
M  V30 1714 N 175.894 1.51508 0.433938 0
M  V30 1715 C 177.14 1.64588 1.18484 0
M  V30 1716 C 177.473 0.362666 1.90784 0
M  V30 1717 O 176.748 -0.637892 1.83742 0
M  V30 1718 C 177.031 2.85149 2.19913 0
M  V30 1719 C 176.884 4.23456 1.51674 0
M  V30 1720 C 178.203 3.01227 3.20858 0
M  V30 1721 H 175.322 0.598994 0.429389 0
M  V30 1722 H 177.964 1.84002 0.473647 0
M  V30 1723 H 176.114 2.68729 2.80566 0
M  V30 1724 H 177.786 4.51552 0.943322 0
M  V30 1725 H 176.029 4.25998 0.819035 0
M  V30 1726 H 176.7 5.03812 2.2556 0
M  V30 1727 H 179.176 3.16382 2.70263 0
M  V30 1728 H 178.052 3.87141 3.89118 0
M  V30 1729 H 178.313 2.13447 3.8716 0
M  V30 1730 N 177.372 -0.689602 1.41712 0
M  V30 1731 C 178.32 -1.82475 1.44242 0
M  V30 1732 C 179.314 -1.66354 0.319774 0
M  V30 1733 O 180.52 -1.73143 0.492089 0
M  V30 1734 H 176.895 -0.601416 0.451445 0
M  V30 1735 H 178.866 -1.77458 2.39899 0
M  V30 1736 C 177.615 -3.20535 1.3473 0
M  V30 1737 H 176.938 -3.33559 2.20405 0
M  V30 1738 H 178.378 -4.00023 1.40562 0
M  V30 1739 C 176.837 -3.36846 0.0603281 0
M  V30 1740 O 177.367 -3.91656 -0.892663 0
M  V30 1741 N 175.573 -2.90595 -0.0177039 0
M  V30 1742 H 175.12 -2.46178 0.758572 0
M  V30 1743 H 175.078 -3.01886 -0.878201 0
M  V30 1744 N 178.85 -1.27639 -0.924453 0
M  V30 1745 C 179.78 -1.13166 -2.04244 0
M  V30 1746 C 180.761 -0.032256 -1.70069 0
M  V30 1747 O 181.946 -0.207328 -1.9309 0
M  V30 1748 C 179.076 -0.781496 -3.38393 0
M  V30 1749 C 178.03 -1.83449 -3.86692 0
M  V30 1750 C 177.356 -1.33822 -5.17683 0
M  V30 1751 C 178.656 -3.23917 -4.09726 0
M  V30 1752 H 180.35 -2.06689 -2.1661 0
M  V30 1753 H 177.896 -0.995136 -1.04082 0
M  V30 1754 H 179.849 -0.667057 -4.16087 0
M  V30 1755 H 178.573 0.189439 -3.2605 0
M  V30 1756 H 177.232 -1.93789 -3.11193 0
M  V30 1757 H 176.88 -0.35665 -5.01734 0
M  V30 1758 H 176.58 -2.04224 -5.50968 0
M  V30 1759 H 178.104 -1.23679 -5.97943 0
M  V30 1760 H 179.518 -3.16559 -4.77978 0
M  V30 1761 H 177.915 -3.92059 -4.54324 0
M  V30 1762 H 178.985 -3.68729 -3.14908 0
M  V30 1763 N 180.328 1.1314 -1.09713 0
M  V30 1764 C 181.261 2.17735 -0.683137 0
M  V30 1765 C 182.239 1.59582 0.311841 0
M  V30 1766 O 183.423 1.87298 0.212514 0
M  V30 1767 C 180.55 3.38699 -0.00684324 0
M  V30 1768 C 179.596 4.1546 -0.964102 0
M  V30 1769 S 180.429 4.74733 -2.47767 0
M  V30 1770 C 181.585 5.9904 -1.81387 0
M  V30 1771 H 181.818 2.52515 -1.56918 0
M  V30 1772 H 179.351 1.24484 -0.913404 0
M  V30 1773 H 181.309 4.08765 0.377044 0
M  V30 1774 H 179.97 3.02214 0.85589 0
M  V30 1775 H 179.163 5.02093 -0.43803 0
M  V30 1776 H 178.765 3.51066 -1.28953 0
M  V30 1777 H 181.057 6.67846 -1.13967 0
M  V30 1778 H 182 6.56261 -2.65947 0
M  V30 1779 H 182.408 5.4976 -1.28155 0
M  V30 1780 N 181.806 0.884767 1.30421 0
M  V30 1781 C 183.054 0.502112 1.95763 0
M  V30 1782 C 183.375 -0.951815 1.70192 0
M  V30 1783 O 182.645 -1.6692 1.0254 0
M  V30 1784 H 181.225 0.182694 0.724315 0
M  V30 1785 H 183.887 1.1278 1.58955 0
M  V30 1786 H 182.983 0.672188 3.04775 0
M  V30 1787 N 183.284 -1.43765 0.645699 0
M  V30 1788 C 184.512 -2.06253 0.163556 0
M  V30 1789 C 184.927 -1.48352 -1.16778 0
M  V30 1790 O 184.284 -0.611932 -1.71935 0
M  V30 1791 C 184.335 -3.61453 0.0583186 0
M  V30 1792 O 184.056 -4.172 1.33702 0
M  V30 1793 C 185.557 -4.41002 -0.450795 0
M  V30 1794 H 182.777 -0.665413 0.0864077 0
M  V30 1795 H 185.321 -1.84396 0.884222 0
M  V30 1796 H 183.476 -3.82522 -0.612865 0
M  V30 1797 H 183.89 -5.10791 1.19131 0
M  V30 1798 H 185.364 -5.49966 -0.473403 0
M  V30 1799 H 185.841 -4.13488 -1.48068 0
M  V30 1800 H 186.447 -4.24886 0.187637 0
M  V30 1801 N 184.763 -0.387143 -1.52771 0
M  V30 1802 C 186.01 0.195735 -2.01552 0
M  V30 1803 C 186.338 1.46995 -1.27369 0
M  V30 1804 O 185.593 1.92325 -0.361879 0
M  V30 1805 C 185.892 0.512209 -3.53711 0
M  V30 1806 C 185.558 -0.670202 -4.45891 0
M  V30 1807 C 184.22 -0.994586 -4.70809 0
M  V30 1808 C 186.572 -1.46134 -5.00294 0
M  V30 1809 C 183.9 -2.11169 -5.4738 0
M  V30 1810 C 186.252 -2.56903 -5.78086 0
M  V30 1811 C 184.916 -2.89852 -6.01284 0
M  V30 1812 H 184.186 0.0716246 -0.73753 0
M  V30 1813 H 186.833 -0.524046 -1.8419 0
M  V30 1814 H 185.138 1.31329 -3.69134 0
M  V30 1815 H 186.835 0.975804 -3.88946 0
M  V30 1816 H 183.425 -0.407366 -4.2666 0
M  V30 1817 H 187.609 -1.22397 -4.80971 0
M  V30 1818 H 182.865 -2.3707 -5.63567 0
M  V30 1819 H 187.039 -3.18608 -6.19243 0
M  V30 1820 H 184.666 -3.76533 -6.60399 0
M  V30 1821 N 186.241 1.57166 -0.116904 0
M  V30 1822 C 187.189 2.16457 0.851418 0
M  V30 1823 C 188.183 1.11323 1.27686 0
M  V30 1824 O 189.389 1.2963 1.24884 0
M  V30 1825 H 185.764 0.69271 0.292672 0
M  V30 1826 H 187.735 2.96605 0.32685 0
M  V30 1827 C 186.484 2.77689 2.09246 0
M  V30 1828 H 185.807 3.58285 1.77402 0
M  V30 1829 H 187.247 3.22716 2.7501 0
M  V30 1830 C 185.706 1.74667 2.88085 0
M  V30 1831 O 186.236 1.19877 3.83396 0
M  V30 1832 N 184.442 1.44656 2.52038 0
M  V30 1833 H 183.989 1.89402 1.74599 0
M  V30 1834 H 183.947 0.759675 3.05084 0
M  V30 1835 N 187.719 -0.156864 1.56817 0
M  V30 1836 C 188.965 -0.872416 1.83076 0
M  V30 1837 C 189.298 -1.81261 0.697001 0
M  V30 1838 O 188.573 -1.92171 -0.30008 0
M  V30 1839 C 188.856 -1.65551 3.19789 0
M  V30 1840 C 188.709 -0.737467 4.43713 0
M  V30 1841 C 190.028 -2.62012 3.53606 0
M  V30 1842 H 187.147 -0.315715 0.665953 0
M  V30 1843 H 189.789 -0.138004 1.89498 0
M  V30 1844 H 187.939 -2.28159 3.14445 0
M  V30 1845 H 189.611 -0.123143 4.61136 0
M  V30 1846 H 187.854 -0.0464067 4.33775 0
M  V30 1847 H 188.525 -1.32122 5.35955 0
M  V30 1848 H 191.001 -2.09525 3.59497 0
M  V30 1849 H 189.877 -3.13861 4.50314 0
M  V30 1850 H 190.138 -3.42902 2.79053 0
M  V30 1851 N 189.197 -1.51736 -0.425897 0
M  V30 1852 C 190.446 -1.64201 -1.17136 0
M  V30 1853 C 190.759 -0.369705 -1.92074 0
M  V30 1854 O 191.965 -0.373898 -2.68913 0
M  V30 1855 C 190.421 -2.90035 -2.13091 0
M  V30 1856 C 190.029 -4.24312 -1.43747 0
M  V30 1857 C 191.773 -3.1186 -2.87999 0
M  V30 1858 C 189.68 -5.41285 -2.38253 0
M  V30 1859 H 188.61 -0.611624 -0.440944 0
M  V30 1860 H 191.261 -1.78212 -0.437328 0
M  V30 1861 H 189.643 -2.69684 -2.89977 0
M  V30 1862 H 190.817 -4.55086 -0.723408 0
M  V30 1863 H 189.132 -4.08456 -0.809465 0
M  V30 1864 H 191.729 -3.96427 -3.58817 0
M  V30 1865 H 192.072 -2.25403 -3.49999 0
M  V30 1866 H 192.605 -3.32605 -2.18217 0
M  V30 1867 H 189.344 -6.30037 -1.80925 0
M  V30 1868 H 188.864 -5.14872 -3.0768 0
M  V30 1869 H 190.543 -5.73694 -2.99139 0
M  V30 1870 N 190.675 0.682077 -1.42076 0
M  V30 1871 C 192.091 0.994324 -1.24841 0
M  V30 1872 C 192.291 2.0096 -0.147389 0
M  V30 1873 O 191.347 2.47822 0.483782 0
M  V30 1874 C 192.66 1.50607 -2.60265 0
M  V30 1875 C 194.208 1.62421 -2.6756 0
M  V30 1876 C 194.683 2.16994 -4.03333 0
M  V30 1877 N 196.174 2.24337 -4.0525 0
M  V30 1878 C 196.909 2.67621 -5.07116 0
M  V30 1879 N 196.405 3.1041 -6.19368 0
M  V30 1880 N 198.198 2.67305 -4.94474 0
M  V30 1881 H 190.349 0.00973908 -2.12398 0
M  V30 1882 H 192.612 0.0668593 -0.945639 0
M  V30 1883 H 192.318 0.834583 -3.41654 0
M  V30 1884 H 192.192 2.48602 -2.83684 0
M  V30 1885 H 194.579 2.28678 -1.86521 0
M  V30 1886 H 194.66 0.629352 -2.47937 0
M  V30 1887 H 194.304 1.51349 -4.84826 0
M  V30 1888 H 194.234 3.17258 -4.20304 0
M  V30 1889 H 196.725 1.94158 -3.24209 0
M  V30 1890 H 197.038 3.42103 -6.92954 0
M  V30 1891 H 195.383 3.08286 -6.22884 0
M  V30 1892 H 198.574 2.33233 -4.05857 0
M  V30 1893 H 198.747 3.00718 -5.73997 0
M  V30 1894 N 192.153 1.28127 0.917671 0
M  V30 1895 C 193.083 1.14248 2.03641 0
M  V30 1896 C 194.064 0.0412748 1.7005 0
M  V30 1897 O 195.249 0.217566 1.92977 0
M  V30 1898 C 192.379 0.799431 3.37974 0
M  V30 1899 C 191.333 1.85497 3.85713 0
M  V30 1900 C 190.659 1.36565 5.16966 0
M  V30 1901 C 191.959 3.26085 4.08002 0
M  V30 1902 H 193.653 2.07835 2.15511 0
M  V30 1903 H 191.199 1.00064 1.03553 0
M  V30 1904 H 193.152 0.689114 4.15727 0
M  V30 1905 H 191.876 -0.172145 3.26146 0
M  V30 1906 H 190.535 1.95437 3.10161 0
M  V30 1907 H 190.183 0.383253 5.01538 0
M  V30 1908 H 189.883 2.07143 5.49878 0
M  V30 1909 H 191.407 1.26848 5.97279 0
M  V30 1910 H 192.821 3.19089 4.76293 0
M  V30 1911 H 191.218 3.94462 4.52238 0
M  V30 1912 H 192.288 3.70394 3.12948 0
M  V30 1913 N 193.631 -1.12557 1.10312 0
M  V30 1914 C 194.877 -1.84311 0.846011 0
M  V30 1915 C 195.21 -1.83805 -0.626859 0
M  V30 1916 O 194.485 -1.28268 -1.46211 0
M  V30 1917 C 194.768 -3.32048 1.39341 0
M  V30 1918 C 194.621 -3.41016 2.93305 0
M  V30 1919 C 195.94 -4.27764 1.03468 0
M  V30 1920 H 193.059 -0.669192 0.30879 0
M  V30 1921 H 195.701 -1.32057 1.36605 0
M  V30 1922 H 193.851 -3.76678 0.951087 0
M  V30 1923 H 195.523 -3.05031 3.46055 0
M  V30 1924 H 193.766 -2.81603 3.29973 0
M  V30 1925 H 194.437 -4.44948 3.26689 0
M  V30 1926 H 196.913 -3.91253 1.41633 0
M  V30 1927 H 195.789 -5.29549 1.44463 0
M  V30 1928 H 196.05 -4.42064 -0.0560404 0
M  V30 1929 N 195.109 -0.891671 -1.2995 0
M  V30 1930 C 196.072 -0.36828 -2.26222 0
M  V30 1931 C 197.072 0.493014 -1.53056 0
M  V30 1932 O 198.262 0.299213 -1.71611 0
M  V30 1933 C 195.394 0.47442 -3.37583 0
M  V30 1934 H 196.587 -1.21844 -2.74033 0
M  V30 1935 H 194.14 -0.669107 -1.41254 0
M  V30 1936 H 194.875 1.34489 -2.95099 0
M  V30 1937 H 194.66 -0.142615 -3.91841 0
M  V30 1938 H 196.15 0.83218 -4.09224 0
M  V30 1939 N 196.587 1.43421 -0.653314 0
M  V30 1940 C 197.835 2.01414 -0.166415 0
M  V30 1941 C 198.156 1.51803 1.22397 0
M  V30 1942 O 197.426 0.730693 1.81763 0
M  V30 1943 H 196.006 0.744703 -0.0585319 0
M  V30 1944 H 198.668 1.75629 -0.845003 0
M  V30 1945 H 197.764 3.11734 -0.151111 0
M  V30 1946 N 198.065 0.39524 1.52563 0
M  V30 1947 C 198.975 -0.444232 2.30356 0
M  V30 1948 C 199.991 -1.06615 1.37511 0
M  V30 1949 O 201.167 -1.07067 1.70583 0
M  V30 1950 C 198.232 -1.55315 3.09964 0
M  V30 1951 C 197.293 -0.955734 4.18526 0
M  V30 1952 C 196.526 -2.01181 4.9433 0
M  V30 1953 O 196.749 -3.22781 4.70285 0
M  V30 1954 O 195.683 -1.62579 5.79527 0
M  V30 1955 H 199.509 0.189667 3.03107 0
M  V30 1956 H 197.094 0.1588 1.48554 0
M  V30 1957 H 198.976 -2.19724 3.59582 0
M  V30 1958 H 197.651 -2.17191 2.4002 0
M  V30 1959 H 196.558 -0.274743 3.7309 0
M  V30 1960 H 197.891 -0.381109 4.90722 0
M  V30 1961 N 199.544 -1.57102 0.125237 0
M  V30 1962 C 200.477 -2.11371 -0.860094 0
M  V30 1963 C 201.455 -1.03168 -1.25679 0
M  V30 1964 O 202.639 -1.30862 -1.35674 0
M  V30 1965 C 199.766 -2.61555 -2.1519 0
M  V30 1966 C 198.812 -3.81701 -1.9028 0
M  V30 1967 S 199.645 -5.23797 -1.11343 0
M  V30 1968 C 200.801 -5.77353 -2.41689 0
M  V30 1969 H 201.034 -2.94617 -0.39852 0
M  V30 1970 H 198.567 -1.54145 -0.0886555 0
M  V30 1971 H 200.525 -2.91122 -2.89411 0
M  V30 1972 H 199.186 -1.78479 -2.58465 0
M  V30 1973 H 198.379 -4.14985 -2.86014 0
M  V30 1974 H 197.981 -3.52783 -1.24178 0
M  V30 1975 H 200.273 -5.87458 -3.37489 0
M  V30 1976 H 201.216 -6.75323 -2.12942 0
M  V30 1977 H 201.624 -5.05457 -2.51342 0
M  V30 1978 N 201.022 0.148545 -1.56898 0
M  V30 1979 C 202.27 0.859717 -1.82902 0
M  V30 1980 C 202.591 1.81775 -0.70588 0
M  V30 1981 O 201.861 1.93994 0.272586 0
M  V30 1982 H 200.441 0.320469 -0.674766 0
M  V30 1983 H 203.103 0.142918 -1.94375 0
M  V30 1984 H 202.199 1.4229 -2.77777 0
M  V30 1985 N 202.5 1.5196 0.417844 0
M  V30 1986 C 203.432 1.70895 1.52733 0
M  V30 1987 C 204.445 0.589405 1.51756 0
M  V30 1988 O 205.634 0.864312 1.56179 0
M  V30 1989 C 202.734 1.72627 2.91639 0
M  V30 1990 C 201.907 3.01479 3.16905 0
M  V30 1991 C 200.966 2.95139 4.35637 0
M  V30 1992 O 199.992 3.69059 4.3334 0
M  V30 1993 N 201.194 2.12328 5.40275 0
M  V30 1994 H 203.959 2.66612 1.36888 0
M  V30 1995 H 201.52 1.50089 0.607037 0
M  V30 1996 H 203.512 1.65928 3.6912 0
M  V30 1997 H 202.082 0.844216 3.00985 0
M  V30 1998 H 201.302 3.21895 2.27546 0
M  V30 1999 H 202.59 3.86736 3.30625 0
M  V30 2000 H 201.988 1.51685 5.44985 0
M  V30 2001 H 200.545 2.11494 6.16534 0
M  V30 2002 N 203.978 -0.674533 1.42435 0
M  V30 2003 C 204.926 -1.80934 1.46169 0
M  V30 2004 C 205.92 -1.66006 0.3374 0
M  V30 2005 O 207.126 -1.72611 0.510425 0
M  V30 2006 H 203.501 -0.596594 0.457798 0
M  V30 2007 H 205.472 -1.74903 2.41767 0
M  V30 2008 C 204.221 -3.19088 1.38123 0
M  V30 2009 H 203.544 -3.31203 2.23931 0
M  V30 2010 H 204.984 -3.9851 1.44797 0
M  V30 2011 C 203.443 -3.36763 0.0960517 0
M  V30 2012 O 203.973 -3.92581 -0.851073 0
M  V30 2013 N 202.179 -2.90597 0.0131186 0
M  V30 2014 H 201.726 -2.45359 0.784639 0
M  V30 2015 H 201.684 -3.028 -0.846133 0
M  V30 2016 N 205.456 -1.28612 -0.910864 0
M  V30 2017 C 206.366 -1.14643 -2.0468 0
M  V30 2018 C 207.382 -0.0723121 -1.7385 0
M  V30 2019 O 208.558 -0.282178 -1.99413 0
M  V30 2020 C 205.623 -0.812561 -3.37044 0
M  V30 2021 C 204.684 -1.96935 -3.81465 0
M  V30 2022 C 203.917 -1.65131 -5.07511 0
M  V30 2023 O 204.14 -0.567013 -5.67575 0
M  V30 2024 O 203.074 -2.49585 -5.47714 0
M  V30 2025 H 206.9 -2.1001 -2.19384 0
M  V30 2026 H 204.485 -1.07958 -1.03274 0
M  V30 2027 H 206.367 -0.640441 -4.16505 0
M  V30 2028 H 205.042 0.111426 -3.23508 0
M  V30 2029 H 203.949 -2.19664 -3.02818 0
M  V30 2030 H 205.282 -2.87414 -3.99567 0
M  V30 2031 N 206.934 1.1197 -1.10907 0
M  V30 2032 C 208.345 1.65114 -0.871446 0
M  V30 2033 C 208.696 1.86885 0.597353 0
M  V30 2034 O 207.821 1.59896 1.45816 0
M  V30 2035 C 208.416 2.99944 -1.5754 0
M  V30 2036 C 206.975 3.50018 -1.38435 0
M  V30 2037 C 206.122 2.24941 -1.62164 0
M  V30 2038 H 209.073 0.956851 -1.2661 0
M  V30 2039 H 209.094 3.66651 -1.01721 0
M  V30 2040 H 208.606 2.84067 -2.64438 0
M  V30 2041 H 206.707 3.71071 -0.337214 0
M  V30 2042 H 206.82 4.29165 -2.12965 0
M  V30 2043 H 205.184 2.3229 -1.04467 0
M  V30 2044 H 205.967 2.11612 -2.70324 0
M  V30 2045 N 208.412 0.89855 1.29475 0
M  V30 2046 C 209.689 0.443416 1.90508 0
M  V30 2047 C 210.069 -1.07685 1.81569 0
M  V30 2048 O 209.417 -1.9182 1.24166 0
M  V30 2049 C 209.627 0.956708 3.35631 0
M  V30 2050 C 210.975 0.999728 4.12663 0
M  V30 2051 O 211.999 0.904299 3.4453 0
M  V30 2052 O 210.858 1.14289 5.34416 0
M  V30 2053 H 207.952 0.138025 0.815401 0
M  V30 2054 H 210.498 0.98834 1.37949 0
M  V30 2055 H 209.27 2.00067 3.36287 0
M  V30 2056 H 208.893 0.391728 3.95666 0
M  V30 2057 N 209.89 -1.43072 0.660911 0
M  V30 2058 C 210.822 -2.29108 -0.0647641 0
M  V30 2059 C 211.835 -1.42928 -0.779448 0
M  V30 2060 O 213.024 -1.66788 -0.635921 0
M  V30 2061 C 210.124 -3.20032 -1.11503 0
M  V30 2062 C 209.297 -4.34792 -0.476955 0
M  V30 2063 C 208.356 -5.06534 -1.42513 0
M  V30 2064 O 207.382 -5.61538 -0.930771 0
M  V30 2065 N 208.584 -5.1075 -2.75889 0
M  V30 2066 H 211.349 -2.92029 0.673731 0
M  V30 2067 H 208.91 -1.53846 0.50427 0
M  V30 2068 H 210.902 -3.64892 -1.75032 0
M  V30 2069 H 209.472 -2.58658 -1.75541 0
M  V30 2070 H 208.692 -3.92752 0.337572 0
M  V30 2071 H 209.98 -5.0879 -0.0318525 0
M  V30 2072 H 209.378 -4.67447 -3.18606 0
M  V30 2073 H 207.935 -5.59302 -3.347 0
M  V30 2074 N 211.368 -0.403325 -1.52352 0
M  V30 2075 C 212.616 0.174003 -2.0135 0
M  V30 2076 C 212.937 1.46139 -1.29106 0
M  V30 2077 O 212.207 1.91448 -0.415253 0
M  V30 2078 H 210.787 0.0672911 -0.743963 0
M  V30 2079 H 213.449 -0.538235 -1.87321 0
M  V30 2080 H 212.545 0.374254 -3.09848 0
M  V30 2081 N 212.846 1.57033 -0.133567 0
M  V30 2082 C 214.094 1.953 0.519848 0
M  V30 2083 C 214.415 1.01866 1.66278 0
M  V30 2084 O 213.685 0.0776513 1.95746 0
M  V30 2085 H 212.265 0.721091 0.195032 0
M  V30 2086 H 214.927 1.93809 -0.205921 0
M  V30 2087 H 214.023 2.98695 0.904854 0
M  V30 2088 N 214.325 -0.140222 1.56975 0
M  V30 2089 C 215.257 -1.19818 1.95388 0
M  V30 2090 C 216.27 -1.38816 0.850525 0
M  V30 2091 O 217.459 -1.38267 1.12891 0
M  V30 2092 C 214.559 -2.56189 2.21857 0
M  V30 2093 C 213.732 -2.58077 3.5315 0
M  V30 2094 C 212.791 -3.76037 3.6808 0
M  V30 2095 O 211.817 -3.60598 4.40406 0
M  V30 2096 N 213.019 -4.93763 3.05251 0
M  V30 2097 H 215.784 -0.871609 2.86746 0
M  V30 2098 H 213.345 -0.32972 1.58507 0
M  V30 2099 H 215.337 -3.33623 2.2908 0
M  V30 2100 H 213.907 -2.81111 1.36731 0
M  V30 2101 H 213.127 -1.6651 3.57307 0
M  V30 2102 H 214.415 -2.56377 4.39486 0
M  V30 2103 H 213.813 -5.09209 2.46419 0
M  V30 2104 H 212.37 -5.68949 3.18026 0
M  V30 2105 N 215.803 -1.52179 -0.40978 0
M  V30 2106 C 217.219 -1.40968 -0.74835 0
M  V30 2107 C 217.419 -0.513657 -1.94843 0
M  V30 2108 O 216.475 0.0208026 -2.52491 0
M  V30 2109 C 217.788 -2.83483 -1.0029 0
M  V30 2110 C 219.336 -2.92821 -1.10565 0
M  V30 2111 C 219.811 -4.36303 -1.39296 0
M  V30 2112 N 221.302 -4.39535 -1.46162 0
M  V30 2113 C 222.037 -5.47614 -1.70018 0
M  V30 2114 N 221.533 -6.65812 -1.91483 0
M  V30 2115 N 223.326 -5.35129 -1.72027 0
M  V30 2116 H 215.477 -2.0897 0.380186 0
M  V30 2117 H 217.74 -0.94185 0.107805 0
M  V30 2118 H 217.446 -3.51168 -0.193461 0
M  V30 2119 H 217.32 -3.24487 -1.92323 0
M  V30 2120 H 219.707 -2.25318 -1.90568 0
M  V30 2121 H 219.788 -2.55276 -0.16369 0
M  V30 2122 H 219.432 -5.04366 -0.598109 0
M  V30 2123 H 219.362 -4.71385 -2.34743 0
M  V30 2124 H 221.853 -3.54332 -1.31367 0
M  V30 2125 H 222.166 -7.43964 -2.09134 0
M  V30 2126 H 220.511 -6.68879 -1.88749 0
M  V30 2127 H 223.702 -4.41764 -1.54796 0
M  V30 2128 H 223.875 -6.19433 -1.9028 0
M  V30 2129 N 217.281 0.66697 -1.42791 0
M  V30 2130 C 218.529 1.42417 -1.43394 0
M  V30 2131 C 218.85 1.94925 -0.0542373 0
M  V30 2132 O 218.12 1.73564 0.908415 0
M  V30 2133 H 216.7 0.528515 -0.527902 0
M  V30 2134 H 219.362 0.787562 -1.78279 0
M  V30 2135 H 218.458 2.27333 -2.13837 0
M  V30 2136 N 218.759 1.29093 0.90403 0
M  V30 2137 C 220.005 1.16986 1.65656 0
M  V30 2138 C 220.338 -0.278925 1.92186 0
M  V30 2139 O 219.613 -1.2019 1.5292 0
M  V30 2140 C 219.896 1.97908 3.0084 0
M  V30 2141 C 219.749 3.50903 2.81403 0
M  V30 2142 C 221.068 1.80208 4.01513 0
M  V30 2143 H 218.187 0.426346 0.601164 0
M  V30 2144 H 220.829 1.58518 1.04747 0
M  V30 2145 H 218.979 1.62616 3.52829 0
M  V30 2146 H 220.651 3.96153 2.36348 0
M  V30 2147 H 218.894 3.76045 2.1627 0
M  V30 2148 H 219.565 4.02791 3.77443 0
M  V30 2149 H 222.041 2.11025 3.58619 0
M  V30 2150 H 220.917 2.39184 4.94047 0
M  V30 2151 H 221.178 0.756119 4.35586 0
M  V30 2152 N 220.237 -1.11381 1.11499 0
M  V30 2153 C 221.486 -1.82494 0.858993 0
M  V30 2154 C 221.799 -1.85605 -0.617278 0
M  V30 2155 O 223.005 -2.52824 -0.989552 0
M  V30 2156 C 221.461 -3.27745 1.48699 0
M  V30 2157 C 221.069 -3.32961 2.99735 0
M  V30 2158 C 222.813 -4.03754 1.31085 0
M  V30 2159 C 220.72 -4.72612 3.55516 0
M  V30 2160 H 219.65 -0.683802 0.317696 0
M  V30 2161 H 222.301 -1.25331 1.34031 0
M  V30 2162 H 220.683 -3.84844 0.933339 0
M  V30 2163 H 221.857 -2.85741 3.61509 0
M  V30 2164 H 220.172 -2.70433 3.16631 0
M  V30 2165 H 222.769 -5.06891 1.70192 0
M  V30 2166 H 223.112 -4.15527 0.253496 0
M  V30 2167 H 223.645 -3.53043 1.83318 0
M  V30 2168 H 220.384 -4.66036 4.60967 0
M  V30 2169 H 219.904 -5.2024 2.98513 0
M  V30 2170 H 221.583 -5.4157 3.53992 0
M  V30 2171 N 221.715 -0.905404 -1.28997 0
M  V30 2172 C 222.964 -0.530191 -1.94607 0
M  V30 2173 C 223.277 0.929185 -1.72121 0
M  V30 2174 O 224.483 1.41218 -2.31883 0
M  V30 2175 C 222.939 -0.897333 -3.48534 0
M  V30 2176 C 222.547 -2.37587 -3.79811 0
M  V30 2177 C 224.291 -0.592304 -4.20347 0
M  V30 2178 C 222.198 -2.68357 -5.27009 0
M  V30 2179 H 221.128 -0.194558 -0.728466 0
M  V30 2180 H 223.779 -1.10318 -1.46636 0
M  V30 2181 H 222.161 -0.253214 -3.9519 0
M  V30 2182 H 223.335 -3.06602 -3.43994 0
M  V30 2183 H 221.65 -2.6505 -3.2115 0
M  V30 2184 H 224.247 -0.798975 -5.28697 0
M  V30 2185 H 224.59 0.469474 -4.13644 0
M  V30 2186 H 225.123 -1.19452 -3.79442 0
M  V30 2187 H 221.862 -3.73355 -5.38782 0
M  V30 2188 H 221.382 -2.03971 -5.64053 0
M  V30 2189 H 223.061 -2.54922 -5.94663 0
M  V30 2190 N 223.193 1.4272 -0.668489 0
M  V30 2191 C 224.141 2.32586 0.0254857 0
M  V30 2192 C 225.135 1.49471 0.797176 0
M  V30 2193 O 226.341 1.65583 0.705853 0
M  V30 2194 H 222.716 0.751514 0.0270339 0
M  V30 2195 H 224.687 2.88823 -0.749936 0
M  V30 2196 C 223.436 3.3397 0.967427 0
M  V30 2197 H 222.759 3.97961 0.383048 0
M  V30 2198 H 224.199 3.9945 1.42181 0
M  V30 2199 C 222.658 2.65744 2.0708 0
M  V30 2200 O 223.188 2.48454 3.15648 0
M  V30 2201 N 221.394 2.2487 1.8407 0
M  V30 2202 H 220.941 2.39132 0.95778 0
M  V30 2203 H 220.899 1.79552 2.58086 0
M  V30 2204 N 224.671 0.411399 1.52136 0
M  V30 2205 C 225.899 -0.163076 2.06256 0
M  V30 2206 C 226.314 -1.3867 1.28125 0
M  V30 2207 O 225.671 -1.79423 0.333721 0
M  V30 2208 C 225.722 -0.511252 3.57867 0
M  V30 2209 O 225.443 0.66378 4.33042 0
M  V30 2210 C 226.944 -1.13921 4.28412 0
M  V30 2211 H 224.164 -0.0193897 0.67072 0
M  V30 2212 H 226.708 0.583007 1.96013 0
M  V30 2213 H 224.863 -1.20723 3.6811 0
M  V30 2214 H 225.277 0.372601 5.23175 0
M  V30 2215 H 226.751 -1.33302 5.35663 0
M  V30 2216 H 227.228 -2.11296 3.85033 0
M  V30 2217 H 227.834 -0.483373 4.22544 0
M  V30 2218 N 226.149 -1.5696 0.141893 0
M  V30 2219 C 227.112 -2.15316 -0.785587 0
M  V30 2220 C 228.112 -1.09366 -1.1788 0
M  V30 2221 O 229.302 -1.35031 -1.10056 0
M  V30 2222 C 226.434 -2.71211 -2.06537 0
M  V30 2223 H 227.627 -2.98608 -0.278041 0
M  V30 2224 H 225.18 -1.5593 -0.107519 0
M  V30 2225 H 225.915 -1.91571 -2.6167 0
M  V30 2226 H 225.7 -3.4872 -1.79268 0
M  V30 2227 H 227.19 -3.16189 -2.72789 0
M  V30 2228 N 227.627 0.131896 -1.57047 0
M  V30 2229 C 228.852 0.860418 -1.8871 0
M  V30 2230 C 229.277 1.73251 -0.73251 0
M  V30 2231 O 228.635 1.785 0.317429 0
M  V30 2232 C 228.683 1.68047 -3.19049 0
M  V30 2233 O 227.787 2.7862 -3.04047 0
M  V30 2234 H 227.128 0.238743 -0.619595 0
M  V30 2235 H 229.658 0.118169 -2.04258 0
M  V30 2236 H 229.668 2.07238 -3.51449 0
M  V30 2237 H 228.343 1.04018 -4.02682 0
M  V30 2238 H 226.92 2.42726 -2.83088 0
M  V30 2239 N 229.106 1.52395 0.401703 0
M  V30 2240 C 230.352 1.67065 1.14966 0
M  V30 2241 C 230.685 0.403052 1.89971 0
M  V30 2242 O 229.96 -0.598774 1.85054 0
M  V30 2243 C 230.243 2.8975 2.13815 0
M  V30 2244 C 230.096 4.26578 1.42658 0
M  V30 2245 C 231.415 3.07965 3.14397 0
M  V30 2246 H 228.534 0.607968 0.416587 0
M  V30 2247 H 231.176 1.84965 0.434511 0
M  V30 2248 H 229.326 2.74619 2.74803 0
M  V30 2249 H 230.998 4.53451 0.847329 0
M  V30 2250 H 229.241 4.27639 0.72849 0
M  V30 2251 H 229.912 5.08483 2.14823 0
M  V30 2252 H 232.388 3.22043 2.63491 0
M  V30 2253 H 231.264 3.95308 3.80819 0
M  V30 2254 H 231.525 2.21611 3.82545 0
M  V30 2255 N 230.584 -0.659388 1.43143 0
M  V30 2256 C 231.547 -1.75432 1.47501 0
M  V30 2257 C 232.547 -1.56707 0.360512 0
M  V30 2258 O 233.737 -1.62717 0.622002 0
M  V30 2259 C 230.869 -3.14239 1.32162 0
M  V30 2260 H 232.062 -1.7295 2.45006 0
M  V30 2261 H 229.615 -0.870469 1.29817 0
M  V30 2262 H 230.35 -3.22336 0.356401 0
M  V30 2263 H 230.135 -3.29235 2.12948 0
M  V30 2264 H 231.625 -3.94094 1.3813 0
M  V30 2265 N 232.062 -1.29571 -0.897171 0
M  V30 2266 C 233.025 -1.14913 -1.98312 0
M  V30 2267 C 234.025 -0.0838629 -1.60581 0
M  V30 2268 O 235.215 -0.331006 -1.71026 0
M  V30 2269 C 232.347 -0.757835 -3.3237 0
M  V30 2270 H 233.54 -2.11377 -2.12743 0
M  V30 2271 H 231.093 -1.12793 -1.08201 0
M  V30 2272 H 231.828 0.206837 -3.2364 0
M  V30 2273 H 231.613 -1.52755 -3.61121 0
M  V30 2274 H 233.103 -0.678408 -4.12053 0
M  V30 2275 N 233.54 1.10788 -1.12088 0
M  V30 2276 C 234.787 1.82671 -0.873931 0
M  V30 2277 C 235.115 1.85004 0.600311 0
M  V30 2278 O 234.37 1.30365 1.45957 0
M  V30 2279 C 234.669 3.29294 -1.38926 0
M  V30 2280 C 234.335 3.47113 -2.87791 0
M  V30 2281 C 232.997 3.51684 -3.28439 0
M  V30 2282 C 235.349 3.52808 -3.83635 0
M  V30 2283 C 232.677 3.59513 -4.63646 0
M  V30 2284 C 235.029 3.62169 -5.18668 0
M  V30 2285 C 233.693 3.65003 -5.58864 0
M  V30 2286 H 232.963 0.668441 -0.319794 0
M  V30 2287 H 235.61 1.30613 -1.40045 0
M  V30 2288 H 233.915 3.83894 -0.783122 0
M  V30 2289 H 235.612 3.83416 -1.17443 0
M  V30 2290 H 232.202 3.4423 -2.5535 0
M  V30 2291 H 236.386 3.4853 -3.53328 0
M  V30 2292 H 231.642 3.59987 -4.94185 0
M  V30 2293 H 235.816 3.6552 -5.92763 0
M  V30 2294 H 233.443 3.70822 -6.63623 0
M  V30 2295 N 235.018 0.912232 1.28515 0
M  V30 2296 C 235.928 0.404506 2.31086 0
M  V30 2297 C 236.944 -0.50707 1.66448 0
M  V30 2298 O 238.12 -0.393624 1.97516 0
M  V30 2299 C 235.185 -0.348572 3.44943 0
M  V30 2300 C 234.246 0.59604 4.25142 0
M  V30 2301 C 233.479 -0.121194 5.33562 0
M  V30 2302 O 233.702 -1.34317 5.5436 0
M  V30 2303 O 232.636 0.542716 5.99448 0
M  V30 2304 H 236.462 1.25579 2.76521 0
M  V30 2305 H 234.047 0.676998 1.33181 0
M  V30 2306 H 235.929 -0.77395 4.14232 0
M  V30 2307 H 234.604 -1.17571 3.01594 0
M  V30 2308 H 233.511 1.07079 3.58448 0
M  V30 2309 H 234.844 1.38995 4.72167 0
M  V30 2310 N 236.496 -1.42363 0.676048 0
M  V30 2311 C 237.744 -2.01123 0.198437 0
M  V30 2312 C 238.065 -1.53731 -1.19966 0
M  V30 2313 O 237.335 -0.759518 -1.80577 0
M  V30 2314 H 235.915 -0.743678 0.0703721 0
M  V30 2315 H 238.577 -1.74263 0.872837 0
M  V30 2316 H 237.673 -3.11454 0.200686 0
M  V30 2317 N 237.974 -0.419461 -1.51915 0
M  V30 2318 C 238.906 0.43646 -2.25006 0
M  V30 2319 C 239.919 1.00149 -1.28351 0
M  V30 2320 O 241.108 0.898674 -1.54227 0
M  V30 2321 C 238.208 1.6206 -2.9764 0
M  V30 2322 C 237.381 1.17763 -4.21249 0
M  V30 2323 C 236.44 2.22985 -4.76617 0
M  V30 2324 O 235.466 1.83151 -5.38929 0
M  V30 2325 N 236.668 3.55271 -4.59089 0
M  V30 2326 H 239.433 -0.18989 -2.99098 0
M  V30 2327 H 236.994 -0.247386 -1.59999 0
M  V30 2328 H 238.986 2.32038 -3.31573 0
M  V30 2329 H 237.556 2.15266 -2.2667 0
M  V30 2330 H 236.776 0.305582 -3.93014 0
M  V30 2331 H 238.064 0.858781 -5.015 0
M  V30 2332 H 237.462 3.90377 -4.09417 0
M  V30 2333 H 236.019 4.21195 -4.97432 0
M  V30 2334 N 239.452 1.56882 -0.150215 0
M  V30 2335 C 240.698 1.96518 0.500834 0
M  V30 2336 C 241.031 1.03527 1.64304 0
M  V30 2337 O 240.306 0.0782751 1.94342 0
M  V30 2338 C 240.589 3.45822 1.00395 0
M  V30 2339 C 240.442 4.49591 -0.136983 0
M  V30 2340 C 241.761 3.97704 1.88467 0
M  V30 2341 H 238.88 0.714535 0.18058 0
M  V30 2342 H 241.522 1.88577 -0.232091 0
M  V30 2343 H 239.672 3.5272 1.62851 0
M  V30 2344 H 241.344 4.5477 -0.77343 0
M  V30 2345 H 239.587 4.26441 -0.795652 0
M  V30 2346 H 240.258 5.51402 0.256815 0
M  V30 2347 H 242.734 3.93304 1.35834 0
M  V30 2348 H 241.61 5.0263 2.20578 0
M  V30 2349 H 241.871 3.40252 2.82279 0
M  V30 2350 N 240.93 -0.123565 1.57115 0
M  V30 2351 C 242.178 -0.83051 1.84247 0
M  V30 2352 C 242.499 -1.80629 0.73471 0
M  V30 2353 O 241.769 -1.94403 -0.241688 0
M  V30 2354 H 240.349 -0.309694 0.679778 0
M  V30 2355 H 243.011 -0.111976 1.94578 0
M  V30 2356 H 242.107 -1.37852 2.80006 0
M  V30 2357 N 242.408 -1.52605 -0.393616 0
M  V30 2358 C 243.34 -1.73303 -1.49995 0
M  V30 2359 C 244.353 -0.613473 -1.50799 0
M  V30 2360 O 245.542 -0.889049 -1.54784 0
M  V30 2361 C 242.642 -1.77245 -2.88855 0
M  V30 2362 C 241.815 -3.06483 -3.12069 0
M  V30 2363 C 240.874 -3.02033 -4.30886 0
M  V30 2364 O 239.9 -3.75907 -4.27414 0
M  V30 2365 N 241.102 -2.20897 -5.36828 0
M  V30 2366 H 243.867 -2.68756 -1.32629 0
M  V30 2367 H 241.428 -1.51036 -0.583083 0
M  V30 2368 H 243.42 -1.7178 -3.66434 0
M  V30 2369 H 241.99 -0.891993 -2.99603 0
M  V30 2370 H 241.21 -3.25474 -2.22396 0
M  V30 2371 H 242.498 -3.91947 -3.2443 0
M  V30 2372 H 241.896 -1.60336 -5.42502 0
M  V30 2373 H 240.453 -2.21275 -6.13091 0
M  V30 2374 N 243.887 0.651787 -1.4349 0
M  V30 2375 C 244.85 1.74647 -1.48429 0
M  V30 2376 C 245.85 1.56513 -0.368817 0
M  V30 2377 O 247.04 1.62385 -0.630623 0
M  V30 2378 C 244.172 3.13533 -1.33827 0
M  V30 2379 H 245.365 1.71649 -2.4592 0
M  V30 2380 H 242.918 0.863573 -1.30277 0
M  V30 2381 H 243.653 3.22142 -0.37349 0
M  V30 2382 H 243.438 3.28101 -2.14691 0
M  V30 2383 H 244.928 3.93356 -1.40218 0
M  V30 2384 N 245.365 1.30045 0.890287 0
M  V30 2385 C 246.328 1.15963 1.977 0
M  V30 2386 C 247.328 0.0923777 1.60534 0
M  V30 2387 O 248.518 0.340071 1.70848 0
M  V30 2388 C 245.65 0.775451 3.31963 0
M  V30 2389 H 246.843 2.12502 2.11619 0
M  V30 2390 H 244.396 1.13366 1.07601 0
M  V30 2391 H 245.131 -0.189671 3.23745 0
M  V30 2392 H 244.916 1.54668 3.60306 0
M  V30 2393 H 246.406 0.700251 4.11687 0
M  V30 2394 N 246.843 -1.10192 1.12674 0
M  V30 2395 C 248.073 -1.85713 0.905213 0
M  V30 2396 C 248.481 -1.81056 -0.549108 0
M  V30 2397 O 247.824 -1.19927 -1.39151 0
M  V30 2398 C 247.886 -3.34972 1.30516 0
M  V30 2399 C 247.55 -3.63385 2.77129 0
M  V30 2400 C 248.547 -3.59772 3.75313 0
M  V30 2401 C 246.232 -3.91981 3.14096 0
M  V30 2402 C 248.226 -3.84354 5.08479 0
M  V30 2403 C 245.913 -4.16218 4.47443 0
M  V30 2404 C 246.911 -4.12395 5.44444 0
M  V30 2405 O 246.599 -4.36014 6.75387 0
M  V30 2406 H 246.331 -0.593719 0.323223 0
M  V30 2407 H 248.885 -1.40198 1.50112 0
M  V30 2408 H 247.115 -3.81156 0.652463 0
M  V30 2409 H 248.804 -3.91886 1.05736 0
M  V30 2410 H 249.57 -3.37716 3.48099 0
M  V30 2411 H 245.449 -3.94085 2.39202 0
M  V30 2412 H 248.993 -3.81285 5.84181 0
M  V30 2413 H 244.89 -4.37754 4.74386 0
M  V30 2414 H 245.658 -4.53516 6.8137 0
M  V30 2415 N 248.321 -0.919034 -1.28029 0
M  V30 2416 C 249.546 -0.570357 -1.99403 0
M  V30 2417 C 249.971 0.842486 -1.68178 0
M  V30 2418 O 249.329 1.56391 -0.917141 0
M  V30 2419 C 249.377 -0.792541 -3.51783 0
M  V30 2420 O 248.481 0.145988 -4.12142 0
M  V30 2421 H 247.822 -0.220555 -0.6263 0
M  V30 2422 H 250.352 -1.23592 -1.63053 0
M  V30 2423 H 250.362 -0.704708 -4.01868 0
M  V30 2424 H 249.037 -1.82247 -3.73844 0
M  V30 2425 H 247.614 0.00897528 -3.72899 0
M  V30 2426 N 249.799 1.42003 -0.683588 0
M  V30 2427 C 250.762 2.29191 -0.0198243 0
M  V30 2428 C 251.762 1.43773 0.72013 0
M  V30 2429 O 252.952 1.65061 0.556815 0
M  V30 2430 C 250.084 3.26435 0.982487 0
M  V30 2431 H 251.277 2.8938 -0.787345 0
M  V30 2432 H 248.83 1.49789 -0.446418 0
M  V30 2433 H 249.565 2.71203 1.77819 0
M  V30 2434 H 249.35 3.89449 0.455182 0
M  V30 2435 H 250.84 3.918 1.44508 0
M  V30 2436 N 251.277 0.427512 1.51691 0
M  V30 2437 C 252.502 -0.143601 2.06902 0
M  V30 2438 C 252.927 -1.36536 1.29382 0
M  V30 2439 O 252.285 -1.78289 0.329043 0
M  V30 2440 C 252.333 -0.454207 3.57728 0
M  V30 2441 O 251.437 -1.54228 3.82475 0
M  V30 2442 H 250.778 -0.00617128 0.663971 0
M  V30 2443 H 253.308 0.606014 1.95419 0
M  V30 2444 H 253.318 -0.707525 4.01818 0
M  V30 2445 H 251.993 0.438812 4.13579 0
M  V30 2446 H 250.57 -1.2797 3.50254 0
M  V30 2447 N 252.755 -1.56801 0.158532 0
M  V30 2448 C 253.702 -2.17337 -0.776729 0
M  V30 2449 C 254.672 -1.1096 -1.23601 0
M  V30 2450 O 255.857 -1.39054 -1.30647 0
M  V30 2451 C 252.997 -2.80822 -2.00582 0
M  V30 2452 C 252.11 -4.01624 -1.59129 0
M  V30 2453 C 251.245 -4.53072 -2.77306 0
M  V30 2454 C 250.284 -5.66314 -2.32282 0
M  V30 2455 N 249.421 -6.12329 -3.43508 0
M  V30 2456 H 254.261 -2.96918 -0.253701 0
M  V30 2457 H 251.798 -1.46661 -0.113504 0
M  V30 2458 H 253.756 -3.15779 -2.72652 0
M  V30 2459 H 252.386 -2.03866 -2.50277 0
M  V30 2460 H 251.438 -3.72571 -0.767806 0
M  V30 2461 H 252.75 -4.83633 -1.2207 0
M  V30 2462 H 251.904 -4.90145 -3.57551 0
M  V30 2463 H 250.643 -3.70095 -3.17617 0
M  V30 2464 H 249.648 -5.28806 -1.5048 0
M  V30 2465 H 250.873 -6.51085 -1.93043 0
M  V30 2466 H 248.819 -5.32284 -3.83418 0
M  V30 2467 H 248.736 -6.89293 -3.105 0
M  V30 2468 H 250.004 -6.5405 -4.24075 0
M  V30 2469 N 254.233 0.115231 -1.57178 0
M  V30 2470 C 255.481 0.820727 -1.84685 0
M  V30 2471 C 255.802 1.80237 -0.744279 0
M  V30 2472 O 255.072 1.94529 0.231375 0
M  V30 2473 H 253.652 0.306084 -0.681411 0
M  V30 2474 H 256.314 0.101656 -1.94635 0
M  V30 2475 H 255.41 1.36366 -2.80733 0
M  V30 2476 N 255.711 1.52812 0.385517 0
M  V30 2477 C 256.959 1.67694 1.12797 0
M  V30 2478 C 257.28 0.421115 1.90399 0
M  V30 2479 O 256.55 -0.564551 1.87589 0
M  V30 2480 H 255.13 0.618155 0.419396 0
M  V30 2481 H 257.792 1.89938 0.436972 0
M  V30 2482 H 256.888 2.52896 1.82894 0
M  V30 2483 N 257.189 -0.644168 1.43834 0
M  V30 2484 C 258.438 -1.39985 1.45214 0
M  V30 2485 C 258.751 -1.95421 0.0835494 0
M  V30 2486 O 259.957 -2.71488 -0.0251748 0
M  V30 2487 C 258.413 -2.53384 2.55587 0
M  V30 2488 C 258.021 -2.04517 3.98594 0
M  V30 2489 C 259.765 -3.30685 2.66172 0
M  V30 2490 C 257.672 -3.1518 5.00416 0
M  V30 2491 H 256.602 -0.526005 0.540218 0
M  V30 2492 H 259.253 -0.694367 1.69855 0
M  V30 2493 H 257.635 -3.26446 2.24163 0
M  V30 2494 H 258.809 -1.38405 4.39523 0
M  V30 2495 H 257.124 -1.40068 3.92135 0
M  V30 2496 H 259.721 -4.13158 3.39418 0
M  V30 2497 H 260.064 -3.79312 1.71546 0
M  V30 2498 H 260.597 -2.64708 2.96942 0
M  V30 2499 H 257.336 -2.71511 5.96625 0
M  V30 2500 H 256.856 -3.79974 4.64091 0
M  V30 2501 H 258.535 -3.80166 5.23529 0
M  V30 2502 N 258.668 -1.30515 -0.883378 0
M  V30 2503 C 259.914 -1.19607 -1.63774 0
M  V30 2504 C 260.247 0.248314 -1.92606 0
M  V30 2505 O 259.522 1.17742 -1.54813 0
M  V30 2506 C 259.805 -2.02669 -2.97653 0
M  V30 2507 C 259.658 -3.55335 -2.75784 0
M  V30 2508 C 260.977 -1.86573 -3.98596 0
M  V30 2509 H 258.096 -0.435856 -0.594305 0
M  V30 2510 H 260.738 -1.60165 -1.02212 0
M  V30 2511 H 258.888 -1.68208 -3.50197 0
M  V30 2512 H 260.56 -3.99863 -2.30016 0
M  V30 2513 H 258.803 -3.79438 -2.1026 0
M  V30 2514 H 259.474 -4.08745 -3.70988 0
M  V30 2515 H 261.95 -2.16703 -3.55217 0
M  V30 2516 H 260.826 -2.47014 -4.90179 0
M  V30 2517 H 261.087 -0.825321 -4.34328 0
M  V30 2518 N 260.146 1.09593 -1.13257 0
M  V30 2519 C 261.394 1.81375 -0.891492 0
M  V30 2520 C 261.715 1.86049 0.584009 0
M  V30 2521 O 260.985 1.34481 1.42449 0
M  V30 2522 H 259.565 0.671708 -0.326828 0
M  V30 2523 H 262.227 1.3256 -1.42877 0
M  V30 2524 H 261.323 2.84612 -1.28071 0
M  V30 2525 N 261.624 0.925811 1.2754 0
M  V30 2526 C 262.557 0.367836 2.25216 0
M  V30 2527 C 263.535 -0.534738 1.53556 0
M  V30 2528 O 264.719 -0.475672 1.824 0
M  V30 2529 C 261.846 -0.47298 3.35381 0
M  V30 2530 C 260.892 0.365898 4.24928 0
M  V30 2531 S 261.725 1.78025 5.05042 0
M  V30 2532 C 262.881 0.947068 6.18693 0
M  V30 2533 H 263.114 1.19568 2.72196 0
M  V30 2534 H 260.647 0.727867 1.36167 0
M  V30 2535 H 262.605 -0.952242 3.99303 0
M  V30 2536 H 261.266 -1.27533 2.87044 0
M  V30 2537 H 260.459 -0.277582 5.03235 0
M  V30 2538 H 260.061 0.779261 3.65792 0
M  V30 2539 H 262.353 0.182201 6.77255 0
M  V30 2540 H 263.296 1.70309 6.87314 0
M  V30 2541 H 263.704 0.489913 5.6237 0
M  V30 2542 N 263.102 -1.41638 0.69111 0
M  V30 2543 C 264.33 -2.05628 0.22909 0
M  V30 2544 C 264.745 -1.51992 -1.11999 0
M  V30 2545 O 264.102 -0.666322 -1.69901 0
M  V30 2546 C 264.153 -3.61084 0.173283 0
M  V30 2547 O 263.874 -4.12735 1.46907 0
M  V30 2548 C 265.375 -4.42213 -0.310266 0
M  V30 2549 H 262.595 -0.662327 0.107534 0
M  V30 2550 H 265.139 -1.81489 0.942438 0
M  V30 2551 H 263.294 -3.84278 -0.490858 0
M  V30 2552 H 263.708 -5.06743 1.35322 0
M  V30 2553 H 265.182 -5.51194 -0.298196 0
M  V30 2554 H 265.659 -4.1799 -1.34838 0
M  V30 2555 H 266.265 -4.24074 0.322716 0
M  V30 2556 N 264.58 -0.43555 -1.51462 0
M  V30 2557 C 265.51 0.367376 -2.30592 0
M  V30 2558 C 266.491 1.02263 -1.35928 0
M  V30 2559 O 267.676 1.02661 -1.64847 0
M  V30 2560 C 264.806 1.46983 -3.14664 0
M  V30 2561 C 263.76 0.938161 -4.17591 0
M  V30 2562 C 263.086 2.13622 -4.90173 0
M  V30 2563 C 264.386 -0.0261621 -5.22293 0
M  V30 2564 H 266.08 -0.292969 -2.97963 0
M  V30 2565 H 263.626 -0.14234 -1.43295 0
M  V30 2566 H 265.579 2.03873 -3.688 0
M  V30 2567 H 264.303 2.15843 -2.4511 0
M  V30 2568 H 262.962 0.391481 -3.64504 0
M  V30 2569 H 262.61 2.81098 -4.17124 0
M  V30 2570 H 262.31 1.78688 -5.59772 0
M  V30 2571 H 263.834 2.7107 -5.47132 0
M  V30 2572 H 265.248 0.452384 -5.71512 0
M  V30 2573 H 263.645 -0.287992 -5.99409 0
M  V30 2574 H 264.715 -0.963391 -4.75233 0
M  V30 2575 N 266.058 1.56714 -0.166846 0
M  V30 2576 C 267.469 1.83378 0.350646 0
M  V30 2577 C 267.82 1.08646 1.63372 0
M  V30 2578 O 266.945 0.338058 2.13743 0
M  V30 2579 C 267.54 3.32643 0.642963 0
M  V30 2580 C 266.099 3.59818 1.10491 0
M  V30 2581 C 265.246 2.76954 0.138411 0
M  V30 2582 H 268.197 1.53803 -0.391193 0
M  V30 2583 H 268.218 3.49878 1.49551 0
M  V30 2584 H 267.73 3.87007 -0.291055 0
M  V30 2585 H 265.831 3.1086 2.05418 0
M  V30 2586 H 265.944 4.68178 1.01716 0
M  V30 2587 H 264.308 2.4666 0.634911 0
M  V30 2588 H 265.091 3.34097 -0.789549 0
M  V30 2589 N 267.536 -0.106894 1.57237 0
M  V30 2590 C 268.785 -0.811163 1.8467 0
M  V30 2591 C 269.098 -1.80469 0.754342 0
M  V30 2592 O 270.304 -2.55601 0.915439 0
M  V30 2593 C 268.76 -1.49337 3.27454 0
M  V30 2594 C 268.368 -0.540217 4.44731 0
M  V30 2595 C 270.112 -2.18206 3.64124 0
M  V30 2596 C 268.019 -1.22634 5.78545 0
M  V30 2597 H 266.949 -0.306679 0.688813 0
M  V30 2598 H 269.6 -0.0639887 1.83388 0
M  V30 2599 H 267.982 -2.2876 3.23241 0
M  V30 2600 H 269.156 0.221659 4.60267 0
M  V30 2601 H 267.471 0.042146 4.16379 0
M  V30 2602 H 270.068 -2.70253 4.61376 0
M  V30 2603 H 270.411 -2.96562 2.92158 0
M  V30 2604 H 270.944 -1.45658 3.70174 0
M  V30 2605 H 267.683 -0.483832 6.53712 0
M  V30 2606 H 267.203 -1.95993 5.66874 0
M  V30 2607 H 268.882 -1.75615 6.2271 0
M  V30 2608 N 269.014 -1.53014 -0.377408 0
M  V30 2609 C 269.977 -1.77957 -1.44444 0
M  V30 2610 C 270.977 -0.649763 -1.47087 0
M  V30 2611 O 272.167 -0.917897 -1.48055 0
M  V30 2612 C 269.299 -1.89089 -2.83651 0
M  V30 2613 H 270.492 -2.73243 -1.23606 0
M  V30 2614 H 268.045 -1.43912 -0.609844 0
M  V30 2615 H 268.78 -0.958293 -3.09818 0
M  V30 2616 H 268.565 -2.71254 -2.83132 0
M  V30 2617 H 270.055 -2.1002 -3.60945 0
M  V30 2618 N 270.492 0.636531 -1.44174 0
M  V30 2619 C 271.908 0.954104 -1.27941 0
M  V30 2620 C 272.108 2.0039 -0.211248 0
M  V30 2621 O 271.164 2.49236 0.404695 0
M  V30 2622 C 272.477 1.4225 -2.64925 0
M  V30 2623 C 274.025 1.53827 -2.72592 0
M  V30 2624 C 274.5 2.04053 -4.10032 0
M  V30 2625 N 275.991 2.11331 -4.12182 0
M  V30 2626 C 276.726 2.51352 -5.15374 0
M  V30 2627 N 276.222 2.90549 -6.2893 0
M  V30 2628 N 278.015 2.51438 -5.02728 0
M  V30 2629 H 270.166 -0.0578386 -2.12321 0
M  V30 2630 H 272.429 0.0367406 -0.947288 0
M  V30 2631 H 272.135 0.725466 -3.44136 0
M  V30 2632 H 272.009 2.39451 -2.9145 0
M  V30 2633 H 274.396 2.22628 -1.93702 0
M  V30 2634 H 274.477 0.550154 -2.49814 0
M  V30 2635 H 274.121 1.35848 -4.89395 0
M  V30 2636 H 274.051 3.03726 -4.30184 0
M  V30 2637 H 276.542 1.83745 -3.30222 0
M  V30 2638 H 276.855 3.19884 -7.03487 0
M  V30 2639 H 275.2 2.88313 -6.32377 0
M  V30 2640 H 278.391 2.20203 -4.13072 0
M  V30 2641 H 278.564 2.82304 -5.83274 0
M  V30 2642 N 271.97 1.30982 0.876444 0
M  V30 2643 C 273.247 1.10942 1.61094 0
M  V30 2644 C 273.627 -0.338223 2.08373 0
M  V30 2645 O 272.975 -1.33122 1.85717 0
M  V30 2646 C 273.185 2.11789 2.77392 0
M  V30 2647 C 274.533 2.43965 3.47514 0
M  V30 2648 O 275.557 2.10166 2.87591 0
M  V30 2649 O 274.416 3.01817 4.55597 0
M  V30 2650 H 271.51 0.42667 0.708436 0
M  V30 2651 H 274.056 1.42438 0.922474 0
M  V30 2652 H 272.828 3.09194 2.39823 0
M  V30 2653 H 272.451 1.81161 3.5393 0
M  V30 2654 N 273.449 -1.08991 1.13837 0
M  V30 2655 C 274.379 -2.17771 0.842507 0
M  V30 2656 C 275.36 -1.6892 -0.20001 0
M  V30 2657 O 276.545 -1.94113 -0.0579731 0
M  V30 2658 C 273.675 -3.4589 0.312644 0
M  V30 2659 C 272.629 -4.08099 1.28992 0
M  V30 2660 C 271.955 -5.31098 0.619623 0
M  V30 2661 C 273.255 -4.50077 2.65005 0
M  V30 2662 H 274.949 -2.42777 1.75213 0
M  V30 2663 H 272.495 -1.16682 0.843875 0
M  V30 2664 H 274.448 -4.21297 0.0933043 0
M  V30 2665 H 273.172 -3.20419 -0.632382 0
M  V30 2666 H 271.831 -3.34717 1.49533 0
M  V30 2667 H 271.479 -5.0191 -0.33102 0
M  V30 2668 H 271.179 -5.73674 1.27167 0
M  V30 2669 H 272.703 -6.09224 0.409669 0
M  V30 2670 H 274.117 -5.16688 2.48407 0
M  V30 2671 H 272.514 -5.03553 3.26427 0
M  V30 2672 H 273.584 -3.62257 3.22332 0
M  V30 2673 N 274.927 -0.932562 -1.27047 0
M  V30 2674 C 275.89 -0.440064 -2.24936 0
M  V30 2675 C 276.89 0.444071 -1.54547 0
M  V30 2676 O 278.08 0.244465 -1.72476 0
M  V30 2677 C 275.212 0.36678 -3.38921 0
M  V30 2678 H 276.405 -1.305 -2.70018 0
M  V30 2679 H 273.958 -0.713707 -1.39054 0
M  V30 2680 H 274.693 1.25033 -2.99228 0
M  V30 2681 H 274.478 -0.267204 -3.91188 0
M  V30 2682 H 275.968 0.701567 -4.11665 0
M  V30 2683 N 276.405 1.4127 -0.698611 0
M  V30 2684 C 277.816 1.84187 -0.305289 0
M  V30 2685 C 278.167 1.58449 1.15708 0
M  V30 2686 O 277.292 1.05651 1.88856 0
M  V30 2687 C 277.887 3.3435 -0.547314 0
M  V30 2688 C 276.446 3.75826 -0.207878 0
M  V30 2689 C 275.593 2.64647 -0.828099 0
M  V30 2690 H 278.544 1.30778 -0.89904 0
M  V30 2691 H 278.565 3.8001 0.192998 0
M  V30 2692 H 278.077 3.53051 -1.61172 0
M  V30 2693 H 276.178 3.62725 0.852143 0
M  V30 2694 H 276.291 4.74462 -0.665021 0
M  V30 2695 H 274.655 2.53395 -0.257458 0
M  V30 2696 H 275.438 2.86165 -1.89643 0
M  V30 2697 N 277.883 0.443576 1.51229 0
M  V30 2698 C 279.132 -0.122332 2.01329 0
M  V30 2699 C 279.445 -1.43237 1.33201 0
M  V30 2700 O 280.651 -2.0816 1.74304 0
M  V30 2701 C 279.107 -0.268551 3.58897 0
M  V30 2702 C 278.715 1.03142 4.35965 0
M  V30 2703 C 280.459 -0.787894 4.17124 0
M  V30 2704 C 278.366 0.850504 5.85252 0
M  V30 2705 H 277.296 -0.0494929 0.752374 0
M  V30 2706 H 279.947 0.574289 1.74282 0
M  V30 2707 H 278.329 -1.02832 3.82415 0
M  V30 2708 H 279.503 1.80001 4.24189 0
M  V30 2709 H 277.818 1.47977 3.89219 0
M  V30 2710 H 280.415 -0.939841 5.26375 0
M  V30 2711 H 280.758 -1.77201 3.76703 0
M  V30 2712 H 281.291 -0.0862669 3.97706 0
M  V30 2713 H 278.03 1.80718 6.30096 0
M  V30 2714 H 277.55 0.121825 5.99676 0
M  V30 2715 H 279.229 0.506163 6.45017 0
M  V30 2716 N 279.361 -1.56624 0.175154 0
M  V30 2717 C 280.609 -1.96609 -0.467885 0
M  V30 2718 C 280.93 -1.06238 -1.63519 0
M  V30 2719 O 280.2 -0.129523 -1.95471 0
M  V30 2720 H 278.78 -0.726008 -0.175845 0
M  V30 2721 H 281.442 -1.93195 0.257234 0
M  V30 2722 H 280.538 -3.00989 -0.825342 0
M  V30 2723 N 280.839 0.0985539 -1.57292 0
M  V30 2724 C 282.088 0.801358 -1.85098 0
M  V30 2725 C 282.401 1.80066 -0.763902 0
M  V30 2726 O 283.607 2.55112 -0.928981 0
M  V30 2727 C 282.063 1.47599 -3.28242 0
M  V30 2728 C 281.671 0.516624 -4.45011 0
M  V30 2729 C 283.415 2.16272 -3.65276 0
M  V30 2730 C 281.322 1.19564 -5.79188 0
M  V30 2731 H 280.252 0.303022 -0.69043 0
M  V30 2732 H 282.903 0.0542623 -1.8342 0
M  V30 2733 H 281.285 2.27042 -3.2445 0
M  V30 2734 H 282.459 -0.246065 -4.60143 0
M  V30 2735 H 280.774 -0.064227 -4.1635 0
M  V30 2736 H 283.371 2.67802 -4.62803 0
M  V30 2737 H 283.714 2.95009 -2.93727 0
M  V30 2738 H 284.247 1.43693 -3.70941 0
M  V30 2739 H 280.986 0.449157 -6.53959 0
M  V30 2740 H 280.506 1.92984 -5.67906 0
M  V30 2741 H 282.185 1.7231 -6.23633 0
M  V30 2742 N 282.317 1.53212 0.369288 0
M  V30 2743 C 283.733 1.42902 0.710712 0
M  V30 2744 C 283.933 0.565135 1.93413 0
M  V30 2745 O 282.989 0.0461484 2.52458 0
M  V30 2746 C 284.302 2.86042 0.927382 0
M  V30 2747 C 285.85 2.9565 1.02762 0
M  V30 2748 C 286.325 4.39843 1.27679 0
M  V30 2749 N 287.816 4.43256 1.34457 0
M  V30 2750 C 288.551 5.51929 1.55439 0
M  V30 2751 N 288.047 6.70655 1.73762 0
M  V30 2752 N 289.84 5.39502 1.57779 0
M  V30 2753 H 281.991 2.07888 -0.435457 0
M  V30 2754 H 284.254 0.938661 -0.132739 0
M  V30 2755 H 283.96 3.51557 0.100287 0
M  V30 2756 H 283.834 3.29472 1.83653 0
M  V30 2757 H 286.221 2.30291 1.84527 0
M  V30 2758 H 286.302 2.5562 0.0959504 0
M  V30 2759 H 285.946 5.05774 0.464175 0
M  V30 2760 H 285.876 4.77443 2.22162 0
M  V30 2761 H 288.367 3.5769 1.21926 0
M  V30 2762 H 288.68 7.49248 1.89335 0
M  V30 2763 H 287.025 6.73648 1.70948 0
M  V30 2764 H 290.216 4.45713 1.43029 0
M  V30 2765 H 290.389 6.2426 1.7379 0
M  V30 2766 N 283.795 -0.628877 1.44509 0
M  V30 2767 C 285.041 -1.39045 1.47629 0
M  V30 2768 C 285.374 -1.93892 0.109343 0
M  V30 2769 O 284.649 -1.7379 -0.87334 0
M  V30 2770 C 284.932 -2.55408 2.53848 0
M  V30 2771 C 284.785 -2.05896 3.99909 0
M  V30 2772 C 286.104 -3.5759 2.56549 0
M  V30 2773 H 283.223 -0.504232 0.537512 0
M  V30 2774 H 285.865 -0.710854 1.76201 0
M  V30 2775 H 284.015 -3.13384 2.29615 0
M  V30 2776 H 285.687 -1.52734 4.35282 0
M  V30 2777 H 283.93 -1.37061 4.11578 0
M  V30 2778 H 284.601 -2.89681 4.69882 0
M  V30 2779 H 287.077 -3.09419 2.78207 0
M  V30 2780 H 285.953 -4.36527 3.32769 0
M  V30 2781 H 286.214 -4.11808 1.60832 0
M  V30 2782 N 285.273 -1.31445 -0.869486 0
M  V30 2783 C 286.206 -1.13465 -1.97992 0
M  V30 2784 C 287.184 -0.0380291 -1.62556 0
M  V30 2785 O 288.368 -0.194544 -1.87493 0
M  V30 2786 C 285.495 -0.733822 -3.30655 0
M  V30 2787 C 284.541 -1.83356 -3.85075 0
M  V30 2788 S 285.374 -3.43909 -4.10472 0
M  V30 2789 C 286.53 -3.05763 -5.46132 0
M  V30 2790 H 286.763 -2.07471 -2.1294 0
M  V30 2791 H 284.296 -1.15936 -1.01972 0
M  V30 2792 H 286.254 -0.509306 -4.07328 0
M  V30 2793 H 284.915 0.187123 -3.13542 0
M  V30 2794 H 284.108 -1.50574 -4.80982 0
M  V30 2795 H 283.71 -2.01315 -3.15195 0
M  V30 2796 H 286.002 -2.54686 -6.27807 0
M  V30 2797 H 286.945 -4.00635 -5.83864 0
M  V30 2798 H 287.353 -2.43192 -5.09429 0
M  V30 2799 N 286.751 1.08385 -1.14413 0
M  V30 2800 C 287.979 1.84517 -0.936001 0
M  V30 2801 C 288.394 1.81626 0.515503 0
M  V30 2802 O 287.751 1.22008 1.35721 0
M  V30 2803 C 287.802 3.32049 -1.42918 0
M  V30 2804 O 287.523 3.34951 -2.82381 0
M  V30 2805 C 289.024 4.24986 -1.26103 0
M  V30 2806 H 286.244 0.582491 -0.333084 0
M  V30 2807 H 288.788 1.36885 -1.5193 0
M  V30 2808 H 286.943 3.7707 -0.888641 0
M  V30 2809 H 287.357 4.27048 -3.04517 0
M  V30 2810 H 288.831 5.26615 -1.6547 0
M  V30 2811 H 289.308 4.38726 -0.20392 0
M  V30 2812 H 289.914 3.85791 -1.79012 0
M  V30 2813 N 288.23 0.939286 1.26551 0
M  V30 2814 C 289.479 0.581601 1.93133 0
M  V30 2815 C 289.792 -0.883224 1.74524 0
M  V30 2816 O 290.998 -1.3502 2.35546 0
M  V30 2817 C 289.454 0.989425 3.46032 0
M  V30 2818 C 289.062 2.47573 3.73379 0
M  V30 2819 C 290.806 0.703544 4.18629 0
M  V30 2820 C 288.713 2.82235 5.19709 0
M  V30 2821 H 287.643 0.213803 0.723052 0
M  V30 2822 H 290.294 1.14167 1.4366 0
M  V30 2823 H 288.676 0.357902 3.94379 0
M  V30 2824 H 289.85 3.15614 3.35744 0
M  V30 2825 H 288.165 2.73471 3.1401 0
M  V30 2826 H 290.762 0.938869 5.26393 0
M  V30 2827 H 291.105 -0.359639 4.14744 0
M  V30 2828 H 291.638 1.2947 3.76141 0
M  V30 2829 H 288.377 3.87509 5.28694 0
M  V30 2830 H 287.897 2.18854 5.58447 0
M  V30 2831 H 289.576 2.70599 5.87695 0
M  V30 2832 N 289.708 -1.40897 0.706093 0
M  V30 2833 C 290.671 -2.29131 0.0562841 0
M  V30 2834 C 291.671 -1.44901 -0.697166 0
M  V30 2835 O 292.861 -1.65926 -0.530484 0
M  V30 2836 C 289.993 -3.27957 -0.93043 0
M  V30 2837 H 291.186 -2.88091 0.833284 0
M  V30 2838 H 288.739 -1.4906 0.470192 0
M  V30 2839 H 289.474 -2.73997 -1.73482 0
M  V30 2840 H 289.259 -3.90124 -0.393166 0
M  V30 2841 H 290.749 -3.94049 -1.38256 0
M  V30 2842 N 291.186 -0.45159 -1.50991 0
M  V30 2843 C 292.597 0.00818571 -1.86698 0
M  V30 2844 C 292.948 1.40661 -1.3678 0
M  V30 2845 O 292.073 2.0391 -0.724546 0
M  V30 2846 C 292.668 0.0216303 -3.38793 0
M  V30 2847 C 291.227 0.425865 -3.73983 0
M  V30 2848 C 290.374 -0.372163 -2.74791 0
M  V30 2849 H 293.325 -0.666785 -1.44013 0
M  V30 2850 H 293.346 0.828078 -3.7138 0
M  V30 2851 H 292.858 -0.996288 -3.75094 0
M  V30 2852 H 290.959 1.44886 -3.43277 0
M  V30 2853 H 291.072 0.140761 -4.78893 0
M  V30 2854 H 289.436 0.171498 -2.54122 0
M  V30 2855 H 290.219 -1.38922 -3.13935 0
M  V30 2856 N 292.664 1.56529 -0.183458 0
M  V30 2857 C 293.912 1.96855 0.457452 0
M  V30 2858 C 294.233 1.07104 1.62953 0
M  V30 2859 O 293.503 0.139887 1.954 0
M  V30 2860 H 292.083 0.72693 0.171992 0
M  V30 2861 H 294.745 1.93056 -0.267476 0
M  V30 2862 H 293.841 3.01423 0.809368 0
M  V30 2863 N 294.142 -0.090211 1.57342 0
M  V30 2864 C 295.072 -1.10976 2.05443 0
M  V30 2865 C 296.053 -1.41482 0.944284 0
M  V30 2866 O 297.238 -1.51428 1.21586 0
M  V30 2867 C 294.368 -2.42831 2.48295 0
M  V30 2868 C 293.322 -2.26721 3.63018 0
M  V30 2869 C 292.648 -3.63796 3.91863 0
M  V30 2870 C 293.948 -1.7037 4.93732 0
M  V30 2871 H 295.642 -0.709564 2.9087 0
M  V30 2872 H 293.188 -0.339874 1.39932 0
M  V30 2873 H 295.141 -3.14431 2.80555 0
M  V30 2874 H 293.865 -2.84795 1.59873 0
M  V30 2875 H 292.524 -1.57565 3.31012 0
M  V30 2876 H 292.172 -4.03297 3.00601 0
M  V30 2877 H 291.872 -3.53861 4.69101 0
M  V30 2878 H 293.396 -4.36855 4.26603 0
M  V30 2879 H 294.81 -2.31816 5.24342 0
M  V30 2880 H 293.207 -1.71181 5.75167 0
M  V30 2881 H 294.277 -0.663542 4.80339 0
M  V30 2882 N 295.62 -1.53406 -0.361157 0
M  V30 2883 C 296.867 -1.69802 -1.10333 0
M  V30 2884 C 297.195 -0.452087 -1.89173 0
M  V30 2885 O 296.45 0.566017 -1.87336 0
M  V30 2886 C 296.749 -2.90211 -2.08596 0
M  V30 2887 C 296.415 -4.26539 -1.46203 0
M  V30 2888 C 295.077 -4.6361 -1.28915 0
M  V30 2889 C 297.429 -5.113 -1.01101 0
M  V30 2890 C 294.757 -5.83075 -0.651157 0
M  V30 2891 C 297.109 -6.31415 -0.387007 0
M  V30 2892 C 295.773 -6.67195 -0.201657 0
M  V30 2893 H 295.043 -0.621351 -0.403737 0
M  V30 2894 H 297.69 -1.87598 -0.384609 0
M  V30 2895 H 295.995 -2.66946 -2.86788 0
M  V30 2896 H 297.692 -3.00091 -2.65982 0
M  V30 2897 H 294.282 -3.97352 -1.60653 0
M  V30 2898 H 298.466 -4.83206 -1.13249 0
M  V30 2899 H 293.722 -6.09385 -0.496006 0
M  V30 2900 H 297.896 -6.96394 -0.0293563 0
M  V30 2901 H 295.523 -7.59628 0.294766 0
M  V30 2902 N 297.098 0.621204 -1.44841 0
M  V30 2903 C 298.346 1.37783 -1.47852 0
M  V30 2904 C 298.667 1.94653 -0.116224 0
M  V30 2905 O 297.937 1.76367 0.852737 0
M  V30 2906 H 296.517 0.511453 -0.544449 0
M  V30 2907 H 299.179 0.730446 -1.80694 0
M  V30 2908 H 298.275 2.20414 -2.20961 0
M  V30 2909 N 298.576 1.31904 0.862503 0
M  V30 2910 C 299.804 1.24998 1.64873 0
M  V30 2911 C 300.219 -0.183425 1.87907 0
M  V30 2912 O 299.576 -1.11794 1.44251 0
M  V30 2913 C 299.627 1.99829 3.01248 0
M  V30 2914 O 299.348 3.37575 2.79239 0
M  V30 2915 C 300.849 1.99852 3.95694 0
M  V30 2916 H 298.069 0.431599 0.513773 0
M  V30 2917 H 300.613 1.73901 1.07604 0
M  V30 2918 H 298.768 1.54668 3.55185 0
M  V30 2919 H 299.182 3.75776 3.65914 0
M  V30 2920 H 300.656 2.56709 4.88676 0
M  V30 2921 H 301.133 0.982852 4.28062 0
M  V30 2922 H 301.739 2.44926 3.47694 0
M  V30 2923 N 300.054 -1.07777 1.14986 0
M  V30 2924 C 301.465 -1.61766 0.932127 0
M  V30 2925 C 301.816 -1.88974 -0.527581 0
M  V30 2926 O 300.941 -1.65198 -1.39781 0
M  V30 2927 C 301.536 -2.93891 1.68563 0
M  V30 2928 C 300.095 -3.44639 1.5133 0
M  V30 2929 C 299.242 -2.18767 1.704 0
M  V30 2930 H 302.193 -0.909201 1.30074 0
M  V30 2931 H 302.214 -3.62623 1.15259 0
M  V30 2932 H 301.726 -2.74057 2.74799 0
M  V30 2933 H 299.827 -3.69564 0.474702 0
M  V30 2934 H 299.94 -4.20966 2.28746 0
M  V30 2935 H 298.304 -2.28253 1.13016 0
M  V30 2936 H 299.087 -2.01433 2.77992 0
M  V30 2937 N 301.532 -0.945985 -1.26051 0
M  V30 2938 C 302.462 -0.477172 -2.28572 0
M  V30 2939 C 303.443 0.472032 -1.63419 0
M  V30 2940 O 304.628 0.372853 -1.90587 0
M  V30 2941 C 301.758 0.253975 -3.4637 0
M  V30 2942 C 300.712 -0.609135 -4.23643 0
M  V30 2943 C 300.038 0.252252 -5.34105 0
M  V30 2944 C 301.338 -1.8829 -4.8718 0
M  V30 2945 H 303.032 -1.33402 -2.68038 0
M  V30 2946 H 300.578 -0.642904 -1.28852 0
M  V30 2947 H 302.531 0.593016 -4.17207 0
M  V30 2948 H 301.255 1.145 -3.05871 0
M  V30 2949 H 299.914 -0.931138 -3.54578 0
M  V30 2950 H 299.562 1.14278 -4.89846 0
M  V30 2951 H 299.262 -0.32188 -5.86718 0
M  V30 2952 H 300.786 0.586454 -6.07777 0
M  V30 2953 H 302.2 -1.61081 -5.50205 0
M  V30 2954 H 300.597 -2.40199 -5.49931 0
M  V30 2955 H 301.667 -2.59134 -4.09851 0
M  V30 2956 N 303.011 1.40521 -0.713556 0
M  V30 2957 C 303.941 2.33381 -0.0743864 0
M  V30 2958 C 304.922 1.52784 0.747735 0
M  V30 2959 O 306.107 1.81258 0.697071 0
M  V30 2960 C 303.237 3.36748 0.849598 0
M  V30 2961 C 302.191 4.27793 0.133247 0
M  V30 2962 C 301.517 5.21679 1.17281 0
M  V30 2963 C 302.817 5.12415 -1.01134 0
M  V30 2964 H 304.511 2.87081 -0.850007 0
M  V30 2965 H 302.057 1.38034 -0.410201 0
M  V30 2966 H 304.01 4.00648 1.30612 0
M  V30 2967 H 302.734 2.81439 1.65709 0
M  V30 2968 H 301.393 3.65342 -0.303426 0
M  V30 2969 H 301.041 4.62677 1.9733 0
M  V30 2970 H 300.741 5.83435 0.698397 0
M  V30 2971 H 302.265 5.88456 1.62947 0
M  V30 2972 H 303.679 5.69781 -0.634274 0
M  V30 2973 H 302.076 5.83203 -1.41399 0
M  V30 2974 H 303.146 4.48514 -1.84292 0
M  V30 2975 N 304.489 0.459591 1.5075 0
M  V30 2976 C 305.717 -0.0973749 2.06671 0
M  V30 2977 C 306.132 -1.34524 1.32472 0
M  V30 2978 O 305.489 -1.7827 0.390634 0
M  V30 2979 C 305.54 -0.39714 3.59312 0
M  V30 2980 O 305.261 0.801214 4.30711 0
M  V30 2981 C 306.762 -1.00234 4.31819 0
M  V30 2982 H 303.982 0.00195854 0.670997 0
M  V30 2983 H 306.526 0.645072 1.94059 0
M  V30 2984 H 304.681 -1.08951 3.71764 0
M  V30 2985 H 305.095 0.538857 5.21725 0
M  V30 2986 H 306.569 -1.16193 5.39632 0
M  V30 2987 H 307.046 -1.98939 3.91561 0
M  V30 2988 H 307.652 -0.348699 4.23868 0
M  V30 2989 N 305.967 -1.56429 0.191757 0
M  V30 2990 C 307.192 -2.02309 -0.456706 0
M  V30 2991 C 307.617 -1.07103 -1.5463 0
M  V30 2992 O 306.975 -0.0539677 -1.8122 0
M  V30 2993 C 307.023 -3.46654 -0.993159 0
M  V30 2994 O 306.127 -3.54559 -2.10622 0
M  V30 2995 H 305.468 -0.655303 -0.107114 0
M  V30 2996 H 307.998 -2.02364 0.301653 0
M  V30 2997 H 308.008 -3.86377 -1.31061 0
M  V30 2998 H 306.683 -4.1544 -0.195504 0
M  V30 2999 H 305.26 -3.26708 -1.79767 0
M  V30 3000 N 307.445 0.0818655 -1.57387 0
M  V30 3001 C 308.375 1.09885 -2.06028 0
M  V30 3002 C 309.356 1.4098 -0.951774 0
M  V30 3003 O 310.541 1.50781 -1.22387 0
M  V30 3004 C 307.671 2.4151 -2.4958 0
M  V30 3005 C 306.625 2.24792 -3.64215 0
M  V30 3006 C 305.951 3.61712 -3.93787 0
M  V30 3007 C 307.251 1.67749 -4.94629 0
M  V30 3008 H 308.945 0.694128 -2.91243 0
M  V30 3009 H 306.491 0.332448 -1.4011 0
M  V30 3010 H 308.444 3.12939 -2.82219 0
M  V30 3011 H 307.168 2.83943 -1.61381 0
M  V30 3012 H 305.827 1.55807 -3.31843 0
M  V30 3013 H 305.475 4.01697 -3.02735 0
M  V30 3014 H 305.175 3.51368 -4.70971 0
M  V30 3015 H 306.699 4.34587 -4.28913 0
M  V30 3016 H 308.113 2.29032 -5.25564 0
M  V30 3017 H 306.51 1.68128 -5.76067 0
M  V30 3018 H 307.58 0.638059 -4.80684 0
M  V30 3019 N 308.923 1.53595 0.353017 0
M  V30 3020 C 310.334 1.61937 0.929153 0
M  V30 3021 C 310.685 0.494686 1.89861 0
M  V30 3022 O 309.81 -0.377017 2.1309 0
M  V30 3023 C 310.405 2.93526 1.69199 0
M  V30 3024 C 308.964 3.04161 2.21727 0
M  V30 3025 C 308.111 2.57322 1.03348 0
M  V30 3026 H 311.062 1.58155 0.131431 0
M  V30 3027 H 311.083 2.82034 2.55416 0
M  V30 3028 H 310.595 3.75362 0.986144 0
M  V30 3029 H 308.696 2.26938 2.95516 0
M  V30 3030 H 308.809 4.09465 2.48748 0
M  V30 3031 H 307.173 2.12499 1.40414 0
M  V30 3032 H 307.956 3.41588 0.342428 0
M  V30 3033 N 310.401 -0.613514 1.45168 0
M  V30 3034 C 311.311 -1.75296 1.55912 0
M  V30 3035 C 312.327 -1.68244 0.443856 0
M  V30 3036 O 313.503 -1.88706 0.70371 0
M  V30 3037 C 310.568 -3.1174 1.5172 0
M  V30 3038 C 309.629 -3.30291 2.74238 0
M  V30 3039 C 308.862 -4.60226 2.70236 0
M  V30 3040 O 309.085 -5.42168 1.77229 0
M  V30 3041 O 308.019 -4.81361 3.61352 0
M  V30 3042 H 311.845 -1.69183 2.52212 0
M  V30 3043 H 309.43 -0.776886 1.27612 0
M  V30 3044 H 311.312 -3.93044 1.51968 0
M  V30 3045 H 309.987 -3.18357 0.585697 0
M  V30 3046 H 308.894 -2.48598 2.79553 0
M  V30 3047 H 310.227 -3.28547 3.66494 0
M  V30 3048 N 311.879 -1.3236 -0.855495 0
M  V30 3049 C 312.826 -1.21225 -1.964 0
M  V30 3050 C 313.796 -0.0946204 -1.6583 0
M  V30 3051 O 314.981 -0.27002 -1.8888 0
M  V30 3052 C 312.121 -0.940419 -3.32039 0
M  V30 3053 C 311.234 -2.14276 -3.75113 0
M  V30 3054 C 310.369 -1.80648 -4.9954 0
M  V30 3055 C 309.408 -2.97208 -5.35102 0
M  V30 3056 N 308.545 -2.63678 -6.50706 0
M  V30 3057 H 313.385 -2.16042 -2.05255 0
M  V30 3058 H 310.922 -1.07451 -1.00463 0
M  V30 3059 H 312.88 -0.763311 -4.10158 0
M  V30 3060 H 311.51 -0.0290413 -3.22787 0
M  V30 3061 H 310.562 -2.43017 -2.92655 0
M  V30 3062 H 311.874 -3.01468 -3.97389 0
M  V30 3063 H 311.028 -1.59484 -5.85363 0
M  V30 3064 H 309.767 -0.906678 -4.79198 0
M  V30 3065 H 308.772 -3.19004 -4.47791 0
M  V30 3066 H 309.997 -3.87918 -5.57401 0
M  V30 3067 H 307.943 -1.76238 -6.31883 0
M  V30 3068 H 307.86 -3.444 -6.72997 0
M  V30 3069 H 309.128 -2.45942 -7.39684 0
M  V30 3070 N 313.357 1.07166 -1.15556 0
M  V30 3071 C 314.603 1.80065 -0.932984 0
M  V30 3072 C 314.936 1.86586 0.53845 0
M  V30 3073 O 314.211 1.35098 1.39924 0
M  V30 3074 C 314.494 3.25022 -1.55025 0
M  V30 3075 C 314.347 3.26634 -3.09242 0
M  V30 3076 C 315.666 4.22341 -1.2376 0
M  V30 3077 H 312.785 0.653697 -0.340366 0
M  V30 3078 H 315.427 1.25389 -1.4275 0
M  V30 3079 H 313.577 3.71712 -1.12972 0
M  V30 3080 H 315.249 2.88173 -3.60214 0
M  V30 3081 H 313.492 2.65539 -3.43033 0
M  V30 3082 H 314.163 4.28854 -3.47546 0
M  V30 3083 H 316.639 3.8405 -1.60139 0
M  V30 3084 H 315.515 5.22053 -1.69564 0
M  V30 3085 H 315.776 4.41828 -0.154938 0
M  V30 3086 N 314.835 0.952656 1.25548 0
M  V30 3087 C 316.075 0.614013 1.9496 0
M  V30 3088 C 316.439 -0.833215 1.72978 0
M  V30 3089 O 317.64 -1.28135 2.36294 0
M  V30 3090 C 315.911 0.960562 3.4425 0
M  V30 3091 S 317.47 0.734195 4.32614 0
M  V30 3092 H 314.288 0.225754 0.674208 0
M  V30 3093 H 316.89 1.22641 1.52248 0
M  V30 3094 H 315.594 2.01103 3.57751 0
M  V30 3095 H 315.125 0.338336 3.91942 0
M  V30 3096 H 317.14 -0.395995 4.94617 0
M  V30 3097 N 316.313 -1.40141 0.720998 0
M  V30 3098 C 317.261 -2.3252 0.0608547 0
M  V30 3099 C 318.255 -1.52326 -0.741152 0
M  V30 3100 O 319.461 -1.68089 -0.643911 0
M  V30 3101 H 315.836 -0.751999 0.000876664 0
M  V30 3102 H 317.807 -2.8584 0.856614 0
M  V30 3103 C 316.556 -3.37331 -0.842809 0
M  V30 3104 H 315.879 -3.99108 -0.235084 0
M  V30 3105 H 317.319 -4.04452 -1.27257 0
M  V30 3106 C 315.778 -2.73246 -1.97074 0
M  V30 3107 O 316.308 -2.59998 -3.06209 0
M  V30 3108 N 314.514 -2.31547 -1.75597 0
M  V30 3109 H 314.061 -2.42522 -0.868368 0
M  V30 3110 H 314.019 -1.89007 -2.51244 0
M  V30 3111 N 317.792 -0.46758 -1.50504 0
M  V30 3112 C 319.039 0.0886219 -2.02306 0
M  V30 3113 C 319.367 1.40037 -1.34981 0
M  V30 3114 O 318.622 1.90136 -0.463318 0
M  V30 3115 C 318.921 0.323995 -3.55928 0
M  V30 3116 C 318.587 -0.905618 -4.41712 0
M  V30 3117 C 317.249 -1.24275 -4.64875 0
M  V30 3118 C 319.601 -1.72448 -4.91845 0
M  V30 3119 C 316.929 -2.39888 -5.35417 0
M  V30 3120 C 319.281 -2.87185 -5.63656 0
M  V30 3121 C 317.945 -3.21317 -5.85074 0
M  V30 3122 H 317.215 0.0324291 -0.74029 0
M  V30 3123 H 319.862 -0.620945 -1.81153 0
M  V30 3124 H 318.167 1.11577 -3.75577 0
M  V30 3125 H 319.864 0.76826 -3.93572 0
M  V30 3126 H 316.454 -0.632956 -4.239 0
M  V30 3127 H 320.638 -1.4772 -4.73806 0
M  V30 3128 H 315.894 -2.66611 -5.50208 0
M  V30 3129 H 320.068 -3.50985 -6.01484 0
M  V30 3130 H 317.695 -4.1101 -6.39511 0
M  V30 3131 N 319.27 1.56325 -0.20005 0
M  V30 3132 C 320.2 2.22318 0.713916 0
M  V30 3133 C 321.181 1.18788 1.21752 0
M  V30 3134 O 322.366 1.47309 1.26545 0
M  V30 3135 C 319.496 2.88639 1.93144 0
M  V30 3136 C 318.45 3.98457 1.56255 0
M  V30 3137 C 317.776 4.51967 2.85709 0
M  V30 3138 C 319.076 5.16612 0.768747 0
M  V30 3139 H 320.77 2.98952 0.163755 0
M  V30 3140 H 318.316 1.43792 0.0773219 0
M  V30 3141 H 320.269 3.33491 2.57608 0
M  V30 3142 H 318.993 2.09419 2.50621 0
M  V30 3143 H 317.652 3.54305 0.941471 0
M  V30 3144 H 317.3 3.69503 3.41287 0
M  V30 3145 H 317 5.26071 2.6177 0
M  V30 3146 H 318.524 4.99523 3.51154 0
M  V30 3147 H 319.938 5.57977 1.3166 0
M  V30 3148 H 318.335 5.96812 0.627286 0
M  V30 3149 H 319.405 4.84358 -0.229168 0
M  V30 3150 N 320.748 -0.0735177 1.57428 0
M  V30 3151 C 321.711 -1.07192 2.02589 0
M  V30 3152 C 322.711 -1.31695 0.922661 0
M  V30 3153 O 323.901 -1.27445 1.18758 0
M  V30 3154 C 321.033 -2.41599 2.40506 0
M  V30 3155 H 322.226 -0.682727 2.92025 0
M  V30 3156 H 319.779 -0.319193 1.53006 0
M  V30 3157 H 320.514 -2.85354 1.5409 0
M  V30 3158 H 320.299 -2.25156 3.21009 0
M  V30 3159 H 321.789 -3.13367 2.76027 0
M  V30 3160 N 322.226 -1.5378 -0.344866 0
M  V30 3161 C 323.451 -1.75211 -1.10977 0
M  V30 3162 C 323.876 -0.48936 -1.81623 0
M  V30 3163 O 323.234 0.557925 -1.72502 0
M  V30 3164 C 323.282 -2.93147 -2.09993 0
M  V30 3165 O 322.386 -2.63203 -3.17487 0
M  V30 3166 H 321.727 -0.581241 -0.321021 0
M  V30 3167 H 324.257 -2.00738 -0.395661 0
M  V30 3168 H 324.267 -3.19898 -2.53237 0
M  V30 3169 H 322.942 -3.84731 -1.5797 0
M  V30 3170 H 321.519 -2.47336 -2.79069 0
M  V30 3171 N 323.704 0.605807 -1.45491 0
M  V30 3172 C 324.636 1.73031 -1.5031 0
M  V30 3173 C 325.649 1.57968 -0.393687 0
M  V30 3174 O 326.838 1.65817 -0.660839 0
M  V30 3175 C 323.938 3.11049 -1.34543 0
M  V30 3176 C 323.111 3.52334 -2.59189 0
M  V30 3177 C 322.17 4.69323 -2.37954 0
M  V30 3178 O 321.196 4.7635 -3.11575 0
M  V30 3179 N 322.398 5.62705 -1.4263 0
M  V30 3180 H 325.163 1.6936 -2.4726 0
M  V30 3181 H 322.724 0.79114 -1.41254 0
M  V30 3182 H 324.716 3.87071 -1.18144 0
M  V30 3183 H 323.286 3.09217 -0.458623 0
M  V30 3184 H 322.506 2.66256 -2.90691 0
M  V30 3185 H 323.794 3.76677 -3.42041 0
M  V30 3186 H 323.192 5.59744 -0.818758 0
M  V30 3187 H 321.749 6.38252 -1.32202 0
M  V30 3188 N 325.182 1.32811 0.848464 0
M  V30 3189 C 326.428 1.23907 1.60546 0
M  V30 3190 C 326.761 -0.197161 1.93197 0
M  V30 3191 O 326.036 -1.13596 1.5788 0
M  V30 3192 C 326.319 2.10489 2.92175 0
M  V30 3193 C 326.172 3.62522 2.66266 0
M  V30 3194 C 327.491 1.97075 3.93509 0
M  V30 3195 H 324.61 0.451459 0.58254 0
M  V30 3196 H 327.252 1.62818 0.979296 0
M  V30 3197 H 325.402 1.77434 3.45614 0
M  V30 3198 H 327.074 4.05821 2.19334 0
M  V30 3199 H 325.317 3.84879 2.00126 0
M  V30 3200 H 325.988 4.18437 3.6002 0
M  V30 3201 H 328.464 2.26045 3.49346 0
M  V30 3202 H 327.34 2.59923 4.83457 0
M  V30 3203 H 327.601 0.940186 4.31987 0
M  V30 3204 N 326.66 -1.06551 1.16123 0
M  V30 3205 C 328.071 -1.60768 0.949232 0
M  V30 3206 C 328.422 -1.89523 -0.507508 0
M  V30 3207 O 327.547 -1.66671 -1.38021 0
M  V30 3208 C 328.142 -2.92086 1.71671 0
M  V30 3209 C 326.701 -3.43015 1.54977 0
M  V30 3210 C 325.848 -2.16947 1.72711 0
M  V30 3211 H 328.799 -0.895354 1.31031 0
M  V30 3212 H 328.82 -3.6138 1.19099 0
M  V30 3213 H 328.332 -2.71127 2.7769 0
M  V30 3214 H 326.433 -3.69039 0.513873 0
M  V30 3215 H 326.546 -4.18516 2.33198 0
M  V30 3216 H 324.91 -2.27041 1.15431 0
M  V30 3217 H 325.693 -1.98473 2.80113 0
M  V30 3218 N 328.138 -0.959301 -1.25041 0
M  V30 3219 C 329.385 -0.616611 -1.92884 0
M  V30 3220 C 329.713 0.847036 -1.75087 0
M  V30 3221 O 328.968 1.62374 -1.09239 0
M  V30 3222 C 329.267 -0.927136 -3.45165 0
M  V30 3223 C 328.933 -2.37757 -3.83122 0
M  V30 3224 C 327.595 -2.77402 -3.93194 0
M  V30 3225 C 329.947 -3.31929 -4.01836 0
M  V30 3226 C 327.275 -4.10277 -4.19392 0
M  V30 3227 C 329.627 -4.64423 -4.29528 0
M  V30 3228 C 328.291 -5.03857 -4.37818 0
M  V30 3229 H 327.561 -0.225634 -0.705812 0
M  V30 3230 H 330.208 -1.20921 -1.48493 0
M  V30 3231 H 328.513 -0.252195 -3.90987 0
M  V30 3232 H 330.21 -0.6405 -3.95852 0
M  V30 3233 H 326.8 -2.06013 -3.75841 0
M  V30 3234 H 330.984 -3.02488 -3.93465 0
M  V30 3235 H 326.24 -4.40467 -4.24027 0
M  V30 3236 H 330.414 -5.37369 -4.42953 0
M  V30 3237 H 328.041 -6.06843 -4.57871 0
M  V30 3238 N 329.616 1.39756 -0.72842 0
M  V30 3239 C 331.027 1.83498 -0.344289 0
M  V30 3240 C 331.378 1.60868 1.12321 0
M  V30 3241 O 330.503 1.09634 1.86573 0
M  V30 3242 C 331.098 3.33114 -0.618112 0
M  V30 3243 C 329.657 3.753 -0.287549 0
M  V30 3244 C 328.804 2.62831 -0.884048 0
M  V30 3245 H 331.755 1.28842 -0.926578 0
M  V30 3246 H 331.776 3.80334 0.112349 0
M  V30 3247 H 331.288 3.49553 -1.68625 0
M  V30 3248 H 329.389 3.64451 0.775012 0
M  V30 3249 H 329.502 4.72945 -0.765512 0
M  V30 3250 H 327.866 2.52792 -0.311149 0
M  V30 3251 H 328.649 2.82078 -1.95671 0
M  V30 3252 N 331.094 0.475555 1.50254 0
M  V30 3253 C 332.319 -0.0777042 2.07254 0
M  V30 3254 C 332.744 -1.3235 1.3366 0
M  V30 3255 O 332.102 -1.77152 0.385597 0
M  V30 3256 C 332.15 -0.340169 3.58992 0
M  V30 3257 O 331.254 -1.41982 3.87188 0
M  V30 3258 H 330.595 0.0149556 0.663832 0
M  V30 3259 H 333.125 0.667878 1.93392 0
M  V30 3260 H 333.135 -0.579332 4.03866 0
M  V30 3261 H 331.81 0.570167 4.11973 0
M  V30 3262 H 330.387 -1.16762 3.54148 0
M  V30 3263 N 332.573 -1.56217 0.208337 0
M  V30 3264 C 333.989 -1.58919 -0.14729 0
M  V30 3265 C 334.189 -1.22486 -1.59998 0
M  V30 3266 O 333.245 -0.953849 -2.3379 0
M  V30 3267 C 334.558 -3.00236 0.167048 0
M  V30 3268 C 336.106 -3.12813 0.108219 0
M  V30 3269 C 336.581 -4.56284 0.396049 0
M  V30 3270 N 338.072 -4.61912 0.345142 0
M  V30 3271 C 338.807 -5.70837 0.541523 0
M  V30 3272 N 338.303 -6.88178 0.798968 0
M  V30 3273 N 340.096 -5.60091 0.474867 0
M  V30 3274 H 332.247 -1.78177 1.15614 0
M  V30 3275 H 334.51 -0.827555 0.462446 0
M  V30 3276 H 334.216 -3.31499 1.1748 0
M  V30 3277 H 334.09 -3.7354 -0.524184 0
M  V30 3278 H 336.477 -2.81354 -0.890157 0
M  V30 3279 H 336.558 -2.41866 0.832729 0
M  V30 3280 H 336.202 -4.88458 1.3918 0
M  V30 3281 H 336.132 -5.25439 -0.349502 0
M  V30 3282 H 338.623 -3.77589 0.153316 0
M  V30 3283 H 338.936 -7.67095 0.93727 0
M  V30 3284 H 337.281 -6.89953 0.836013 0
M  V30 3285 H 340.472 -4.67297 0.274064 0
M  V30 3286 H 340.645 -6.44917 0.631326 0
M  V30 3287 N 334.051 0.0651679 -1.57465 0
M  V30 3288 C 334.981 1.07693 -2.07182 0
M  V30 3289 C 335.962 1.39962 -0.966673 0
M  V30 3290 O 337.147 1.49475 -1.2398 0
M  V30 3291 C 334.277 2.3885 -2.52127 0
M  V30 3292 C 333.231 2.20917 -3.66579 0
M  V30 3293 C 332.557 3.57515 -3.97601 0
M  V30 3294 C 333.857 1.62493 -4.9638 0
M  V30 3295 H 335.551 0.663199 -2.91962 0
M  V30 3296 H 333.097 0.317569 -1.40455 0
M  V30 3297 H 335.05 3.09928 -2.85522 0
M  V30 3298 H 333.774 2.82215 -1.64384 0
M  V30 3299 H 332.433 1.52279 -3.33477 0
M  V30 3300 H 332.081 3.98463 -3.06979 0
M  V30 3301 H 331.781 3.46353 -4.74672 0
M  V30 3302 H 333.305 4.30013 -4.33499 0
M  V30 3303 H 334.719 2.23445 -5.27963 0
M  V30 3304 H 333.116 1.62009 -5.77818 0
M  V30 3305 H 334.186 0.587041 -4.81333 0
M  V30 3306 N 335.529 1.53961 0.336706 0
M  V30 3307 C 336.777 1.71197 1.07405 0
M  V30 3308 C 337.098 0.481475 1.88962 0
M  V30 3309 O 336.368 -0.504585 1.8929 0
M  V30 3310 H 334.948 0.631185 0.399517 0
M  V30 3311 H 337.61 1.91232 0.376323 0
M  V30 3312 H 336.706 2.58587 1.74755 0
M  V30 3313 N 337.007 -0.598083 1.45811 0
M  V30 3314 C 338.284 -1.35777 1.40797 0
M  V30 3315 C 338.664 -2.10935 0.083462 0
M  V30 3316 O 338.012 -2.08505 -0.934763 0
M  V30 3317 C 338.222 -2.29666 2.62783 0
M  V30 3318 C 339.57 -2.91977 3.08277 0
M  V30 3319 O 340.594 -2.39984 2.63223 0
M  V30 3320 O 339.453 -3.86376 3.86491 0
M  V30 3321 H 336.547 -0.609291 0.55919 0
M  V30 3322 H 339.093 -0.620379 1.57954 0
M  V30 3323 H 337.865 -1.73454 3.50756 0
M  V30 3324 H 337.488 -3.1077 2.48008 0
M  V30 3325 N 338.485 -1.33259 -0.841409 0
M  V30 3326 C 339.896 -1.22066 -1.41269 0
M  V30 3327 C 340.247 0.161479 -1.95534 0
M  V30 3328 O 339.372 1.06094 -1.88608 0
M  V30 3329 C 339.967 -2.20996 -2.568 0
M  V30 3330 C 338.526 -2.13649 -3.09888 0
M  V30 3331 C 337.673 -2.08623 -1.82679 0
M  V30 3332 H 340.624 -1.44895 -0.647395 0
M  V30 3333 H 340.645 -1.81621 -3.34356 0
M  V30 3334 H 340.157 -3.2158 -2.17274 0
M  V30 3335 H 338.258 -1.16359 -3.53965 0
M  V30 3336 H 338.371 -3.04079 -3.70234 0
M  V30 3337 H 336.735 -1.54061 -2.02824 0
M  V30 3338 H 337.518 -3.1101 -1.45353 0
M  V30 3339 N 339.963 1.05934 -1.16686 0
M  V30 3340 C 340.926 2.11669 -0.879144 0
M  V30 3341 C 341.926 1.60294 0.127445 0
M  V30 3342 O 343.116 1.7389 -0.103865 0
M  V30 3343 C 340.248 3.39438 -0.315425 0
M  V30 3344 H 341.441 2.38626 -1.81653 0
M  V30 3345 H 338.994 1.22058 -0.976299 0
M  V30 3346 H 339.729 3.18132 0.629468 0
M  V30 3347 H 339.514 3.78034 -1.04079 0
M  V30 3348 H 341.004 4.17391 -0.132189 0
M  V30 3349 N 341.441 0.965919 1.2453 0
M  V30 3350 C 342.351 0.502154 2.29163 0
M  V30 3351 C 343.367 -0.436017 1.68448 0
M  V30 3352 O 344.543 -0.309497 1.99008 0
M  V30 3353 C 341.608 -0.201956 3.46111 0
M  V30 3354 C 340.669 0.775821 4.22232 0
M  V30 3355 C 339.902 0.105217 5.33596 0
M  V30 3356 O 340.125 -1.10683 5.59558 0
M  V30 3357 O 339.059 0.796475 5.96607 0
M  V30 3358 H 342.885 1.37194 2.70946 0
M  V30 3359 H 340.47 0.732875 1.30189 0
M  V30 3360 H 342.352 -0.597564 4.17142 0
M  V30 3361 H 341.027 -1.04673 3.06309 0
M  V30 3362 H 339.934 1.22185 3.53584 0
M  V30 3363 H 341.267 1.58896 4.65846 0
M  V30 3364 N 342.919 -1.39368 0.735821 0
M  V30 3365 C 344.149 -2.04498 0.293967 0
M  V30 3366 C 344.557 -1.55593 -1.07645 0
M  V30 3367 O 343.9 -0.716324 -1.69158 0
M  V30 3368 C 343.962 -3.58836 0.218342 0
M  V30 3369 C 343.626 -4.30721 1.52736 0
M  V30 3370 C 344.623 -4.57305 2.47322 0
M  V30 3371 C 342.308 -4.69251 1.79189 0
M  V30 3372 C 344.302 -5.21429 3.66593 0
M  V30 3373 C 341.989 -5.33104 2.98737 0
M  V30 3374 C 342.987 -5.59125 3.9226 0
M  V30 3375 O 342.675 -6.21653 5.09708 0
M  V30 3376 H 342.407 -0.664118 0.126189 0
M  V30 3377 H 344.961 -1.79385 1.00051 0
M  V30 3378 H 343.191 -3.8285 -0.544314 0
M  V30 3379 H 344.88 -4.05447 -0.191626 0
M  V30 3380 H 345.646 -4.27983 2.28156 0
M  V30 3381 H 341.525 -4.48354 1.07239 0
M  V30 3382 H 345.069 -5.41656 4.39607 0
M  V30 3383 H 340.966 -5.61846 3.17803 0
M  V30 3384 H 341.734 -6.40146 5.10054 0
M  V30 3385 N 344.397 -0.483516 -1.5 0
M  V30 3386 C 345.36 0.292965 -2.2732 0
M  V30 3387 C 346.36 0.909499 -1.32608 0
M  V30 3388 O 347.55 0.776745 -1.55924 0
M  V30 3389 C 344.682 1.41854 -3.09984 0
M  V30 3390 H 345.875 -0.385289 -2.97415 0
M  V30 3391 H 343.428 -0.237942 -1.54478 0
M  V30 3392 H 344.163 2.13148 -2.44414 0
M  V30 3393 H 343.948 0.982114 -3.79601 0
M  V30 3394 H 345.438 1.96597 -3.68429 0
M  V30 3395 N 345.875 1.56104 -0.216619 0
M  V30 3396 C 346.825 2.16703 0.708798 0
M  V30 3397 C 347.809 1.11392 1.16106 0
M  V30 3398 O 349.001 1.37395 1.11587 0
M  V30 3399 C 346.13 2.84666 1.91886 0
M  V30 3400 C 345.216 3.97195 1.48651 0
M  V30 3401 N 345.607 4.99959 0.766434 0
M  V30 3402 C 343.905 4.09193 1.77418 0
M  V30 3403 C 344.606 5.79126 0.546659 0
M  V30 3404 N 343.582 5.32315 1.10188 0
M  V30 3405 H 347.384 2.93516 0.150162 0
M  V30 3406 H 344.898 1.6239 -0.0176768 0
M  V30 3407 H 346.895 3.26486 2.59253 0
M  V30 3408 H 345.555 2.09347 2.48202 0
M  V30 3409 H 346.566 5.16197 0.419634 0
M  V30 3410 H 343.243 3.45021 2.35088 0
M  V30 3411 H 344.633 6.71895 -0.026103 0
M  V30 3412 N 347.353 -0.0568162 1.57498 0
M  V30 3413 C 348.283 -1.06593 2.0775 0
M  V30 3414 C 349.264 -1.39448 0.974082 0
M  V30 3415 O 350.449 -1.48815 1.24771 0
M  V30 3416 C 347.579 -2.37509 2.5339 0
M  V30 3417 C 346.533 -2.1897 3.67745 0
M  V30 3418 C 345.859 -3.55402 3.99492 0
M  V30 3419 C 347.159 -1.59859 4.97235 0
M  V30 3420 H 348.853 -0.647706 2.9231 0
M  V30 3421 H 346.399 -0.310116 1.40621 0
M  V30 3422 H 348.352 -3.08409 2.87162 0
M  V30 3423 H 347.076 -2.8134 1.65878 0
M  V30 3424 H 345.735 -1.50508 3.3428 0
M  V30 3425 H 345.383 -3.9683 3.09088 0
M  V30 3426 H 345.083 -3.43831 4.76502 0
M  V30 3427 H 346.607 -4.27708 4.35773 0
M  V30 3428 H 348.021 -2.20642 5.29141 0
M  V30 3429 H 346.418 -1.58942 5.78669 0
M  V30 3430 H 347.488 -0.561506 4.81638 0
M  V30 3431 N 348.832 -1.54138 -0.328536 0
M  V30 3432 C 350.078 -1.7236 -1.06865 0
M  V30 3433 C 350.411 -0.493231 -1.87832 0
M  V30 3434 O 349.686 0.5098 -1.877 0
M  V30 3435 C 349.969 -2.99621 -1.99747 0
M  V30 3436 C 349.822 -4.32899 -1.22143 0
M  V30 3437 C 351.141 -3.22615 -2.99345 0
M  V30 3438 H 348.26 -0.627151 -0.387105 0
M  V30 3439 H 350.902 -1.86827 -0.345767 0
M  V30 3440 H 349.052 -2.87418 -2.61387 0
M  V30 3441 H 350.724 -4.56978 -0.630017 0
M  V30 3442 H 348.967 -4.30628 -0.523628 0
M  V30 3443 H 349.638 -5.18154 -1.90318 0
M  V30 3444 H 352.114 -3.34248 -2.47826 0
M  V30 3445 H 350.99 -4.13027 -3.61524 0
M  V30 3446 H 351.251 -2.3961 -3.71536 0
M  V30 3447 N 350.31 0.590341 -1.46126 0
M  V30 3448 C 351.242 1.71427 -1.52136 0
M  V30 3449 C 352.255 1.57542 -0.41042 0
M  V30 3450 O 353.444 1.65106 -0.678389 0
M  V30 3451 C 350.544 3.09605 -1.37834 0
M  V30 3452 C 349.717 3.49566 -2.62912 0
M  V30 3453 C 348.776 4.66773 -2.42918 0
M  V30 3454 O 347.802 4.73019 -3.1661 0
M  V30 3455 N 349.004 5.61161 -1.4859 0
M  V30 3456 H 351.769 1.66728 -2.49042 0
M  V30 3457 H 349.33 0.776113 -1.42085 0
M  V30 3458 H 351.322 3.85796 -1.22243 0
M  V30 3459 H 349.892 3.08714 -0.491393 0
M  V30 3460 H 349.112 2.63158 -2.93499 0
M  V30 3461 H 350.4 3.73028 -3.46017 0
M  V30 3462 H 349.798 5.58844 -0.87808 0
M  V30 3463 H 348.355 6.36814 -1.38965 0
M  V30 3464 N 351.788 1.33704 0.83433 0
M  V30 3465 C 352.751 1.24244 1.92603 0
M  V30 3466 C 353.751 0.160383 1.59998 0
M  V30 3467 O 354.941 0.412228 1.69252 0
M  V30 3468 C 352.073 0.91555 3.28376 0
M  V30 3469 H 353.266 2.21287 2.02416 0
M  V30 3470 H 350.819 1.17827 1.02696 0
M  V30 3471 H 351.554 -0.0521886 3.24258 0
M  V30 3472 H 351.339 1.69811 3.53422 0
M  V30 3473 H 352.829 0.874231 4.08347 0
M  V30 3474 N 353.266 -1.05314 1.17247 0
M  V30 3475 C 354.515 -1.77685 0.954521 0
M  V30 3476 C 354.828 -1.88616 -0.518025 0
M  V30 3477 O 356.034 -2.57714 -0.854144 0
M  V30 3478 C 354.49 -3.19402 1.65863 0
M  V30 3479 C 354.098 -3.16605 3.16963 0
M  V30 3480 C 355.842 -3.96237 1.52303 0
M  V30 3481 C 353.749 -4.53103 3.80068 0
M  V30 3482 H 352.679 -0.666 0.353496 0
M  V30 3483 H 355.33 -1.1805 1.40486 0
M  V30 3484 H 353.712 -3.79355 1.13602 0
M  V30 3485 H 354.886 -2.66176 3.76148 0
M  V30 3486 H 353.201 -2.53268 3.30521 0
M  V30 3487 H 355.798 -4.97157 1.96822 0
M  V30 3488 H 356.141 -4.136 0.473401 0
M  V30 3489 H 356.674 -3.42829 2.01775 0
M  V30 3490 H 353.413 -4.40946 4.85023 0
M  V30 3491 H 352.933 -5.03686 3.2567 0
M  V30 3492 H 354.612 -5.22045 3.82202 0
M  V30 3493 N 354.744 -0.972509 -1.24016 0
M  V30 3494 C 355.993 -0.632603 -1.91523 0
M  V30 3495 C 356.306 0.836641 -1.76804 0
M  V30 3496 O 357.512 1.28728 -2.39043 0
M  V30 3497 C 355.968 -1.08082 -3.43287 0
M  V30 3498 C 355.576 -2.57386 -3.66683 0
M  V30 3499 C 357.32 -0.814288 -4.16617 0
M  V30 3500 C 355.227 -2.95915 -5.12043 0
M  V30 3501 H 354.157 -0.232898 -0.717129 0
M  V30 3502 H 356.808 -1.17936 -1.40582 0
M  V30 3503 H 355.19 -0.462339 -3.93292 0
M  V30 3504 H 356.364 -3.24405 -3.27258 0
M  V30 3505 H 354.679 -2.81701 -3.06649 0
M  V30 3506 H 357.276 -1.0781 -5.23718 0
M  V30 3507 H 357.619 0.24955 -4.15551 0
M  V30 3508 H 358.152 -1.39397 -3.72577 0
M  V30 3509 H 354.891 -4.0139 -5.18234 0
M  V30 3510 H 354.411 -2.33584 -5.52448 0
M  V30 3511 H 356.09 -2.86086 -5.80314 0
M  V30 3512 N 356.222 1.38976 -0.743202 0
M  V30 3513 C 357.132 2.3434 -0.110399 0
M  V30 3514 C 358.148 1.58741 0.712559 0
M  V30 3515 O 359.324 1.9099 0.639125 0
M  V30 3516 C 356.389 3.37812 0.780012 0
M  V30 3517 C 355.45 4.29263 -0.0561319 0
M  V30 3518 C 354.683 5.27793 0.791875 0
M  V30 3519 O 354.906 5.33043 2.03031 0
M  V30 3520 O 353.84 6.01512 0.216183 0
M  V30 3521 H 357.666 2.90129 -0.897714 0
M  V30 3522 H 355.251 1.40643 -0.503966 0
M  V30 3523 H 357.133 4.01194 1.28923 0
M  V30 3524 H 355.808 2.84395 1.546 0
M  V30 3525 H 354.715 3.69076 -0.611056 0
M  V30 3526 H 356.048 4.85907 -0.784531 0
M  V30 3527 N 357.7 0.491464 1.49741 0
M  V30 3528 C 358.648 -0.305837 2.30581 0
M  V30 3529 C 359.642 -0.971642 1.38764 0
M  V30 3530 O 360.848 -0.90042 1.5586 0
M  V30 3531 H 357.223 -0.117482 0.742767 0
M  V30 3532 H 359.194 0.396093 2.95759 0
M  V30 3533 C 357.943 -1.36319 3.19863 0
M  V30 3534 H 357.266 -0.860258 3.90435 0
M  V30 3535 H 358.706 -1.89323 3.79385 0
M  V30 3536 C 357.165 -2.37621 2.38826 0
M  V30 3537 O 357.695 -3.43311 2.08567 0
M  V30 3538 N 355.901 -2.09849 2.01026 0
M  V30 3539 H 355.448 -1.23922 2.25834 0
M  V30 3540 H 355.406 -2.77859 1.47112 0
M  V30 3541 N 359.178 -1.55987 0.224894 0
M  V30 3542 C 360.589 -1.84553 -0.282345 0
M  V30 3543 C 360.94 -1.14634 -1.59227 0
M  V30 3544 O 360.065 -0.417155 -2.12341 0
M  V30 3545 C 360.66 -3.348 -0.519062 0
M  V30 3546 C 359.219 -3.63671 -0.970604 0
M  V30 3547 C 358.366 -2.77277 -0.0355261 0
M  V30 3548 H 361.317 -1.52245 0.448006 0
M  V30 3549 H 361.338 -3.55187 -1.36463 0
M  V30 3550 H 360.85 -3.8566 0.43449 0
M  V30 3551 H 358.951 -3.1827 -1.9374 0
M  V30 3552 H 359.064 -4.71631 -0.842698 0
M  V30 3553 H 357.428 -2.48846 -0.542927 0
M  V30 3554 H 358.211 -3.30937 0.913003 0
M  V30 3555 N 360.656 0.0484629 -1.57525 0
M  V30 3556 C 361.903 0.743125 -1.88372 0
M  V30 3557 C 362.231 1.76383 -0.819715 0
M  V30 3558 O 361.486 1.94855 0.181659 0
M  V30 3559 C 361.785 1.46632 -3.25935 0
M  V30 3560 C 361.451 0.583427 -4.4711 0
M  V30 3561 C 360.113 0.340191 -4.79996 0
M  V30 3562 C 362.465 -0.0273345 -5.21193 0
M  V30 3563 C 359.793 -0.522903 -5.84365 0
M  V30 3564 C 362.145 -0.878017 -6.26477 0
M  V30 3565 C 360.809 -1.1309 -6.5785 0
M  V30 3566 H 360.079 0.271929 -0.689301 0
M  V30 3567 H 362.726 0.00336166 -1.915 0
M  V30 3568 H 361.031 2.2789 -3.18706 0
M  V30 3569 H 362.728 2.00902 -3.47044 0
M  V30 3570 H 359.318 0.783151 -4.21384 0
M  V30 3571 H 363.502 0.147654 -4.9608 0
M  V30 3572 H 358.758 -0.727335 -6.07058 0
M  V30 3573 H 362.932 -1.35789 -6.83033 0
M  V30 3574 H 360.559 -1.80144 -7.38547 0
M  V30 3575 N 362.134 1.5431 0.320358 0
M  V30 3576 C 363.064 1.86912 1.3995 0
M  V30 3577 C 364.045 0.726211 1.53819 0
M  V30 3578 O 365.23 0.980233 1.67646 0
M  V30 3579 C 362.36 2.09932 2.7667 0
M  V30 3580 C 361.314 3.25776 2.77586 0
M  V30 3581 C 360.64 3.34173 4.17412 0
M  V30 3582 C 361.94 4.6335 2.41048 0
M  V30 3583 H 363.634 2.77292 1.12914 0
M  V30 3584 H 361.18 1.33421 0.541738 0
M  V30 3585 H 363.133 2.31324 3.52232 0
M  V30 3586 H 361.857 1.16304 3.0519 0
M  V30 3587 H 360.516 3.04276 2.04479 0
M  V30 3588 H 360.164 2.38098 4.43078 0
M  V30 3589 H 359.864 4.12033 4.18931 0
M  V30 3590 H 361.388 3.57803 4.94782 0
M  V30 3591 H 362.802 4.84602 3.06324 0
M  V30 3592 H 361.199 5.43782 2.53813 0
M  V30 3593 H 362.269 4.65381 1.36193 0
M  V30 3594 N 363.613 -0.582584 1.46437 0
M  V30 3595 C 364.561 -1.71272 1.5738 0
M  V30 3596 C 365.555 -1.63524 0.44229 0
M  V30 3597 O 366.761 -1.69016 0.619166 0
M  V30 3598 H 363.136 -0.566273 0.494813 0
M  V30 3599 H 365.107 -1.59174 2.52401 0
M  V30 3600 C 363.856 -3.09658 1.58136 0
M  V30 3601 H 363.179 -3.16291 2.44541 0
M  V30 3602 H 364.619 -3.88494 1.69847 0
M  V30 3603 C 363.078 -3.3547 0.310026 0
M  V30 3604 O 363.608 -3.97199 -0.599683 0
M  V30 3605 N 361.814 -2.89925 0.197901 0
M  V30 3606 H 361.361 -2.39873 0.93909 0
M  V30 3607 H 361.319 -3.07568 -0.65185 0
M  V30 3608 N 365.091 -1.34144 -0.827227 0
M  V30 3609 C 366.339 -1.26009 -1.58007 0
M  V30 3610 C 366.66 0.170971 -1.94249 0
M  V30 3611 O 365.93 1.10256 -1.61927 0
M  V30 3612 H 364.51 -0.463414 -0.585881 0
M  V30 3613 H 367.172 -1.68005 -0.987951 0
M  V30 3614 H 366.268 -1.86187 -2.50481 0
M  V30 3615 N 366.569 1.04691 -1.17803 0
M  V30 3616 C 367.479 2.16057 -0.914151 0
M  V30 3617 C 368.495 1.73589 0.119503 0
M  V30 3618 O 369.671 2.01308 -0.0609468 0
M  V30 3619 C 366.736 3.4394 -0.436603 0
M  V30 3620 C 365.797 4.00825 -1.53746 0
M  V30 3621 C 365.03 5.22604 -1.0826 0
M  V30 3622 O 365.253 5.70367 0.0612244 0
M  V30 3623 O 364.187 5.7186 -1.87775 0
M  V30 3624 H 368.013 2.41169 -1.84584 0
M  V30 3625 H 365.598 1.1453 -0.959334 0
M  V30 3626 H 367.48 4.21024 -0.178057 0
M  V30 3627 H 366.155 3.20316 0.466869 0
M  V30 3628 H 365.062 3.25158 -1.84995 0
M  V30 3629 H 366.395 4.28778 -2.41683 0
M  V30 3630 N 368.047 0.979072 1.23499 0
M  V30 3631 C 369.293 0.648178 1.92163 0
M  V30 3632 C 369.626 -0.816049 1.76222 0
M  V30 3633 O 368.901 -1.58849 1.12237 0
M  V30 3634 C 369.184 1.03773 3.44824 0
M  V30 3635 C 369.037 2.55948 3.69879 0
M  V30 3636 C 370.356 0.580653 4.36253 0
M  V30 3637 H 367.475 0.236952 0.69787 0
M  V30 3638 H 370.117 1.22012 1.45647 0
M  V30 3639 H 368.267 0.551058 3.84572 0
M  V30 3640 H 369.939 3.12179 3.3962 0
M  V30 3641 H 368.182 2.98641 3.14636 0
M  V30 3642 H 368.853 2.78255 4.76737 0
M  V30 3643 H 371.329 0.998465 4.03943 0
M  V30 3644 H 370.205 0.881663 5.41773 0
M  V30 3645 H 370.466 -0.519052 4.39042 0
M  V30 3646 N 369.525 -1.3858 0.750561 0
M  V30 3647 C 370.774 -1.99424 0.302172 0
M  V30 3648 C 371.087 -1.60254 -1.12152 0
M  V30 3649 O 372.293 -2.14046 -1.67023 0
M  V30 3650 C 370.749 -3.56558 0.489307 0
M  V30 3651 C 370.357 -4.04682 1.92189 0
M  V30 3652 C 372.101 -4.24374 0.103478 0
M  V30 3653 C 370.008 -5.54446 2.05775 0
M  V30 3654 H 368.938 -0.746046 0.10923 0
M  V30 3655 H 371.589 -1.58383 0.92667 0
M  V30 3656 H 369.971 -3.95472 -0.204329 0
M  V30 3657 H 371.145 -3.77065 2.64875 0
M  V30 3658 H 369.46 -3.4958 2.26236 0
M  V30 3659 H 372.057 -5.34384 0.183787 0
M  V30 3660 H 372.4 -4.05468 -0.943481 0
M  V30 3661 H 372.933 -3.90688 0.748854 0
M  V30 3662 H 369.672 -5.78252 3.08714 0
M  V30 3663 H 369.192 -5.83816 1.37546 0
M  V30 3664 H 370.871 -6.20099 1.84626 0
M  V30 3665 N 371.003 -0.499398 -1.49478 0
M  V30 3666 C 372.419 -0.155261 -1.58843 0
M  V30 3667 C 372.619 1.34008 -1.50479 0
M  V30 3668 O 371.675 2.11589 -1.37791 0
M  V30 3669 C 372.988 -0.730636 -2.91689 0
M  V30 3670 C 374.536 -0.696599 -3.0515 0
M  V30 3671 C 375.011 -1.25001 -4.40612 0
M  V30 3672 N 376.502 -1.21064 -4.47099 0
M  V30 3673 C 377.237 -1.60905 -5.50361 0
M  V30 3674 N 376.733 -2.08331 -6.60735 0
M  V30 3675 N 378.526 -1.52331 -5.41065 0
M  V30 3676 H 370.677 -1.47162 -1.53158 0
M  V30 3677 H 372.94 -0.610309 -0.725415 0
M  V30 3678 H 372.646 -1.77928 -3.03372 0
M  V30 3679 H 372.52 -0.190161 -3.7672 0
M  V30 3680 H 374.907 0.343204 -2.93097 0
M  V30 3681 H 374.988 -1.2742 -2.21806 0
M  V30 3682 H 374.632 -2.28859 -4.53416 0
M  V30 3683 H 374.562 -0.64836 -5.22593 0
M  V30 3684 H 377.053 -0.863128 -3.67911 0
M  V30 3685 H 377.366 -2.36805 -7.35624 0
M  V30 3686 H 375.711 -2.12304 -6.6178 0
M  V30 3687 H 378.902 -1.151 -4.53729 0
M  V30 3688 H 379.075 -1.83704 -6.21415 0
M  V30 3689 N 372.481 1.55866 -0.233164 0
M  V30 3690 C 373.411 2.23783 0.666599 0
M  V30 3691 C 374.392 1.21343 1.19205 0
M  V30 3692 O 375.577 1.4996 1.23392 0
M  V30 3693 C 372.707 2.92671 1.86978 0
M  V30 3694 C 371.661 4.01682 1.47768 0
M  V30 3695 C 370.987 4.57926 2.76058 0
M  V30 3696 C 372.287 5.18126 0.658993 0
M  V30 3697 H 373.981 2.99232 0.100306 0
M  V30 3698 H 371.527 1.43924 0.046804 0
M  V30 3699 H 373.48 3.3888 2.50476 0
M  V30 3700 H 372.204 2.14688 2.46123 0
M  V30 3701 H 370.863 3.56222 0.866106 0
M  V30 3702 H 370.511 3.76659 3.33372 0
M  V30 3703 H 370.211 5.31505 2.50552 0
M  V30 3704 H 371.735 5.06859 3.40479 0
M  V30 3705 H 373.149 5.60644 1.19795 0
M  V30 3706 H 371.546 5.98009 0.500552 0
M  V30 3707 H 372.616 4.83763 -0.331856 0
M  V30 3708 N 373.959 -0.0401083 1.57549 0
M  V30 3709 C 375.236 -0.767917 1.79896 0
M  V30 3710 C 375.616 -1.9416 0.82856 0
M  V30 3711 O 374.964 -2.2812 -0.131671 0
M  V30 3712 C 375.174 -1.2113 3.27305 0
M  V30 3713 C 376.522 -1.63175 3.91994 0
M  V30 3714 O 377.546 -1.30616 3.31388 0
M  V30 3715 O 376.405 -2.23565 4.98679 0
M  V30 3716 H 373.499 -0.370441 0.739393 0
M  V30 3717 H 376.045 -0.017737 1.69691 0
M  V30 3718 H 374.817 -0.372937 3.89519 0
M  V30 3719 H 374.44 -2.02183 3.42356 0
M  V30 3720 N 375.437 -1.54477 -0.31217 0
M  V30 3721 C 376.685 -1.72884 -1.04668 0
M  V30 3722 C 377.006 -0.511477 -1.88173 0
M  V30 3723 O 376.276 0.474407 -1.90069 0
M  V30 3724 H 374.856 -0.637461 -0.389425 0
M  V30 3725 H 377.518 -1.91807 -0.345852 0
M  V30 3726 H 376.614 -2.61334 -1.70619 0
M  V30 3727 N 376.915 0.57481 -1.46744 0
M  V30 3728 C 377.878 1.66533 -1.57478 0
M  V30 3729 C 378.878 1.54338 -0.451263 0
M  V30 3730 O 380.068 1.58814 -0.715813 0
M  V30 3731 C 377.2 3.05999 -1.50259 0
M  V30 3732 H 378.393 1.58372 -2.54673 0
M  V30 3733 H 375.946 0.793301 -1.34672 0
M  V30 3734 H 376.681 3.19709 -0.543725 0
M  V30 3735 H 376.466 3.16259 -2.31781 0
M  V30 3736 H 377.956 3.8537 -1.60872 0
M  V30 3737 N 378.394 1.34581 0.820102 0
M  V30 3738 C 379.643 1.26437 1.57151 0
M  V30 3739 C 379.956 -0.163111 1.94919 0
M  V30 3740 O 381.162 -0.366722 2.69012 0
M  V30 3741 C 379.618 2.21658 2.83541 0
M  V30 3742 C 379.226 3.69679 2.53065 0
M  V30 3743 C 380.97 2.22428 3.61561 0
M  V30 3744 C 378.877 4.56761 3.75664 0
M  V30 3745 H 377.807 0.469707 0.589823 0
M  V30 3746 H 380.458 1.59763 0.902656 0
M  V30 3747 H 378.84 1.81287 3.52067 0
M  V30 3748 H 380.014 4.18605 1.92631 0
M  V30 3749 H 378.329 3.71384 1.88316 0
M  V30 3750 H 380.926 2.8471 4.52597 0
M  V30 3751 H 381.269 1.22434 3.97889 0
M  V30 3752 H 381.802 2.61259 2.99981 0
M  V30 3753 H 378.541 5.57702 3.44454 0
M  V30 3754 H 378.061 4.12568 4.35371 0
M  V30 3755 H 379.74 4.71509 4.43044 0
M  V30 3756 N 379.872 -1.04064 1.18357 0
M  V30 3757 C 381.288 -1.2947 0.933258 0
M  V30 3758 C 381.488 -1.97466 -0.401169 0
M  V30 3759 O 380.544 -2.25528 -1.13549 0
M  V30 3760 C 381.857 -2.15337 2.09882 0
M  V30 3761 C 383.405 -2.28683 2.13712 0
M  V30 3762 C 383.88 -3.17917 3.29686 0
M  V30 3763 N 385.371 -3.25504 3.29547 0
M  V30 3764 C 386.106 -3.94706 4.15926 0
M  V30 3765 N 385.602 -4.66239 5.12439 0
M  V30 3766 N 387.395 -3.90986 4.0384 0
M  V30 3767 H 379.546 -0.583359 2.04232 0
M  V30 3768 H 381.809 -0.319921 0.892387 0
M  V30 3769 H 381.515 -1.72682 3.06389 0
M  V30 3770 H 381.389 -3.16015 2.05947 0
M  V30 3771 H 383.776 -2.70575 1.17784 0
M  V30 3772 H 383.857 -1.27596 2.21705 0
M  V30 3773 H 383.501 -2.76736 4.25887 0
M  V30 3774 H 383.431 -4.19036 3.1893 0
M  V30 3775 H 385.922 -2.74547 2.59677 0
M  V30 3776 H 386.235 -5.16638 5.74722 0
M  V30 3777 H 384.58 -4.65143 5.16398 0
M  V30 3778 H 387.771 -3.34234 3.27727 0
M  V30 3779 H 387.944 -4.44646 4.71375 0
M  V30 3780 N 381.35 -0.985608 -1.22978 0
M  V30 3781 C 382.283 -0.47487 -2.23204 0
M  V30 3782 C 383.261 0.460865 -1.55932 0
M  V30 3783 O 384.445 0.388105 -1.84461 0
M  V30 3784 C 381.572 0.312427 -3.37256 0
M  V30 3785 C 380.618 -0.568219 -4.22698 0
M  V30 3786 S 381.451 -2.01919 -4.95973 0
M  V30 3787 C 382.607 -1.24118 -6.1347 0
M  V30 3788 H 382.84 -1.32419 -2.66181 0
M  V30 3789 H 380.373 -0.792005 -1.32539 0
M  V30 3790 H 382.331 0.760645 -4.03391 0
M  V30 3791 H 380.992 1.13693 -2.92801 0
M  V30 3792 H 380.185 0.0371657 -5.03986 0
M  V30 3793 H 379.787 -0.952897 -3.61657 0
M  V30 3794 H 382.079 -0.505121 -6.75614 0
M  V30 3795 H 383.022 -2.02907 -6.78406 0
M  V30 3796 H 383.43 -0.757669 -5.59392 0
M  V30 3797 N 382.828 1.3818 -0.7579 0
M  V30 3798 C 383.76 2.2901 -0.0932177 0
M  V30 3799 C 384.773 1.47958 0.679136 0
M  V30 3800 O 385.962 1.70773 0.519514 0
M  V30 3801 C 383.062 3.26953 0.89192 0
M  V30 3802 C 382.235 4.37045 0.176303 0
M  V30 3803 C 381.294 5.15148 1.07281 0
M  V30 3804 O 380.32 5.66616 0.541728 0
M  V30 3805 N 381.522 5.28542 2.40049 0
M  V30 3806 H 384.287 2.86694 -0.873303 0
M  V30 3807 H 381.848 1.50007 -0.609054 0
M  V30 3808 H 383.84 3.76083 1.49479 0
M  V30 3809 H 382.41 2.70136 1.57306 0
M  V30 3810 H 381.63 3.89493 -0.607328 0
M  V30 3811 H 382.918 5.07801 -0.318718 0
M  V30 3812 H 382.316 4.88285 2.85647 0
M  V30 3813 H 380.873 5.8103 2.95376 0
M  V30 3814 N 384.306 0.507319 1.49211 0
M  V30 3815 C 385.717 0.0611118 1.866 0
M  V30 3816 C 386.068 -1.35488 1.41907 0
M  V30 3817 O 385.193 -2.0108 0.799726 0
M  V30 3818 C 385.788 0.104125 3.3864 0
M  V30 3819 C 384.347 -0.28677 3.75306 0
M  V30 3820 C 383.494 0.473893 2.73221 0
M  V30 3821 H 386.445 0.719775 1.41439 0
M  V30 3822 H 386.466 -0.689672 3.74198 0
M  V30 3823 H 385.978 1.13482 3.71138 0
M  V30 3824 H 384.079 -1.32046 3.48417 0
M  V30 3825 H 384.192 0.0370745 4.79086 0
M  V30 3826 H 382.556 -0.0770644 2.54583 0
M  V30 3827 H 383.339 1.50478 3.08563 0
M  V30 3828 O 385.823 -1.56889 0.38316 0
M  V30 3829 H 386.514 -1.93009 -0.163415 0
M  V30 END ATOM
M  V30 BEGIN BOND
M  V30 END BOND
M  V30 END CTAB
M  END
$$$$
