drugbank_target|Q99527 G-protein coupled estrogen receptor 1 (DB00783; DB01645; DB05939; DB13952; DB13953; DB13954; DB13955; DB13956)
 OpenBabel12092120323D

  0  0  0     0  0            999 V3000
M  V30 BEGIN CTAB
M  V30 COUNTS 6000 6076 0 0 0
M  V30 BEGIN ATOM
M  V30 1 H -0.908 1.98254 -0.117106 0
M  V30 2 N 0 1.576 0 0
M  V30 3 C 0.933 2.03868 1.02534 0
M  V30 4 C 1.911 0.928543 1.3348 0
M  V30 5 O 3.095 1.19667 1.45644 0
M  V30 6 C 0.222 2.43627 2.35294 0
M  V30 7 C -0.732 3.65373 2.2001 0
M  V30 8 S 0.101 5.13292 1.52614 0
M  V30 9 C 1.257 5.56322 2.86805 0
M  V30 10 H 1.49 2.90518 0.631377 0
M  V30 11 H -0.977 1.52953 0.210867 0
M  V30 12 H 0.981 2.67203 3.11629 0
M  V30 13 H -0.358 1.57376 2.7183 0
M  V30 14 H -1.165 3.90944 3.18086 0
M  V30 15 H -1.563 3.418 1.51819 0
M  V30 16 H 0.729 5.58782 3.83104 0
M  V30 17 H 1.672 6.56266 2.65933 0
M  V30 18 H 2.08 4.83886 2.90714 0
M  V30 19 N 1.4781 -0.272755 1.55222 0
M  V30 20 C 2.7551 -1.02562 1.66555 0
M  V30 21 C 3.1351 -2.04282 0.532189 0
M  V30 22 O 2.4831 -2.23662 -0.467717 0
M  V30 23 C 2.6931 -1.6822 3.05782 0
M  V30 24 C 4.0411 -2.19373 3.63539 0
M  V30 25 O 5.0651 -1.78206 3.08417 0
M  V30 26 O 3.9241 -2.94883 4.60115 0
M  V30 27 H 1.0181 -0.475755 0.676451 0
M  V30 28 H 3.5641 -0.268593 1.67561 0
M  V30 29 H 2.3361 -0.945112 3.79715 0
M  V30 30 H 1.9591 -2.50609 3.08676 0
M  V30 31 N 2.9562 -1.48159 -0.537278 0
M  V30 32 C 4.2022 -1.56035 -1.29541 0
M  V30 33 C 4.5352 -0.230377 -1.92829 0
M  V30 34 O 3.8102 0.762952 -1.78911 0
M  V30 35 C 4.0932 -2.69323 -2.39034 0
M  V30 36 C 3.9462 -4.12002 -1.80485 0
M  V30 37 C 5.2652 -2.78408 -3.40847 0
M  V30 38 H 2.3842 -0.567992 -0.469632 0
M  V30 39 H 5.0262 -1.80302 -0.599277 0
M  V30 40 H 3.1762 -2.48763 -2.98412 0
M  V30 41 H 4.8482 -4.43981 -1.25215 0
M  V30 42 H 3.0912 -4.19344 -1.11055 0
M  V30 43 H 3.7622 -4.87077 -2.59731 0
M  V30 44 H 6.2382 -2.97012 -2.91416 0
M  V30 45 H 5.1142 -3.59416 -4.14863 0
M  V30 46 H 5.3752 -1.86269 -4.00944 0
M  V30 47 N 4.4343 0.785586 -1.36625 0
M  V30 48 C 5.6623 1.57448 -1.3423 0
M  V30 49 C 6.0773 1.88649 0.0755653 0
M  V30 50 O 5.4343 1.50414 1.03354 0
M  V30 51 C 5.4853 2.89316 -2.16745 0
M  V30 52 O 5.2063 2.59459 -3.53005 0
M  V30 53 C 6.7073 3.83606 -2.22174 0
M  V30 54 H 3.9273 0.488226 -0.4603 0
M  V30 55 H 6.4713 0.974733 -1.79775 0
M  V30 56 H 4.6263 3.4575 -1.74745 0
M  V30 57 H 5.0403 3.43804 -3.96105 0
M  V30 58 H 6.5143 4.73181 -2.8426 0
M  V30 59 H 6.9913 4.21734 -1.22627 0
M  V30 60 H 7.5973 3.33104 -2.64427 0
M  V30 61 N 5.9124 1.20967 1.01018 0
M  V30 62 C 7.1374 1.0503 1.78839 0
M  V30 63 C 7.5624 -0.395752 1.8389 0
M  V30 64 O 6.9204 -1.28529 1.27867 0
M  V30 65 C 6.9684 1.64602 3.2084 0
M  V30 66 O 6.0724 0.887988 4.02726 0
M  V30 67 H 5.4134 0.369987 0.551367 0
M  V30 68 H 7.9434 1.60399 1.27018 0
M  V30 69 H 7.9534 1.68607 3.71532 0
M  V30 70 H 6.6284 2.69841 3.16479 0
M  V30 71 H 5.2054 0.922648 3.61305 0
M  V30 72 N 7.3905 -1.2043 1.01659 0
M  V30 73 C 8.3225 -2.22626 0.544988 0
M  V30 74 C 9.3355 -1.58479 -0.372609 0
M  V30 75 O 10.5245 -1.77679 -0.170958 0
M  V30 76 C 7.6245 -3.38141 -0.22663 0
M  V30 77 C 6.7975 -4.31877 0.692876 0
M  V30 78 C 5.8565 -5.26191 -0.0311616 0
M  V30 79 O 4.8825 -5.6612 0.591343 0
M  V30 80 N 6.0845 -5.65618 -1.30601 0
M  V30 81 H 8.8495 -2.63716 1.42388 0
M  V30 82 H 6.4105 -1.34971 0.894116 0
M  V30 83 H 8.4025 -3.98239 -0.72024 0
M  V30 84 H 6.9725 -2.95943 -1.00681 0
M  V30 85 H 6.1925 -3.69746 1.36679 0
M  V30 86 H 7.4805 -4.91426 1.31824 0
M  V30 87 H 6.8785 -5.3519 -1.83269 0
M  V30 88 H 5.4355 -6.28025 -1.74435 0
M  V30 89 N 8.8686 -0.792821 -1.36206 0
M  V30 90 C 9.8316 -0.199459 -2.2833 0
M  V30 91 C 10.8316 0.605189 -1.48977 0
M  V30 92 O 12.0216 0.425685 -1.68919 0
M  V30 93 C 9.1536 0.723523 -3.33134 0
M  V30 94 H 10.3466 -1.01181 -2.82316 0
M  V30 95 H 7.8996 -0.562485 -1.45828 0
M  V30 96 H 8.6346 1.56008 -2.84309 0
M  V30 97 H 8.4196 0.148436 -3.91819 0
M  V30 98 H 9.9096 1.13344 -4.01924 0
M  V30 99 N 10.3467 1.47872 -0.545128 0
M  V30 100 C 11.7627 1.5829 -0.204032 0
M  V30 101 C 11.9627 1.54529 1.29317 0
M  V30 102 O 11.0187 1.44232 2.07252 0
M  V30 103 C 12.3317 2.89304 -0.819987 0
M  V30 104 C 13.8797 3.02864 -0.790105 0
M  V30 105 C 14.3547 4.3656 -1.38491 0
M  V30 106 N 15.8457 4.43165 -1.34755 0
M  V30 107 C 16.5807 5.45153 -1.77753 0
M  V30 108 N 16.0767 6.54016 -2.2855 0
M  V30 109 N 17.8697 5.36125 -1.68897 0
M  V30 110 H 10.0207 1.4856 -1.51802 0
M  V30 111 H 12.2837 0.706305 -0.632327 0
M  V30 112 H 11.9897 2.97757 -1.87173 0
M  V30 113 H 11.8637 3.75957 -0.305915 0
M  V30 114 H 14.2507 2.94014 0.252913 0
M  V30 115 H 14.3317 2.17782 -1.34181 0
M  V30 116 H 13.9757 4.46164 -2.42693 0
M  V30 117 H 13.9057 5.20353 -0.808754 0
M  V30 118 H 16.3967 3.65083 -0.975855 0
M  V30 119 H 16.7097 7.27994 -2.59314 0
M  V30 120 H 15.0547 6.54938 -2.32553 0
M  V30 121 H 18.2457 4.49975 -1.28998 0
M  V30 122 H 18.4187 6.15472 -2.02726 0
M  V30 123 N 11.8248 0.280983 1.55075 0
M  V30 124 C 13.0728 -0.333455 1.9933 0
M  V30 125 C 13.3938 -1.55937 1.17085 0
M  V30 126 O 12.6638 -1.94143 0.261805 0
M  V30 127 H 11.2438 -0.126197 0.736263 0
M  V30 128 H 13.9058 0.387678 1.91005 0
M  V30 129 H 13.0018 -0.619292 3.05894 0
M  V30 130 N 13.3029 -1.57598 0.00835791 0
M  V30 131 C 14.5489 -1.91211 -0.675732 0
M  V30 132 C 14.8819 -0.883139 -1.72958 0
M  V30 133 O 14.1569 0.097016 -1.94258 0
M  V30 134 C 14.4399 -3.35379 -1.31123 0
M  V30 135 C 14.2929 -4.48999 -0.268356 0
M  V30 136 C 15.6119 -3.7912 -2.23508 0
M  V30 137 H 12.7309 -0.695374 -0.244179 0
M  V30 138 H 15.3729 -1.89901 0.0613655 0
M  V30 139 H 13.5229 -3.36626 -1.93946 0
M  V30 140 H 15.1949 -4.59887 0.360844 0
M  V30 141 H 13.4379 -4.31873 0.408482 0
M  V30 142 H 14.1089 -5.46851 -0.752218 0
M  V30 143 H 16.5849 -3.79477 -1.70693 0
M  V30 144 H 15.4609 -4.80729 -2.64936 0
M  V30 145 H 15.7219 -3.13455 -3.11766 0
M  V30 146 N 14.781 0.264519 -1.55364 0
M  V30 147 C 16.029 0.993021 -1.76021 0
M  V30 148 C 16.35 1.86511 -0.569099 0
M  V30 149 O 15.62 1.91438 0.415735 0
M  V30 150 H 14.2 0.369639 -0.649135 0
M  V30 151 H 16.862 0.286707 -1.9278 0
M  V30 152 H 15.958 1.62502 -2.66457 0
M  V30 153 N 16.2591 1.48442 0.529413 0
M  V30 154 C 17.1891 1.65902 1.64313 0
M  V30 155 C 18.1701 0.507897 1.6234 0
M  V30 156 O 19.3551 0.740503 1.79528 0
M  V30 157 C 16.4851 1.69911 3.02898 0
M  V30 158 C 15.4391 2.8453 3.19729 0
M  V30 159 C 14.7651 2.73629 4.59381 0
M  V30 160 C 16.0651 4.25821 3.02447 0
M  V30 161 H 17.7591 2.5914 1.49955 0
M  V30 162 H 15.3051 1.24709 0.719982 0
M  V30 163 H 17.2581 1.80715 3.80684 0
M  V30 164 H 15.9821 0.732524 3.18279 0
M  V30 165 H 14.6411 2.73283 2.44361 0
M  V30 166 H 14.2891 1.74938 4.71599 0
M  V30 167 H 13.9891 3.50541 4.71588 0
M  V30 168 H 15.5131 2.86401 5.39265 0
M  V30 169 H 16.9271 4.37898 3.70024 0
M  V30 170 H 15.3241 5.03735 3.26146 0
M  V30 171 H 16.3941 4.42244 1.98867 0
M  V30 172 N 17.7372 -0.778329 1.37039 0
M  V30 173 C 18.6472 -1.92253 1.34446 0
M  V30 174 C 19.6632 -1.72267 0.244991 0
M  V30 175 O 20.8392 -1.95615 0.479258 0
M  V30 176 C 17.9042 -3.27282 1.144 0
M  V30 177 C 16.9652 -3.59969 2.33925 0
M  V30 178 C 16.1982 -4.88555 2.14825 0
M  V30 179 O 16.4212 -5.59113 1.12912 0
M  V30 180 O 15.3552 -5.20153 3.02861 0
M  V30 181 H 19.1812 -1.97392 2.30803 0
M  V30 182 H 16.7662 -0.920154 1.17701 0
M  V30 183 H 18.6482 -4.08062 1.05182 0
M  V30 184 H 17.3232 -3.23011 0.211124 0
M  V30 185 H 16.2302 -2.7945 2.48714 0
M  V30 186 H 17.5632 -3.68976 3.25757 0
M  V30 187 N 19.2153 -1.21501 -1.00376 0
M  V30 188 C 20.1483 -0.918669 -2.08892 0
M  V30 189 C 21.1263 0.134277 -1.62045 0
M  V30 190 O 22.3103 0.00504255 -1.88499 0
M  V30 191 C 19.4373 -0.379645 -3.36566 0
M  V30 192 C 18.4833 -1.41559 -4.02323 0
M  V30 193 S 19.3163 -2.98521 -4.44574 0
M  V30 194 C 20.4723 -2.46228 -5.75433 0
M  V30 195 H 20.7053 -1.83761 -2.33707 0
M  V30 196 H 18.2383 -1.04489 -1.13673 0
M  V30 197 H 20.1963 -0.0752195 -4.10431 0
M  V30 198 H 18.8573 0.518008 -3.09799 0
M  V30 199 H 18.0503 -0.988076 -4.9422 0
M  V30 200 H 17.6523 -1.66815 -3.34737 0
M  V30 201 H 19.9443 -1.86791 -6.51241 0
M  V30 202 H 20.8873 -3.36572 -6.22997 0
M  V30 203 H 21.2953 -1.87894 -5.32312 0
M  V30 204 N 20.6934 1.19889 -1.02296 0
M  V30 205 C 21.9234 1.93109 -0.734332 0
M  V30 206 C 22.3314 1.75377 0.709889 0
M  V30 207 O 21.6744 1.06912 1.49384 0
M  V30 208 C 21.7364 3.45362 -0.99827 0
M  V30 209 C 21.4004 3.8686 -2.43287 0
M  V30 210 C 22.3974 3.92102 -3.41397 0
M  V30 211 C 20.0824 4.18668 -2.77529 0
M  V30 212 C 22.0764 4.28573 -4.71809 0
M  V30 213 C 19.7634 4.54813 -4.08153 0
M  V30 214 C 20.7614 4.59739 -5.05103 0
M  V30 215 O 20.4494 4.95051 -6.33388 0
M  V30 216 H 20.1814 0.620409 -0.268456 0
M  V30 217 H 22.7354 1.53144 -1.3688 0
M  V30 218 H 20.9654 3.85482 -0.306645 0
M  V30 219 H 22.6544 3.99814 -0.700234 0
M  V30 220 H 23.4204 3.67685 -3.1628 0
M  V30 221 H 19.2994 4.14021 -2.0275 0
M  V30 222 H 22.8434 4.32333 -5.4748 0
M  V30 223 H 18.7404 4.78687 -4.33047 0
M  V30 224 H 19.5084 5.1302 -6.37772 0
M  V30 225 N 22.1715 0.800033 1.35784 0
M  V30 226 C 23.5825 0.439142 1.81462 0
M  V30 227 C 23.9335 -1.03813 1.66485 0
M  V30 228 O 23.0585 -1.80626 1.19177 0
M  V30 229 C 23.6535 0.790314 3.29453 0
M  V30 230 C 22.2125 0.482111 3.733 0
M  V30 231 C 21.3595 1.01938 2.57883 0
M  V30 232 H 24.3105 0.992254 1.23855 0
M  V30 233 H 24.3315 0.0853677 3.80404 0
M  V30 234 H 23.8435 1.86554 3.40322 0
M  V30 235 H 21.9445 -0.584652 3.67984 0
M  V30 236 H 22.0575 1.01015 4.6833 0
M  V30 237 H 20.4215 0.442043 2.50835 0
M  V30 238 H 21.2045 2.10059 2.71533 0
M  V30 239 N 23.6496 -1.47581 0.552962 0
M  V30 240 C 24.8976 -2.02082 0.0272703 0
M  V30 241 C 25.2186 -1.4301 -1.32563 0
M  V30 242 O 24.4886 -0.603745 -1.86365 0
M  V30 243 H 23.0686 -0.746966 0.00709182 0
M  V30 244 H 25.7306 -1.81033 0.722008 0
M  V30 245 H 24.8266 -3.12034 -0.0639951 0
M  V30 246 N 25.1277 -0.289203 -1.54924 0
M  V30 247 C 26.3557 0.326463 -2.04308 0
M  V30 248 C 26.7707 1.48413 -1.16701 0
M  V30 249 O 26.1277 1.81507 -0.190087 0
M  V30 250 C 26.1787 0.794014 -3.52672 0
M  V30 251 O 25.8997 -0.317564 -4.36948 0
M  V30 252 C 27.4007 1.47605 -4.18004 0
M  V30 253 H 24.6207 0.0726272 -0.667058 0
M  V30 254 H 27.1647 -0.425401 -2.00026 0
M  V30 255 H 25.3197 1.49593 -3.57352 0
M  V30 256 H 25.7337 0.0443186 -5.24481 0
M  V30 257 H 27.2077 1.75447 -5.23376 0
M  V30 258 H 27.6847 2.41224 -3.67025 0
M  V30 259 H 28.2907 0.81762 -4.17367 0
M  V30 260 N 26.6058 1.57591 -0.0167156 0
M  V30 261 C 27.5688 2.08393 0.954204 0
M  V30 262 C 28.5688 0.996531 1.26198 0
M  V30 263 O 29.7588 1.25858 1.20438 0
M  V30 264 C 26.8908 2.5394 2.27436 0
M  V30 265 H 28.0838 2.95455 0.514451 0
M  V30 266 H 25.6368 1.54582 0.231089 0
M  V30 267 H 26.3718 1.70171 2.76066 0
M  V30 268 H 26.1568 3.33371 2.06412 0
M  V30 269 H 27.6468 2.93512 2.97053 0
M  V30 270 N 28.0839 -0.256276 1.55502 0
M  V30 271 C 29.0159 -1.33981 1.85962 0
M  V30 272 C 30.0289 -1.44743 0.745212 0
M  V30 273 O 31.2179 -1.4626 1.02324 0
M  V30 274 C 28.3179 -2.7194 2.02242 0
M  V30 275 C 27.4909 -2.83562 3.33033 0
M  V30 276 C 26.5499 -4.02304 3.39172 0
M  V30 277 O 25.5759 -3.92273 4.12444 0
M  V30 278 N 26.7779 -5.15045 2.67784 0
M  V30 279 H 29.5429 -1.08191 2.7949 0
M  V30 280 H 27.1039 -0.446388 1.55624 0
M  V30 281 H 29.0959 -3.49697 2.03701 0
M  V30 282 H 27.6659 -2.90479 1.15502 0
M  V30 283 H 26.8859 -1.92555 3.43971 0
M  V30 284 H 28.1739 -2.88271 4.19258 0
M  V30 285 H 27.5719 -5.26085 2.07968 0
M  V30 286 H 26.1289 -5.90972 2.74947 0
M  V30 287 N 29.562 -1.4872 -0.521534 0
M  V30 288 C 30.973 -1.50607 -1.10337 0
M  V30 289 C 31.324 -0.280612 -1.94183 0
M  V30 290 O 30.449 0.611507 -2.0758 0
M  V30 291 C 31.044 -2.72903 -2.00772 0
M  V30 292 C 29.603 -2.77634 -2.54158 0
M  V30 293 C 28.75 -2.44241 -1.31307 0
M  V30 294 H 31.701 -1.55714 -0.306388 0
M  V30 295 H 31.722 -2.519 -2.85178 0
M  V30 296 H 31.234 -3.62077 -1.39721 0
M  V30 297 H 29.335 -1.92689 -3.18907 0
M  V30 298 H 29.448 -3.79283 -2.92714 0
M  V30 299 H 27.812 -1.95577 -1.63161 0
M  V30 300 H 28.595 -3.35666 -0.719943 0
M  V30 301 N 31.0401 0.771051 -1.3745 0
M  V30 302 C 32.0031 1.86598 -1.33093 0
M  V30 303 C 33.0031 1.59076 -0.234845 0
M  V30 304 O 34.1931 1.67145 -0.490732 0
M  V30 305 C 31.3251 3.23747 -1.06773 0
M  V30 306 H 32.5181 1.91873 -2.30488 0
M  V30 307 H 30.0711 0.970876 -1.2249 0
M  V30 308 H 30.8061 3.24148 -0.099129 0
M  V30 309 H 30.5911 3.45115 -1.86112 0
M  V30 310 H 32.0811 4.03824 -1.06377 0
M  V30 311 N 32.5182 1.22032 0.997298 0
M  V30 312 C 33.4812 0.987909 2.06816 0
M  V30 313 C 34.4812 -0.0440084 1.6074 0
M  V30 314 O 35.6712 0.194053 1.73116 0
M  V30 315 C 32.8032 0.49132 3.37341 0
M  V30 316 H 33.9962 1.93803 2.28868 0
M  V30 317 H 31.5492 1.03838 1.16822 0
M  V30 318 H 32.2842 -0.463364 3.20973 0
M  V30 319 H 32.0692 1.23575 3.72118 0
M  V30 320 H 33.5592 0.348824 4.16141 0
M  V30 321 N 33.9963 -1.19345 1.0293 0
M  V30 322 C 35.4073 -1.70725 0.755633 0
M  V30 323 C 35.7583 -1.82326 -0.724676 0
M  V30 324 O 34.8833 -1.49471 -1.56484 0
M  V30 325 C 35.4783 -3.10084 1.36503 0
M  V30 326 C 34.0373 -3.58723 1.13994 0
M  V30 327 C 33.1843 -2.35577 1.46283 0
M  V30 328 H 36.1353 -1.0418 1.19718 0
M  V30 329 H 36.1563 -3.72787 0.762217 0
M  V30 330 H 35.6683 -3.01609 2.44241 0
M  V30 331 H 33.7693 -3.72512 0.0807901 0
M  V30 332 H 33.8823 -4.42816 1.82894 0
M  V30 333 H 32.2463 -2.38935 0.88217 0
M  V30 334 H 33.0293 -2.29731 2.55105 0
M  V30 335 N 35.4744 -0.807222 -1.35358 0
M  V30 336 C 36.4224 -0.20614 -2.31685 0
M  V30 337 C 37.4164 0.644445 -1.56663 0
M  V30 338 O 38.6224 0.537538 -1.71786 0
M  V30 339 H 34.9974 -0.0479006 -0.750473 0
M  V30 340 H 36.9684 -1.03369 -2.79924 0
M  V30 341 C 35.7174 0.630212 -3.41941 0
M  V30 342 H 35.0404 -0.0149558 -3.99797 0
M  V30 343 H 36.4804 1.01716 -4.11619 0
M  V30 344 C 34.9394 1.79601 -2.85035 0
M  V30 345 O 35.4694 2.89351 -2.78637 0
M  V30 346 N 33.6754 1.60774 -2.42074 0
M  V30 347 H 33.2224 0.715009 -2.47478 0
M  V30 348 H 33.1804 2.38933 -2.04349 0
M  V30 349 N 36.9525 1.47285 -0.560781 0
M  V30 350 C 38.1805 2.06855 -0.0430262 0
M  V30 351 C 38.5955 1.41291 1.25229 0
M  V30 352 O 37.9525 0.510648 1.7521 0
M  V30 353 C 38.0035 3.61178 0.152518 0
M  V30 354 O 37.7245 4.24285 -1.0915 0
M  V30 355 C 39.2255 4.37624 0.707145 0
M  V30 356 H 36.4455 0.669319 -0.0474652 0
M  V30 357 H 38.9895 1.89237 -0.77521 0
M  V30 358 H 37.1445 3.78298 0.834843 0
M  V30 359 H 37.5585 5.16868 -0.891482 0
M  V30 360 H 39.0325 5.46271 0.793244 0
M  V30 361 H 39.5095 4.04152 1.71923 0
M  V30 362 H 40.1155 4.25257 0.0604027 0
M  V30 363 N 38.4306 0.297415 1.54768 0
M  V30 364 C 39.6586 -0.315623 2.04478 0
M  V30 365 C 40.0736 -1.47792 1.17486 0
M  V30 366 O 39.4306 -1.81404 0.19971 0
M  V30 367 C 39.4816 -0.7753 3.53088 0
M  V30 368 O 39.2026 0.340732 4.36773 0
M  V30 369 C 40.7036 -1.45386 4.18781 0
M  V30 370 H 37.9236 -0.0690887 0.667434 0
M  V30 371 H 40.4676 0.436003 1.99798 0
M  V30 372 H 38.6226 -1.47696 3.58141 0
M  V30 373 H 39.0366 -0.0165035 5.24497 0
M  V30 374 H 40.5106 -1.72669 5.24299 0
M  V30 375 H 40.9876 -2.39275 3.68299 0
M  V30 376 H 41.5936 -0.795475 4.17795 0
M  V30 377 N 39.9087 -1.5758 0.0250728 0
M  V30 378 C 41.1337 -1.96337 -0.668317 0
M  V30 379 C 41.5587 -0.901314 -1.651 0
M  V30 380 O 40.9167 0.138187 -1.80773 0
M  V30 381 C 40.9647 -3.34191 -1.35457 0
M  V30 382 O 40.0687 -3.30269 -2.46974 0
M  V30 383 H 39.4097 -0.640281 -0.175887 0
M  V30 384 H 41.9397 -2.0442 0.0857224 0
M  V30 385 H 41.9497 -3.70331 -1.71228 0
M  V30 386 H 40.6247 -4.11036 -0.634218 0
M  V30 387 H 39.2017 -3.05841 -2.13344 0
M  V30 388 N 41.3868 0.248026 -1.55636 0
M  V30 389 C 42.7978 0.817177 -1.67866 0
M  V30 390 C 43.1488 1.86069 -0.622322 0
M  V30 391 O 42.2738 2.15157 0.231618 0
M  V30 392 C 42.8688 1.489 -3.04326 0
M  V30 393 C 41.4278 2.00587 -3.185 0
M  V30 394 C 40.5748 0.856573 -2.63739 0
M  V30 395 H 43.5258 0.0238579 -1.58682 0
M  V30 396 H 43.5468 2.35698 -2.98708 0
M  V30 397 H 43.0588 0.729279 -3.81186 0
M  V30 398 H 41.1598 2.79443 -2.4646 0
M  V30 399 H 41.2728 2.20402 -4.25393 0
M  V30 400 H 39.6368 1.25678 -2.21534 0
M  V30 401 H 40.4198 0.109953 -3.43124 0
M  V30 402 N 42.8649 1.48995 0.513639 0
M  V30 403 C 43.7749 1.67443 1.64317 0
M  V30 404 C 44.7909 0.556947 1.64846 0
M  V30 405 O 45.9669 0.830082 1.83498 0
M  V30 406 C 43.0319 1.72515 3.00732 0
M  V30 407 C 42.0929 2.96009 3.1093 0
M  V30 408 C 41.3259 3.00829 4.40837 0
M  V30 409 O 41.5489 2.13594 5.28898 0
M  V30 410 O 40.4829 3.93168 4.55744 0
M  V30 411 H 44.3089 2.63106 1.51687 0
M  V30 412 H 41.8939 1.32588 0.688543 0
M  V30 413 H 43.7759 1.78277 3.81831 0
M  V30 414 H 42.4509 0.800278 3.13651 0
M  V30 415 H 41.3579 2.9577 2.29065 0
M  V30 416 H 42.6909 3.87934 3.02933 0
M  V30 417 N 44.343 -0.763751 1.37857 0
M  V30 418 C 45.273 -1.89103 1.36975 0
M  V30 419 C 46.254 -1.68439 0.237152 0
M  V30 420 O 47.439 -1.8918 0.438713 0
M  V30 421 C 44.569 -3.26496 1.18395 0
M  V30 422 C 43.523 -3.61741 2.28751 0
M  V30 423 C 42.849 -4.97762 1.95286 0
M  V30 424 C 44.149 -3.67665 3.70972 0
M  V30 425 H 45.843 -1.90099 2.31307 0
M  V30 426 H 43.389 -0.91319 1.11341 0
M  V30 427 H 45.342 -4.05003 1.16406 0
M  V30 428 H 44.066 -3.25955 0.205215 0
M  V30 429 H 42.725 -2.85547 2.29909 0
M  V30 430 H 42.373 -4.93769 0.959221 0
M  V30 431 H 42.073 -5.22313 2.69189 0
M  V30 432 H 43.597 -5.7866 1.94898 0
M  V30 433 H 45.011 -4.36307 3.719 0
M  V30 434 H 43.408 -4.03718 4.43995 0
M  V30 435 H 44.478 -2.68134 4.0402 0
M  V30 436 N 45.8211 -1.22559 -0.990812 0
M  V30 437 C 46.7691 -0.994798 -2.10253 0
M  V30 438 C 47.7631 0.0627798 -1.69284 0
M  V30 439 O 48.9691 -0.0898392 -1.79776 0
M  V30 440 H 45.3441 -0.304527 -0.687581 0
M  V30 441 H 47.3151 -1.93812 -2.26891 0
M  V30 442 C 46.0641 -0.591439 -3.42633 0
M  V30 443 H 45.3871 -1.3969 -3.74602 0
M  V30 444 H 46.8271 -0.469385 -4.21394 0
M  V30 445 C 45.2861 0.699232 -3.29564 0
M  V30 446 O 45.8161 1.75112 -3.61523 0
M  V30 447 N 44.0221 0.671182 -2.82743 0
M  V30 448 H 43.5691 -0.185136 -2.56934 0
M  V30 449 H 43.5271 1.53502 -2.7438 0
M  V30 450 N 47.2992 1.18797 -1.03562 0
M  V30 451 C 48.2292 2.24472 -0.643019 0
M  V30 452 C 49.2102 1.66433 0.351283 0
M  V30 453 O 50.3952 1.92803 0.232505 0
M  V30 454 C 47.5252 3.473 4.24935e-05 0
M  V30 455 C 46.4792 4.18055 -0.917257 0
M  V30 456 C 45.8052 5.34519 -0.138941 0
M  V30 457 C 47.1052 4.72109 -2.23407 0
M  V30 458 H 48.7992 2.57566 -1.52643 0
M  V30 459 H 46.3452 1.23806 -0.735394 0
M  V30 460 H 48.2982 4.20426 0.286383 0
M  V30 461 H 47.0222 3.13424 0.918299 0
M  V30 462 H 45.6812 3.46821 -1.1879 0
M  V30 463 H 45.3292 4.96891 0.781562 0
M  V30 464 H 45.0292 5.82794 -0.750005 0
M  V30 465 H 46.5532 6.10438 0.1405 0
M  V30 466 H 47.9672 5.36955 -2.00879 0
M  V30 467 H 46.3642 5.30897 -2.79765 0
M  V30 468 H 47.4342 3.89807 -2.88407 0
M  V30 469 N 48.7773 0.814389 1.34928 0
M  V30 470 C 50.0023 0.410097 2.03305 0
M  V30 471 C 50.4273 -0.973464 1.60951 0
M  V30 472 O 49.7853 -1.63185 0.789964 0
M  V30 473 C 49.8333 0.51049 3.56968 0
M  V30 474 O 48.9373 -0.473035 4.09678 0
M  V30 475 H 48.2783 0.170088 0.641846 0
M  V30 476 H 50.8083 1.10244 1.72358 0
M  V30 477 H 50.8183 0.383135 4.06197 0
M  V30 478 H 49.4933 1.51963 3.87144 0
M  V30 479 H 48.0703 -0.305272 3.71648 0
M  V30 480 N 50.2554 -1.46986 0.568584 0
M  V30 481 C 51.2054 -2.27179 -0.193339 0
M  V30 482 C 52.1894 -1.35035 -0.874895 0
M  V30 483 O 53.3814 -1.5931 -0.771322 0
M  V30 484 C 50.5104 -3.21063 -1.21546 0
M  V30 485 C 49.5964 -4.2069 -0.536738 0
M  V30 486 N 49.9874 -5.04218 0.399673 0
M  V30 487 C 48.2854 -4.38961 -0.789254 0
M  V30 488 C 48.9864 -5.76242 0.795017 0
M  V30 489 N 47.9624 -5.434 0.1473 0
M  V30 490 H 51.7644 -2.89146 0.526458 0
M  V30 491 H 49.2784 -1.57664 0.389342 0
M  V30 492 H 51.2754 -3.77209 -1.77536 0
M  V30 493 H 49.9354 -2.60654 -1.93623 0
M  V30 494 H 50.9464 -5.12077 0.774454 0
M  V30 495 H 47.6234 -3.89713 -1.49767 0
M  V30 496 H 49.0134 -6.53417 1.56513 0
M  V30 497 N 51.7335 -0.305618 -1.54608 0
M  V30 498 C 53.1445 0.186098 -1.8577 0
M  V30 499 C 53.4955 1.53058 -1.22751 0
M  V30 500 O 52.6205 2.09888 -0.526893 0
M  V30 501 C 53.2155 0.344449 -3.37044 0
M  V30 502 C 51.7745 0.780384 -3.68221 0
M  V30 503 C 50.9215 -0.108554 -2.77087 0
M  V30 504 H 53.8725 -0.526485 -1.49712 0
M  V30 505 H 53.8935 1.17828 -3.61796 0
M  V30 506 H 53.4055 -0.634235 -3.82883 0
M  V30 507 H 51.5065 1.76945 -3.27904 0
M  V30 508 H 51.6195 0.596572 -4.75371 0
M  V30 509 H 49.9835 0.412931 -2.5133 0
M  V30 510 H 50.7665 -1.08368 -3.25747 0
M  V30 511 N 53.2116 1.57565 -0.0334293 0
M  V30 512 C 54.1416 2.13511 0.945265 0
M  V30 513 C 55.1226 1.05231 1.33643 0
M  V30 514 O 56.3076 1.33084 1.41429 0
M  V30 515 C 53.4376 2.6657 2.22616 0
M  V30 516 C 52.3916 3.79676 1.97561 0
M  V30 517 C 51.7176 4.1918 3.31952 0
M  V30 518 C 53.0176 5.0557 1.31135 0
M  V30 519 H 54.7116 2.95538 0.479325 0
M  V30 520 H 52.2576 1.42166 0.229115 0
M  V30 521 H 54.2106 3.04344 2.91466 0
M  V30 522 H 52.9346 1.8171 2.71384 0
M  V30 523 H 51.5936 3.42347 1.31127 0
M  V30 524 H 51.2416 3.31296 3.78487 0
M  V30 525 H 50.9416 4.95402 3.15992 0
M  V30 526 H 52.4656 4.59541 4.02063 0
M  V30 527 H 53.8796 5.40903 1.89992 0
M  V30 528 H 52.2766 5.86818 1.25559 0
M  V30 529 H 53.3466 4.84062 0.284894 0
M  V30 530 N 54.6897 -0.239769 1.55765 0
M  V30 531 C 55.6197 -1.30052 1.9393 0
M  V30 532 C 56.6007 -1.49839 0.805132 0
M  V30 533 O 57.7857 -1.62328 1.06599 0
M  V30 534 C 54.9157 -2.65391 2.2402 0
M  V30 535 C 53.8697 -2.60289 3.39755 0
M  V30 536 C 53.1957 -3.99489 3.55405 0
M  V30 537 C 54.4957 -2.16654 4.75246 0
M  V30 538 H 56.1897 -0.983573 2.82783 0
M  V30 539 H 53.7357 -0.471701 1.36055 0
M  V30 540 H 55.6887 -3.3974 2.49308 0
M  V30 541 H 54.4127 -2.98736 1.32 0
M  V30 542 H 53.0717 -1.88398 3.14487 0
M  V30 543 H 52.7197 -4.30112 2.60793 0
M  V30 544 H 52.4197 -3.96962 4.33238 0
M  V30 545 H 53.9437 -4.75528 3.83022 0
M  V30 546 H 55.3577 -2.80737 4.99859 0
M  V30 547 H 53.7547 -2.25223 5.56232 0
M  V30 548 H 54.8247 -1.11835 4.71827 0
M  V30 549 N 56.1678 -1.49265 -0.50573 0
M  V30 550 C 57.4158 -1.582 -1.25766 0
M  V30 551 C 57.7368 -0.268482 -1.93143 0
M  V30 552 O 57.0068 0.711833 -1.8251 0
M  V30 553 H 55.5868 -0.582873 -0.467191 0
M  V30 554 H 58.2488 -1.85865 -0.586525 0
M  V30 555 H 57.3448 -2.37563 -2.02412 0
M  V30 556 N 57.6459 0.756429 -1.3826 0
M  V30 557 C 58.8739 1.54565 -1.3754 0
M  V30 558 C 59.2889 1.88767 0.0355331 0
M  V30 559 O 58.6459 1.52572 1.0014 0
M  V30 560 C 58.6969 2.84654 -2.22833 0
M  V30 561 O 58.4179 2.51912 -3.5843 0
M  V30 562 C 59.9189 3.78807 -2.30261 0
M  V30 563 H 57.1389 0.478353 -0.470553 0
M  V30 564 H 59.6829 0.936381 -1.81803 0
M  V30 565 H 57.8379 3.41965 -1.8204 0
M  V30 566 H 58.2519 3.35325 -4.03308 0
M  V30 567 H 59.7259 4.67045 -2.94233 0
M  V30 568 H 60.2029 4.19038 -1.31545 0
M  V30 569 H 60.8089 3.2742 -2.71433 0
M  V30 570 N 59.124 1.23083 0.984299 0
M  V30 571 C 60.087 1.00979 2.05757 0
M  V30 572 C 61.087 -0.0269573 1.60777 0
M  V30 573 O 62.277 0.212403 1.729 0
M  V30 574 C 59.409 0.527072 3.36801 0
M  V30 575 H 60.602 1.9622 2.26799 0
M  V30 576 H 58.155 1.05072 1.15714 0
M  V30 577 H 58.89 -0.429294 3.21446 0
M  V30 578 H 58.675 1.27515 3.70786 0
M  V30 579 H 60.165 0.392942 4.15747 0
M  V30 580 N 60.6021 -1.18246 1.0419 0
M  V30 581 C 61.5321 -2.24127 0.654914 0
M  V30 582 C 62.5131 -1.66617 -0.342451 0
M  V30 583 O 63.6981 -1.92924 -0.222277 0
M  V30 584 C 60.8281 -3.47295 0.0183757 0
M  V30 585 C 59.7821 -4.17563 0.939414 0
M  V30 586 C 59.1081 -5.34438 0.167286 0
M  V30 587 C 60.4081 -4.70917 2.25908 0
M  V30 588 H 62.1021 -2.56753 1.54007 0
M  V30 589 H 59.6481 -1.23414 0.74195 0
M  V30 590 H 61.6011 -4.20572 -0.264082 0
M  V30 591 H 60.3251 -3.13907 -0.901664 0
M  V30 592 H 58.9841 -3.46186 1.20628 0
M  V30 593 H 58.6321 -4.97298 -0.7552 0
M  V30 594 H 58.3321 -5.82388 0.780901 0
M  V30 595 H 59.8561 -6.10504 -0.108125 0
M  V30 596 H 61.2701 -5.35882 2.03724 0
M  V30 597 H 59.6671 -5.29406 2.82577 0
M  V30 598 H 60.7371 -3.88272 2.9047 0
M  V30 599 N 62.0802 -0.821533 -1.34494 0
M  V30 600 C 63.0432 -0.247847 -2.27856 0
M  V30 601 C 64.0432 0.573453 -1.50227 0
M  V30 602 O 65.2332 0.389759 -1.69784 0
M  V30 603 C 62.3652 0.652698 -3.34593 0
M  V30 604 H 63.5582 -1.07146 -2.80107 0
M  V30 605 H 61.1112 -0.593291 -1.44602 0
M  V30 606 H 61.8462 1.49943 -2.87555 0
M  V30 607 H 61.6312 0.065292 -3.92046 0
M  V30 608 H 63.1212 1.04793 -4.04238 0
M  V30 609 N 63.5583 1.46682 -0.576371 0
M  V30 610 C 64.5063 2.31953 0.17335 0
M  V30 611 C 65.5003 1.44098 0.89062 0
M  V30 612 O 66.7063 1.60759 0.809728 0
M  V30 613 H 63.0813 0.748273 0.0747727 0
M  V30 614 H 65.0523 2.93007 -0.564738 0
M  V30 615 C 63.8013 3.27142 1.17786 0
M  V30 616 H 63.1243 3.94719 0.635361 0
M  V30 617 H 64.5643 3.896 1.67296 0
M  V30 618 C 63.0233 2.52036 2.23561 0
M  V30 619 O 63.5533 2.27877 3.3081 0
M  V30 620 N 61.7593 2.12709 1.97998 0
M  V30 621 H 61.3063 2.32557 1.10792 0
M  V30 622 H 61.2643 1.62776 2.68982 0
M  V30 623 N 65.0364 0.313813 1.54444 0
M  V30 624 C 66.2844 -0.291099 1.99993 0
M  V30 625 C 66.6054 -1.53418 1.20366 0
M  V30 626 O 65.8754 -1.93544 0.302927 0
M  V30 627 H 64.4554 -0.110552 0.738774 0
M  V30 628 H 67.1174 0.428106 1.9014 0
M  V30 629 H 66.2134 -0.554268 3.07139 0
M  V30 630 N 66.5145 -1.57545 0.0417849 0
M  V30 631 C 67.7425 -1.96624 -0.643928 0
M  V30 632 C 68.1575 -0.918897 -1.64929 0
M  V30 633 O 67.5145 0.0979323 -1.82237 0
M  V30 634 C 67.5655 -3.35781 -1.33914 0
M  V30 635 O 67.2865 -4.365 -0.374048 0
M  V30 636 C 68.7875 -3.89566 -2.1155 0
M  V30 637 H 66.0075 -0.647316 -0.176702 0
M  V30 638 H 68.5515 -2.04229 0.105304 0
M  V30 639 H 66.7065 -3.29357 -2.03968 0
M  V30 640 H 67.1205 -5.17248 -0.869179 0
M  V30 641 H 68.5945 -4.89242 -2.55628 0
M  V30 642 H 69.0715 -3.24488 -2.9598 0
M  V30 643 H 69.6775 -3.99298 -1.46427 0
M  V30 644 N 67.9926 0.231505 -1.5589 0
M  V30 645 C 69.2406 0.955461 -1.78088 0
M  V30 646 C 69.5616 1.85262 -0.608533 0
M  V30 647 O 68.8316 1.92277 0.375035 0
M  V30 648 H 67.4116 0.355787 -0.656829 0
M  V30 649 H 70.0736 0.245751 -1.93344 0
M  V30 650 H 69.1696 1.56814 -2.69844 0
M  V30 651 N 69.4707 1.49531 0.497807 0
M  V30 652 C 70.3807 1.69176 1.62532 0
M  V30 653 C 71.3967 0.5744 1.64246 0
M  V30 654 O 72.5727 0.849497 1.82608 0
M  V30 655 C 69.6377 1.75695 2.98885 0
M  V30 656 C 68.6987 2.9929 3.07773 0
M  V30 657 C 67.9317 3.05488 4.37622 0
M  V30 658 O 68.1547 2.19192 5.26603 0
M  V30 659 O 67.0887 3.9798 4.51548 0
M  V30 660 H 70.9147 2.647 1.48887 0
M  V30 661 H 68.4997 1.3331 0.674441 0
M  V30 662 H 70.3817 1.82317 3.79919 0
M  V30 663 H 69.0567 0.8335 3.12785 0
M  V30 664 H 67.9637 2.98183 2.25915 0
M  V30 665 H 69.2967 3.91125 2.98801 0
M  V30 666 N 70.9488 -0.749086 1.3866 0
M  V30 667 C 71.8788 -1.8764 1.38973 0
M  V30 668 C 72.8598 -1.68178 0.255004 0
M  V30 669 O 74.0448 -1.88704 0.458754 0
M  V30 670 C 71.1748 -3.25222 1.21851 0
M  V30 671 C 70.1288 -3.59295 2.32575 0
M  V30 672 C 69.4548 -4.95663 2.00555 0
M  V30 673 C 70.7548 -3.63709 3.7485 0
M  V30 674 H 72.4488 -1.87635 2.3331 0
M  V30 675 H 69.9948 -0.901329 1.12303 0
M  V30 676 H 71.9478 -4.03746 1.20695 0
M  V30 677 H 70.6718 -3.25719 0.239775 0
M  V30 678 H 69.3308 -2.83093 2.32925 0
M  V30 679 H 68.9788 -4.92724 1.01154 0
M  V30 680 H 68.6788 -5.19429 2.74714 0
M  V30 681 H 70.2028 -5.7656 2.01024 0
M  V30 682 H 71.6168 -4.32338 3.76506 0
M  V30 683 H 70.0138 -3.98986 4.48252 0
M  V30 684 H 71.0838 -2.63834 4.06841 0
M  V30 685 N 72.4269 -1.23603 -0.977757 0
M  V30 686 C 73.6519 -1.09735 -1.75991 0
M  V30 687 C 74.0769 0.346858 -1.84874 0
M  V30 688 O 73.4349 1.25093 -1.3123 0
M  V30 689 C 73.4829 -1.73051 -3.16363 0
M  V30 690 O 72.5869 -0.994452 -4.0023 0
M  V30 691 H 71.9279 -0.384476 -0.541364 0
M  V30 692 H 74.4579 -1.6371 -1.2272 0
M  V30 693 H 74.4679 -1.78398 -3.66931 0
M  V30 694 H 73.1429 -2.78137 -3.09213 0
M  V30 695 H 71.7199 -1.01812 -3.58732 0
M  V30 696 N 73.905 1.17692 -1.04816 0
M  V30 697 C 74.815 2.25229 -0.65643 0
M  V30 698 C 75.831 1.71018 0.320761 0
M  V30 699 O 77.007 2.00649 0.173805 0
M  V30 700 C 74.072 3.46684 -0.0332629 0
M  V30 701 C 73.133 4.15997 -1.06042 0
M  V30 702 C 72.366 5.31654 -0.466893 0
M  V30 703 O 72.589 5.65777 0.724758 0
M  V30 704 O 71.523 5.89831 -1.1993 0
M  V30 705 H 75.349 2.61016 -1.55255 0
M  V30 706 H 72.934 1.24919 -0.81949 0
M  V30 707 H 74.816 4.20234 0.313256 0
M  V30 708 H 73.491 3.12703 0.836566 0
M  V30 709 H 72.398 3.44482 -1.45886 0
M  V30 710 H 73.731 4.53996 -1.90127 0
M  V30 711 N 75.3831 0.828654 1.34056 0
M  V30 712 C 76.3331 0.226828 2.26869 0
M  V30 713 C 77.3171 -0.612243 1.48796 0
M  V30 714 O 78.5091 -0.465884 1.70759 0
M  V30 715 C 75.6381 -0.605654 3.37915 0
M  V30 716 C 74.7241 0.244361 4.23395 0
M  V30 717 N 75.1151 1.31815 4.88322 0
M  V30 718 C 73.4131 0.0296616 4.4599 0
M  V30 719 C 74.1141 1.83895 5.51867 0
M  V30 720 N 73.0901 1.14196 5.3147 0
M  V30 721 H 76.8921 1.04811 2.74576 0
M  V30 722 H 74.4061 0.67205 1.47842 0
M  V30 723 H 76.4031 -1.05302 4.03382 0
M  V30 724 H 75.0631 -1.42504 2.91758 0
M  V30 725 H 76.0741 1.70099 4.8917 0
M  V30 726 H 72.7511 -0.757097 4.10578 0
M  V30 727 H 74.1411 2.7376 6.136 0
M  V30 728 N 76.8612 -1.46375 0.584142 0
M  V30 729 C 77.7932 -2.28443 -0.186119 0
M  V30 730 C 78.8062 -1.38596 -0.854115 0
M  V30 731 O 79.9952 -1.63183 -0.723438 0
M  V30 732 C 77.0952 -3.13671 -1.28311 0
M  V30 733 C 76.2682 -4.31652 -0.706758 0
M  V30 734 C 75.3272 -4.98267 -1.69163 0
M  V30 735 O 74.3532 -5.55815 -1.22712 0
M  V30 736 N 75.5552 -4.95408 -3.02575 0
M  V30 737 H 78.3202 -2.9519 0.517986 0
M  V30 738 H 75.8812 -1.56303 0.42201 0
M  V30 739 H 77.8732 -3.55101 -1.94128 0
M  V30 740 H 76.4432 -2.48989 -1.89005 0
M  V30 741 H 75.6632 -3.93989 0.128908 0
M  V30 742 H 76.9512 -5.07906 -0.301506 0
M  V30 743 H 76.3492 -4.49902 -3.42936 0
M  V30 744 H 74.9062 -5.40774 -3.63877 0
M  V30 745 N 78.3393 -0.321999 -1.54275 0
M  V30 746 C 79.2713 0.578671 -2.21775 0
M  V30 747 C 80.2843 1.08109 -1.21722 0
M  V30 748 O 81.4733 0.994938 -1.482 0
M  V30 749 C 78.5733 1.80661 -2.86731 0
M  V30 750 C 77.7463 1.44314 -4.12907 0
M  V30 751 C 76.8053 2.52845 -4.61472 0
M  V30 752 O 75.8313 2.17054 -5.2619 0
M  V30 753 N 77.0333 3.83748 -4.35566 0
M  V30 754 H 79.7983 0.000709447 -2.997 0
M  V30 755 H 77.3593 -0.145132 -1.61248 0
M  V30 756 H 79.3513 2.52655 -3.16145 0
M  V30 757 H 77.9213 2.29245 -2.12521 0
M  V30 758 H 77.1413 0.554906 -3.90275 0
M  V30 759 H 78.4293 1.17598 -4.95023 0
M  V30 760 H 77.8273 4.15625 -3.83761 0
M  V30 761 H 76.3843 4.51977 -4.69638 0
M  V30 762 N 79.8174 1.5752 -0.0501392 0
M  V30 763 C 81.0474 1.96678 0.632573 0
M  V30 764 C 81.4554 0.926298 1.64974 0
M  V30 765 O 80.7984 -0.09802 1.83438 0
M  V30 766 C 80.8604 3.32068 1.37735 0
M  V30 767 C 80.5244 4.54076 0.516131 0
M  V30 768 C 81.5214 5.19445 -0.217357 0
M  V30 769 C 79.2064 5.00304 0.44736 0
M  V30 770 C 81.2004 6.29378 -1.00807 0
M  V30 771 C 78.8874 6.10114 -0.347038 0
M  V30 772 C 79.8854 6.74512 -1.07344 0
M  V30 773 O 79.5734 7.82211 -1.85477 0
M  V30 774 H 79.3054 0.652193 0.177821 0
M  V30 775 H 81.8594 2.05091 -0.112543 0
M  V30 776 H 80.0894 3.20206 2.16807 0
M  V30 777 H 81.7784 3.55981 1.95019 0
M  V30 778 H 82.5444 4.84689 -0.173688 0
M  V30 779 H 78.4234 4.49971 1.00235 0
M  V30 780 H 81.9674 6.79575 -1.57556 0
M  V30 781 H 77.8644 6.44307 -0.392349 0
M  V30 782 H 78.6324 7.98982 -1.77678 0
M  V30 783 N 81.2955 -0.223234 1.56011 0
M  V30 784 C 82.5415 -0.949279 1.79211 0
M  V30 785 C 82.8745 -1.84054 0.619494 0
M  V30 786 O 82.1495 -1.90726 -0.381317 0
M  V30 787 C 82.4325 -1.78965 3.12479 0
M  V30 788 C 82.2855 -0.924997 4.40186 0
M  V30 789 C 83.6045 -2.76774 3.42175 0
M  V30 790 H 80.7235 -0.343676 0.651963 0
M  V30 791 H 83.3655 -0.218253 1.88742 0
M  V30 792 H 81.5155 -2.41291 3.04485 0
M  V30 793 H 83.1875 -0.318615 4.60198 0
M  V30 794 H 81.4305 -0.230344 4.33188 0
M  V30 795 H 82.1015 -1.54735 5.29869 0
M  V30 796 H 84.5775 -2.24584 3.50287 0
M  V30 797 H 83.4535 -3.32678 4.36597 0
M  V30 798 H 83.7145 -3.54429 2.64258 0
M  V30 799 N 82.7736 -1.49793 -0.48987 0
M  V30 800 C 84.0226 -1.59085 -1.23995 0
M  V30 801 C 84.3356 -0.287907 -1.9347 0
M  V30 802 O 85.5416 -0.259506 -2.70257 0
M  V30 803 C 83.9976 -2.80736 -2.252 0
M  V30 804 C 83.6056 -4.17833 -1.61614 0
M  V30 805 C 85.3496 -2.99364 -3.00967 0
M  V30 806 C 83.2566 -5.30693 -2.60996 0
M  V30 807 H 82.1866 -0.592372 -0.466488 0
M  V30 808 H 84.8376 -1.76197 -0.51252 0
M  V30 809 H 83.2196 -2.57142 -3.01154 0
M  V30 810 H 84.3936 -4.51608 -0.915774 0
M  V30 811 H 82.7086 -4.04656 -0.981977 0
M  V30 812 H 85.3056 -3.80851 -3.75308 0
M  V30 813 H 85.6486 -2.10356 -3.59244 0
M  V30 814 H 86.1816 -3.2305 -2.32128 0
M  V30 815 H 82.9206 -6.21796 -2.07485 0
M  V30 816 H 82.4406 -5.01359 -3.2924 0
M  V30 817 H 84.1196 -5.6049 -3.23202 0
M  V30 818 N 84.2517 0.741722 -1.39055 0
M  V30 819 C 85.4997 1.49818 -1.35643 0
M  V30 820 C 85.8207 1.94938 0.0491642 0
M  V30 821 O 85.0907 1.68505 0.999141 0
M  V30 822 H 83.6707 0.555755 -0.499144 0
M  V30 823 H 86.3327 0.880957 -1.73854 0
M  V30 824 H 85.4287 2.38348 -2.01486 0
M  V30 825 N 85.7298 1.2412 0.971189 0
M  V30 826 C 86.6598 1.05508 2.08304 0
M  V30 827 C 87.6408 -0.0308864 1.70072 0
M  V30 828 O 88.8258 0.135521 1.93727 0
M  V30 829 C 85.9558 0.655365 3.4106 0
M  V30 830 C 84.9098 1.68971 3.93234 0
M  V30 831 C 84.2358 1.14516 5.22293 0
M  V30 832 C 85.5358 3.08487 4.21465 0
M  V30 833 H 87.2298 1.98507 2.24132 0
M  V30 834 H 84.7758 0.955821 1.07704 0
M  V30 835 H 86.7288 0.51217 4.18276 0
M  V30 836 H 85.4528 -0.31032 3.25122 0
M  V30 837 H 84.1118 1.82106 3.18171 0
M  V30 838 H 83.7598 0.170189 5.02712 0
M  V30 839 H 83.4598 1.83635 5.58168 0
M  V30 840 H 84.9838 1.01401 6.02121 0
M  V30 841 H 86.3978 2.98601 4.89398 0
M  V30 842 H 84.7948 3.74926 4.68562 0
M  V30 843 H 85.8648 3.56787 3.28376 0
M  V30 844 N 87.2079 -1.17134 1.05439 0
M  V30 845 C 88.4549 -1.87456 0.765942 0
M  V30 846 C 88.7829 -1.81189 -0.707153 0
M  V30 847 O 88.0379 -1.21633 -1.5331 0
M  V30 848 C 88.3369 -3.36833 1.19491 0
M  V30 849 C 88.0029 -3.63301 2.67063 0
M  V30 850 C 86.6649 -3.70234 3.07376 0
M  V30 851 C 89.0169 -3.74575 3.62413 0
M  V30 852 C 86.3449 -3.85933 4.41896 0
M  V30 853 C 88.6969 -3.91793 4.9667 0
M  V30 854 C 87.3609 -3.96966 5.36633 0
M  V30 855 H 86.6309 -0.685948 0.280278 0
M  V30 856 H 89.2779 -1.38556 1.32192 0
M  V30 857 H 87.5829 -3.87807 0.557969 0
M  V30 858 H 89.2799 -3.89611 0.948893 0
M  V30 859 H 85.8699 -3.58532 2.34846 0
M  V30 860 H 90.0539 -3.68537 3.32406 0
M  V30 861 H 85.3099 -3.88187 4.72357 0
M  V30 862 H 89.4839 -3.99458 5.70444 0
M  V30 863 H 87.1109 -4.08883 6.40874 0
M  V30 864 N 88.686 -0.835752 -1.33615 0
M  V30 865 C 89.616 -0.281739 -2.31794 0
M  V30 866 C 90.597 0.608833 -1.58831 0
M  V30 867 O 91.782 0.533035 -1.86741 0
M  V30 868 C 88.912 0.546612 -3.42971 0
M  V30 869 C 87.866 -0.247904 -4.27281 0
M  V30 870 C 87.192 0.704001 -5.30045 0
M  V30 871 C 88.492 -1.46324 -5.01385 0
M  V30 872 H 90.186 -1.10206 -2.78379 0
M  V30 873 H 87.732 -0.531388 -1.33837 0
M  V30 874 H 89.685 0.944467 -4.1068 0
M  V30 875 H 88.409 1.40011 -2.95067 0
M  V30 876 H 87.068 -0.627281 -3.61194 0
M  V30 877 H 86.716 1.55381 -4.78399 0
M  V30 878 H 86.416 0.176524 -5.87335 0
M  V30 879 H 87.94 1.09944 -6.0062 0
M  V30 880 H 89.354 -1.13871 -5.61877 0
M  V30 881 H 87.751 -1.92728 -5.6831 0
M  V30 882 H 88.821 -2.23467 -4.30338 0
M  V30 883 N 90.1641 1.46063 -0.591896 0
M  V30 884 C 91.3891 2.07226 -0.0850314 0
M  V30 885 C 91.8141 1.43625 1.21463 0
M  V30 886 O 91.1721 0.523305 1.73583 0
M  V30 887 C 91.2201 3.60554 0.0576567 0
M  V30 888 O 90.3241 3.97128 1.11188 0
M  V30 889 H 89.6651 0.660615 -0.0669568 0
M  V30 890 H 92.1951 1.8756 -0.81745 0
M  V30 891 H 92.2051 4.07165 0.2609 0
M  V30 892 H 90.8801 4.06235 -0.891416 0
M  V30 893 H 89.4571 3.62213 0.886356 0
M  V30 894 N 91.6422 0.330177 1.54103 0
M  V30 895 C 92.8822 -0.270916 2.02597 0
M  V30 896 C 93.2462 -1.48826 1.21304 0
M  V30 897 O 94.4472 -2.16266 1.59633 0
M  V30 898 C 92.7182 -0.590328 3.52491 0
M  V30 899 S 94.2772 -1.17014 4.2291 0
M  V30 900 H 91.0952 -0.0815379 0.706309 0
M  V30 901 H 93.6972 0.464835 1.89893 0
M  V30 902 H 92.4012 0.303691 4.09275 0
M  V30 903 H 91.9322 -1.3561 3.69288 0
M  V30 904 H 93.9472 -2.45662 4.3112 0
M  V30 905 N 93.1203 -1.57491 0.0584922 0
M  V30 906 C 94.0503 -2.14988 -0.911178 0
M  V30 907 C 95.0313 -1.07343 -1.31952 0
M  V30 908 O 96.2163 -1.35318 -1.39294 0
M  V30 909 C 93.3463 -2.70078 -2.18347 0
M  V30 910 C 92.3003 -3.82771 -1.91495 0
M  V30 911 C 91.6263 -4.24408 -3.25241 0
M  V30 912 C 92.9263 -5.07592 -1.23075 0
M  V30 913 H 94.6203 -2.96263 -0.432246 0
M  V30 914 H 92.1663 -1.42512 -0.206469 0
M  V30 915 H 94.1193 -3.08943 -2.86587 0
M  V30 916 H 92.8433 -1.86005 -2.68458 0
M  V30 917 H 91.5023 -3.44389 -1.25664 0
M  V30 918 H 91.1503 -3.37275 -3.73168 0
M  V30 919 H 90.8503 -5.00366 -3.08071 0
M  V30 920 H 92.3743 -4.65879 -3.94701 0
M  V30 921 H 93.7883 -5.43857 -1.81362 0
M  V30 922 H 92.1853 -5.88741 -1.16207 0
M  V30 923 H 93.2553 -4.84454 -0.207847 0
M  V30 924 N 94.5984 0.214957 -1.56127 0
M  V30 925 C 95.8284 0.953707 -1.8327 0
M  V30 926 C 96.2364 1.78181 -0.636262 0
M  V30 927 O 95.5794 1.79191 0.404516 0
M  V30 928 C 95.6414 1.91516 -3.0424 0
M  V30 929 C 95.3054 1.27094 -4.38972 0
M  V30 930 C 96.3024 0.657575 -5.15725 0
M  V30 931 C 93.9874 1.28073 -4.85698 0
M  V30 932 C 95.9814 0.0625968 -6.37369 0
M  V30 933 C 93.6684 0.681914 -6.07283 0
M  V30 934 C 94.6664 0.0739046 -6.8296 0
M  V30 935 O 94.3544 -0.515582 -8.02245 0
M  V30 936 H 94.0864 0.284764 -0.613095 0
M  V30 937 H 96.6404 0.233283 -2.04071 0
M  V30 938 H 94.8704 2.67475 -2.79274 0
M  V30 939 H 96.5594 2.52001 -3.18198 0
M  V30 940 H 97.3254 0.642288 -4.80728 0
M  V30 941 H 93.2044 1.74337 -4.26764 0
M  V30 942 H 96.7484 -0.412593 -6.96379 0
M  V30 943 H 92.6454 0.694636 -6.41752 0
M  V30 944 H 93.4134 -0.410544 -8.1747 0
M  V30 945 N 96.0765 1.50051 0.48192 0
M  V30 946 C 97.3045 1.64237 1.25832 0
M  V30 947 C 97.7195 0.321336 1.86045 0
M  V30 948 O 97.0765 -0.695478 1.68729 0
M  V30 949 C 97.1275 2.72548 2.37487 0
M  V30 950 O 96.8485 3.99529 1.79745 0
M  V30 951 C 98.3495 2.9761 3.28547 0
M  V30 952 H 95.5695 0.55237 0.380957 0
M  V30 953 H 98.1135 1.96207 0.576467 0
M  V30 954 H 96.2685 2.43303 3.01467 0
M  V30 955 H 96.6825 4.59342 2.5319 0
M  V30 956 H 98.1565 3.77084 4.03127 0
M  V30 957 H 98.6335 2.0826 3.86684 0
M  V30 958 H 99.2395 3.28345 2.70314 0
M  V30 959 N 97.5546 -0.734337 1.39446 0
M  V30 960 C 98.8036 -1.48937 1.36017 0
M  V30 961 C 99.1166 -1.95557 -0.0409005 0
M  V30 962 O 100.323 -2.70779 -0.19778 0
M  V30 963 C 98.7786 -2.69125 2.38955 0
M  V30 964 C 98.3866 -2.29452 3.8478 0
M  V30 965 C 100.131 -3.46944 2.44603 0
M  V30 966 C 98.0376 -3.46366 4.79358 0
M  V30 967 H 96.9676 -0.559296 0.505672 0
M  V30 968 H 99.6186 -0.800983 1.65095 0
M  V30 969 H 98.0006 -3.40041 2.02948 0
M  V30 970 H 99.1746 -1.66077 4.29831 0
M  V30 971 H 97.4896 -1.64723 3.82433 0
M  V30 972 H 100.087 -4.33907 3.12456 0
M  V30 973 H 100.43 -3.89454 1.47076 0
M  V30 974 H 100.963 -2.83056 2.79507 0
M  V30 975 H 97.7016 -3.08905 5.78151 0
M  V30 976 H 97.2216 -4.08719 4.38986 0
M  V30 977 H 98.9006 -4.12691 4.98292 0
M  V30 978 N 99.0327 -1.24633 -0.964593 0
M  V30 979 C 100.28 -1.08788 -1.70796 0
M  V30 980 C 100.608 0.372783 -1.90894 0
M  V30 981 O 99.8627 1.29167 -1.47018 0
M  V30 982 C 100.162 -1.7763 -3.10133 0
M  V30 983 C 99.8277 -3.27557 -3.09866 0
M  V30 984 C 98.4897 -3.6846 -3.09501 0
M  V30 985 C 100.842 -4.23389 -3.03959 0
M  V30 986 C 98.1697 -5.03624 -3.00965 0
M  V30 987 C 100.522 -5.58565 -2.96965 0
M  V30 988 C 99.1857 -5.98809 -2.9493 0
M  V30 989 H 98.4557 -0.398084 -0.624988 0
M  V30 990 H 101.103 -1.54777 -1.12767 0
M  V30 991 H 99.4077 -1.24044 -3.71645 0
M  V30 992 H 101.105 -1.62832 -3.66451 0
M  V30 993 H 97.6947 -2.95006 -3.10917 0
M  V30 994 H 101.879 -3.92787 -3.03368 0
M  V30 995 H 97.1347 -5.33998 -2.97752 0
M  V30 996 H 101.309 -6.32523 -2.91354 0
M  V30 997 H 98.9357 -7.03505 -2.88071 0
M  V30 998 N 100.511 1.16574 -1.06058 0
M  V30 999 C 101.441 2.23057 -0.690488 0
M  V30 1000 C 102.422 1.67141 0.315901 0
M  V30 1001 O 103.607 1.93253 0.191556 0
M  V30 1002 C 100.737 3.47222 -0.073625 0
M  V30 1003 C 99.6908 4.16016 -1.00573 0
M  V30 1004 C 99.0168 5.34104 -0.252289 0
M  V30 1005 C 100.317 4.67264 -2.33371 0
M  V30 1006 H 102.011 2.54271 -1.58072 0
M  V30 1007 H 99.5568 1.22218 -0.76149 0
M  V30 1008 H 101.51 4.20939 0.19714 0
M  V30 1009 H 100.234 3.15302 0.85161 0
M  V30 1010 H 98.8928 3.44223 -1.2612 0
M  V30 1011 H 98.5408 4.98437 0.675988 0
M  V30 1012 H 98.2408 5.81072 -0.873455 0
M  V30 1013 H 99.7648 6.10599 0.0109857 0
M  V30 1014 H 101.179 5.32573 -2.12223 0
M  V30 1015 H 99.5758 5.24843 -2.90963 0
M  V30 1016 H 100.646 3.83602 -2.96611 0
M  V30 1017 N 101.989 0.842826 1.3317 0
M  V30 1018 C 103.236 0.440447 1.97652 0
M  V30 1019 C 103.564 -1.00123 1.6675 0
M  V30 1020 O 102.819 -1.7155 0.941761 0
M  V30 1021 C 103.118 0.612607 3.52111 0
M  V30 1022 C 102.784 2.02297 4.02972 0
M  V30 1023 C 101.446 2.40874 4.16573 0
M  V30 1024 C 103.798 2.94402 4.30089 0
M  V30 1025 C 101.126 3.70852 4.54627 0
M  V30 1026 C 103.478 4.23865 4.69597 0
M  V30 1027 C 102.142 4.62392 4.81404 0
M  V30 1028 H 101.412 0.161171 0.72326 0
M  V30 1029 H 104.059 1.07061 1.58777 0
M  V30 1030 H 102.364 -0.100849 3.9167 0
M  V30 1031 H 104.061 0.2815 4.00011 0
M  V30 1032 H 100.651 1.71338 3.92863 0
M  V30 1033 H 104.835 2.65835 4.19101 0
M  V30 1034 H 100.091 4.00501 4.61962 0
M  V30 1035 H 104.265 4.95306 4.89536 0
M  V30 1036 H 101.892 5.63154 5.10648 0
M  V30 1037 N 103.467 -1.45747 0.599634 0
M  V30 1038 C 104.878 -1.85853 0.177681 0
M  V30 1039 C 105.229 -1.50102 -1.26348 0
M  V30 1040 O 104.354 -0.923905 -1.95686 0
M  V30 1041 C 104.949 -3.37326 0.315688 0
M  V30 1042 C 103.508 -3.76365 -0.0515144 0
M  V30 1043 C 102.655 -2.69722 0.643822 0
M  V30 1044 H 105.606 -1.36661 0.806814 0
M  V30 1045 H 105.627 -3.77778 -0.454321 0
M  V30 1046 H 105.139 -3.63315 1.36468 0
M  V30 1047 H 103.24 -3.55993 -1.09999 0
M  V30 1048 H 103.353 -4.77916 0.336594 0
M  V30 1049 H 101.717 -2.54567 0.0822881 0
M  V30 1050 H 102.5 -2.98549 1.6948 0
M  V30 1051 N 104.945 -0.338344 -1.53925 0
M  V30 1052 C 106.194 0.260732 -2.00008 0
M  V30 1053 C 106.507 1.52073 -1.23017 0
M  V30 1054 O 107.713 2.19672 -1.5955 0
M  V30 1055 C 106.169 0.51515 -3.56194 0
M  V30 1056 C 105.777 -0.728645 -4.42035 0
M  V30 1057 C 107.521 1.07337 -4.10706 0
M  V30 1058 C 105.428 -0.445315 -5.89721 0
M  V30 1059 H 104.358 0.101205 -0.747177 0
M  V30 1060 H 107.009 -0.452866 -1.77824 0
M  V30 1061 H 105.391 1.28932 -3.74423 0
M  V30 1062 H 106.565 -1.50352 -4.35581 0
M  V30 1063 H 104.88 -1.20813 -3.98489 0
M  V30 1064 H 107.477 1.30022 -5.18651 0
M  V30 1065 H 107.82 2.0273 -3.63602 0
M  V30 1066 H 108.353 0.360034 -3.96167 0
M  V30 1067 H 105.092 -1.36883 -6.41049 0
M  V30 1068 H 104.612 0.291569 -5.99091 0
M  V30 1069 H 106.291 -0.0606218 -6.46972 0
M  V30 1070 N 106.423 1.57458 -0.0668435 0
M  V30 1071 C 107.671 1.92919 0.602214 0
M  V30 1072 C 107.992 0.947215 1.70449 0
M  V30 1073 O 107.262 -0.00544117 1.95899 0
M  V30 1074 H 105.842 0.71217 0.22544 0
M  V30 1075 H 108.504 1.94508 -0.123535 0
M  V30 1076 H 107.6 2.94589 1.03073 0
M  V30 1077 N 107.901 -0.206675 1.56239 0
M  V30 1078 C 109.148 -0.928842 1.79941 0
M  V30 1079 C 109.476 -1.83734 0.638131 0
M  V30 1080 O 108.731 -1.92039 -0.376746 0
M  V30 1081 C 109.03 -1.78675 3.09532 0
M  V30 1082 C 108.696 -1.03022 4.38973 0
M  V30 1083 C 107.358 -0.821302 4.74139 0
M  V30 1084 C 109.71 -0.497081 5.18824 0
M  V30 1085 C 107.038 -0.0675719 5.86661 0
M  V30 1086 C 109.39 0.24338 6.32132 0
M  V30 1087 C 108.054 0.463422 6.65889 0
M  V30 1088 H 107.324 -0.339887 0.658451 0
M  V30 1089 H 109.971 -0.195977 1.90495 0
M  V30 1090 H 108.276 -2.58794 2.94165 0
M  V30 1091 H 109.973 -2.34792 3.25075 0
M  V30 1092 H 106.563 -1.20306 4.11369 0
M  V30 1093 H 110.747 -0.645921 4.92079 0
M  V30 1094 H 106.003 0.112995 6.11296 0
M  V30 1095 H 110.177 0.66393 6.93228 0
M  V30 1096 H 107.804 1.04938 7.52922 0
M  V30 1097 N 109.379 -1.50304 -0.473955 0
M  V30 1098 C 110.625 -1.61389 -1.22806 0
M  V30 1099 C 110.958 -0.311955 -1.91678 0
M  V30 1100 O 110.233 0.686384 -1.81986 0
M  V30 1101 C 110.516 -2.79219 -2.27396 0
M  V30 1102 C 110.369 -4.19286 -1.62848 0
M  V30 1103 C 111.688 -2.92614 -3.28732 0
M  V30 1104 H 108.807 -0.587399 -0.445119 0
M  V30 1105 H 111.449 -1.82681 -0.522265 0
M  V30 1106 H 109.599 -2.61195 -2.87592 0
M  V30 1107 H 111.271 -4.48892 -1.06271 0
M  V30 1108 H 109.514 -4.23677 -0.931693 0
M  V30 1109 H 110.185 -4.97655 -2.38838 0
M  V30 1110 H 112.661 -3.09105 -2.78556 0
M  V30 1111 H 111.537 -3.76688 -3.99246 0
M  V30 1112 H 111.798 -2.03107 -3.92683 0
M  V30 1113 N 110.857 0.726932 -1.39834 0
M  V30 1114 C 112.105 1.4837 -1.37225 0
M  V30 1115 C 112.426 1.94979 0.0284857 0
M  V30 1116 O 111.696 1.69555 0.981213 0
M  V30 1117 H 110.276 0.55043 -0.505011 0
M  V30 1118 H 112.938 0.862468 -1.74778 0
M  V30 1119 H 112.034 2.36198 -2.04003 0
M  V30 1120 N 112.336 1.25143 0.95797 0
M  V30 1121 C 113.284 1.05019 2.07542 0
M  V30 1122 C 114.278 -0.0178751 1.69391 0
M  V30 1123 O 115.484 0.137472 1.79474 0
M  V30 1124 H 111.859 0.32265 0.679265 0
M  V30 1125 H 113.83 1.99759 2.21673 0
M  V30 1126 C 112.579 0.682074 3.40944 0
M  V30 1127 H 111.902 1.49573 3.70767 0
M  V30 1128 H 113.342 0.580945 4.20001 0
M  V30 1129 C 111.801 -0.611608 3.31302 0
M  V30 1130 O 112.331 -1.65465 3.66038 0
M  V30 1131 N 110.537 -0.595982 2.84423 0
M  V30 1132 H 110.084 0.253192 2.56353 0
M  V30 1133 H 110.042 -1.46173 2.78354 0
M  V30 1134 N 113.814 -1.1601 1.06675 0
M  V30 1135 C 115.063 -1.85973 0.780818 0
M  V30 1136 C 115.376 -1.82819 -0.695444 0
M  V30 1137 O 116.582 -2.484 -1.09589 0
M  V30 1138 C 115.038 -3.33757 1.34665 0
M  V30 1139 C 114.646 -3.45374 2.85343 0
M  V30 1140 C 116.39 -4.0895 1.13843 0
M  V30 1141 C 114.297 -4.87266 3.35151 0
M  V30 1142 H 113.227 -0.696661 0.288407 0
M  V30 1143 H 115.878 -1.30903 1.28595 0
M  V30 1144 H 114.26 -3.88456 0.769274 0
M  V30 1145 H 115.434 -3.00816 3.49065 0
M  V30 1146 H 113.749 -2.83619 3.04876 0
M  V30 1147 H 116.346 -5.13654 1.4854 0
M  V30 1148 H 116.689 -4.16229 0.0770282 0
M  V30 1149 H 117.222 -3.605 1.68179 0
M  V30 1150 H 113.961 -4.85168 4.40786 0
M  V30 1151 H 113.481 -5.32433 2.76179 0
M  V30 1152 H 115.16 -5.56097 3.30704 0
M  V30 1153 N 115.292 -0.849877 -1.32721 0
M  V30 1154 C 116.222 -0.306308 -2.31482 0
M  V30 1155 C 117.203 0.591952 -1.59468 0
M  V30 1156 O 118.388 0.513199 -1.87296 0
M  V30 1157 C 115.518 0.510204 -3.43532 0
M  V30 1158 C 114.472 -0.293209 -4.26994 0
M  V30 1159 C 113.798 0.647743 -5.30762 0
M  V30 1160 C 115.098 -1.51634 -4.99804 0
M  V30 1161 H 116.792 -1.13153 -2.77195 0
M  V30 1162 H 114.338 -0.545553 -1.33266 0
M  V30 1163 H 116.291 0.900856 -4.11658 0
M  V30 1164 H 115.015 1.36874 -2.96535 0
M  V30 1165 H 113.674 -0.665555 -3.60508 0
M  V30 1166 H 113.322 1.50299 -4.8002 0
M  V30 1167 H 113.022 0.11422 -5.87489 0
M  V30 1168 H 114.546 1.03567 -6.01753 0
M  V30 1169 H 115.96 -1.19824 -5.60638 0
M  V30 1170 H 114.357 -1.98745 -5.66234 0
M  V30 1171 H 115.427 -2.28018 -4.27943 0
M  V30 1172 N 116.77 1.45427 -0.607355 0
M  V30 1173 C 118.019 2.01452 -0.100036 0
M  V30 1174 C 118.332 1.48159 1.27704 0
M  V30 1175 O 119.538 1.96159 1.87707 0
M  V30 1176 C 117.994 3.59672 -0.128158 0
M  V30 1177 C 117.602 4.21962 -1.50507 0
M  V30 1178 C 119.346 4.23262 0.323932 0
M  V30 1179 C 117.253 5.72333 -1.48959 0
M  V30 1180 H 116.183 0.75325 -0.0336299 0
M  V30 1181 H 118.834 1.66901 -0.76265 0
M  V30 1182 H 117.216 3.91411 0.601105 0
M  V30 1183 H 118.39 4.01796 -2.25602 0
M  V30 1184 H 116.705 3.70565 -1.89923 0
M  V30 1185 H 119.302 5.33522 0.354691 0
M  V30 1186 H 119.645 3.93921 1.34656 0
M  V30 1187 H 120.178 3.96239 -0.352056 0
M  V30 1188 H 116.917 6.06373 -2.48981 0
M  V30 1189 H 116.437 5.94691 -0.781214 0
M  V30 1190 H 118.116 6.35525 -1.21313 0
M  V30 1191 N 118.248 0.346503 1.53744 0
M  V30 1192 C 119.178 -0.501193 2.28058 0
M  V30 1193 C 120.159 -1.10014 1.29734 0
M  V30 1194 O 121.344 -1.12097 1.58581 0
M  V30 1195 C 118.474 -1.65078 3.05559 0
M  V30 1196 C 117.428 -1.18003 4.11411 0
M  V30 1197 C 116.754 -2.41837 4.76884 0
M  V30 1198 C 118.054 -0.278394 5.21558 0
M  V30 1199 H 119.748 0.11875 2.99164 0
M  V30 1200 H 117.294 0.0585531 1.43881 0
M  V30 1201 H 119.247 -2.25028 3.56287 0
M  V30 1202 H 117.971 -2.29767 2.32109 0
M  V30 1203 H 116.63 -0.603331 3.61601 0
M  V30 1204 H 116.278 -3.0494 4.00026 0
M  V30 1205 H 115.978 -2.1102 5.48402 0
M  V30 1206 H 117.502 -3.02508 5.30397 0
M  V30 1207 H 118.916 -0.784823 5.67903 0
M  V30 1208 H 117.313 -0.0619707 6.00068 0
M  V30 1209 H 118.383 0.684677 4.80042 0
M  V30 1210 N 119.726 -1.57421 0.075193 0
M  V30 1211 C 120.972 -1.93905 -0.594025 0
M  V30 1212 C 121.305 -0.955701 -1.69056 0
M  V30 1213 O 120.58 0.0145373 -1.94495 0
M  V30 1214 C 120.863 -3.40638 -1.1678 0
M  V30 1215 C 120.716 -4.49733 -0.0776792 0
M  V30 1216 C 122.035 -3.88259 -2.07228 0
M  V30 1217 H 119.154 -0.705105 -0.214466 0
M  V30 1218 H 121.796 -1.8947 0.141854 0
M  V30 1219 H 119.946 -3.44549 -1.79494 0
M  V30 1220 H 121.618 -4.57942 0.555573 0
M  V30 1221 H 119.861 -4.29751 0.591286 0
M  V30 1222 H 120.532 -5.49549 -0.519603 0
M  V30 1223 H 123.008 -3.86376 -1.54445 0
M  V30 1224 H 121.884 -4.91533 -2.44308 0
M  V30 1225 H 122.145 -3.26396 -2.98191 0
M  V30 1226 N 121.204 0.198386 -1.56346 0
M  V30 1227 C 122.45 0.920648 -1.80698 0
M  V30 1228 C 122.783 1.83045 -0.648697 0
M  V30 1229 O 122.058 1.91308 0.350925 0
M  V30 1230 C 122.341 1.73971 -3.15287 0
M  V30 1231 C 122.194 0.85485 -4.41602 0
M  V30 1232 C 123.513 2.71296 -3.46535 0
M  V30 1233 H 120.632 0.333261 -0.657348 0
M  V30 1234 H 123.274 0.188198 -1.89066 0
M  V30 1235 H 121.424 2.36416 -3.08285 0
M  V30 1236 H 123.096 0.245362 -4.60647 0
M  V30 1237 H 121.339 0.161398 -4.335 0
M  V30 1238 H 122.01 1.46286 -5.32264 0
M  V30 1239 H 124.486 2.18983 -3.53816 0
M  V30 1240 H 123.362 3.2569 -4.41834 0
M  V30 1241 H 123.623 3.5018 -2.69864 0
M  V30 1242 N 122.682 1.50554 0.465978 0
M  V30 1243 C 123.63 1.70324 1.58406 0
M  V30 1244 C 124.624 0.569139 1.59553 0
M  V30 1245 O 125.83 0.749776 1.63641 0
M  V30 1246 H 122.205 0.537688 0.525734 0
M  V30 1247 H 124.176 2.64104 1.38894 0
M  V30 1248 C 122.925 1.81928 2.96307 0
M  V30 1249 H 122.248 2.68586 2.96144 0
M  V30 1250 H 123.688 1.99784 3.73982 0
M  V30 1251 C 122.147 0.572095 3.32007 0
M  V30 1252 O 122.677 -0.286416 4.00678 0
M  V30 1253 N 120.883 0.424606 2.87481 0
M  V30 1254 H 120.43 1.12427 2.31771 0
M  V30 1255 H 120.388 -0.408697 3.11732 0
M  V30 1256 N 124.16 -0.719506 1.40217 0
M  V30 1257 C 125.409 -1.47486 1.37589 0
M  V30 1258 C 125.722 -1.9559 -0.0201568 0
M  V30 1259 O 126.928 -2.70973 -0.169049 0
M  V30 1260 C 125.384 -2.66575 2.41796 0
M  V30 1261 C 124.992 -2.25358 3.87192 0
M  V30 1262 C 126.736 -3.4433 2.48269 0
M  V30 1263 C 124.643 -3.41262 4.83005 0
M  V30 1264 H 123.573 -0.553901 0.511576 0
M  V30 1265 H 126.224 -0.783427 1.65936 0
M  V30 1266 H 124.606 -3.3787 2.06543 0
M  V30 1267 H 125.78 -1.61509 4.31569 0
M  V30 1268 H 124.095 -1.60657 3.84159 0
M  V30 1269 H 126.692 -4.30569 3.17041 0
M  V30 1270 H 127.035 -3.87872 1.51198 0
M  V30 1271 H 127.568 -2.80076 2.82493 0
M  V30 1272 H 124.307 -3.02755 5.81394 0
M  V30 1273 H 123.827 -4.0404 4.43297 0
M  V30 1274 H 125.506 -4.07383 5.02641 0
M  V30 1275 N 125.638 -1.25649 -0.95132 0
M  V30 1276 C 126.863 -1.13443 -1.73624 0
M  V30 1277 C 127.288 0.307565 -1.85568 0
M  V30 1278 O 126.646 1.22282 -1.33854 0
M  V30 1279 C 126.694 -1.79723 -3.12621 0
M  V30 1280 O 125.798 -1.07912 -3.98031 0
M  V30 1281 H 125.139 -0.395872 -0.533086 0
M  V30 1282 H 127.669 -1.66276 -1.1922 0
M  V30 1283 H 127.679 -1.86141 -3.63064 0
M  V30 1284 H 126.354 -2.84633 -3.03244 0
M  V30 1285 H 124.931 -1.09398 -3.56492 0
M  V30 1286 N 127.117 1.15442 -1.07289 0
M  V30 1287 C 128.364 1.86213 -0.795668 0
M  V30 1288 C 128.692 1.82291 0.678238 0
M  V30 1289 O 127.947 1.24057 1.51355 0
M  V30 1290 C 128.246 3.3489 -1.24834 0
M  V30 1291 C 127.912 3.59007 -2.72809 0
M  V30 1292 C 126.574 3.65298 -3.13227 0
M  V30 1293 C 128.926 3.68762 -3.68326 0
M  V30 1294 C 126.254 3.78854 -4.4798 0
M  V30 1295 C 128.606 3.83842 -5.0284 0
M  V30 1296 C 127.27 3.88378 -5.4288 0
M  V30 1297 H 126.54 0.681403 -0.291155 0
M  V30 1298 H 129.187 1.36435 -1.34379 0
M  V30 1299 H 127.492 3.8687 -0.619595 0
M  V30 1300 H 129.189 3.88052 -1.01076 0
M  V30 1301 H 125.779 3.5475 -2.40521 0
M  V30 1302 H 129.963 3.63202 -3.38227 0
M  V30 1303 H 125.219 3.80623 -4.78472 0
M  V30 1304 H 129.393 3.90332 -5.76727 0
M  V30 1305 H 127.02 3.98635 -6.47298 0
M  V30 1306 N 128.595 0.856903 1.32268 0
M  V30 1307 C 130.011 0.547061 1.49931 0
M  V30 1308 C 130.211 -0.921781 1.7918 0
M  V30 1309 O 129.267 -1.70469 1.8627 0
M  V30 1310 C 130.58 1.43599 2.64196 0
M  V30 1311 C 132.128 1.43665 2.78081 0
M  V30 1312 C 132.603 2.31085 3.95428 0
M  V30 1313 N 134.094 2.28893 4.02694 0
M  V30 1314 C 134.829 2.93262 4.92732 0
M  V30 1315 N 134.325 3.66751 5.87763 0
M  V30 1316 N 136.118 2.82638 4.85873 0
M  V30 1317 H 128.269 1.8075 1.11549 0
M  V30 1318 H 130.532 0.772144 0.549997 0
M  V30 1319 H 130.238 2.48058 2.49319 0
M  V30 1320 H 130.112 1.12502 3.60032 0
M  V30 1321 H 132.499 0.399701 2.92381 0
M  V30 1322 H 132.58 1.7878 1.82952 0
M  V30 1323 H 132.224 3.34849 3.81888 0
M  V30 1324 H 132.154 1.93302 4.89839 0
M  V30 1325 H 134.645 1.75466 3.34694 0
M  V30 1326 H 134.958 4.13027 6.53168 0
M  V30 1327 H 133.303 3.70859 5.87783 0
M  V30 1328 H 136.494 2.24774 4.10602 0
M  V30 1329 H 136.667 3.33084 5.55841 0
M  V30 1330 N 130.073 -1.45103 0.615059 0
M  V30 1331 C 130.983 -2.34382 -0.101034 0
M  V30 1332 C 131.999 -1.51681 -0.852585 0
M  V30 1333 O 133.175 -1.8446 -0.808484 0
M  V30 1334 C 130.24 -3.29417 -1.08099 0
M  V30 1335 C 129.301 -4.28025 -0.330577 0
M  V30 1336 C 128.534 -5.1852 -1.26385 0
M  V30 1337 O 128.757 -5.12598 -2.50198 0
M  V30 1338 O 127.691 -5.97122 -0.756866 0
M  V30 1339 H 131.517 -2.97033 0.632855 0
M  V30 1340 H 129.102 -1.4461 0.375293 0
M  V30 1341 H 130.984 -3.87958 -1.6452 0
M  V30 1342 H 129.659 -2.69321 -1.79577 0
M  V30 1343 H 128.566 -3.73078 0.276283 0
M  V30 1344 H 129.899 -4.90997 0.343866 0
M  V30 1345 N 131.551 -0.354651 -1.53558 0
M  V30 1346 C 132.498 0.496968 -2.25386 0
M  V30 1347 C 133.468 1.0865 -1.25636 0
M  V30 1348 O 134.653 1.12104 -1.54394 0
M  V30 1349 C 131.793 1.63637 -3.03837 0
M  V30 1350 C 130.906 1.07307 -4.18461 0
M  V30 1351 C 130.041 2.18068 -4.84376 0
M  V30 1352 C 129.08 1.59147 -5.91049 0
M  V30 1353 N 128.217 2.63695 -6.50699 0
M  V30 1354 H 133.057 -0.122075 -2.9775 0
M  V30 1355 H 130.594 -0.0720154 -1.46924 0
M  V30 1356 H 132.552 2.30734 -3.47589 0
M  V30 1357 H 131.182 2.22623 -2.33749 0
M  V30 1358 H 130.234 0.292708 -3.79272 0
M  V30 1359 H 131.546 0.602193 -4.95152 0
M  V30 1360 H 130.7 2.93007 -5.31255 0
M  V30 1361 H 129.439 2.68504 -4.07133 0
M  V30 1362 H 128.444 0.827175 -5.43542 0
M  V30 1363 H 129.669 1.09549 -6.70206 0
M  V30 1364 H 127.615 3.13365 -5.76315 0
M  V30 1365 H 127.532 2.21263 -7.22896 0
M  V30 1366 H 128.8 3.3837 -7.02229 0
M  V30 1367 N 133.029 1.57378 -0.0835403 0
M  V30 1368 C 133.962 2.09016 0.915833 0
M  V30 1369 C 134.94 0.997993 1.2837 0
M  V30 1370 O 136.124 1.27219 1.39096 0
M  V30 1371 C 133.251 2.55757 2.22049 0
M  V30 1372 C 132.297 3.76522 2.00333 0
M  V30 1373 S 133.13 5.20661 1.25191 0
M  V30 1374 C 134.286 5.70743 2.56912 0
M  V30 1375 H 134.519 2.93457 0.476492 0
M  V30 1376 H 132.052 1.53856 0.129493 0
M  V30 1377 H 134.01 2.83346 2.97027 0
M  V30 1378 H 132.671 1.71564 2.63106 0
M  V30 1379 H 131.864 4.07256 2.96916 0
M  V30 1380 H 131.466 3.49367 1.33488 0
M  V30 1381 H 133.758 5.78304 3.52946 0
M  V30 1382 H 134.701 6.6944 2.30772 0
M  V30 1383 H 135.109 4.98616 2.64655 0
M  V30 1384 N 134.507 -0.190092 1.56449 0
M  V30 1385 C 135.735 -0.925772 1.85033 0
M  V30 1386 C 136.15 -1.76638 0.666658 0
M  V30 1387 O 135.507 -1.78822 -0.364565 0
M  V30 1388 C 135.558 -1.81786 3.12468 0
M  V30 1389 O 135.279 -1.01118 4.26271 0
M  V30 1390 C 136.78 -2.6648 3.54265 0
M  V30 1391 H 134 -0.269872 0.614337 0
M  V30 1392 H 136.544 -0.195837 2.0356 0
M  V30 1393 H 134.699 -2.50136 2.95822 0
M  V30 1394 H 135.113 -1.61956 4.98869 0
M  V30 1395 H 136.587 -3.24722 4.46385 0
M  V30 1396 H 137.064 -3.40434 2.77491 0
M  V30 1397 H 137.67 -2.03493 3.73458 0
M  V30 1398 N 135.985 -1.50799 -0.457987 0
M  V30 1399 C 137.234 -1.6168 -1.20593 0
M  V30 1400 C 137.547 -0.32888 -1.92815 0
M  V30 1401 O 138.753 -0.316773 -2.69646 0
M  V30 1402 C 137.209 -2.8545 -2.19195 0
M  V30 1403 C 136.817 -4.21168 -1.52715 0
M  V30 1404 C 138.561 -3.05681 -2.94549 0
M  V30 1405 C 136.468 -5.3611 -2.4968 0
M  V30 1406 H 135.398 -0.602134 -0.453818 0
M  V30 1407 H 138.049 -1.77245 -0.475031 0
M  V30 1408 H 136.431 -2.63472 -2.95632 0
M  V30 1409 H 137.605 -4.53449 -0.819775 0
M  V30 1410 H 135.92 -4.06648 -0.895922 0
M  V30 1411 H 138.517 -3.88727 -3.67145 0
M  V30 1412 H 138.86 -2.17929 -3.54701 0
M  V30 1413 H 139.393 -3.27901 -2.25223 0
M  V30 1414 H 136.132 -6.26057 -1.94249 0
M  V30 1415 H 135.652 -5.0823 -3.18532 0
M  V30 1416 H 137.331 -5.6722 -3.11241 0
M  V30 1417 N 137.463 0.71206 -1.40597 0
M  V30 1418 C 138.874 1.29135 -1.34837 0
M  V30 1419 C 139.225 1.96186 -0.0235395 0
M  V30 1420 O 138.35 1.97768 0.878444 0
M  V30 1421 C 138.945 2.34827 -2.44217 0
M  V30 1422 C 137.504 2.88371 -2.41907 0
M  V30 1423 C 136.651 1.62202 -2.24913 0
M  V30 1424 H 139.602 0.507944 -1.50352 0
M  V30 1425 H 139.623 3.15749 -2.12327 0
M  V30 1426 H 139.135 1.85996 -3.40627 0
M  V30 1427 H 137.236 3.41422 -1.49204 0
M  V30 1428 H 137.349 3.39925 -3.37621 0
M  V30 1429 H 135.713 1.874 -1.72492 0
M  V30 1430 H 136.496 1.15391 -3.23326 0
M  V30 1431 N 138.941 1.26152 0.944643 0
M  V30 1432 C 140.218 1.02247 1.66748 0
M  V30 1433 C 140.598 -0.448202 2.06287 0
M  V30 1434 O 139.946 -1.42779 1.78399 0
M  V30 1435 C 140.156 1.96788 2.88228 0
M  V30 1436 C 141.504 2.25201 3.59958 0
M  V30 1437 O 142.528 1.94626 2.98327 0
M  V30 1438 O 141.387 2.77242 4.70956 0
M  V30 1439 H 138.481 0.388517 0.730057 0
M  V30 1440 H 141.027 1.37348 0.99668 0
M  V30 1441 H 139.799 2.96047 2.55875 0
M  V30 1442 H 139.422 1.62145 3.63035 0
M  V30 1443 N 140.419 -1.14872 1.07899 0
M  V30 1444 C 141.349 -2.2193 0.725887 0
M  V30 1445 C 142.33 -1.67622 -0.28927 0
M  V30 1446 O 143.515 -1.93533 -0.160787 0
M  V30 1447 C 140.645 -3.47061 0.128856 0
M  V30 1448 C 139.599 -4.14363 1.07178 0
M  V30 1449 C 138.925 -5.33636 0.337229 0
M  V30 1450 C 140.225 -4.63492 2.40775 0
M  V30 1451 H 141.919 -2.51724 1.62097 0
M  V30 1452 H 139.465 -1.20991 0.780838 0
M  V30 1453 H 141.418 -4.21199 -0.130147 0
M  V30 1454 H 140.142 -3.16617 -0.80134 0
M  V30 1455 H 138.801 -3.42173 1.3158 0
M  V30 1456 H 138.449 -4.99449 -0.596606 0
M  V30 1457 H 138.149 -5.79609 0.965788 0
M  V30 1458 H 139.673 -6.10539 0.0861567 0
M  V30 1459 H 141.087 -5.2913 2.20669 0
M  V30 1460 H 139.484 -5.20148 2.99276 0
M  V30 1461 H 140.554 -3.78834 3.02676 0
M  V30 1462 N 141.898 -0.863906 -1.31812 0
M  V30 1463 C 143.128 -0.485406 -2.00817 0
M  V30 1464 C 143.536 0.925007 -1.65046 0
M  V30 1465 O 142.879 1.61653 -0.872574 0
M  V30 1466 C 142.941 -0.555589 -3.55181 0
M  V30 1467 C 142.605 -1.92654 -4.14407 0
M  V30 1468 C 143.602 -2.89324 -4.31958 0
M  V30 1469 C 141.287 -2.2262 -4.50273 0
M  V30 1470 C 143.281 -4.14108 -4.84555 0
M  V30 1471 C 140.968 -3.47654 -5.02573 0
M  V30 1472 C 141.966 -4.43214 -5.19664 0
M  V30 1473 O 141.654 -5.66033 -5.70843 0
M  V30 1474 H 141.386 -0.188224 -0.649267 0
M  V30 1475 H 143.94 -1.16514 -1.69156 0
M  V30 1476 H 142.17 0.181037 -3.86276 0
M  V30 1477 H 143.859 -0.19138 -4.05449 0
M  V30 1478 H 144.625 -2.6748 -4.04573 0
M  V30 1479 H 140.504 -1.4902 -4.3625 0
M  V30 1480 H 144.048 -4.88703 -4.9781 0
M  V30 1481 H 139.945 -3.69345 -5.29391 0
M  V30 1482 H 140.713 -5.6812 -5.89222 0
M  V30 1483 N 143.376 1.44774 -0.622745 0
M  V30 1484 C 144.623 2.02121 -0.1239 0
M  V30 1485 C 144.951 1.48915 1.25118 0
M  V30 1486 O 144.206 0.660045 1.84233 0
M  V30 1487 C 144.505 3.57364 -0.0508323 0
M  V30 1488 C 144.171 4.29787 -1.36358 0
M  V30 1489 C 142.833 4.4929 -1.72314 0
M  V30 1490 C 145.185 4.71062 -2.23048 0
M  V30 1491 C 142.513 5.07325 -2.94682 0
M  V30 1492 C 144.865 5.30452 -3.44679 0
M  V30 1493 C 143.529 5.48175 -3.80868 0
M  V30 1494 H 142.799 0.739612 -0.0453381 0
M  V30 1495 H 145.446 1.73648 -0.807389 0
M  V30 1496 H 143.751 3.85202 0.715991 0
M  V30 1497 H 145.448 3.99456 0.351533 0
M  V30 1498 H 142.038 4.14932 -1.07375 0
M  V30 1499 H 146.222 4.55715 -1.96565 0
M  V30 1500 H 141.478 5.19235 -3.22809 0
M  V30 1501 H 145.652 5.61385 -4.12092 0
M  V30 1502 H 143.279 5.92912 -4.75773 0
M  V30 1503 N 144.854 0.36279 1.53368 0
M  V30 1504 C 146.103 -0.22888 2.00397 0
M  V30 1505 C 146.416 -1.50096 1.25421 0
M  V30 1506 O 147.622 -2.17106 1.63025 0
M  V30 1507 C 146.078 -0.458417 3.56969 0
M  V30 1508 C 145.686 0.798877 4.4082 0
M  V30 1509 C 147.43 -1.00789 4.12361 0
M  V30 1510 C 145.337 0.539078 5.88938 0
M  V30 1511 H 144.267 -0.089305 0.748693 0
M  V30 1512 H 146.918 0.481099 1.77081 0
M  V30 1513 H 145.3 -1.22959 3.76427 0
M  V30 1514 H 146.474 1.57262 4.33134 0
M  V30 1515 H 144.789 1.27137 3.96516 0
M  V30 1516 H 147.386 -1.21754 5.20653 0
M  V30 1517 H 147.729 -1.9692 3.66781 0
M  V30 1518 H 148.262 -0.296961 3.9669 0
M  V30 1519 H 145.001 1.47064 6.3879 0
M  V30 1520 H 144.521 -0.196222 5.99479 0
M  V30 1521 H 146.2 0.163542 6.46793 0
M  V30 1522 N 146.332 -1.57332 0.0918853 0
M  V30 1523 C 147.28 -2.15075 -0.885747 0
M  V30 1524 C 148.274 -1.09277 -1.29441 0
M  V30 1525 O 149.48 -1.27627 -1.26931 0
M  V30 1526 H 145.855 -0.687966 -0.303656 0
M  V30 1527 H 147.826 -2.96047 -0.373995 0
M  V30 1528 C 146.575 -2.74325 -2.13638 0
M  V30 1529 H 145.898 -3.55418 -1.8308 0
M  V30 1530 H 147.338 -3.183 -2.80109 0
M  V30 1531 C 145.797 -1.70062 -2.90827 0
M  V30 1532 O 146.327 -1.13763 -3.85254 0
M  V30 1533 N 144.533 -1.40628 -2.54307 0
M  V30 1534 H 144.08 -1.866 -1.7759 0
M  V30 1535 H 144.038 -0.711043 -3.06254 0
M  V30 1536 N 147.81 0.181792 -1.56548 0
M  V30 1537 C 148.74 1.22765 -1.98623 0
M  V30 1538 C 149.721 1.46747 -0.860189 0
M  V30 1539 O 150.906 1.58259 -1.12551 0
M  V30 1540 C 148.036 2.56894 -2.33715 0
M  V30 1541 C 146.99 2.475 -3.49182 0
M  V30 1542 C 146.316 3.86023 -3.69986 0
M  V30 1543 C 147.616 1.98866 -4.82959 0
M  V30 1544 H 149.31 0.877942 -2.86239 0
M  V30 1545 H 146.856 0.42088 -1.37712 0
M  V30 1546 H 148.809 3.30253 -2.61746 0
M  V30 1547 H 147.533 2.93632 -1.42997 0
M  V30 1548 H 146.192 1.76596 -3.21262 0
M  V30 1549 H 145.84 4.20136 -2.76576 0
M  V30 1550 H 145.54 3.80609 -4.47672 0
M  V30 1551 H 147.064 4.60984 -4.00407 0
M  V30 1552 H 148.478 2.61992 -5.09934 0
M  V30 1553 H 146.875 2.04424 -5.64208 0
M  V30 1554 H 147.945 0.942465 -4.75653 0
M  V30 1555 N 149.288 1.51039 0.449983 0
M  V30 1556 C 150.251 1.70863 1.5277 0
M  V30 1557 C 151.251 0.578846 1.5002 0
M  V30 1558 O 152.441 0.846213 1.52266 0
M  V30 1559 C 149.573 1.75341 2.9235 0
M  V30 1560 H 150.766 2.67034 1.36502 0
M  V30 1561 H 148.319 1.40838 0.677812 0
M  V30 1562 H 149.054 0.809383 3.14037 0
M  V30 1563 H 148.839 2.57436 2.95752 0
M  V30 1564 H 150.329 1.92559 3.70555 0
M  V30 1565 N 150.766 -0.704594 1.40972 0
M  V30 1566 C 152.012 -1.46675 1.40051 0
M  V30 1567 C 152.345 -1.94199 0.00641102 0
M  V30 1568 O 151.62 -1.68916 -0.964235 0
M  V30 1569 C 151.903 -2.68505 2.39952 0
M  V30 1570 C 151.756 -2.26805 3.88432 0
M  V30 1571 C 153.075 -3.70686 2.37233 0
M  V30 1572 H 150.194 -0.532015 0.510028 0
M  V30 1573 H 152.836 -0.803255 1.72185 0
M  V30 1574 H 150.986 -3.25114 2.1268 0
M  V30 1575 H 152.658 -1.75592 4.26574 0
M  V30 1576 H 150.901 -1.58685 4.03734 0
M  V30 1577 H 151.572 -3.14181 4.53866 0
M  V30 1578 H 154.048 -3.23731 2.61415 0
M  V30 1579 H 152.924 -4.53553 3.09162 0
M  V30 1580 H 153.185 -4.19754 1.38777 0
M  V30 1581 N 152.244 -1.26651 -0.937939 0
M  V30 1582 C 153.207 -1.08546 -2.01867 0
M  V30 1583 C 154.207 -0.0327327 -1.60767 0
M  V30 1584 O 155.397 -0.276427 -1.71993 0
M  V30 1585 C 152.529 -0.651711 -3.34613 0
M  V30 1586 H 153.722 -2.04502 -2.1936 0
M  V30 1587 H 151.275 -1.09294 -1.11734 0
M  V30 1588 H 152.01 0.309696 -3.22818 0
M  V30 1589 H 151.795 -1.41189 -3.65798 0
M  V30 1590 H 153.285 -0.546973 -4.14002 0
M  V30 1591 N 153.722 1.14298 -1.08507 0
M  V30 1592 C 154.999 1.81544 -0.728088 0
M  V30 1593 C 155.379 1.95838 0.78808 0
M  V30 1594 O 154.727 1.51904 1.70697 0
M  V30 1595 C 154.937 3.17169 -1.45619 0
M  V30 1596 C 156.285 3.9265 -1.61591 0
M  V30 1597 O 157.309 3.26762 -1.41793 0
M  V30 1598 O 156.168 5.10807 -1.94263 0
M  V30 1599 H 153.262 0.78491 -0.260471 0
M  V30 1600 H 155.808 1.21307 -1.18671 0
M  V30 1601 H 154.58 3.01934 -2.489 0
M  V30 1602 H 154.203 3.851 -0.989124 0
M  V30 1603 N 155.201 0.870884 1.31352 0
M  V30 1604 C 156.131 0.343096 2.30966 0
M  V30 1605 C 157.112 -0.566507 1.60389 0
M  V30 1606 O 158.297 -0.483336 1.88089 0
M  V30 1607 C 155.427 -0.455487 3.443 0
M  V30 1608 C 154.381 0.361103 4.26474 0
M  V30 1609 C 153.707 -0.563221 5.31725 0
M  V30 1610 C 155.007 1.59566 4.97329 0
M  V30 1611 H 156.701 1.17548 2.75359 0
M  V30 1612 H 154.247 0.566686 1.32381 0
M  V30 1613 H 156.2 -0.83525 4.13039 0
M  V30 1614 H 154.924 -1.32139 2.98675 0
M  V30 1615 H 153.583 0.722825 3.59403 0
M  V30 1616 H 153.231 -1.42643 4.82351 0
M  V30 1617 H 152.931 -0.0207409 5.87596 0
M  V30 1618 H 154.455 -0.939808 6.03324 0
M  V30 1619 H 155.869 1.28728 5.58661 0
M  V30 1620 H 154.266 2.07728 5.63 0
M  V30 1621 H 155.336 2.34798 4.24262 0
M  V30 1622 N 156.679 -1.44442 0.630414 0
M  V30 1623 C 157.928 -2.01267 0.132073 0
M  V30 1624 C 158.241 -1.50172 -1.25331 0
M  V30 1625 O 159.447 -1.9912 -1.84562 0
M  V30 1626 C 157.903 -3.59422 0.185362 0
M  V30 1627 C 157.511 -4.19514 1.57201 0
M  V30 1628 C 159.255 -4.23724 -0.256553 0
M  V30 1629 C 157.162 -5.69891 1.58045 0
M  V30 1630 H 156.092 -0.752619 0.0456092 0
M  V30 1631 H 158.743 -1.65666 0.789106 0
M  V30 1632 H 157.125 -3.92318 -0.538759 0
M  V30 1633 H 158.299 -3.98156 2.31966 0
M  V30 1634 H 156.614 -3.67496 1.95795 0
M  V30 1635 H 159.211 -5.34019 -0.269767 0
M  V30 1636 H 159.554 -3.96013 -1.28372 0
M  V30 1637 H 160.087 -3.95629 0.41505 0
M  V30 1638 H 156.826 -6.02336 2.58597 0
M  V30 1639 H 156.346 -5.93373 0.875725 0
M  V30 1640 H 158.025 -6.33515 1.31408 0
M  V30 1641 N 158.157 -0.370918 -1.53173 0
M  V30 1642 C 159.087 0.464847 -2.28826 0
M  V30 1643 C 160.068 1.07936 -1.31468 0
M  V30 1644 O 161.253 1.0956 -1.60344 0
M  V30 1645 C 158.383 1.60196 -3.08147 0
M  V30 1646 C 157.337 1.11443 -4.13237 0
M  V30 1647 C 156.663 2.3422 -4.80672 0
M  V30 1648 C 157.963 0.195384 -5.21934 0
M  V30 1649 H 159.657 -0.166329 -2.98938 0
M  V30 1650 H 157.203 -0.0814359 -1.4377 0
M  V30 1651 H 159.156 2.19332 -3.59822 0
M  V30 1652 H 157.88 2.26045 -2.35735 0
M  V30 1653 H 156.539 0.545727 -3.62515 0
M  V30 1654 H 156.187 2.98537 -4.04827 0
M  V30 1655 H 155.887 2.02269 -5.51689 0
M  V30 1656 H 157.411 2.94032 -5.35143 0
M  V30 1657 H 158.825 0.694375 -5.69079 0
M  V30 1658 H 157.222 -0.0335027 -6.00091 0
M  V30 1659 H 158.292 -0.760961 -4.78892 0
M  V30 1660 N 159.635 1.57281 -0.100228 0
M  V30 1661 C 160.881 1.94826 0.563101 0
M  V30 1662 C 161.214 0.982475 1.67514 0
M  V30 1663 O 160.489 0.0164069 1.94493 0
M  V30 1664 C 160.772 3.42453 1.11346 0
M  V30 1665 C 160.625 4.498 0.00612081 0
M  V30 1666 C 161.944 3.91506 2.01024 0
M  V30 1667 H 159.063 0.708428 0.203221 0
M  V30 1668 H 161.705 1.8922 -0.171979 0
M  V30 1669 H 159.855 3.47361 1.7399 0
M  V30 1670 H 161.527 4.57 -0.628357 0
M  V30 1671 H 159.77 4.28756 -0.659581 0
M  V30 1672 H 160.441 5.50306 0.432109 0
M  V30 1673 H 162.917 3.88784 1.48278 0
M  V30 1674 H 161.793 4.95358 2.36457 0
M  V30 1675 H 162.054 3.31099 2.92961 0
M  V30 1676 N 161.113 -0.173488 1.56642 0
M  V30 1677 C 162.076 -1.19859 1.95362 0
M  V30 1678 C 163.076 -1.37296 0.83704 0
M  V30 1679 O 164.266 -1.34739 1.10413 0
M  V30 1680 C 161.398 -2.56405 2.24654 0
M  V30 1681 H 162.591 -0.867062 2.87092 0
M  V30 1682 H 160.144 -0.415853 1.50666 0
M  V30 1683 H 160.879 -2.94576 1.35631 0
M  V30 1684 H 160.664 -2.45115 3.06041 0
M  V30 1685 H 162.154 -3.30287 2.5554 0
M  V30 1686 N 162.591 -1.51276 -0.441967 0
M  V30 1687 C 163.868 -1.54252 -1.20273 0
M  V30 1688 C 164.248 -0.30408 -2.08898 0
M  V30 1689 O 163.596 0.711084 -2.17154 0
M  V30 1690 C 163.806 -2.85406 -2.00859 0
M  V30 1691 C 165.154 -3.37181 -2.58059 0
M  V30 1692 O 166.178 -2.86925 -2.11074 0
M  V30 1693 O 165.037 -4.24858 -3.43741 0
M  V30 1694 H 162.131 -0.619969 -0.547328 0
M  V30 1695 H 164.677 -1.63586 -0.451413 0
M  V30 1696 H 163.449 -3.67003 -1.35736 0
M  V30 1697 H 163.072 -2.79213 -2.83065 0
M  V30 1698 N 164.069 0.697108 -1.41344 0
M  V30 1699 C 165.294 1.49096 -1.44171 0
M  V30 1700 C 165.719 1.88038 -0.0481568 0
M  V30 1701 O 165.077 1.54525 0.948243 0
M  V30 1702 C 165.125 2.73088 -2.3549 0
M  V30 1703 O 164.229 3.70514 -1.81088 0
M  V30 1704 H 163.57 0.448801 -0.489361 0
M  V30 1705 H 166.1 0.856992 -1.85787 0
M  V30 1706 H 166.11 3.21413 -2.51312 0
M  V30 1707 H 164.785 2.44081 -3.36745 0
M  V30 1708 H 163.362 3.29441 -1.74708 0
M  V30 1709 N 165.547 1.27147 0.931209 0
M  V30 1710 C 166.477 1.12081 2.04842 0
M  V30 1711 C 167.458 0.0232364 1.70084 0
M  V30 1712 O 168.643 0.197085 1.93197 0
M  V30 1713 C 165.773 0.76354 3.38803 0
M  V30 1714 C 164.727 1.81396 3.87659 0
M  V30 1715 C 164.053 1.31075 5.18385 0
M  V30 1716 C 165.353 3.21739 4.11438 0
M  V30 1717 H 167.047 2.05537 2.17703 0
M  V30 1718 H 164.593 0.989603 1.04608 0
M  V30 1719 H 166.546 0.644982 4.16435 0
M  V30 1720 H 165.27 -0.206727 3.25945 0
M  V30 1721 H 163.929 1.92136 3.12217 0
M  V30 1722 H 163.577 0.330037 5.01916 0
M  V30 1723 H 163.277 2.013 5.52044 0
M  V30 1724 H 164.801 1.20506 5.98591 0
M  V30 1725 H 166.215 3.14019 4.79651 0
M  V30 1726 H 164.612 3.89644 4.56397 0
M  V30 1727 H 165.682 3.67054 3.16859 0
M  V30 1728 N 167.025 -1.13721 1.09112 0
M  V30 1729 C 168.274 -1.84275 0.82009 0
M  V30 1730 C 168.587 -1.84253 -0.656509 0
M  V30 1731 O 169.793 -2.50668 -1.04296 0
M  V30 1732 C 168.249 -3.30825 1.41714 0
M  V30 1733 C 167.857 -3.39244 2.92605 0
M  V30 1734 C 169.601 -4.06443 1.22492 0
M  V30 1735 C 167.508 -4.80047 3.45411 0
M  V30 1736 H 166.438 -0.690387 0.30312 0
M  V30 1737 H 169.089 -1.28146 1.31343 0
M  V30 1738 H 167.471 -3.86737 0.851498 0
M  V30 1739 H 168.645 -2.93344 3.55367 0
M  V30 1740 H 166.96 -2.77088 3.10823 0
M  V30 1741 H 169.557 -5.10387 1.59402 0
M  V30 1742 H 169.9 -4.15972 0.165299 0
M  V30 1743 H 170.433 -3.56852 1.75788 0
M  V30 1744 H 167.172 -4.75709 4.50978 0
M  V30 1745 H 166.692 -5.26455 2.87411 0
M  V30 1746 H 168.371 -5.48957 3.42425 0
M  V30 1747 N 168.503 -0.877838 -1.30888 0
M  V30 1748 C 169.413 -0.343096 -2.32078 0
M  V30 1749 C 170.429 0.551022 -1.65045 0
M  V30 1750 O 171.605 0.445854 -1.96403 0
M  V30 1751 C 168.67 0.439905 -3.43898 0
M  V30 1752 C 167.731 -0.483111 -4.26573 0
M  V30 1753 C 166.964 0.262616 -5.33053 0
M  V30 1754 O 167.187 1.48967 -5.50604 0
M  V30 1755 O 166.121 -0.383593 -6.00676 0
M  V30 1756 H 169.947 -1.18203 -2.79753 0
M  V30 1757 H 167.532 -0.64145 -1.34929 0
M  V30 1758 H 169.414 0.883504 -4.12034 0
M  V30 1759 H 168.089 1.25526 -2.98371 0
M  V30 1760 H 166.996 -0.975374 -3.61161 0
M  V30 1761 H 168.329 -1.26427 -4.75686 0
M  V30 1762 N 169.982 1.44106 -0.638065 0
M  V30 1763 C 171.228 2.02277 -0.145546 0
M  V30 1764 C 171.561 1.50125 1.23191 0
M  V30 1765 O 170.836 0.688133 1.8192 0
M  V30 1766 C 171.119 3.59829 -0.139791 0
M  V30 1767 C 170.972 4.22247 -1.55008 0
M  V30 1768 C 172.291 4.36873 0.531966 0
M  V30 1769 H 169.41 0.734992 -0.0543632 0
M  V30 1770 H 172.052 1.71592 -0.815863 0
M  V30 1771 H 170.202 3.86102 0.431007 0
M  V30 1772 H 171.874 4.07057 -2.1703 0
M  V30 1773 H 170.117 3.79476 -2.10191 0
M  V30 1774 H 170.788 5.31284 -1.49804 0
M  V30 1775 H 173.264 4.16074 0.0464781 0
M  V30 1776 H 172.14 5.4657 0.505206 0
M  V30 1777 H 172.401 4.11995 1.60352 0
M  V30 1778 N 171.46 0.379036 1.52974 0
M  V30 1779 C 172.707 -0.206421 2.01445 0
M  V30 1780 C 173.035 -1.47668 1.26587 0
M  V30 1781 O 172.29 -1.92514 0.351675 0
M  V30 1782 C 172.589 -0.53096 3.53434 0
M  V30 1783 C 172.255 0.646546 4.46241 0
M  V30 1784 C 170.917 0.969604 4.7133 0
M  V30 1785 C 173.269 1.43479 5.01062 0
M  V30 1786 C 170.597 2.08263 5.48492 0
M  V30 1787 C 172.949 2.53834 5.7944 0
M  V30 1788 C 171.613 2.86659 6.02812 0
M  V30 1789 H 170.883 -0.0755349 0.73714 0
M  V30 1790 H 173.53 0.514271 1.84465 0
M  V30 1791 H 171.835 -1.33285 3.68432 0
M  V30 1792 H 173.532 -0.996417 3.88423 0
M  V30 1793 H 170.122 0.384734 4.2687 0
M  V30 1794 H 174.306 1.19844 4.81613 0
M  V30 1795 H 169.562 2.34078 5.64816 0
M  V30 1796 H 173.736 3.15319 6.20924 0
M  V30 1797 H 171.363 3.73026 6.62387 0
M  V30 1798 N 172.938 -1.57226 0.108567 0
M  V30 1799 C 173.886 -2.16002 -0.862885 0
M  V30 1800 C 174.88 -1.10644 -1.28274 0
M  V30 1801 O 176.086 -1.28966 -1.2557 0
M  V30 1802 H 172.461 -0.691148 -0.296342 0
M  V30 1803 H 174.432 -2.96427 -0.342575 0
M  V30 1804 C 173.181 -2.76576 -2.10716 0
M  V30 1805 H 172.504 -3.5734 -1.793 0
M  V30 1806 H 173.944 -3.21253 -2.76717 0
M  V30 1807 C 172.403 -1.73137 -2.89007 0
M  V30 1808 O 172.933 -1.17842 -3.84026 0
M  V30 1809 N 171.139 -1.43317 -2.52801 0
M  V30 1810 H 170.686 -1.88473 -1.75601 0
M  V30 1811 H 170.644 -0.743485 -3.05483 0
M  V30 1812 N 174.416 0.165178 -1.56732 0
M  V30 1813 C 175.346 1.20651 -1.99914 0
M  V30 1814 C 176.327 1.45827 -0.875705 0
M  V30 1815 O 177.512 1.57057 -1.14223 0
M  V30 1816 C 174.642 2.54401 -2.36427 0
M  V30 1817 C 173.596 2.43782 -3.51787 0
M  V30 1818 C 172.922 3.82078 -3.7406 0
M  V30 1819 C 174.222 1.93732 -4.85041 0
M  V30 1820 H 175.916 0.847534 -2.87154 0
M  V30 1821 H 173.462 0.40625 -1.38151 0
M  V30 1822 H 175.415 3.27458 -2.65234 0
M  V30 1823 H 174.139 2.92098 -1.46103 0
M  V30 1824 H 172.798 1.73178 -3.23117 0
M  V30 1825 H 172.446 4.17179 -2.81017 0
M  V30 1826 H 172.146 3.7584 -4.51684 0
M  V30 1827 H 173.67 4.56712 -4.05274 0
M  V30 1828 H 175.084 2.56569 -5.12684 0
M  V30 1829 H 173.481 1.98428 -5.66345 0
M  V30 1830 H 174.551 0.891962 -4.76626 0
M  V30 1831 N 175.894 1.51508 0.433938 0
M  V30 1832 C 176.844 1.69451 1.52546 0
M  V30 1833 C 177.828 0.548474 1.51263 0
M  V30 1834 O 179.02 0.804529 1.57659 0
M  V30 1835 C 176.149 1.82604 2.90707 0
M  V30 1836 C 175.235 3.03002 2.96733 0
M  V30 1837 N 175.626 4.26121 2.72496 0
M  V30 1838 C 173.924 3.02327 3.27894 0
M  V30 1839 C 174.625 5.07407 2.84452 0
M  V30 1840 N 173.601 4.42126 3.16269 0
M  V30 1841 H 177.403 2.62305 1.32564 0
M  V30 1842 H 174.917 1.49202 0.641297 0
M  V30 1843 H 176.914 1.93569 3.69238 0
M  V30 1844 H 175.574 0.909339 3.11707 0
M  V30 1845 H 176.585 4.55009 2.4736 0
M  V30 1846 H 173.262 2.20301 3.54646 0
M  V30 1847 H 174.652 6.15422 2.69639 0
M  V30 1848 N 177.372 -0.689602 1.41712 0
M  V30 1849 C 178.282 -1.83314 1.46401 0
M  V30 1850 C 179.298 -1.7036 0.35405 0
M  V30 1851 O 180.474 -1.92171 0.602692 0
M  V30 1852 C 177.539 -3.19344 1.34982 0
M  V30 1853 C 176.6 -3.44363 2.56344 0
M  V30 1854 C 175.833 -4.73904 2.45461 0
M  V30 1855 O 176.056 -5.508 1.48241 0
M  V30 1856 O 174.99 -4.99839 3.35328 0
M  V30 1857 H 178.816 -1.82314 2.42889 0
M  V30 1858 H 176.401 -0.843438 1.23315 0
M  V30 1859 H 178.283 -4.00547 1.3092 0
M  V30 1860 H 176.958 -3.21014 0.41612 0
M  V30 1861 H 175.865 -2.63067 2.65982 0
M  V30 1862 H 177.198 -3.47512 3.48563 0
M  V30 1863 N 178.85 -1.27639 -0.924453 0
M  V30 1864 C 180.266 -1.05113 -1.20097 0
M  V30 1865 C 180.466 0.213262 -2.00368 0
M  V30 1866 O 179.522 0.91787 -2.35226 0
M  V30 1867 C 180.835 -2.29244 -1.94596 0
M  V30 1868 C 182.383 -2.34315 -2.07522 0
M  V30 1869 C 182.858 -3.58183 -2.85427 0
M  V30 1870 N 184.349 -3.5876 -2.92994 0
M  V30 1871 C 185.084 -4.51277 -3.53746 0
M  V30 1872 N 184.58 -5.54102 -4.15863 0
M  V30 1873 N 186.373 -4.38894 -3.51181 0
M  V30 1874 H 178.524 -2.08821 -0.388264 0
M  V30 1875 H 180.787 -0.918568 -0.234385 0
M  V30 1876 H 180.493 -3.21301 -1.43034 0
M  V30 1877 H 180.367 -2.34816 -2.95197 0
M  V30 1878 H 182.754 -1.42762 -2.58269 0
M  V30 1879 H 182.835 -2.32744 -1.06131 0
M  V30 1880 H 182.479 -4.50074 -2.35363 0
M  V30 1881 H 182.409 -3.57006 -3.8711 0
M  V30 1882 H 184.9 -2.84398 -2.4885 0
M  V30 1883 H 185.213 -6.20859 -4.60168 0
M  V30 1884 H 183.558 -5.57941 -4.144 0
M  V30 1885 H 186.749 -3.57772 -3.01856 0
M  V30 1886 H 186.922 -5.11186 -3.98237 0
M  V30 1887 N 180.328 1.1314 -1.09713 0
M  V30 1888 C 181.558 1.88048 -0.855656 0
M  V30 1889 C 181.966 1.79537 0.596919 0
M  V30 1890 O 181.309 1.16196 1.42282 0
M  V30 1891 C 181.371 3.38314 -1.21589 0
M  V30 1892 C 181.035 3.70605 -2.67397 0
M  V30 1893 C 182.032 3.69596 -3.65643 0
M  V30 1894 C 179.717 4.0017 -3.03593 0
M  V30 1895 C 181.711 3.977 -4.9811 0
M  V30 1896 C 179.398 4.27935 -4.36251 0
M  V30 1897 C 180.396 4.26685 -5.33318 0
M  V30 1898 O 180.084 4.53767 -6.63589 0
M  V30 1899 H 179.816 0.60208 -0.307368 0
M  V30 1900 H 182.37 1.44128 -1.46343 0
M  V30 1901 H 180.6 3.82752 -0.551177 0
M  V30 1902 H 182.289 3.94552 -0.953083 0
M  V30 1903 H 183.055 3.46826 -3.39023 0
M  V30 1904 H 178.934 4.00289 -2.2867 0
M  V30 1905 H 182.478 3.9664 -5.73866 0
M  V30 1906 H 178.375 4.50178 -4.62613 0
M  V30 1907 H 179.143 4.71422 -6.69107 0
M  V30 1908 N 181.806 0.884767 1.30421 0
M  V30 1909 C 183.036 0.517293 2.00019 0
M  V30 1910 C 183.444 -0.898632 1.66497 0
M  V30 1911 O 182.787 -1.60245 0.898181 0
M  V30 1912 C 182.849 0.612025 3.54252 0
M  V30 1913 C 182.513 1.99222 4.1129 0
M  V30 1914 C 183.51 2.9616 4.273 0
M  V30 1915 C 181.195 2.29755 4.46674 0
M  V30 1916 C 183.189 4.21764 4.77906 0
M  V30 1917 C 180.876 3.55606 4.96979 0
M  V30 1918 C 181.874 4.51425 5.12547 0
M  V30 1919 O 181.562 5.75043 5.61766 0
M  V30 1920 H 181.294 0.198529 0.64619 0
M  V30 1921 H 183.848 1.1919 1.67281 0
M  V30 1922 H 182.078 -0.119561 3.86515 0
M  V30 1923 H 183.767 0.255859 4.05093 0
M  V30 1924 H 184.533 2.73882 4.00267 0
M  V30 1925 H 180.412 1.55942 4.33824 0
M  V30 1926 H 183.956 4.96561 4.89972 0
M  V30 1927 H 179.853 3.7772 5.23448 0
M  V30 1928 H 180.621 5.77422 5.80109 0
M  V30 1929 N 183.284 -1.43765 0.645699 0
M  V30 1930 C 184.561 -1.9541 0.0862963 0
M  V30 1931 C 184.941 -1.58725 -1.39175 0
M  V30 1932 O 184.289 -0.868581 -2.11348 0
M  V30 1933 C 184.499 -3.47488 0.324565 0
M  V30 1934 C 185.847 -4.24001 0.225497 0
M  V30 1935 O 186.871 -3.55274 0.256715 0
M  V30 1936 O 185.73 -5.46313 0.142801 0
M  V30 1937 H 182.824 -0.826882 -0.0139483 0
M  V30 1938 H 185.37 -1.53743 0.718415 0
M  V30 1939 H 184.142 -3.67289 1.3496 0
M  V30 1940 H 183.765 -3.96135 -0.340987 0
M  V30 1941 N 184.763 -0.387143 -1.52771 0
M  V30 1942 C 186.012 0.19697 -2.00736 0
M  V30 1943 C 186.325 1.48082 -1.27793 0
M  V30 1944 O 187.531 2.14485 -1.66458 0
M  V30 1945 C 185.987 0.401568 -3.57653 0
M  V30 1946 C 185.595 -0.868907 -4.39493 0
M  V30 1947 C 187.339 0.942164 -4.13912 0
M  V30 1948 C 185.246 -0.632705 -5.88006 0
M  V30 1949 H 184.176 0.0773827 -0.750019 0
M  V30 1950 H 186.827 -0.50921 -1.76293 0
M  V30 1951 H 185.209 1.16954 -3.78335 0
M  V30 1952 H 186.383 -1.64133 -4.30577 0
M  V30 1953 H 184.698 -1.33429 -3.94443 0
M  V30 1954 H 187.295 1.13455 -5.22525 0
M  V30 1955 H 187.638 1.9106 -3.69867 0
M  V30 1956 H 188.171 0.233814 -3.97112 0
M  V30 1957 H 184.91 -1.57208 -6.36369 0
M  V30 1958 H 184.43 0.100825 -5.99715 0
M  V30 1959 H 186.109 -0.26642 -6.46451 0
M  V30 1960 N 186.241 1.57166 -0.116904 0
M  V30 1961 C 187.204 2.14039 0.819742 0
M  V30 1962 C 188.204 1.07477 1.19605 0
M  V30 1963 O 189.394 1.33263 1.1219 0
M  V30 1964 C 186.526 2.67891 2.10826 0
M  V30 1965 H 187.719 2.98128 0.325511 0
M  V30 1966 H 185.272 1.55739 0.132312 0
M  V30 1967 H 186.007 1.87384 2.64685 0
M  V30 1968 H 185.792 3.45823 1.84793 0
M  V30 1969 H 187.282 3.11809 2.77785 0
M  V30 1970 N 187.719 -0.156864 1.56817 0
M  V30 1971 C 188.965 -0.872416 1.83076 0
M  V30 1972 C 189.298 -1.81261 0.697001 0
M  V30 1973 O 188.573 -1.92171 -0.30008 0
M  V30 1974 C 188.856 -1.65551 3.19789 0
M  V30 1975 C 188.709 -0.737467 4.43713 0
M  V30 1976 C 190.028 -2.62012 3.53606 0
M  V30 1977 H 187.147 -0.315715 0.665953 0
M  V30 1978 H 189.789 -0.138004 1.89498 0
M  V30 1979 H 187.939 -2.28159 3.14445 0
M  V30 1980 H 189.611 -0.123143 4.61136 0
M  V30 1981 H 187.854 -0.0464067 4.33775 0
M  V30 1982 H 188.525 -1.32122 5.35955 0
M  V30 1983 H 191.001 -2.09525 3.59497 0
M  V30 1984 H 189.877 -3.13861 4.50314 0
M  V30 1985 H 190.138 -3.42902 2.79053 0
M  V30 1986 N 189.197 -1.51736 -0.425897 0
M  V30 1987 C 190.127 -1.76827 -1.52494 0
M  V30 1988 C 191.108 -0.618524 -1.58456 0
M  V30 1989 O 192.293 -0.862416 -1.74 0
M  V30 1990 C 189.423 -1.90374 -2.90474 0
M  V30 1991 C 188.377 -3.0588 -2.99369 0
M  V30 1992 C 187.703 -3.04625 -4.3944 0
M  V30 1993 C 189.003 -4.45644 -2.72394 0
M  V30 1994 H 190.697 -2.68855 -1.31748 0
M  V30 1995 H 188.243 -1.29372 -0.632362 0
M  V30 1996 H 190.196 -2.0651 -3.6733 0
M  V30 1997 H 188.92 -0.95004 -3.12477 0
M  V30 1998 H 187.579 -2.89467 -2.24954 0
M  V30 1999 H 187.227 -2.0701 -4.58428 0
M  V30 2000 H 186.927 -3.82195 -4.46319 0
M  V30 2001 H 188.451 -3.22869 -5.18255 0
M  V30 2002 H 189.865 -4.62348 -3.38979 0
M  V30 2003 H 188.262 -5.25006 -2.9067 0
M  V30 2004 H 189.332 -4.54893 -1.67929 0
M  V30 2005 N 190.675 0.682077 -1.42076 0
M  V30 2006 C 191.915 1.45424 -1.43636 0
M  V30 2007 C 192.279 1.91939 -0.0484001 0
M  V30 2008 O 193.48 2.6873 0.0612514 0
M  V30 2009 C 191.751 2.62427 -2.42625 0
M  V30 2010 S 193.31 3.51379 -2.62827 0
M  V30 2011 H 190.128 0.496779 -0.508657 0
M  V30 2012 H 192.73 0.794645 -1.78621 0
M  V30 2013 H 191.434 2.26481 -3.42249 0
M  V30 2014 H 190.965 3.33266 -2.09039 0
M  V30 2015 H 192.98 4.58141 -1.9058 0
M  V30 2016 N 192.153 1.28127 0.917671 0
M  V30 2017 C 193.381 1.17892 1.70026 0
M  V30 2018 C 193.796 -0.262958 1.8696 0
M  V30 2019 O 193.153 -1.17811 1.3938 0
M  V30 2020 C 193.204 1.86872 3.09453 0
M  V30 2021 O 192.925 3.25428 2.93306 0
M  V30 2022 C 194.426 1.8289 4.03815 0
M  V30 2023 H 191.646 0.40942 0.531617 0
M  V30 2024 H 194.19 1.69181 1.14883 0
M  V30 2025 H 192.345 1.39464 3.61426 0
M  V30 2026 H 192.759 3.59918 3.81523 0
M  V30 2027 H 194.233 2.35751 4.99125 0
M  V30 2028 H 194.71 0.800412 4.31845 0
M  V30 2029 H 195.316 2.29959 3.57769 0
M  V30 2030 N 193.631 -1.12557 1.10312 0
M  V30 2031 C 194.878 -1.84038 0.844759 0
M  V30 2032 C 195.206 -1.84026 -0.629668 0
M  V30 2033 O 194.461 -1.28026 -1.48013 0
M  V30 2034 C 194.76 -3.31462 1.33669 0
M  V30 2035 C 194.426 -3.51647 2.82232 0
M  V30 2036 C 193.088 -3.56864 3.22802 0
M  V30 2037 C 195.44 -3.58867 3.77974 0
M  V30 2038 C 192.768 -3.66844 4.57867 0
M  V30 2039 C 195.12 -3.70375 5.1284 0
M  V30 2040 C 193.784 -3.73848 5.52986 0
M  V30 2041 H 193.054 -0.673444 0.309119 0
M  V30 2042 H 195.701 -1.32824 1.37949 0
M  V30 2043 H 194.006 -3.85091 0.721949 0
M  V30 2044 H 195.703 -3.85236 1.11329 0
M  V30 2045 H 192.293 -3.48249 2.49842 0
M  V30 2046 H 196.477 -3.54107 3.47738 0
M  V30 2047 H 191.733 -3.67804 4.88396 0
M  V30 2048 H 195.907 -3.74904 5.86873 0
M  V30 2049 H 193.534 -3.81333 6.57639 0
M  V30 2050 N 195.109 -0.891671 -1.2995 0
M  V30 2051 C 196.042 -0.307994 -2.26112 0
M  V30 2052 C 197.02 0.575262 -1.52084 0
M  V30 2053 O 198.204 0.523864 -1.81074 0
M  V30 2054 C 195.331 0.561734 -3.34009 0
M  V30 2055 C 194.377 -0.253107 -4.25748 0
M  V30 2056 S 195.21 -1.64572 -5.09584 0
M  V30 2057 C 196.366 -0.782699 -6.20987 0
M  V30 2058 H 196.599 -1.12309 -2.75271 0
M  V30 2059 H 194.132 -0.691509 -1.38049 0
M  V30 2060 H 196.09 1.05777 -3.96638 0
M  V30 2061 H 194.751 1.35099 -2.83561 0
M  V30 2062 H 193.944 0.410908 -5.02322 0
M  V30 2063 H 193.546 -0.682004 -3.67729 0
M  V30 2064 H 195.838 -0.00257476 -6.775 0
M  V30 2065 H 196.781 -1.52026 -6.91588 0
M  V30 2066 H 197.189 -0.340638 -5.63471 0
M  V30 2067 N 196.587 1.43421 -0.653314 0
M  V30 2068 C 197.812 2.06678 -0.172846 0
M  V30 2069 C 198.237 1.48648 1.15262 0
M  V30 2070 O 197.595 0.596457 1.71208 0
M  V30 2071 C 197.643 3.60474 -0.0953184 0
M  V30 2072 O 196.747 4.01487 0.942442 0
M  V30 2073 H 196.088 0.657181 -0.0949155 0
M  V30 2074 H 198.618 1.83925 -0.896265 0
M  V30 2075 H 198.628 4.07905 0.0879728 0
M  V30 2076 H 197.303 4.02088 -1.06291 0
M  V30 2077 H 195.88 3.65646 0.731932 0
M  V30 2078 N 198.065 0.39524 1.52563 0
M  V30 2079 C 198.995 -0.428384 2.29537 0
M  V30 2080 C 199.976 -1.05831 1.33169 0
M  V30 2081 O 201.161 -1.06995 1.62067 0
M  V30 2082 C 198.291 -1.55274 3.10656 0
M  V30 2083 C 197.245 -1.04855 4.14957 0
M  V30 2084 C 196.571 -2.26543 4.84337 0
M  V30 2085 C 197.871 -0.112324 5.22179 0
M  V30 2086 H 199.565 0.213867 2.98635 0
M  V30 2087 H 197.111 0.104298 1.43622 0
M  V30 2088 H 199.064 -2.1358 3.63265 0
M  V30 2089 H 197.788 -2.22266 2.39302 0
M  V30 2090 H 196.447 -0.487985 3.63338 0
M  V30 2091 H 196.095 -2.92059 4.09525 0
M  V30 2092 H 195.795 -1.93466 5.54837 0
M  V30 2093 H 197.319 -2.85481 5.39753 0
M  V30 2094 H 198.733 -0.603752 5.70112 0
M  V30 2095 H 197.13 0.128968 5.99961 0
M  V30 2096 H 198.2 0.837052 4.77621 0
M  V30 2097 N 199.544 -1.57102 0.125237 0
M  V30 2098 C 200.791 -1.95407 -0.531248 0
M  V30 2099 C 201.119 -1.0089 -1.66287 0
M  V30 2100 O 200.374 -0.0339431 -1.95671 0
M  V30 2101 C 200.673 -3.40096 -1.09862 0
M  V30 2102 C 200.339 -4.50815 -0.0876989 0
M  V30 2103 C 199.001 -4.80824 0.19026 0
M  V30 2104 C 201.353 -5.17724 0.600902 0
M  V30 2105 C 198.681 -5.75058 1.163 0
M  V30 2106 C 201.033 -6.13005 1.56231 0
M  V30 2107 C 199.697 -6.41403 1.8482 0
M  V30 2108 H 198.967 -0.715046 -0.194397 0
M  V30 2109 H 201.614 -1.90373 0.207463 0
M  V30 2110 H 199.919 -3.41855 -1.91422 0
M  V30 2111 H 201.616 -3.6705 -1.61478 0
M  V30 2112 H 198.206 -4.27444 -0.314528 0
M  V30 2113 H 202.39 -4.94691 0.399333 0
M  V30 2114 H 197.646 -5.95362 1.39117 0
M  V30 2115 H 201.82 -6.63934 2.10153 0
M  V30 2116 H 199.447 -7.14229 2.60349 0
M  V30 2117 N 201.022 0.148545 -1.56898 0
M  V30 2118 C 201.952 1.18524 -2.01182 0
M  V30 2119 C 202.933 1.4489 -0.891123 0
M  V30 2120 O 204.118 1.55836 -1.15882 0
M  V30 2121 C 201.248 2.51879 -2.39112 0
M  V30 2122 C 200.202 2.40038 -3.54353 0
M  V30 2123 C 199.528 3.78089 -3.78091 0
M  V30 2124 C 200.828 1.88577 -4.87069 0
M  V30 2125 H 202.522 0.817029 -2.88036 0
M  V30 2126 H 200.068 0.391575 -1.38574 0
M  V30 2127 H 202.021 3.24627 -2.68692 0
M  V30 2128 H 200.745 2.90532 -1.49193 0
M  V30 2129 H 199.404 1.69742 -3.24936 0
M  V30 2130 H 199.052 4.14175 -2.85426 0
M  V30 2131 H 198.752 3.71028 -4.55645 0
M  V30 2132 H 200.276 4.52387 -4.10095 0
M  V30 2133 H 201.69 2.51117 -5.15377 0
M  V30 2134 H 200.087 1.9241 -5.68417 0
M  V30 2135 H 201.157 0.84136 -4.77545 0
M  V30 2136 N 202.5 1.5196 0.417844 0
M  V30 2137 C 203.432 1.70895 1.52733 0
M  V30 2138 C 204.445 0.589405 1.51756 0
M  V30 2139 O 205.634 0.864312 1.56179 0
M  V30 2140 C 202.734 1.72627 2.91639 0
M  V30 2141 C 201.907 3.01479 3.16905 0
M  V30 2142 C 200.966 2.95139 4.35637 0
M  V30 2143 O 199.992 3.69059 4.3334 0
M  V30 2144 N 201.194 2.12328 5.40275 0
M  V30 2145 H 203.959 2.66612 1.36888 0
M  V30 2146 H 201.52 1.50089 0.607037 0
M  V30 2147 H 203.512 1.65928 3.6912 0
M  V30 2148 H 202.082 0.844216 3.00985 0
M  V30 2149 H 201.302 3.21895 2.27546 0
M  V30 2150 H 202.59 3.86736 3.30625 0
M  V30 2151 H 201.988 1.51685 5.44985 0
M  V30 2152 H 200.545 2.11494 6.16534 0
M  V30 2153 N 203.978 -0.674533 1.42435 0
M  V30 2154 C 205.224 -1.43671 1.43131 0
M  V30 2155 C 205.557 -1.94142 0.0476021 0
M  V30 2156 O 204.832 -1.70924 -0.928188 0
M  V30 2157 C 205.115 -2.63355 2.45594 0
M  V30 2158 C 204.968 -2.18514 3.93156 0
M  V30 2159 C 206.287 -3.65571 2.45043 0
M  V30 2160 H 203.406 -0.521077 0.521198 0
M  V30 2161 H 206.048 -0.766551 1.7385 0
M  V30 2162 H 204.198 -3.2053 2.19528 0
M  V30 2163 H 205.87 -1.66504 4.30202 0
M  V30 2164 H 204.113 -1.50086 4.07009 0
M  V30 2165 H 204.784 -3.04484 4.60428 0
M  V30 2166 H 207.26 -3.18113 2.68223 0
M  V30 2167 H 206.136 -4.46893 3.18713 0
M  V30 2168 H 206.397 -4.16716 1.47649 0
M  V30 2169 N 205.456 -1.28612 -0.910864 0
M  V30 2170 C 206.404 -1.1265 -2.03501 0
M  V30 2171 C 207.398 -0.0450054 -1.6934 0
M  V30 2172 O 208.604 -0.203988 -1.7884 0
M  V30 2173 H 204.979 -0.347639 -0.666822 0
M  V30 2174 H 206.95 -2.07849 -2.14106 0
M  V30 2175 C 205.699 -0.808143 -3.38178 0
M  V30 2176 H 205.022 -1.63231 -3.6496 0
M  V30 2177 H 206.462 -0.736426 -4.17556 0
M  V30 2178 C 204.921 0.488226 -3.33344 0
M  V30 2179 O 205.451 1.51766 -3.71927 0
M  V30 2180 N 203.657 0.490009 -2.86439 0
M  V30 2181 H 203.204 -0.348161 -2.55236 0
M  V30 2182 H 203.162 1.35741 -2.83587 0
M  V30 2183 N 206.934 1.1197 -1.10907 0
M  V30 2184 C 207.867 2.16998 -0.706192 0
M  V30 2185 C 208.845 1.59903 0.294897 0
M  V30 2186 O 210.029 1.87513 0.192636 0
M  V30 2187 C 207.156 3.38673 -0.0427664 0
M  V30 2188 C 206.202 4.14414 -1.00811 0
M  V30 2189 S 207.035 4.72079 -2.52789 0
M  V30 2190 C 208.191 5.97083 -1.87731 0
M  V30 2191 H 208.424 2.50837 -1.59587 0
M  V30 2192 H 205.957 1.23508 -0.926555 0
M  V30 2193 H 207.915 4.09142 0.333668 0
M  V30 2194 H 206.576 3.03105 0.823788 0
M  V30 2195 H 205.769 5.016 -0.491259 0
M  V30 2196 H 205.371 3.49678 -1.3267 0
M  V30 2197 H 207.663 6.66599 -1.21044 0
M  V30 2198 H 208.606 6.53403 -2.72892 0
M  V30 2199 H 209.014 5.4837 -1.33979 0
M  V30 2200 N 208.412 0.89855 1.29475 0
M  V30 2201 C 209.642 0.538479 1.99459 0
M  V30 2202 C 210.05 -0.880922 1.67441 0
M  V30 2203 O 209.393 -1.59283 0.915127 0
M  V30 2204 C 209.455 0.649564 3.53583 0
M  V30 2205 C 209.119 2.03573 4.09154 0
M  V30 2206 C 210.116 3.00675 4.24135 0
M  V30 2207 C 207.801 2.3448 4.44212 0
M  V30 2208 C 209.795 4.26809 4.73405 0
M  V30 2209 C 207.482 3.60857 4.93179 0
M  V30 2210 C 208.48 4.56836 5.0773 0
M  V30 2211 O 208.168 5.80969 5.55635 0
M  V30 2212 H 207.9 0.205372 0.644048 0
M  V30 2213 H 210.454 1.20958 1.66007 0
M  V30 2214 H 208.684 -0.0785592 3.8662 0
M  V30 2215 H 210.373 0.29881 4.04799 0
M  V30 2216 H 211.139 2.78112 3.97339 0
M  V30 2217 H 207.018 1.60534 4.32145 0
M  V30 2218 H 210.562 5.0173 4.84678 0
M  V30 2219 H 206.459 3.83251 5.19412 0
M  V30 2220 H 207.227 5.83542 5.73952 0
M  V30 2221 N 209.89 -1.43072 0.660911 0
M  V30 2222 C 211.115 -2.06584 0.183805 0
M  V30 2223 C 211.54 -1.49257 -1.14472 0
M  V30 2224 O 210.898 -0.605528 -1.70889 0
M  V30 2225 C 210.946 -3.60418 0.114434 0
M  V30 2226 O 210.05 -4.01981 -0.921137 0
M  V30 2227 H 209.391 -0.656669 0.0983994 0
M  V30 2228 H 211.921 -1.83447 0.906006 0
M  V30 2229 H 211.931 -4.07946 -0.0663394 0
M  V30 2230 H 210.606 -4.01519 1.08422 0
M  V30 2231 H 209.183 -3.66029 -0.71253 0
M  V30 2232 N 211.368 -0.403325 -1.52352 0
M  V30 2233 C 212.593 0.176499 -2.06648 0
M  V30 2234 C 213.018 1.38577 -1.27193 0
M  V30 2235 O 212.376 1.7879 -0.300637 0
M  V30 2236 C 212.424 0.511061 -3.5696 0
M  V30 2237 O 211.528 1.60294 -3.79973 0
M  V30 2238 H 210.869 0.0167337 -0.663789 0
M  V30 2239 H 213.399 -0.574848 -1.96359 0
M  V30 2240 H 213.409 0.771362 -4.00642 0
M  V30 2241 H 212.084 -0.37296 -4.14224 0
M  V30 2242 H 210.661 1.33526 -3.48174 0
M  V30 2243 N 212.846 1.57033 -0.133567 0
M  V30 2244 C 214.092 1.95976 0.521649 0
M  V30 2245 C 214.425 1.01779 1.65393 0
M  V30 2246 O 213.7 0.0576581 1.94415 0
M  V30 2247 C 213.983 3.44738 1.04057 0
M  V30 2248 C 213.836 4.49711 -0.0892897 0
M  V30 2249 C 215.155 3.95682 1.92675 0
M  V30 2250 H 212.274 0.712579 0.188149 0
M  V30 2251 H 214.916 1.88813 -0.212076 0
M  V30 2252 H 213.066 3.50973 1.66583 0
M  V30 2253 H 214.738 4.55565 -0.725152 0
M  V30 2254 H 212.981 4.27261 -0.750378 0
M  V30 2255 H 213.652 5.51099 0.315284 0
M  V30 2256 H 216.128 3.91841 1.39998 0
M  V30 2257 H 215.004 5.00262 2.25897 0
M  V30 2258 H 215.265 3.37239 2.85872 0
M  V30 2259 N 214.325 -0.140222 1.56975 0
M  V30 2260 C 215.572 -0.851687 1.83719 0
M  V30 2261 C 215.9 -1.80862 0.715485 0
M  V30 2262 O 215.155 -1.93464 -0.294956 0
M  V30 2263 C 215.454 -1.65386 3.16832 0
M  V30 2264 C 215.12 -0.843112 4.42947 0
M  V30 2265 C 213.782 -0.619464 4.77196 0
M  V30 2266 C 216.134 -0.276582 5.20466 0
M  V30 2267 C 213.462 0.181312 5.8642 0
M  V30 2268 C 215.814 0.51127 6.30531 0
M  V30 2269 C 214.478 0.745432 6.63325 0
M  V30 2270 H 213.748 -0.311654 0.672274 0
M  V30 2271 H 216.395 -0.115006 1.91154 0
M  V30 2272 H 214.7 -2.46084 3.04877 0
M  V30 2273 H 216.397 -2.20793 3.34741 0
M  V30 2274 H 212.987 -1.0275 4.16101 0
M  V30 2275 H 217.171 -0.436632 4.94376 0
M  V30 2276 H 212.427 0.372165 6.10266 0
M  V30 2277 H 216.601 0.957354 6.89788 0
M  V30 2278 H 214.228 1.36778 7.47794 0
M  V30 2279 N 215.803 -1.52179 -0.40978 0
M  V30 2280 C 217.05 -1.66206 -1.15679 0
M  V30 2281 C 217.378 -0.391674 -1.90516 0
M  V30 2282 O 216.633 0.62533 -1.8544 0
M  V30 2283 C 216.932 -2.83428 -2.17723 0
M  V30 2284 C 216.598 -4.21672 -1.59699 0
M  V30 2285 C 215.26 -4.59274 -1.43599 0
M  V30 2286 C 217.612 -5.07825 -1.17317 0
M  V30 2287 C 214.94 -5.80709 -0.836328 0
M  V30 2288 C 217.292 -6.29864 -0.587691 0
M  V30 2289 C 215.956 -6.66216 -0.413818 0
M  V30 2290 H 215.226 -0.608192 -0.423301 0
M  V30 2291 H 217.873 -1.86279 -0.444097 0
M  V30 2292 H 216.178 -2.57687 -2.95135 0
M  V30 2293 H 217.875 -2.91477 -2.75394 0
M  V30 2294 H 214.465 -3.9204 -1.73213 0
M  V30 2295 H 218.649 -4.79359 -1.28565 0
M  V30 2296 H 213.905 -6.07498 -0.689626 0
M  V30 2297 H 218.079 -6.95948 -0.250894 0
M  V30 2298 H 215.706 -7.60182 0.0529471 0
M  V30 2299 N 217.281 0.66697 -1.42791 0
M  V30 2300 C 218.211 1.79218 -1.49677 0
M  V30 2301 C 219.192 1.66405 -0.352623 0
M  V30 2302 O 220.377 1.85708 -0.567993 0
M  V30 2303 C 217.507 3.17565 -1.40605 0
M  V30 2304 C 216.461 3.45124 -2.53127 0
M  V30 2305 C 215.787 4.83127 -2.29112 0
M  V30 2306 C 217.087 3.41236 -3.95418 0
M  V30 2307 H 218.781 1.73713 -2.43853 0
M  V30 2308 H 216.327 0.83432 -1.17367 0
M  V30 2309 H 218.28 3.96022 -1.44029 0
M  V30 2310 H 217.004 3.23767 -0.429271 0
M  V30 2311 H 215.663 2.69031 -2.49034 0
M  V30 2312 H 215.311 4.85988 -1.29709 0
M  V30 2313 H 215.011 5.02528 -3.04531 0
M  V30 2314 H 216.535 5.63859 -2.34297 0
M  V30 2315 H 217.949 4.09651 -4.01073 0
M  V30 2316 H 216.346 3.72173 -4.70752 0
M  V30 2317 H 217.416 2.39665 -4.21532 0
M  V30 2318 N 218.759 1.29093 0.90403 0
M  V30 2319 C 219.987 1.19689 1.68766 0
M  V30 2320 C 220.402 -0.243113 1.87228 0
M  V30 2321 O 219.759 -1.16326 1.40621 0
M  V30 2322 C 219.81 1.90144 3.07453 0
M  V30 2323 O 219.531 3.2852 2.89838 0
M  V30 2324 C 221.032 1.87162 4.01852 0
M  V30 2325 H 218.252 0.415035 0.527244 0
M  V30 2326 H 220.796 1.7039 1.13082 0
M  V30 2327 H 218.951 1.43289 3.59926 0
M  V30 2328 H 219.365 3.63944 3.77684 0
M  V30 2329 H 220.839 2.41032 4.96596 0
M  V30 2330 H 221.316 0.84617 4.30972 0
M  V30 2331 H 221.922 2.33741 3.5531 0
M  V30 2332 N 220.237 -1.11381 1.11499 0
M  V30 2333 C 221.483 -1.83597 0.875423 0
M  V30 2334 C 221.838 -1.83048 -0.592555 0
M  V30 2335 O 221.131 -1.27304 -1.43193 0
M  V30 2336 C 221.325 -3.30026 1.37177 0
M  V30 2337 C 221.154 -3.44837 2.88647 0
M  V30 2338 C 219.924 -3.57825 3.56776 0
M  V30 2339 C 222.122 -3.3907 3.86699 0
M  V30 2340 N 220.104 -3.61113 4.96458 0
M  V30 2341 C 221.475 -3.48986 5.12454 0
M  V30 2342 C 223.53 -3.22605 3.7925 0
M  V30 2343 C 222.233 -3.44135 6.31636 0
M  V30 2344 C 224.259 -3.19072 4.97943 0
M  V30 2345 C 223.621 -3.29559 6.22551 0
M  V30 2346 H 219.72 -0.687044 0.37349 0
M  V30 2347 H 222.304 -1.33265 1.41946 0
M  V30 2348 H 220.475 -3.78874 0.854919 0
M  V30 2349 H 222.207 -3.90153 1.07529 0
M  V30 2350 H 218.962 -3.60414 3.07244 0
M  V30 2351 H 219.386 -3.66394 5.69284 0
M  V30 2352 H 224.028 -3.13382 2.83816 0
M  V30 2353 H 221.746 -3.52126 7.27347 0
M  V30 2354 H 225.332 -3.07498 4.93899 0
M  V30 2355 H 224.212 -3.26815 7.12855 0
M  V30 2356 N 221.715 -0.905404 -1.28997 0
M  V30 2357 C 222.648 -0.331959 -2.25773 0
M  V30 2358 C 223.626 0.559099 -1.52685 0
M  V30 2359 O 224.81 0.50463 -1.8162 0
M  V30 2360 C 221.937 0.526276 -3.34586 0
M  V30 2361 C 220.983 -0.298249 -4.25456 0
M  V30 2362 S 221.816 -1.69968 -5.0781 0
M  V30 2363 C 222.972 -0.848519 -6.20122 0
M  V30 2364 H 223.205 -1.15222 -2.74064 0
M  V30 2365 H 220.738 -0.706112 -1.37308 0
M  V30 2366 H 222.696 1.01565 -3.97737 0
M  V30 2367 H 221.357 1.32084 -2.84978 0
M  V30 2368 H 220.55 0.357607 -5.0273 0
M  V30 2369 H 220.152 -0.720968 -3.66985 0
M  V30 2370 H 222.444 -0.0744325 -6.77459 0
M  V30 2371 H 223.387 -1.59353 -6.89937 0
M  V30 2372 H 223.795 -0.400383 -5.63078 0
M  V30 2373 N 223.193 1.4272 -0.668489 0
M  V30 2374 C 224.418 2.06484 -0.194758 0
M  V30 2375 C 224.843 1.49862 1.13679 0
M  V30 2376 O 224.201 0.614582 1.70565 0
M  V30 2377 C 224.249 3.60353 -0.133546 0
M  V30 2378 O 223.353 4.02464 0.899806 0
M  V30 2379 H 222.694 0.656137 -0.10188 0
M  V30 2380 H 225.224 1.82964 -0.915722 0
M  V30 2381 H 225.234 4.07976 0.0447041 0
M  V30 2382 H 223.909 4.00938 -1.1055 0
M  V30 2383 H 222.486 3.66402 0.693109 0
M  V30 2384 N 224.671 0.411399 1.52136 0
M  V30 2385 C 225.918 -0.163645 2.01838 0
M  V30 2386 C 226.246 -1.4495 1.29691 0
M  V30 2387 O 225.501 -1.91725 0.392431 0
M  V30 2388 C 225.8 -0.455872 3.54481 0
M  V30 2389 C 225.466 0.741055 4.44769 0
M  V30 2390 C 224.128 1.06936 4.69167 0
M  V30 2391 C 226.48 1.54075 4.97906 0
M  V30 2392 C 223.808 2.19851 5.43951 0
M  V30 2393 C 226.16 2.66067 5.73926 0
M  V30 2394 C 224.824 2.99381 5.96596 0
M  V30 2395 H 224.094 -0.0598821 0.738576 0
M  V30 2396 H 226.741 0.553283 1.83333 0
M  V30 2397 H 225.046 -1.2544 3.71177 0
M  V30 2398 H 226.743 -0.913802 3.90449 0
M  V30 2399 H 223.333 0.475192 4.25958 0
M  V30 2400 H 227.517 1.30033 4.78963 0
M  V30 2401 H 222.773 2.46006 5.59724 0
M  V30 2402 H 226.947 3.28419 6.14096 0
M  V30 2403 H 224.574 3.86992 6.54325 0
M  V30 2404 N 226.149 -1.5696 0.141893 0
M  V30 2405 C 227.426 -1.87553 -0.555281 0
M  V30 2406 C 227.806 -1.04699 -1.83306 0
M  V30 2407 O 227.154 -0.132346 -2.28116 0
M  V30 2408 C 227.364 -3.39093 -0.825664 0
M  V30 2409 C 228.712 -4.08199 -1.16869 0
M  V30 2410 O 229.736 -3.44242 -0.915185 0
M  V30 2411 O 228.595 -5.21139 -1.6455 0
M  V30 2412 H 225.689 -0.777188 -0.282679 0
M  V30 2413 H 228.235 -1.68763 0.17812 0
M  V30 2414 H 227.007 -3.91221 0.0788633 0
M  V30 2415 H 226.63 -3.63393 -1.61343 0
M  V30 2416 N 227.627 0.131896 -1.57047 0
M  V30 2417 C 229.043 0.485031 -1.52051 0
M  V30 2418 C 229.243 1.82563 -0.85281 0
M  V30 2419 O 228.299 2.48817 -0.429694 0
M  V30 2420 C 229.612 0.481409 -2.96821 0
M  V30 2421 C 231.16 0.565868 -3.07842 0
M  V30 2422 C 231.635 0.592762 -4.54148 0
M  V30 2423 N 233.126 0.654564 -4.58552 0
M  V30 2424 C 233.861 0.696608 -5.69153 0
M  V30 2425 N 233.357 0.697078 -6.89284 0
M  V30 2426 N 235.15 0.738639 -5.57226 0
M  V30 2427 H 227.301 -0.746664 -1.98843 0
M  V30 2428 H 229.564 -0.273999 -0.90754 0
M  V30 2429 H 229.27 -0.435731 -3.4899 0
M  V30 2430 H 229.144 1.3139 -3.53577 0
M  V30 2431 H 231.531 1.47343 -2.55684 0
M  V30 2432 H 231.612 -0.29406 -2.54104 0
M  V30 2433 H 231.256 -0.310701 -5.06949 0
M  V30 2434 H 231.186 1.46939 -5.05684 0
M  V30 2435 H 233.677 0.660887 -3.72076 0
M  V30 2436 H 233.99 0.731426 -7.69331 0
M  V30 2437 H 232.335 0.66471 -6.91814 0
M  V30 2438 H 235.526 0.735545 -4.62285 0
M  V30 2439 H 235.699 0.767938 -6.43434 0
M  V30 2440 N 229.106 1.52395 0.401703 0
M  V30 2441 C 230.336 1.70429 1.1678 0
M  V30 2442 C 230.744 0.416702 1.84554 0
M  V30 2443 O 230.087 -0.617697 1.73003 0
M  V30 2444 C 230.149 2.78919 2.26814 0
M  V30 2445 C 229.813 4.20437 1.79113 0
M  V30 2446 C 230.81 5.04028 1.27482 0
M  V30 2447 C 228.495 4.66704 1.85722 0
M  V30 2448 C 230.489 6.31961 0.830913 0
M  V30 2449 C 228.176 5.94625 1.40942 0
M  V30 2450 C 229.174 6.77082 0.897128 0
M  V30 2451 O 228.862 8.02607 0.455822 0
M  V30 2452 H 228.594 0.574272 0.356634 0
M  V30 2453 H 231.148 1.99767 0.477724 0
M  V30 2454 H 229.378 2.44973 2.99207 0
M  V30 2455 H 231.067 2.8548 2.88541 0
M  V30 2456 H 231.833 4.69471 1.21744 0
M  V30 2457 H 227.712 4.0262 2.24539 0
M  V30 2458 H 231.256 6.96271 0.430368 0
M  V30 2459 H 227.153 6.28688 1.46362 0
M  V30 2460 H 227.921 8.16453 0.578457 0
M  V30 2461 N 230.584 -0.659388 1.43143 0
M  V30 2462 C 231.833 -1.41518 1.43721 0
M  V30 2463 C 232.146 -1.95499 0.0628176 0
M  V30 2464 O 233.352 -2.71446 -0.0539683 0
M  V30 2465 C 231.808 -2.5608 2.52885 0
M  V30 2466 C 231.416 -2.08733 3.96402 0
M  V30 2467 C 233.16 -3.3349 2.62649 0
M  V30 2468 C 231.067 -3.20469 4.97045 0
M  V30 2469 H 229.997 -0.531705 0.534608 0
M  V30 2470 H 232.648 -0.712343 1.69109 0
M  V30 2471 H 231.03 -3.28805 2.20688 0
M  V30 2472 H 232.204 -1.43059 4.3803 0
M  V30 2473 H 230.519 -1.44219 3.90627 0
M  V30 2474 H 233.116 -4.16734 3.35017 0
M  V30 2475 H 233.459 -3.8111 1.67513 0
M  V30 2476 H 233.992 -2.67842 2.94118 0
M  V30 2477 H 230.731 -2.77824 5.93712 0
M  V30 2478 H 230.251 -3.84874 4.60034 0
M  V30 2479 H 231.93 -3.85698 5.19467 0
M  V30 2480 N 232.062 -1.29571 -0.897171 0
M  V30 2481 C 233.025 -1.14913 -1.98312 0
M  V30 2482 C 234.025 -0.0838629 -1.60581 0
M  V30 2483 O 235.215 -0.331006 -1.71026 0
M  V30 2484 C 232.347 -0.757835 -3.3237 0
M  V30 2485 H 233.54 -2.11377 -2.12743 0
M  V30 2486 H 231.093 -1.12793 -1.08201 0
M  V30 2487 H 231.828 0.206837 -3.2364 0
M  V30 2488 H 231.613 -1.52755 -3.61121 0
M  V30 2489 H 233.103 -0.678408 -4.12053 0
M  V30 2490 N 233.54 1.10788 -1.12088 0
M  V30 2491 C 234.47 2.19083 -0.807755 0
M  V30 2492 C 235.451 1.6858 0.226859 0
M  V30 2493 O 236.636 1.93997 0.0888475 0
M  V30 2494 C 233.766 3.46344 -0.257576 0
M  V30 2495 C 232.72 4.101 -1.22483 0
M  V30 2496 C 232.046 5.32016 -0.535052 0
M  V30 2497 C 233.346 4.54236 -2.57811 0
M  V30 2498 H 235.04 2.45534 -1.71328 0
M  V30 2499 H 232.586 1.1801 -0.825205 0
M  V30 2500 H 234.539 4.21392 -0.0262679 0
M  V30 2501 H 233.263 3.19373 0.683278 0
M  V30 2502 H 231.922 3.37054 -1.44189 0
M  V30 2503 H 231.57 5.01319 0.410827 0
M  V30 2504 H 231.27 5.75625 -1.18024 0
M  V30 2505 H 232.794 6.09799 -0.312695 0
M  V30 2506 H 234.208 5.20575 -2.40155 0
M  V30 2507 H 232.605 5.08682 -3.18375 0
M  V30 2508 H 233.675 3.6734 -3.16528 0
M  V30 2509 N 235.018 0.912232 1.28515 0
M  V30 2510 C 235.981 0.404223 2.25607 0
M  V30 2511 C 236.981 -0.468602 1.53821 0
M  V30 2512 O 238.171 -0.271873 1.72065 0
M  V30 2513 C 235.303 -0.420653 3.38295 0
M  V30 2514 H 236.496 1.26188 2.7206 0
M  V30 2515 H 234.049 0.691495 1.40171 0
M  V30 2516 H 234.784 -1.29777 2.97201 0
M  V30 2517 H 234.569 0.204935 3.91564 0
M  V30 2518 H 236.059 -0.766971 4.10496 0
M  V30 2519 N 236.496 -1.42363 0.676048 0
M  V30 2520 C 237.912 -1.55811 0.345718 0
M  V30 2521 C 238.112 -1.65544 -1.14879 0
M  V30 2522 O 237.168 -1.62306 -1.93424 0
M  V30 2523 C 238.481 -2.80746 1.07713 0
M  V30 2524 C 240.029 -2.9452 1.05958 0
M  V30 2525 C 240.504 -4.22318 1.77233 0
M  V30 2526 N 241.995 -4.29233 1.74108 0
M  V30 2527 C 242.73 -5.26935 2.26113 0
M  V30 2528 N 242.226 -6.30783 2.86505 0
M  V30 2529 N 244.019 -5.18741 2.1648 0
M  V30 2530 H 236.17 -1.34289 1.6456 0
M  V30 2531 H 238.433 -0.646506 0.69335 0
M  V30 2532 H 238.139 -2.79696 2.13221 0
M  V30 2533 H 238.013 -3.71676 0.64316 0
M  V30 2534 H 240.4 -2.95097 0.0128255 0
M  V30 2535 H 240.481 -2.04817 1.53244 0
M  V30 2536 H 240.125 -4.22502 2.81877 0
M  V30 2537 H 240.055 -5.10958 1.27396 0
M  V30 2538 H 242.546 -3.54814 1.30059 0
M  V30 2539 H 242.859 -7.01691 3.23805 0
M  V30 2540 H 241.204 -6.31341 2.90575 0
M  V30 2541 H 244.395 -4.36533 1.68987 0
M  V30 2542 H 244.568 -5.94721 2.57316 0
M  V30 2543 N 237.974 -0.419461 -1.51915 0
M  V30 2544 C 238.937 0.389116 -2.25873 0
M  V30 2545 C 239.937 0.964924 -1.28631 0
M  V30 2546 O 241.127 0.842179 -1.52489 0
M  V30 2547 C 238.259 1.54874 -3.03689 0
M  V30 2548 H 239.452 -0.258799 -2.98781 0
M  V30 2549 H 237.005 -0.172209 -1.55348 0
M  V30 2550 H 237.74 2.23323 -2.35154 0
M  V30 2551 H 237.525 1.14223 -3.75094 0
M  V30 2552 H 239.015 2.12046 -3.59759 0
M  V30 2553 N 239.452 1.56882 -0.150215 0
M  V30 2554 C 240.385 2.12712 0.826358 0
M  V30 2555 C 241.363 1.05154 1.24022 0
M  V30 2556 O 242.547 1.33004 1.33575 0
M  V30 2557 C 239.674 2.64945 2.11002 0
M  V30 2558 C 238.72 3.8468 1.84183 0
M  V30 2559 S 239.553 5.25502 1.02995 0
M  V30 2560 C 240.709 5.81125 2.32474 0
M  V30 2561 H 240.942 2.95214 0.351598 0
M  V30 2562 H 238.475 1.54267 0.0641211 0
M  V30 2563 H 240.433 2.95689 2.84742 0
M  V30 2564 H 239.094 1.82568 2.55593 0
M  V30 2565 H 238.287 4.19482 2.79375 0
M  V30 2566 H 237.889 3.54714 1.1855 0
M  V30 2567 H 240.181 5.92753 3.281 0
M  V30 2568 H 241.124 6.78625 2.02171 0
M  V30 2569 H 241.532 5.09392 2.43269 0
M  V30 2570 N 240.93 -0.123565 1.57115 0
M  V30 2571 C 242.346 -0.476961 1.52306 0
M  V30 2572 C 242.546 -1.82109 0.86248 0
M  V30 2573 O 241.602 -2.48586 0.442884 0
M  V30 2574 C 242.915 -0.465661 2.97073 0
M  V30 2575 C 244.463 -0.549534 3.08138 0
M  V30 2576 C 244.938 -0.568669 4.54456 0
M  V30 2577 N 246.429 -0.630237 4.58892 0
M  V30 2578 C 247.164 -0.666415 5.69514 0
M  V30 2579 N 246.66 -0.660514 6.89644 0
M  V30 2580 N 248.453 -0.709077 5.5761 0
M  V30 2581 H 240.604 0.757198 1.98445 0
M  V30 2582 H 242.867 0.278808 0.906074 0
M  V30 2583 H 242.573 0.454232 3.48754 0
M  V30 2584 H 242.447 -1.29513 3.54269 0
M  V30 2585 H 244.834 -1.45985 2.56461 0
M  V30 2586 H 244.915 0.307532 2.53945 0
M  V30 2587 H 244.559 0.337581 5.06777 0
M  V30 2588 H 244.489 -1.44256 5.06456 0
M  V30 2589 H 246.98 -0.641146 3.72421 0
M  V30 2590 H 247.293 -0.690616 7.69708 0
M  V30 2591 H 245.638 -0.628012 6.92157 0
M  V30 2592 H 248.829 -0.711019 4.62668 0
M  V30 2593 H 249.002 -0.733804 6.43832 0
M  V30 2594 N 242.408 -1.52605 -0.393616 0
M  V30 2595 C 243.648 -1.6911 -1.1481 0
M  V30 2596 C 244.012 -0.41969 -1.87357 0
M  V30 2597 O 245.213 -0.461034 -2.64817 0
M  V30 2598 C 243.484 -2.88909 -2.10395 0
M  V30 2599 S 245.043 -3.25977 -2.93742 0
M  V30 2600 H 241.861 -0.595337 -0.38871 0
M  V30 2601 H 244.463 -1.90641 -0.433178 0
M  V30 2602 H 243.167 -3.79672 -1.55812 0
M  V30 2603 H 242.698 -2.69698 -2.86403 0
M  V30 2604 H 244.713 -2.75806 -4.12487 0
M  V30 2605 N 243.887 0.651787 -1.4349 0
M  V30 2606 C 245.112 1.44434 -1.48841 0
M  V30 2607 C 245.537 1.8779 -0.107955 0
M  V30 2608 O 244.895 1.57464 0.898602 0
M  V30 2609 C 244.943 2.65458 -2.44059 0
M  V30 2610 O 244.047 3.64566 -1.92784 0
M  V30 2611 H 243.388 0.433005 -0.503391 0
M  V30 2612 H 245.918 0.797451 -1.88419 0
M  V30 2613 H 245.928 3.13255 -2.6141 0
M  V30 2614 H 244.603 2.33244 -3.4434 0
M  V30 2615 H 243.18 3.23716 -1.851 0
M  V30 2616 N 245.365 1.30045 0.890287 0
M  V30 2617 C 246.295 1.18541 2.01172 0
M  V30 2618 C 247.276 0.0773356 1.69924 0
M  V30 2619 O 248.461 0.25845 1.92473 0
M  V30 2620 C 245.591 0.870941 3.36202 0
M  V30 2621 C 244.545 1.93637 3.81692 0
M  V30 2622 C 243.871 1.475 5.13953 0
M  V30 2623 C 245.171 3.34666 4.00994 0
M  V30 2624 H 246.865 2.12359 2.11054 0
M  V30 2625 H 244.411 1.02238 1.01407 0
M  V30 2626 H 246.364 0.777141 4.14172 0
M  V30 2627 H 245.088 -0.102926 3.26438 0
M  V30 2628 H 243.747 2.01972 3.05946 0
M  V30 2629 H 243.395 0.489551 5.00612 0
M  V30 2630 H 243.095 2.1876 5.4536 0
M  V30 2631 H 244.619 1.39489 5.94454 0
M  V30 2632 H 246.033 3.2912 4.69417 0
M  V30 2633 H 244.43 4.03966 4.43769 0
M  V30 2634 H 245.5 3.76949 3.05021 0
M  V30 2635 N 246.843 -1.10192 1.12674 0
M  V30 2636 C 248.09 -1.82205 0.883606 0
M  V30 2637 C 248.418 -1.8532 -0.590492 0
M  V30 2638 O 247.673 -1.31137 -1.45264 0
M  V30 2639 C 247.972 -3.28552 1.4067 0
M  V30 2640 C 247.638 -3.45582 2.89627 0
M  V30 2641 C 246.3 -3.49937 3.30299 0
M  V30 2642 C 248.652 -3.50768 3.85501 0
M  V30 2643 C 245.98 -3.57049 4.65546 0
M  V30 2644 C 248.332 -3.59414 5.20581 0
M  V30 2645 C 246.996 -3.62034 5.60792 0
M  V30 2646 H 246.266 -0.666735 0.323334 0
M  V30 2647 H 248.913 -1.29868 1.40736 0
M  V30 2648 H 247.218 -3.83473 0.80347 0
M  V30 2649 H 248.915 -3.82788 1.19475 0
M  V30 2650 H 245.505 -3.42871 2.57172 0
M  V30 2651 H 249.689 -3.46651 3.55171 0
M  V30 2652 H 244.945 -3.57361 4.96088 0
M  V30 2653 H 249.119 -3.62371 5.94693 0
M  V30 2654 H 246.746 -3.67298 6.6558 0
M  V30 2655 N 248.321 -0.919034 -1.28029 0
M  V30 2656 C 249.737 -0.617972 -1.4715 0
M  V30 2657 C 249.937 0.835242 -1.83374 0
M  V30 2658 O 248.993 1.61388 -1.94191 0
M  V30 2659 C 250.306 -1.56041 -2.57044 0
M  V30 2660 C 251.854 -1.56769 -2.7091 0
M  V30 2661 C 252.329 -2.49688 -3.83953 0
M  V30 2662 N 253.82 -2.47845 -3.91314 0
M  V30 2663 C 254.555 -3.16437 -4.78179 0
M  V30 2664 N 254.051 -3.94376 -5.69596 0
M  V30 2665 N 255.844 -3.05498 -4.71834 0
M  V30 2666 H 247.995 -1.85866 -1.02798 0
M  V30 2667 H 250.258 -0.797506 -0.512531 0
M  V30 2668 H 249.964 -2.59671 -2.372 0
M  V30 2669 H 249.838 -1.29551 -3.54255 0
M  V30 2670 H 252.225 -0.538745 -2.90141 0
M  V30 2671 H 252.306 -1.87305 -1.74214 0
M  V30 2672 H 251.95 -3.52688 -3.65477 0
M  V30 2673 H 251.88 -2.16453 -4.80058 0
M  V30 2674 H 254.371 -1.91234 -3.25941 0
M  V30 2675 H 254.684 -4.43721 -6.32718 0
M  V30 2676 H 253.029 -3.98481 -5.69419 0
M  V30 2677 H 256.22 -2.44108 -3.99411 0
M  V30 2678 H 256.393 -3.59225 -5.39316 0
M  V30 2679 N 249.799 1.42003 -0.683588 0
M  V30 2680 C 251.027 2.05746 -0.218182 0
M  V30 2681 C 251.442 1.51396 1.12804 0
M  V30 2682 O 250.799 0.657303 1.70252 0
M  V30 2683 C 250.85 3.61171 -0.154131 0
M  V30 2684 O 250.571 4.13508 -1.44716 0
M  V30 2685 C 252.072 4.42042 0.333713 0
M  V30 2686 H 249.292 0.662888 -0.10402 0
M  V30 2687 H 251.836 1.81987 -0.9328 0
M  V30 2688 H 249.991 3.84012 0.511231 0
M  V30 2689 H 250.405 5.07453 -1.32632 0
M  V30 2690 H 251.879 5.51028 0.327423 0
M  V30 2691 H 252.356 4.17269 1.37053 0
M  V30 2692 H 252.962 4.24239 -0.300222 0
M  V30 2693 N 251.277 0.427512 1.51691 0
M  V30 2694 C 252.224 -0.388867 2.275 0
M  V30 2695 C 253.194 -1.02532 1.30677 0
M  V30 2696 O 254.379 -1.0461 1.59566 0
M  V30 2697 C 251.519 -1.48954 3.11298 0
M  V30 2698 C 250.632 -0.872194 4.23104 0
M  V30 2699 C 249.767 -1.94709 4.94228 0
M  V30 2700 C 248.806 -1.30766 5.97969 0
M  V30 2701 N 247.943 -2.32349 6.62539 0
M  V30 2702 H 252.783 0.263997 2.96828 0
M  V30 2703 H 250.32 0.142033 1.46413 0
M  V30 2704 H 252.278 -2.13887 3.58201 0
M  V30 2705 H 250.908 -2.11217 2.44105 0
M  V30 2706 H 249.96 -0.111419 3.80237 0
M  V30 2707 H 251.272 -0.365264 4.97461 0
M  V30 2708 H 250.426 -2.67327 5.44629 0
M  V30 2709 H 249.165 -2.48773 4.1948 0
M  V30 2710 H 248.17 -0.566902 5.4687 0
M  V30 2711 H 249.395 -0.774483 6.74669 0
M  V30 2712 H 247.341 -2.85511 5.90609 0
M  V30 2713 H 247.258 -1.8652 7.3263 0
M  V30 2714 H 248.526 -3.04481 7.17574 0
M  V30 2715 N 252.755 -1.56801 0.158532 0
M  V30 2716 C 253.705 -2.13923 -0.788738 0
M  V30 2717 C 254.689 -1.07006 -1.2016 0
M  V30 2718 O 255.881 -1.33159 -1.1661 0
M  V30 2719 C 253.01 -2.77348 -2.02319 0
M  V30 2720 C 252.096 -3.91404 -1.6329 0
M  V30 2721 N 252.487 -4.9677 -0.951463 0
M  V30 2722 C 250.785 -4.02326 -1.92482 0
M  V30 2723 C 251.486 -5.76698 -0.761221 0
M  V30 2724 N 250.462 -5.27859 -1.29869 0
M  V30 2725 H 254.264 -2.92757 -0.258995 0
M  V30 2726 H 251.778 -1.62344 -0.0426055 0
M  V30 2727 H 253.775 -3.16639 -2.71192 0
M  V30 2728 H 252.435 -1.99991 -2.558 0
M  V30 2729 H 253.446 -5.14284 -0.610928 0
M  V30 2730 H 250.123 -3.36059 -2.47732 0
M  V30 2731 H 251.513 -6.71529 -0.223284 0
M  V30 2732 N 254.233 0.115231 -1.57178 0
M  V30 2733 C 255.183 1.14707 -1.97044 0
M  V30 2734 C 256.167 1.36866 -0.845957 0
M  V30 2735 O 257.359 1.37895 -1.10968 0
M  V30 2736 C 254.488 2.47266 -2.38148 0
M  V30 2737 C 253.574 2.28566 -3.57237 0
M  V30 2738 N 253.965 1.79685 -4.72807 0
M  V30 2739 C 252.263 2.59208 -3.62943 0
M  V30 2740 C 252.964 1.74781 -5.54821 0
M  V30 2741 N 251.94 2.19264 -4.97417 0
M  V30 2742 H 255.742 0.761754 -2.83857 0
M  V30 2743 H 253.256 0.322928 -1.59157 0
M  V30 2744 H 255.253 3.219 -2.64927 0
M  V30 2745 H 253.913 2.86552 -1.52702 0
M  V30 2746 H 254.924 1.49177 -4.9595 0
M  V30 2747 H 251.601 3.02154 -2.88113 0
M  V30 2748 H 252.991 1.38212 -6.57531 0
M  V30 2749 N 255.711 1.52812 0.385517 0
M  V30 2750 C 256.674 1.77188 1.45386 0
M  V30 2751 C 257.674 0.641953 1.4743 0
M  V30 2752 O 258.864 0.910033 1.4854 0
M  V30 2753 C 255.996 1.87582 2.8465 0
M  V30 2754 H 257.189 2.72583 1.25054 0
M  V30 2755 H 254.742 1.43586 0.617467 0
M  V30 2756 H 255.477 0.941849 3.10322 0
M  V30 2757 H 255.262 2.69748 2.84567 0
M  V30 2758 H 256.752 2.08102 3.62054 0
M  V30 2759 N 257.189 -0.644168 1.43834 0
M  V30 2760 C 258.605 -0.960875 1.27434 0
M  V30 2761 C 258.805 -2.00499 0.200618 0
M  V30 2762 O 257.861 -2.49018 -0.417906 0
M  V30 2763 C 259.174 -1.43653 2.64167 0
M  V30 2764 C 260.722 -1.55271 2.71772 0
M  V30 2765 C 261.197 -2.06224 4.08944 0
M  V30 2766 N 262.688 -2.13513 4.11055 0
M  V30 2767 C 263.423 -2.54081 5.14033 0
M  V30 2768 N 262.919 -2.9388 6.27381 0
M  V30 2769 N 264.712 -2.54101 5.01387 0
M  V30 2770 H 256.863 0.0465779 2.12349 0
M  V30 2771 H 259.126 -0.0417638 0.94708 0
M  V30 2772 H 258.832 -0.743706 3.43747 0
M  V30 2773 H 258.706 -2.40993 2.90176 0
M  V30 2774 H 261.093 -2.23653 1.92519 0
M  V30 2775 H 261.174 -0.563395 2.49519 0
M  V30 2776 H 260.818 -1.38441 4.88668 0
M  V30 2777 H 260.748 -3.06003 4.28567 0
M  V30 2778 H 263.239 -1.85493 3.29242 0
M  V30 2779 H 263.552 -3.2361 7.01781 0
M  V30 2780 H 261.897 -2.91663 6.30839 0
M  V30 2781 H 265.088 -2.22391 4.11898 0
M  V30 2782 H 265.261 -2.85394 5.81768 0
M  V30 2783 N 258.668 -1.30515 -0.883378 0
M  V30 2784 C 259.598 -1.19607 -2.00541 0
M  V30 2785 C 260.579 -0.086346 -1.69881 0
M  V30 2786 O 261.764 -0.268654 -1.92333 0
M  V30 2787 C 258.894 -0.888758 -3.35736 0
M  V30 2788 C 257.848 -1.95659 -3.8066 0
M  V30 2789 C 257.174 -1.50224 -5.13164 0
M  V30 2790 C 258.474 -3.36788 -3.99213 0
M  V30 2791 H 260.168 -2.13476 -2.09925 0
M  V30 2792 H 257.714 -1.02775 -1.00863 0
M  V30 2793 H 259.667 -0.799094 -4.13754 0
M  V30 2794 H 258.391 0.0856125 -3.26488 0
M  V30 2795 H 257.05 -2.03591 -3.04871 0
M  V30 2796 H 256.698 -0.516092 -5.00345 0
M  V30 2797 H 256.398 -2.2165 -5.44192 0
M  V30 2798 H 257.922 -1.42639 -5.93706 0
M  V30 2799 H 259.336 -3.31605 -4.67665 0
M  V30 2800 H 257.733 -4.06314 -4.41621 0
M  V30 2801 H 258.803 -3.78561 -3.03017 0
M  V30 2802 N 260.146 1.09593 -1.13257 0
M  V30 2803 C 261.371 1.8604 -0.916732 0
M  V30 2804 C 261.796 1.80504 0.529146 0
M  V30 2805 O 261.154 1.18127 1.37534 0
M  V30 2806 C 261.202 3.32017 -1.40703 0
M  V30 2807 O 260.306 4.08141 -0.591153 0
M  V30 2808 H 259.647 0.576943 -0.328683 0
M  V30 2809 H 262.177 1.38405 -1.50682 0
M  V30 2810 H 262.187 3.82865 -1.4099 0
M  V30 2811 H 260.862 3.35361 -2.45979 0
M  V30 2812 H 259.439 3.67084 -0.656005 0
M  V30 2813 N 261.624 0.925811 1.2754 0
M  V30 2814 C 262.864 0.572521 1.96218 0
M  V30 2815 C 263.228 -0.869719 1.71172 0
M  V30 2816 O 264.429 -1.33119 2.33523 0
M  V30 2817 C 262.7 0.887325 3.4621 0
M  V30 2818 S 264.259 0.642266 4.34074 0
M  V30 2819 H 261.077 0.211403 0.678845 0
M  V30 2820 H 263.679 1.19384 1.54815 0
M  V30 2821 H 262.383 1.93469 3.61936 0
M  V30 2822 H 261.914 0.255123 3.92572 0
M  V30 2823 H 263.929 -0.500822 4.93666 0
M  V30 2824 N 263.102 -1.41638 0.69111 0
M  V30 2825 C 264.35 -2.00902 0.219758 0
M  V30 2826 C 264.671 -1.54994 -1.18329 0
M  V30 2827 O 263.941 -0.778628 -1.79762 0
M  V30 2828 H 262.521 -0.74289 0.0782558 0
M  V30 2829 H 265.183 -1.73327 0.891271 0
M  V30 2830 H 264.279 -3.11224 0.233708 0
M  V30 2831 N 264.58 -0.43555 -1.51462 0
M  V30 2832 C 265.51 0.367376 -2.30592 0
M  V30 2833 C 266.491 1.02263 -1.35928 0
M  V30 2834 O 267.676 1.02661 -1.64847 0
M  V30 2835 C 264.806 1.46983 -3.14664 0
M  V30 2836 C 263.76 0.938161 -4.17591 0
M  V30 2837 C 263.086 2.13622 -4.90173 0
M  V30 2838 C 264.386 -0.0261621 -5.22293 0
M  V30 2839 H 266.08 -0.292969 -2.97963 0
M  V30 2840 H 263.626 -0.14234 -1.43295 0
M  V30 2841 H 265.579 2.03873 -3.688 0
M  V30 2842 H 264.303 2.15843 -2.4511 0
M  V30 2843 H 262.962 0.391481 -3.64504 0
M  V30 2844 H 262.61 2.81098 -4.17124 0
M  V30 2845 H 262.31 1.78688 -5.59772 0
M  V30 2846 H 263.834 2.7107 -5.47132 0
M  V30 2847 H 265.248 0.452384 -5.71512 0
M  V30 2848 H 263.645 -0.287992 -5.99409 0
M  V30 2849 H 264.715 -0.963391 -4.75233 0
M  V30 2850 N 266.058 1.56714 -0.166846 0
M  V30 2851 C 267.307 1.95922 0.479318 0
M  V30 2852 C 267.62 1.05529 1.6469 0
M  V30 2853 O 268.826 1.34399 2.35901 0
M  V30 2854 C 267.282 3.48359 0.90412 0
M  V30 2855 C 266.89 4.47369 -0.237621 0
M  V30 2856 C 268.634 3.96394 1.51896 0
M  V30 2857 C 266.541 5.91039 0.206561 0
M  V30 2858 H 265.471 0.731495 0.18284 0
M  V30 2859 H 268.122 1.81728 -0.254363 0
M  V30 2860 H 266.504 3.57955 1.69365 0
M  V30 2861 H 267.678 4.49485 -1.01489 0
M  V30 2862 H 265.993 4.09366 -0.762128 0
M  V30 2863 H 268.59 5.01186 1.86325 0
M  V30 2864 H 268.933 3.39075 2.41524 0
M  V30 2865 H 269.466 3.89796 0.79395 0
M  V30 2866 H 266.205 6.52221 -0.654834 0
M  V30 2867 H 265.725 5.9224 0.949282 0
M  V30 2868 H 267.404 6.43707 0.651939 0
M  V30 2869 N 267.536 -0.106894 1.57237 0
M  V30 2870 C 268.782 -0.808678 1.86633 0
M  V30 2871 C 269.137 -1.76917 0.756178 0
M  V30 2872 O 268.43 -1.90055 -0.242834 0
M  V30 2873 C 268.624 -1.58628 3.20268 0
M  V30 2874 C 268.453 -0.702592 4.44178 0
M  V30 2875 C 267.223 -0.352808 5.04067 0
M  V30 2876 C 269.421 -0.0148031 5.14298 0
M  V30 2877 N 267.403 0.540279 6.11518 0
M  V30 2878 C 268.774 0.736809 6.15606 0
M  V30 2879 C 270.829 0.0603524 4.97863 0
M  V30 2880 C 269.532 1.55654 7.02257 0
M  V30 2881 C 271.558 0.866942 5.85011 0
M  V30 2882 C 270.92 1.60671 6.85831 0
M  V30 2883 H 267.019 -0.27246 0.733001 0
M  V30 2884 H 269.603 -0.0717858 1.94568 0
M  V30 2885 H 267.774 -2.29413 3.13408 0
M  V30 2886 H 269.506 -2.23434 3.3743 0
M  V30 2887 H 266.261 -0.697802 4.68431 0
M  V30 2888 H 266.685 0.979029 6.69884 0
M  V30 2889 H 271.327 -0.497236 4.19866 0
M  V30 2890 H 269.045 2.12524 7.79653 0
M  V30 2891 H 272.631 0.927612 5.74358 0
M  V30 2892 H 271.511 2.2208 7.52097 0
M  V30 2893 N 269.014 -1.53014 -0.377408 0
M  V30 2894 C 269.947 -1.73382 -1.48371 0
M  V30 2895 C 270.925 -0.581879 -1.51832 0
M  V30 2896 O 272.109 -0.81307 -1.70063 0
M  V30 2897 C 269.236 -1.80192 -2.8679 0
M  V30 2898 C 268.282 -3.02056 -3.01105 0
M  V30 2899 S 269.115 -4.61811 -2.71093 0
M  V30 2900 C 270.271 -4.71453 -4.11683 0
M  V30 2901 H 270.504 -2.66946 -1.30872 0
M  V30 2902 H 268.037 -1.43453 -0.571012 0
M  V30 2903 H 269.995 -1.84802 -3.6655 0
M  V30 2904 H 268.656 -0.877008 -3.01608 0
M  V30 2905 H 267.849 -3.03396 -4.02451 0
M  V30 2906 H 267.451 -2.95498 -2.29253 0
M  V30 2907 H 269.743 -4.50781 -5.0577 0
M  V30 2908 H 270.686 -5.73487 -4.15353 0
M  V30 2909 H 271.094 -4.00189 -3.98132 0
M  V30 2910 N 270.492 0.636531 -1.44174 0
M  V30 2911 C 271.455 1.73063 -1.50273 0
M  V30 2912 C 272.455 1.56113 -0.385397 0
M  V30 2913 O 273.645 1.61707 -0.64781 0
M  V30 2914 C 270.777 3.12096 -1.37145 0
M  V30 2915 H 271.97 1.69031 -2.47727 0
M  V30 2916 H 269.523 0.849706 -1.31186 0
M  V30 2917 H 270.258 3.21728 -0.407636 0
M  V30 2918 H 270.043 3.25805 -2.18159 0
M  V30 2919 H 271.533 3.91846 -1.44382 0
M  V30 2920 N 271.97 1.30982 0.876444 0
M  V30 2921 C 273.195 1.23373 1.66715 0
M  V30 2922 C 273.62 -0.19885 1.87046 0
M  V30 2923 O 272.978 -1.1427 1.40756 0
M  V30 2924 C 273.026 1.97644 3.01611 0
M  V30 2925 O 272.13 1.30935 3.91062 0
M  V30 2926 H 271.471 0.426279 0.509099 0
M  V30 2927 H 274.001 1.72944 1.09323 0
M  V30 2928 H 274.011 2.06992 3.51594 0
M  V30 2929 H 272.686 3.01829 2.86133 0
M  V30 2930 H 271.263 1.29996 3.49507 0
M  V30 2931 N 273.449 -1.08991 1.13837 0
M  V30 2932 C 274.695 -1.81526 0.90422 0
M  V30 2933 C 275.028 -1.85706 -0.568066 0
M  V30 2934 O 274.303 -1.32855 -1.42056 0
M  V30 2935 C 274.586 -3.27447 1.49835 0
M  V30 2936 C 274.439 -3.31512 3.04006 0
M  V30 2937 C 275.758 -4.24256 1.17025 0
M  V30 2938 H 272.877 -0.659029 0.329923 0
M  V30 2939 H 275.519 -1.27644 1.40737 0
M  V30 2940 H 273.669 -3.73462 1.07044 0
M  V30 2941 H 275.341 -2.93867 3.55584 0
M  V30 2942 H 273.584 -2.70963 3.38765 0
M  V30 2943 H 274.255 -4.34329 3.40679 0
M  V30 2944 H 276.731 -3.86549 1.54009 0
M  V30 2945 H 275.607 -5.24684 1.61237 0
M  V30 2946 H 275.868 -4.42019 0.0846274 0
M  V30 2947 N 274.927 -0.932562 -1.27047 0
M  V30 2948 C 276.152 -0.591474 -1.98787 0
M  V30 2949 C 276.577 0.824601 -1.69062 0
M  V30 2950 O 275.935 1.5541 -0.933677 0
M  V30 2951 C 275.983 -0.829808 -3.50922 0
M  V30 2952 O 275.087 0.102266 -4.12273 0
M  V30 2953 H 274.428 -0.227185 -0.623926 0
M  V30 2954 H 276.958 -1.25314 -1.61733 0
M  V30 2955 H 276.968 -0.747292 -4.01098 0
M  V30 2956 H 275.643 -1.86201 -3.7189 0
M  V30 2957 H 274.22 -0.0305761 -3.72887 0
M  V30 2958 N 276.405 1.4127 -0.698611 0
M  V30 2959 C 277.368 2.29158 -0.044132 0
M  V30 2960 C 278.368 1.44529 0.704841 0
M  V30 2961 O 279.558 1.65643 0.539276 0
M  V30 2962 C 276.69 3.27459 0.947809 0
M  V30 2963 H 277.883 2.88529 -0.817994 0
M  V30 2964 H 275.436 1.49307 -0.46228 0
M  V30 2965 H 276.171 2.73073 1.74933 0
M  V30 2966 H 275.956 3.8991 0.41385 0
M  V30 2967 H 277.446 3.93311 1.40344 0
M  V30 2968 N 277.883 0.443576 1.51229 0
M  V30 2969 C 279.111 -0.11929 2.06556 0
M  V30 2970 C 279.526 -1.35921 1.31038 0
M  V30 2971 O 278.883 -1.78675 0.371704 0
M  V30 2972 C 278.934 -0.435228 3.5887 0
M  V30 2973 O 278.655 0.755486 4.31537 0
M  V30 2974 C 280.156 -1.04808 4.30732 0
M  V30 2975 H 277.376 -0.0051584 0.67098 0
M  V30 2976 H 279.92 0.624453 1.94733 0
M  V30 2977 H 278.075 -1.12887 3.70588 0
M  V30 2978 H 278.489 0.483491 5.22267 0
M  V30 2979 H 279.963 -1.2191 5.3837 0
M  V30 2980 H 280.44 -2.03081 3.89429 0
M  V30 2981 H 281.046 -0.393637 4.23474 0
M  V30 2982 N 279.361 -1.56624 0.175154 0
M  V30 2983 C 280.291 -2.21155 -0.749195 0
M  V30 2984 C 281.272 -1.16836 -1.23626 0
M  V30 2985 O 282.457 -1.45277 -1.28873 0
M  V30 2986 C 279.587 -2.8553 -1.97711 0
M  V30 2987 C 278.541 -3.95921 -1.62575 0
M  V30 2988 C 277.867 -4.47365 -2.92864 0
M  V30 2989 C 279.167 -5.15323 -0.850838 0
M  V30 2990 H 280.861 -2.98653 -0.211295 0
M  V30 2991 H 278.407 -1.43651 -0.100188 0
M  V30 2992 H 280.36 -3.2935 -2.62881 0
M  V30 2993 H 279.084 -2.05406 -2.53921 0
M  V30 2994 H 277.743 -3.52762 -0.997719 0
M  V30 2995 H 277.391 -3.64027 -3.47122 0
M  V30 2996 H 277.091 -5.21839 -2.70106 0
M  V30 2997 H 278.615 -4.93873 -3.59056 0
M  V30 2998 H 280.029 -5.55812 -1.40521 0
M  V30 2999 H 278.426 -5.95739 -0.722154 0
M  V30 3000 H 279.496 -4.84661 0.152082 0
M  V30 3001 N 280.839 0.0985539 -1.57292 0
M  V30 3002 C 282.085 0.803867 -1.86188 0
M  V30 3003 C 282.418 1.78549 -0.763794 0
M  V30 3004 O 281.693 1.93153 0.22855 0
M  V30 3005 C 281.976 1.53568 -3.25713 0
M  V30 3006 C 281.829 0.572277 -4.46145 0
M  V30 3007 C 283.148 2.48708 -3.63087 0
M  V30 3008 H 280.267 0.290781 -0.677211 0
M  V30 3009 H 282.909 0.0675783 -1.8988 0
M  V30 3010 H 281.059 2.16332 -3.22696 0
M  V30 3011 H 282.731 -0.0480894 -4.61275 0
M  V30 3012 H 280.974 -0.114618 -4.33649 0
M  V30 3013 H 281.645 1.12139 -5.40489 0
M  V30 3014 H 284.121 1.96039 -3.67026 0
M  V30 3015 H 282.997 2.96932 -4.61652 0
M  V30 3016 H 283.258 3.32309 -2.91588 0
M  V30 3017 N 282.317 1.53212 0.369288 0
M  V30 3018 C 283.728 1.60943 0.946276 0
M  V30 3019 C 284.079 0.47452 1.90375 0
M  V30 3020 O 283.204 -0.399597 2.12679 0
M  V30 3021 C 283.799 2.91715 1.72302 0
M  V30 3022 C 282.358 3.01792 2.24941 0
M  V30 3023 C 281.505 2.56211 1.06072 0
M  V30 3024 H 284.456 1.58007 0.148198 0
M  V30 3025 H 284.477 2.79309 2.58393 0
M  V30 3026 H 283.989 3.74295 1.0259 0
M  V30 3027 H 282.09 2.23791 2.97906 0
M  V30 3028 H 282.203 4.06803 2.53077 0
M  V30 3029 H 280.567 2.10998 1.4266 0
M  V30 3030 H 281.35 3.41206 0.378639 0
M  V30 3031 N 283.795 -0.628877 1.44509 0
M  V30 3032 C 285.042 -1.38839 1.47411 0
M  V30 3033 C 285.37 -1.94202 0.10757 0
M  V30 3034 O 284.625 -1.74243 -0.890947 0
M  V30 3035 C 284.924 -2.56995 2.48371 0
M  V30 3036 C 284.59 -2.19908 3.93639 0
M  V30 3037 C 283.252 -2.09506 4.33198 0
M  V30 3038 C 285.604 -1.9064 4.85083 0
M  V30 3039 C 282.932 -1.68028 5.62124 0
M  V30 3040 C 285.284 -1.50655 6.14399 0
M  V30 3041 C 283.948 -1.38796 6.5291 0
M  V30 3042 H 283.218 -0.508048 0.539414 0
M  V30 3043 H 285.865 -0.712913 1.77735 0
M  V30 3044 H 284.17 -3.29786 2.11538 0
M  V30 3045 H 285.867 -3.15223 2.47861 0
M  V30 3046 H 282.457 -2.28922 3.62343 0
M  V30 3047 H 286.641 -1.97585 4.55273 0
M  V30 3048 H 281.897 -1.57452 5.90778 0
M  V30 3049 H 286.071 -1.27048 6.84713 0
M  V30 3050 H 283.698 -1.06429 7.52713 0
M  V30 3051 N 285.273 -1.31445 -0.869486 0
M  V30 3052 C 286.501 -1.24122 -1.65534 0
M  V30 3053 C 286.916 0.193387 -1.87807 0
M  V30 3054 O 286.273 1.12557 -1.43656 0
M  V30 3055 C 286.324 -1.98229 -3.02304 0
M  V30 3056 O 286.045 -3.3609 -2.81026 0
M  V30 3057 C 287.546 -1.97751 -3.96749 0
M  V30 3058 H 284.766 -0.428868 -0.516055 0
M  V30 3059 H 287.31 -1.73328 -1.08525 0
M  V30 3060 H 285.465 -1.52782 -3.56001 0
M  V30 3061 H 285.879 -3.7383 -3.67902 0
M  V30 3062 H 287.353 -2.54114 -4.90031 0
M  V30 3063 H 287.83 -0.960137 -4.28577 0
M  V30 3064 H 288.436 -2.43079 -3.48988 0
M  V30 3065 N 286.751 1.08385 -1.14413 0
M  V30 3066 C 287.714 2.13486 -0.834048 0
M  V30 3067 C 288.714 1.59988 0.161418 0
M  V30 3068 O 289.904 1.74071 -0.0669575 0
M  V30 3069 C 287.036 3.4003 -0.243354 0
M  V30 3070 H 288.229 2.42425 -1.7655 0
M  V30 3071 H 285.782 1.24101 -0.950189 0
M  V30 3072 H 286.517 3.16726 0.696807 0
M  V30 3073 H 286.302 3.80157 -0.960367 0
M  V30 3074 H 287.792 4.17577 -0.0436242 0
M  V30 3075 N 288.23 0.939286 1.26551 0
M  V30 3076 C 289.476 0.586715 1.94128 0
M  V30 3077 C 289.809 -0.8717 1.73537 0
M  V30 3078 O 289.084 -1.62339 1.07127 0
M  V30 3079 C 289.367 0.927497 3.4795 0
M  V30 3080 C 289.22 2.44052 3.77834 0
M  V30 3081 C 290.539 0.441569 4.37879 0
M  V30 3082 H 287.658 0.21463 0.705055 0
M  V30 3083 H 290.3 1.17316 1.49455 0
M  V30 3084 H 288.45 0.428431 3.8613 0
M  V30 3085 H 290.122 3.01216 3.4938 0
M  V30 3086 H 288.365 2.8848 3.23978 0
M  V30 3087 H 289.036 2.62947 4.85348 0
M  V30 3088 H 291.512 0.869448 4.06915 0
M  V30 3089 H 290.388 0.708856 5.44304 0
M  V30 3090 H 290.649 -0.658467 4.37169 0
M  V30 3091 N 289.708 -1.40897 0.706093 0
M  V30 3092 C 290.658 -2.27987 0.0240746 0
M  V30 3093 C 291.642 -1.42759 -0.742204 0
M  V30 3094 O 292.834 -1.65936 -0.615966 0
M  V30 3095 C 289.963 -3.31186 -0.903907 0
M  V30 3096 C 289.049 -4.2389 -0.133318 0
M  V30 3097 N 289.44 -4.98113 0.878444 0
M  V30 3098 C 287.738 -4.44485 -0.367269 0
M  V30 3099 C 288.439 -5.6604 1.34064 0
M  V30 3100 N 287.415 -5.39522 0.664565 0
M  V30 3101 H 291.217 -2.82812 0.799658 0
M  V30 3102 H 288.731 -1.53235 0.537845 0
M  V30 3103 H 290.728 -3.92413 -1.40775 0
M  V30 3104 H 289.388 -2.77922 -1.67897 0
M  V30 3105 H 290.399 -5.02364 1.25901 0
M  V30 3106 H 287.076 -4.02213 -1.1194 0
M  V30 3107 H 288.466 -6.35524 2.1808 0
M  V30 3108 N 291.186 -0.45159 -1.50991 0
M  V30 3109 C 292.116 0.342898 -2.30969 0
M  V30 3110 C 293.097 1.00815 -1.37005 0
M  V30 3111 O 294.282 1.00907 -1.65926 0
M  V30 3112 C 291.412 1.43637 -3.16205 0
M  V30 3113 C 290.366 0.893818 -4.18563 0
M  V30 3114 C 289.692 2.08411 -4.92411 0
M  V30 3115 C 290.992 -0.0815568 -5.22236 0
M  V30 3116 H 292.686 -0.324556 -2.97636 0
M  V30 3117 H 290.232 -0.157531 -1.43136 0
M  V30 3118 H 292.185 1.9995 -3.70942 0
M  V30 3119 H 290.909 2.13232 -2.47386 0
M  V30 3120 H 289.568 0.352798 -3.64898 0
M  V30 3121 H 289.216 2.76658 -4.20082 0
M  V30 3122 H 288.916 1.72741 -5.61636 0
M  V30 3123 H 290.44 2.65251 -5.49976 0
M  V30 3124 H 291.854 0.391742 -5.7196 0
M  V30 3125 H 290.251 -0.351551 -5.99069 0
M  V30 3126 H 291.321 -1.01374 -4.74185 0
M  V30 3127 N 292.664 1.56529 -0.183458 0
M  V30 3128 C 293.596 2.15747 0.773697 0
M  V30 3129 C 294.609 1.1162 1.1851 0
M  V30 3130 O 295.798 1.3876 1.12285 0
M  V30 3131 C 292.898 2.6952 2.05456 0
M  V30 3132 C 292.071 3.98429 1.8048 0
M  V30 3133 C 291.13 4.37145 2.92901 0
M  V30 3134 O 290.156 5.04791 2.6301 0
M  V30 3135 N 291.358 3.99695 4.2098 0
M  V30 3136 H 294.123 2.98505 0.26736 0
M  V30 3137 H 291.684 1.619 -0.0010878 0
M  V30 3138 H 293.676 2.92412 2.79781 0
M  V30 3139 H 292.246 1.91282 2.47245 0
M  V30 3140 H 291.466 3.8379 0.899947 0
M  V30 3141 H 292.754 4.82597 1.61175 0
M  V30 3142 H 292.152 3.4526 4.48121 0
M  V30 3143 H 290.709 4.27562 4.9197 0
M  V30 3144 N 294.142 -0.090211 1.57342 0
M  V30 3145 C 295.092 -1.11557 1.98844 0
M  V30 3146 C 296.076 -1.35503 0.867624 0
M  V30 3147 O 297.268 -1.36113 1.13148 0
M  V30 3148 C 294.397 -2.43446 2.42051 0
M  V30 3149 C 293.483 -2.22853 3.60828 0
M  V30 3150 N 293.874 -1.72141 4.75606 0
M  V30 3151 C 292.172 -2.53401 3.67021 0
M  V30 3152 C 292.873 -1.65932 5.57531 0
M  V30 3153 N 291.849 -2.11323 5.00843 0
M  V30 3154 H 295.651 -0.716499 2.85032 0
M  V30 3155 H 293.165 -0.297567 1.59651 0
M  V30 3156 H 295.162 -3.17644 2.70014 0
M  V30 3157 H 293.822 -2.84087 1.57241 0
M  V30 3158 H 294.833 -1.41268 4.98261 0
M  V30 3159 H 291.51 -2.97532 2.92884 0
M  V30 3160 H 292.9 -1.27733 6.59647 0
M  V30 3161 N 295.62 -1.53406 -0.361157 0
M  V30 3162 C 296.848 -1.73717 -1.12383 0
M  V30 3163 C 297.263 -0.468161 -1.82904 0
M  V30 3164 O 296.62 0.559198 -1.73722 0
M  V30 3165 C 296.671 -2.90558 -2.15078 0
M  V30 3166 O 296.392 -4.12549 -1.47428 0
M  V30 3167 C 297.893 -3.22777 -3.03858 0
M  V30 3168 H 295.113 -0.580896 -0.335858 0
M  V30 3169 H 297.657 -2.00167 -0.418728 0
M  V30 3170 H 295.812 -2.66489 -2.8118 0
M  V30 3171 H 296.226 -4.78009 -2.15887 0
M  V30 3172 H 297.7 -4.07927 -3.71887 0
M  V30 3173 H 298.177 -2.38329 -3.68912 0
M  V30 3174 H 298.783 -3.48787 -2.43367 0
M  V30 3175 N 297.098 0.621204 -1.44841 0
M  V30 3176 C 298.375 1.38 -1.38619 0
M  V30 3177 C 298.755 2.11041 -0.0498935 0
M  V30 3178 O 298.103 2.06992 0.967816 0
M  V30 3179 C 298.313 2.33817 -2.59096 0
M  V30 3180 C 299.661 2.96844 -3.03593 0
M  V30 3181 O 300.685 2.44141 -2.59371 0
M  V30 3182 O 299.544 3.92476 -3.80296 0
M  V30 3183 H 296.638 0.61811 -0.549426 0
M  V30 3184 H 299.184 0.645429 -1.56947 0
M  V30 3185 H 297.956 1.79012 -3.47952 0
M  V30 3186 H 297.579 3.14676 -2.43032 0
M  V30 3187 N 298.576 1.31904 0.862503 0
M  V30 3188 C 299.486 1.22161 2.00285 0
M  V30 3189 C 300.502 0.136785 1.73462 0
M  V30 3190 O 301.678 0.355994 1.98229 0
M  V30 3191 C 298.743 0.937093 3.33796 0
M  V30 3192 C 297.804 2.10957 3.73893 0
M  V30 3193 C 297.037 1.83853 5.01033 0
M  V30 3194 O 297.26 0.777274 5.65079 0
M  V30 3195 O 296.194 2.69741 5.38074 0
M  V30 3196 H 300.02 2.18008 2.11439 0
M  V30 3197 H 297.605 1.11716 0.991957 0
M  V30 3198 H 299.487 0.794583 4.13841 0
M  V30 3199 H 298.162 0.00871894 3.23699 0
M  V30 3200 H 297.069 2.30752 2.94456 0
M  V30 3201 H 298.402 3.02046 3.88625 0
M  V30 3202 N 300.054 -1.07777 1.14986 0
M  V30 3203 C 301.017 -2.13041 0.845358 0
M  V30 3204 C 302.017 -1.60071 -0.152931 0
M  V30 3205 O 303.207 -1.74033 0.0761879 0
M  V30 3206 C 300.339 -3.39896 0.261383 0
M  V30 3207 H 301.532 -2.41485 1.77834 0
M  V30 3208 H 299.085 -1.23595 0.956757 0
M  V30 3209 H 299.82 -3.17091 -0.68 0
M  V30 3210 H 299.605 -3.79642 0.980514 0
M  V30 3211 H 301.095 -4.17548 0.0657687 0
M  V30 3212 N 301.532 -0.945985 -1.26051 0
M  V30 3213 C 302.772 -0.603665 -1.95282 0
M  V30 3214 C 303.136 0.842377 -1.72534 0
M  V30 3215 O 304.337 1.29387 -2.35611 0
M  V30 3216 C 302.608 -0.942292 -3.44754 0
M  V30 3217 S 304.167 -0.711242 -4.32997 0
M  V30 3218 H 300.985 -0.222176 -0.675395 0
M  V30 3219 H 303.587 -1.21832 -1.52896 0
M  V30 3220 H 302.291 -1.99203 -3.58812 0
M  V30 3221 H 301.822 -0.317546 -3.92116 0
M  V30 3222 H 303.837 0.422221 -4.944 0
M  V30 3223 N 303.011 1.40521 -0.713556 0
M  V30 3224 C 304.258 2.00923 -0.25219 0
M  V30 3225 C 304.586 1.56571 1.15395 0
M  V30 3226 O 303.841 0.775874 1.79663 0
M  V30 3227 C 304.14 3.56317 -0.278 0
M  V30 3228 C 303.806 4.20246 -1.63415 0
M  V30 3229 C 302.468 4.37422 -2.00538 0
M  V30 3230 C 304.82 4.55923 -2.52554 0
M  V30 3231 C 302.148 4.87558 -3.2635 0
M  V30 3232 C 304.5 5.07458 -3.77716 0
M  V30 3233 C 303.164 5.22843 -4.14959 0
M  V30 3234 H 302.434 0.735231 -0.0922829 0
M  V30 3235 H 305.081 1.68161 -0.916188 0
M  V30 3236 H 303.386 3.88976 0.469567 0
M  V30 3237 H 305.083 4.00883 0.0967819 0
M  V30 3238 H 301.673 4.07263 -1.33546 0
M  V30 3239 H 305.857 4.42291 -2.25149 0
M  V30 3240 H 301.113 4.97654 -3.55176 0
M  V30 3241 H 305.287 5.34041 -4.4696 0
M  V30 3242 H 302.914 5.61454 -5.12516 0
M  V30 3243 N 304.489 0.459591 1.5075 0
M  V30 3244 C 305.729 -0.09824 2.04164 0
M  V30 3245 C 306.093 -1.3801 1.33481 0
M  V30 3246 O 307.294 -2.01959 1.77387 0
M  V30 3247 C 305.565 -0.289467 3.56226 0
M  V30 3248 S 307.124 -0.807507 4.31306 0
M  V30 3249 H 303.942 -0.0213845 0.710678 0
M  V30 3250 H 306.544 0.624098 1.85271 0
M  V30 3251 H 305.248 0.649461 4.05229 0
M  V30 3252 H 304.779 -1.03825 3.79452 0
M  V30 3253 H 306.794 -2.0824 4.50389 0
M  V30 3254 N 305.967 -1.56429 0.191757 0
M  V30 3255 C 307.214 -1.97485 -0.447891 0
M  V30 3256 C 307.542 -1.07852 -1.61859 0
M  V30 3257 O 306.797 -0.116903 -1.95351 0
M  V30 3258 C 307.096 -3.44449 -0.953384 0
M  V30 3259 C 306.762 -4.50781 0.103586 0
M  V30 3260 C 305.424 -4.79584 0.394023 0
M  V30 3261 C 307.776 -5.1471 0.819946 0
M  V30 3262 C 305.104 -5.69607 1.40585 0
M  V30 3263 C 307.456 -6.05827 1.8209 0
M  V30 3264 C 306.12 -6.32987 2.11857 0
M  V30 3265 H 305.39 -0.722648 -0.163895 0
M  V30 3266 H 308.037 -1.89322 0.28802 0
M  V30 3267 H 306.342 -3.49666 -1.76751 0
M  V30 3268 H 308.039 -3.73569 -1.45765 0
M  V30 3269 H 304.629 -4.28394 -0.132951 0
M  V30 3270 H 308.813 -4.92552 0.608789 0
M  V30 3271 H 304.069 -5.88926 1.64243 0
M  V30 3272 H 308.243 -6.54424 2.38123 0
M  V30 3273 H 305.87 -7.02544 2.90407 0
M  V30 3274 N 307.445 0.0818655 -1.57387 0
M  V30 3275 C 308.408 1.08265 -2.02018 0
M  V30 3276 C 309.408 1.32183 -0.915664 0
M  V30 3277 O 310.598 1.28073 -1.18081 0
M  V30 3278 C 307.73 2.42871 -2.39221 0
M  V30 3279 H 308.923 0.698204 -2.91659 0
M  V30 3280 H 306.476 0.327303 -1.52835 0
M  V30 3281 H 307.211 2.86167 -1.52575 0
M  V30 3282 H 306.996 2.26855 -3.19811 0
M  V30 3283 H 308.486 3.14826 -2.74362 0
M  V30 3284 N 308.923 1.53595 0.353017 0
M  V30 3285 C 310.2 1.61002 1.11075 0
M  V30 3286 C 310.58 0.425356 2.0677 0
M  V30 3287 O 309.928 -0.583267 2.2093 0
M  V30 3288 C 310.138 2.96631 1.83877 0
M  V30 3289 C 311.486 3.51653 2.37961 0
M  V30 3290 O 312.51 2.98743 1.93987 0
M  V30 3291 O 311.369 4.44177 3.18386 0
M  V30 3292 H 308.463 0.650825 0.510251 0
M  V30 3293 H 311.009 1.6594 0.35527 0
M  V30 3294 H 309.781 3.74293 1.14108 0
M  V30 3295 H 309.404 2.95242 2.66304 0
M  V30 3296 N 310.401 -0.613514 1.45168 0
M  V30 3297 C 311.647 -1.37471 1.49096 0
M  V30 3298 C 311.98 -1.93765 0.129901 0
M  V30 3299 O 311.255 -1.74707 -0.854858 0
M  V30 3300 C 311.538 -2.52701 2.56542 0
M  V30 3301 C 311.391 -2.01643 4.0207 0
M  V30 3302 C 312.71 -3.54849 2.60327 0
M  V30 3303 H 309.829 -0.498502 0.54283 0
M  V30 3304 H 312.471 -0.692125 1.76945 0
M  V30 3305 H 310.621 -3.10931 2.32926 0
M  V30 3306 H 312.293 -1.48108 4.36877 0
M  V30 3307 H 310.536 -1.32688 4.13009 0
M  V30 3308 H 311.207 -2.84681 4.72928 0
M  V30 3309 H 313.683 -3.0645 2.81474 0
M  V30 3310 H 312.559 -4.32973 3.37381 0
M  V30 3311 H 312.82 -4.10079 1.6519 0
M  V30 3312 N 311.879 -1.3236 -0.855495 0
M  V30 3313 C 313.295 -1.11332 -1.14356 0
M  V30 3314 C 313.495 0.106751 -2.01217 0
M  V30 3315 O 312.551 0.791891 -2.39761 0
M  V30 3316 C 313.864 -2.39237 -1.82171 0
M  V30 3317 C 315.412 -2.44986 -1.9481 0
M  V30 3318 C 315.887 -3.7281 -2.66039 0
M  V30 3319 N 317.378 -3.73787 -2.73565 0
M  V30 3320 C 318.113 -4.69394 -3.29327 0
M  V30 3321 N 317.609 -5.75367 -3.85907 0
M  V30 3322 N 319.402 -4.56893 -3.27423 0
M  V30 3323 H 311.553 -2.10586 -0.277027 0
M  V30 3324 H 313.816 -0.929701 -0.185364 0
M  V30 3325 H 313.522 -3.28431 -1.25802 0
M  V30 3326 H 313.396 -2.50134 -2.82335 0
M  V30 3327 H 315.783 -1.56252 -2.50338 0
M  V30 3328 H 315.864 -2.38043 -0.936448 0
M  V30 3329 H 315.508 -4.61918 -2.11174 0
M  V30 3330 H 315.438 -3.77024 -3.67642 0
M  V30 3331 H 317.929 -2.97189 -2.33424 0
M  V30 3332 H 318.242 -6.44378 -4.26611 0
M  V30 3333 H 316.587 -5.79123 -3.84242 0
M  V30 3334 H 319.778 -3.73269 -2.82467 0
M  V30 3335 H 319.951 -5.31577 -3.7058 0
M  V30 3336 N 313.357 1.07166 -1.15556 0
M  V30 3337 C 314.267 2.17947 -0.868116 0
M  V30 3338 C 315.283 1.73297 0.156297 0
M  V30 3339 O 316.459 2.01392 -0.0182327 0
M  V30 3340 C 313.524 3.44789 -0.36355 0
M  V30 3341 C 312.585 4.03996 -1.45209 0
M  V30 3342 C 311.818 5.24783 -0.971508 0
M  V30 3343 O 312.041 5.70109 0.182194 0
M  V30 3344 O 310.975 5.75715 -1.75603 0
M  V30 3345 H 314.801 2.4503 -1.79427 0
M  V30 3346 H 312.386 1.16539 -0.934824 0
M  V30 3347 H 314.268 4.21307 -0.0887113 0
M  V30 3348 H 312.943 3.19253 0.534708 0
M  V30 3349 H 311.85 3.29009 -1.78056 0
M  V30 3350 H 313.183 4.33808 -2.32533 0
M  V30 3351 N 314.835 0.952656 1.25548 0
M  V30 3352 C 316.081 0.607272 1.93494 0
M  V30 3353 C 316.414 -0.853245 1.74452 0
M  V30 3354 O 315.689 -1.61194 1.08843 0
M  V30 3355 C 315.972 0.96435 3.46947 0
M  V30 3356 C 315.825 2.48045 3.75225 0
M  V30 3357 C 317.144 0.487987 4.37386 0
M  V30 3358 H 314.263 0.222096 0.702739 0
M  V30 3359 H 316.905 1.18895 1.48203 0
M  V30 3360 H 315.055 0.469361 3.85654 0
M  V30 3361 H 316.727 3.04905 3.46166 0
M  V30 3362 H 314.97 2.919 3.209 0
M  V30 3363 H 315.641 2.6808 4.82532 0
M  V30 3364 H 318.117 0.912558 4.0597 0
M  V30 3365 H 316.993 0.766547 5.43521 0
M  V30 3366 H 317.254 -0.612063 4.37843 0
M  V30 3367 N 316.313 -1.40141 0.720998 0
M  V30 3368 C 317.245 -2.29177 0.0324669 0
M  V30 3369 C 318.258 -1.46105 -0.718126 0
M  V30 3370 O 319.447 -1.69335 -0.564608 0
M  V30 3371 C 316.547 -3.24473 -0.978292 0
M  V30 3372 C 315.72 -4.36423 -0.292115 0
M  V30 3373 C 314.779 -5.12122 -1.20901 0
M  V30 3374 O 313.805 -5.64981 -0.691766 0
M  V30 3375 N 315.007 -5.21992 -2.53978 0
M  V30 3376 H 317.772 -2.88909 0.796984 0
M  V30 3377 H 315.333 -1.51569 0.569068 0
M  V30 3378 H 317.325 -3.71987 -1.59398 0
M  V30 3379 H 315.895 -2.65871 -1.64413 0
M  V30 3380 H 315.115 -3.90967 0.503847 0
M  V30 3381 H 316.403 -5.08467 0.183971 0
M  V30 3382 H 315.801 -4.8054 -2.98493 0
M  V30 3383 H 314.358 -5.72995 -3.10677 0
M  V30 3384 N 317.792 -0.46758 -1.50504 0
M  V30 3385 C 319.038 0.0808869 -2.03239 0
M  V30 3386 C 319.393 1.37721 -1.34353 0
M  V30 3387 O 318.686 1.86016 -0.459194 0
M  V30 3388 C 318.88 0.323995 -3.55928 0
M  V30 3389 C 318.709 -0.947215 -4.39611 0
M  V30 3390 C 317.479 -1.48951 -4.82848 0
M  V30 3391 C 319.677 -1.84166 -4.80195 0
M  V30 3392 N 317.659 -2.71011 -5.50842 0
M  V30 3393 C 319.03 -2.90815 -5.47564 0
M  V30 3394 C 321.085 -1.85246 -4.62156 0
M  V30 3395 C 319.788 -3.98529 -5.98805 0
M  V30 3396 C 321.814 -2.91914 -5.14335 0
M  V30 3397 C 321.176 -3.97282 -5.81676 0
M  V30 3398 H 317.275 -0.0103394 -0.781932 0
M  V30 3399 H 319.859 -0.635003 -1.84054 0
M  V30 3400 H 318.03 1.00892 -3.75067 0
M  V30 3401 H 319.762 0.866492 -3.95315 0
M  V30 3402 H 316.517 -1.03918 -4.62058 0
M  V30 3403 H 316.941 -3.32988 -5.89447 0
M  V30 3404 H 321.583 -1.05103 -4.09528 0
M  V30 3405 H 319.301 -4.79491 -6.50472 0
M  V30 3406 H 322.887 -2.93729 -5.0221 0
M  V30 3407 H 321.767 -4.78462 -6.21324 0
M  V30 3408 N 319.27 1.56325 -0.20005 0
M  V30 3409 C 320.2 2.22318 0.713916 0
M  V30 3410 C 321.181 1.18788 1.21752 0
M  V30 3411 O 322.366 1.47309 1.26545 0
M  V30 3412 C 319.496 2.88639 1.93144 0
M  V30 3413 C 318.45 3.98457 1.56255 0
M  V30 3414 C 317.776 4.51967 2.85709 0
M  V30 3415 C 319.076 5.16612 0.768747 0
M  V30 3416 H 320.77 2.98952 0.163755 0
M  V30 3417 H 318.316 1.43792 0.0773219 0
M  V30 3418 H 320.269 3.33491 2.57608 0
M  V30 3419 H 318.993 2.09419 2.50621 0
M  V30 3420 H 317.652 3.54305 0.941471 0
M  V30 3421 H 317.3 3.69503 3.41287 0
M  V30 3422 H 317 5.26071 2.6177 0
M  V30 3423 H 318.524 4.99523 3.51154 0
M  V30 3424 H 319.938 5.57977 1.3166 0
M  V30 3425 H 318.335 5.96812 0.627286 0
M  V30 3426 H 319.405 4.84358 -0.229168 0
M  V30 3427 N 320.748 -0.0735177 1.57428 0
M  V30 3428 C 321.658 -1.10547 2.06922 0
M  V30 3429 C 322.674 -1.42506 0.998402 0
M  V30 3430 O 323.85 -1.52717 1.31299 0
M  V30 3431 C 320.915 -2.40019 2.50184 0
M  V30 3432 C 319.976 -2.15046 3.71556 0
M  V30 3433 C 319.209 -3.38345 4.12745 0
M  V30 3434 O 319.432 -4.47399 3.53822 0
M  V30 3435 O 318.366 -3.2666 5.05546 0
M  V30 3436 H 322.192 -0.715013 2.95163 0
M  V30 3437 H 319.777 -0.287531 1.46607 0
M  V30 3438 H 321.659 -3.16218 2.78539 0
M  V30 3439 H 320.334 -2.78447 1.65072 0
M  V30 3440 H 319.241 -1.36558 3.48285 0
M  V30 3441 H 320.574 -1.81499 4.57514 0
M  V30 3442 N 322.226 -1.5378 -0.344866 0
M  V30 3443 C 323.472 -1.71216 -1.08687 0
M  V30 3444 C 323.805 -0.473281 -1.88345 0
M  V30 3445 O 323.08 0.52968 -1.87149 0
M  V30 3446 C 323.363 -2.97486 -2.02914 0
M  V30 3447 C 323.216 -4.31579 -1.26727 0
M  V30 3448 C 324.535 -3.19422 -3.0275 0
M  V30 3449 H 321.654 -0.62301 -0.393735 0
M  V30 3450 H 324.296 -1.8645 -0.365563 0
M  V30 3451 H 322.446 -2.84629 -2.64421 0
M  V30 3452 H 324.118 -4.56284 -0.67845 0
M  V30 3453 H 322.361 -4.30049 -0.569273 0
M  V30 3454 H 323.032 -5.16106 -1.95803 0
M  V30 3455 H 325.508 -3.316 -2.51357 0
M  V30 3456 H 324.384 -4.09169 -3.65885 0
M  V30 3457 H 324.645 -2.35656 -3.74057 0
M  V30 3458 N 323.704 0.605807 -1.45491 0
M  V30 3459 C 324.932 1.39136 -1.5313 0
M  V30 3460 C 325.347 1.88082 -0.164507 0
M  V30 3461 O 324.704 1.62316 0.834247 0
M  V30 3462 C 324.755 2.59463 -2.51716 0
M  V30 3463 O 324.476 2.12551 -3.83084 0
M  V30 3464 C 325.977 3.52301 -2.6907 0
M  V30 3465 H 323.197 0.425849 -0.51855 0
M  V30 3466 H 325.741 0.73865 -1.90694 0
M  V30 3467 H 323.896 3.20772 -2.17219 0
M  V30 3468 H 324.31 2.90744 -4.36541 0
M  V30 3469 H 325.784 4.33271 -3.42024 0
M  V30 3470 H 326.261 4.02757 -1.75167 0
M  V30 3471 H 326.867 2.96845 -3.04571 0
M  V30 3472 N 325.182 1.32811 0.848464 0
M  V30 3473 C 326.112 1.24882 1.97299 0
M  V30 3474 C 327.093 0.131357 1.69592 0
M  V30 3475 O 328.278 0.319553 1.91553 0
M  V30 3476 C 325.408 0.97746 3.33261 0
M  V30 3477 C 324.362 2.05682 3.75338 0
M  V30 3478 C 323.688 1.63777 5.09 0
M  V30 3479 C 324.988 3.47254 3.90144 0
M  V30 3480 H 326.682 2.18966 2.04191 0
M  V30 3481 H 324.228 1.05413 0.981029 0
M  V30 3482 H 326.181 0.908513 4.1149 0
M  V30 3483 H 324.905 0.000980011 3.266 0
M  V30 3484 H 323.564 2.11603 2.99366 0
M  V30 3485 H 323.212 0.648569 4.98801 0
M  V30 3486 H 322.912 2.36 5.38124 0
M  V30 3487 H 324.436 1.5833 5.89715 0
M  V30 3488 H 325.85 3.43888 4.58709 0
M  V30 3489 H 324.247 4.1788 4.30693 0
M  V30 3490 H 325.317 3.86462 2.92874 0
M  V30 3491 N 326.66 -1.06551 1.16123 0
M  V30 3492 C 327.908 -1.78947 0.939267 0
M  V30 3493 C 328.229 -1.87532 -0.534476 0
M  V30 3494 O 327.499 -1.38211 -1.38833 0
M  V30 3495 H 326.079 -0.662807 0.344523 0
M  V30 3496 H 328.741 -1.28725 1.46342 0
M  V30 3497 H 327.837 -2.81117 1.35572 0
M  V30 3498 N 328.138 -0.959301 -1.25041 0
M  V30 3499 C 329.385 -0.616611 -1.92884 0
M  V30 3500 C 329.713 0.847036 -1.75087 0
M  V30 3501 O 328.968 1.62374 -1.09239 0
M  V30 3502 C 329.267 -0.927136 -3.45165 0
M  V30 3503 C 328.933 -2.37757 -3.83122 0
M  V30 3504 C 327.595 -2.77402 -3.93194 0
M  V30 3505 C 329.947 -3.31929 -4.01836 0
M  V30 3506 C 327.275 -4.10277 -4.19392 0
M  V30 3507 C 329.627 -4.64423 -4.29528 0
M  V30 3508 C 328.291 -5.03857 -4.37818 0
M  V30 3509 H 327.561 -0.225634 -0.705812 0
M  V30 3510 H 330.208 -1.20921 -1.48493 0
M  V30 3511 H 328.513 -0.252195 -3.90987 0
M  V30 3512 H 330.21 -0.6405 -3.95852 0
M  V30 3513 H 326.8 -2.06013 -3.75841 0
M  V30 3514 H 330.984 -3.02488 -3.93465 0
M  V30 3515 H 326.24 -4.40467 -4.24027 0
M  V30 3516 H 330.414 -5.37369 -4.42953 0
M  V30 3517 H 328.041 -6.06843 -4.57871 0
M  V30 3518 N 329.616 1.39756 -0.72842 0
M  V30 3519 C 330.865 1.99879 -0.270407 0
M  V30 3520 C 331.178 1.58449 1.14688 0
M  V30 3521 O 332.384 2.11362 1.70407 0
M  V30 3522 C 330.84 3.57292 -0.43252 0
M  V30 3523 C 330.448 4.07688 -1.85727 0
M  V30 3524 C 332.192 4.24485 -0.0359507 0
M  V30 3525 C 330.099 5.5765 -1.96928 0
M  V30 3526 H 329.029 0.747689 -0.0973472 0
M  V30 3527 H 331.68 1.59837 -0.901355 0
M  V30 3528 H 330.062 3.95097 0.267219 0
M  V30 3529 H 331.236 3.81231 -2.58843 0
M  V30 3530 H 329.551 3.53135 -2.20646 0
M  V30 3531 H 332.148 5.34609 -0.0987484 0
M  V30 3532 H 332.491 4.03915 1.00787 0
M  V30 3533 H 333.024 3.9183 -0.686604 0
M  V30 3534 H 329.763 5.8309 -2.99476 0
M  V30 3535 H 329.283 5.8593 -1.28241 0
M  V30 3536 H 330.962 6.22957 -1.74737 0
M  V30 3537 N 331.094 0.475555 1.50254 0
M  V30 3538 C 332.34 -0.0780073 2.0265 0
M  V30 3539 C 332.673 -1.38968 1.35652 0
M  V30 3540 O 331.948 -1.8839 0.483691 0
M  V30 3541 C 332.231 -0.257161 3.59181 0
M  V30 3542 C 332.084 1.07585 4.36744 0
M  V30 3543 C 333.403 -1.00965 4.28362 0
M  V30 3544 H 330.522 -0.0268758 0.73651 0
M  V30 3545 H 333.164 0.622015 1.7953 0
M  V30 3546 H 331.314 -0.853412 3.79011 0
M  V30 3547 H 332.986 1.70902 4.28474 0
M  V30 3548 H 331.229 1.6714 4.00308 0
M  V30 3549 H 331.9 0.904088 5.44546 0
M  V30 3550 H 334.376 -0.504214 4.13034 0
M  V30 3551 H 333.252 -1.10381 5.37687 0
M  V30 3552 H 333.513 -2.04731 3.91839 0
M  V30 3553 N 332.573 -1.56217 0.208337 0
M  V30 3554 C 333.984 -1.84243 -0.301904 0
M  V30 3555 C 334.335 -1.12939 -1.60434 0
M  V30 3556 O 333.46 -0.39461 -2.12772 0
M  V30 3557 C 334.055 -3.34231 -0.554543 0
M  V30 3558 C 332.614 -3.62621 -1.00912 0
M  V30 3559 C 331.761 -2.77224 -0.064933 0
M  V30 3560 H 334.712 -1.52712 0.431833 0
M  V30 3561 H 334.733 -3.5372 -1.40223 0
M  V30 3562 H 334.245 -3.86099 0.393561 0
M  V30 3563 H 332.346 -3.16197 -1.97104 0
M  V30 3564 H 332.459 -4.7071 -0.892674 0
M  V30 3565 H 330.823 -2.48256 -0.56929 0
M  V30 3566 H 331.606 -3.31887 0.877851 0
M  V30 3567 N 334.051 0.0651679 -1.57465 0
M  V30 3568 C 335.298 0.763063 -1.87573 0
M  V30 3569 C 335.626 1.77242 -0.800961 0
M  V30 3570 O 334.881 1.94651 0.202316 0
M  V30 3571 C 335.18 1.50081 -3.24362 0
M  V30 3572 C 334.846 0.630816 -4.46466 0
M  V30 3573 C 333.508 0.391082 -4.79608 0
M  V30 3574 C 335.86 0.0279465 -5.21193 0
M  V30 3575 C 333.188 -0.460894 -5.84887 0
M  V30 3576 C 335.54 -0.811522 -6.27373 0
M  V30 3577 C 334.204 -1.06106 -6.59013 0
M  V30 3578 H 333.474 0.279224 -0.686378 0
M  V30 3579 H 336.121 0.0236726 -1.91485 0
M  V30 3580 H 334.426 2.31258 -3.16271 0
M  V30 3581 H 336.123 2.04571 -3.44894 0
M  V30 3582 H 332.713 0.8278 -4.2053 0
M  V30 3583 H 336.897 0.200262 -4.95896 0
M  V30 3584 H 332.153 -0.662907 -6.07796 0
M  V30 3585 H 336.327 -1.28537 -6.84435 0
M  V30 3586 H 333.954 -1.723 -7.40417 0
M  V30 3587 N 335.529 1.53961 0.336706 0
M  V30 3588 C 336.492 1.81724 1.39675 0
M  V30 3589 C 337.492 0.688532 1.45313 0
M  V30 3590 O 338.682 0.956829 1.45569 0
M  V30 3591 C 335.814 1.96543 2.78538 0
M  V30 3592 H 337.007 2.76424 1.16318 0
M  V30 3593 H 334.56 1.45478 0.571474 0
M  V30 3594 H 335.295 1.0401 3.07168 0
M  V30 3595 H 335.08 2.78665 2.75841 0
M  V30 3596 H 336.57 2.19516 3.5525 0
M  V30 3597 N 337.007 -0.598083 1.45811 0
M  V30 3598 C 338.256 -1.35295 1.49594 0
M  V30 3599 C 338.569 -1.95057 0.145679 0
M  V30 3600 O 339.775 -2.71431 0.0612099 0
M  V30 3601 C 338.231 -2.45124 2.63519 0
M  V30 3602 C 337.839 -1.91732 4.04899 0
M  V30 3603 C 339.583 -3.2205 2.76558 0
M  V30 3604 C 337.49 -2.991 5.1019 0
M  V30 3605 H 336.42 -0.508552 0.556679 0
M  V30 3606 H 339.071 -0.639977 1.71978 0
M  V30 3607 H 337.453 -3.19149 2.34435 0
M  V30 3608 H 338.627 -1.24352 4.43704 0
M  V30 3609 H 336.942 -1.27522 3.96393 0
M  V30 3610 H 339.539 -4.0215 3.52391 0
M  V30 3611 H 339.882 -3.73663 1.83526 0
M  V30 3612 H 340.415 -2.55127 3.05213 0
M  V30 3613 H 337.154 -2.52393 6.04961 0
M  V30 3614 H 336.674 -3.65017 4.75944 0
M  V30 3615 H 338.353 -3.63318 5.35359 0
M  V30 3616 N 338.485 -1.33259 -0.841409 0
M  V30 3617 C 339.734 -1.23921 -1.59143 0
M  V30 3618 C 340.047 0.1941 -1.94635 0
M  V30 3619 O 341.253 0.409474 -2.68394 0
M  V30 3620 C 339.709 -2.17119 -2.87032 0
M  V30 3621 C 339.317 -3.65606 -2.58914 0
M  V30 3622 C 341.061 -2.16648 -3.65053 0
M  V30 3623 C 338.968 -4.50726 -3.82884 0
M  V30 3624 H 337.898 -0.460264 -0.597221 0
M  V30 3625 H 340.549 -1.58307 -0.927959 0
M  V30 3626 H 338.931 -1.75663 -3.54906 0
M  V30 3627 H 340.105 -4.15487 -1.99267 0
M  V30 3628 H 338.42 -3.68341 -1.942 0
M  V30 3629 H 341.017 -2.77474 -4.57069 0
M  V30 3630 H 341.36 -1.16088 -3.99787 0
M  V30 3631 H 341.893 -2.56453 -3.041 0
M  V30 3632 H 338.632 -5.52151 -3.53283 0
M  V30 3633 H 338.152 -4.0559 -4.41879 0
M  V30 3634 H 339.831 -4.64401 -4.50489 0
M  V30 3635 N 339.963 1.05934 -1.16686 0
M  V30 3636 C 341.211 1.78447 -0.948744 0
M  V30 3637 C 341.532 1.87813 0.524523 0
M  V30 3638 O 340.802 1.38945 1.38098 0
M  V30 3639 H 339.382 0.660971 -0.348033 0
M  V30 3640 H 342.044 1.27947 -1.47022 0
M  V30 3641 H 341.14 2.80394 -1.37061 0
M  V30 3642 N 341.441 0.965919 1.2453 0
M  V30 3643 C 342.371 0.513476 2.27784 0
M  V30 3644 C 343.352 -0.445974 1.6415 0
M  V30 3645 O 344.537 -0.342485 1.91156 0
M  V30 3646 C 341.667 -0.198839 3.4673 0
M  V30 3647 C 340.621 0.676456 4.2262 0
M  V30 3648 C 339.947 -0.167248 5.34438 0
M  V30 3649 C 341.247 1.96017 4.84123 0
M  V30 3650 H 342.941 1.3765 2.65881 0
M  V30 3651 H 340.487 0.663321 1.27813 0
M  V30 3652 H 342.44 -0.526567 4.18097 0
M  V30 3653 H 341.164 -1.0962 3.07654 0
M  V30 3654 H 339.823 0.98743 3.53052 0
M  V30 3655 H 339.471 -1.0647 4.91603 0
M  V30 3656 H 339.171 0.415181 5.86131 0
M  V30 3657 H 340.695 -0.489688 6.08633 0
M  V30 3658 H 342.109 1.69814 5.47573 0
M  V30 3659 H 340.506 2.48918 5.4604 0
M  V30 3660 H 341.576 2.65622 4.05676 0
M  V30 3661 N 342.919 -1.39368 0.735821 0
M  V30 3662 C 344.159 -2.02349 0.288813 0
M  V30 3663 C 344.523 -1.57127 -1.10341 0
M  V30 3664 O 345.724 -2.12312 -1.64854 0
M  V30 3665 C 343.995 -3.55288 0.387986 0
M  V30 3666 S 345.554 -4.38795 0.0209408 0
M  V30 3667 H 342.372 -0.701944 0.113115 0
M  V30 3668 H 344.974 -1.70164 0.962518 0
M  V30 3669 H 343.678 -3.85691 1.40252 0
M  V30 3670 H 343.209 -3.92227 -0.303512 0
M  V30 3671 H 345.224 -4.81595 -1.19503 0
M  V30 3672 N 344.397 -0.483516 -1.5 0
M  V30 3673 C 345.627 0.0643896 -2.065 0
M  V30 3674 C 346.035 1.32949 -1.34615 0
M  V30 3675 O 345.378 1.79003 -0.412756 0
M  V30 3676 C 345.44 0.405983 -3.572 0
M  V30 3677 C 345.104 -0.758875 -4.50655 0
M  V30 3678 C 346.101 -1.64445 -4.93208 0
M  V30 3679 C 343.786 -0.952725 -4.93182 0
M  V30 3680 C 345.78 -2.70818 -5.77006 0
M  V30 3681 C 343.467 -2.01966 -5.76761 0
M  V30 3682 C 344.465 -2.89574 -6.18576 0
M  V30 3683 O 344.153 -3.94429 -7.00486 0
M  V30 3684 H 343.885 -0.00934786 -0.675935 0
M  V30 3685 H 346.439 -0.674959 -1.93993 0
M  V30 3686 H 344.669 1.19869 -3.67652 0
M  V30 3687 H 346.358 0.890433 -3.96013 0
M  V30 3688 H 347.124 -1.50643 -4.61012 0
M  V30 3689 H 343.003 -0.280247 -4.60147 0
M  V30 3690 H 346.547 -3.3923 -6.09565 0
M  V30 3691 H 342.444 -2.1577 -6.0837 0
M  V30 3692 H 343.212 -3.91568 -7.1876 0
M  V30 3693 N 345.875 1.56104 -0.216619 0
M  V30 3694 C 347.1 2.0301 0.424462 0
M  V30 3695 C 347.525 1.0955 1.52907 0
M  V30 3696 O 346.883 0.0827914 1.81111 0
M  V30 3697 C 346.931 3.4819 0.937883 0
M  V30 3698 O 346.035 3.57865 2.04955 0
M  V30 3699 H 345.376 0.656925 0.0966755 0
M  V30 3700 H 347.906 2.01859 -0.33381 0
M  V30 3701 H 347.916 3.88413 1.24897 0
M  V30 3702 H 346.591 4.15699 0.129387 0
M  V30 3703 H 345.168 3.29527 1.74546 0
M  V30 3704 N 347.353 -0.0568162 1.57498 0
M  V30 3705 C 348.283 -1.06593 2.0775 0
M  V30 3706 C 349.264 -1.39448 0.974082 0
M  V30 3707 O 350.449 -1.48815 1.24771 0
M  V30 3708 C 347.579 -2.37509 2.5339 0
M  V30 3709 C 346.533 -2.1897 3.67745 0
M  V30 3710 C 345.859 -3.55402 3.99492 0
M  V30 3711 C 347.159 -1.59859 4.97235 0
M  V30 3712 H 348.853 -0.647706 2.9231 0
M  V30 3713 H 346.399 -0.310116 1.40621 0
M  V30 3714 H 348.352 -3.08409 2.87162 0
M  V30 3715 H 347.076 -2.8134 1.65878 0
M  V30 3716 H 345.735 -1.50508 3.3428 0
M  V30 3717 H 345.383 -3.9683 3.09088 0
M  V30 3718 H 345.083 -3.43831 4.76502 0
M  V30 3719 H 346.607 -4.27708 4.35773 0
M  V30 3720 H 348.021 -2.20642 5.29141 0
M  V30 3721 H 346.418 -1.58942 5.78669 0
M  V30 3722 H 347.488 -0.561506 4.81638 0
M  V30 3723 N 348.832 -1.54138 -0.328536 0
M  V30 3724 C 350.081 -1.71318 -1.06456 0
M  V30 3725 C 350.394 -0.491109 -1.89334 0
M  V30 3726 O 351.6 -0.54416 -2.65991 0
M  V30 3727 C 350.056 -3.03 -1.94214 0
M  V30 3728 C 349.664 -4.32595 -1.16471 0
M  V30 3729 C 351.408 -3.29544 -2.67583 0
M  V30 3730 C 349.315 -5.55341 -2.03347 0
M  V30 3731 H 348.245 -0.638429 -0.401155 0
M  V30 3732 H 350.896 -1.80633 -0.323106 0
M  V30 3733 H 349.278 -2.87579 -2.72239 0
M  V30 3734 H 350.452 -4.58766 -0.432525 0
M  V30 3735 H 348.767 -4.12777 -0.548063 0
M  V30 3736 H 351.364 -4.18444 -3.3288 0
M  V30 3737 H 351.707 -2.47206 -3.34955 0
M  V30 3738 H 352.24 -3.45809 -1.96623 0
M  V30 3739 H 348.979 -6.40268 -1.40491 0
M  V30 3740 H 348.499 -5.33397 -2.74313 0
M  V30 3741 H 350.178 -5.91557 -2.62049 0
M  V30 3742 N 350.31 0.590341 -1.46126 0
M  V30 3743 C 351.556 1.35082 -1.51264 0
M  V30 3744 C 351.889 1.93534 -0.160711 0
M  V30 3745 O 351.164 1.76045 0.826956 0
M  V30 3746 C 351.447 2.48588 -2.6053 0
M  V30 3747 C 351.3 1.95221 -4.05227 0
M  V30 3748 C 352.619 3.50662 -2.6594 0
M  V30 3749 H 349.738 0.489803 -0.550692 0
M  V30 3750 H 352.38 0.663887 -1.78024 0
M  V30 3751 H 350.53 3.07186 -2.37843 0
M  V30 3752 H 352.202 1.41139 -4.39178 0
M  V30 3753 H 350.445 1.26101 -4.15068 0
M  V30 3754 H 351.116 2.77121 -4.77397 0
M  V30 3755 H 353.592 3.01934 -2.86313 0
M  V30 3756 H 352.468 4.27551 -3.44226 0
M  V30 3757 H 352.729 4.07399 -1.71694 0
M  V30 3758 N 351.788 1.33704 0.83433 0
M  V30 3759 C 353.204 1.13137 1.12571 0
M  V30 3760 C 353.404 -0.0747261 2.01361 0
M  V30 3761 O 352.46 -0.753647 2.4099 0
M  V30 3762 C 353.773 2.42105 1.78342 0
M  V30 3763 C 355.321 2.48054 1.90888 0
M  V30 3764 C 355.796 3.76995 2.60075 0
M  V30 3765 N 357.287 3.78092 2.67584 0
M  V30 3766 C 358.022 4.74574 3.21818 0
M  V30 3767 N 357.518 5.81434 3.76705 0
M  V30 3768 N 359.311 4.62044 3.20112 0
M  V30 3769 H 351.462 2.11 0.243489 0
M  V30 3770 H 353.725 0.932532 0.17055 0
M  V30 3771 H 353.431 3.30391 1.20561 0
M  V30 3772 H 353.305 2.54594 2.7832 0
M  V30 3773 H 355.692 1.60215 2.47821 0
M  V30 3774 H 355.773 2.39502 0.898459 0
M  V30 3775 H 355.417 4.65219 2.03799 0
M  V30 3776 H 355.347 3.82825 3.61597 0
M  V30 3777 H 357.838 3.00865 2.28667 0
M  V30 3778 H 358.151 6.51084 4.16305 0
M  V30 3779 H 356.496 5.85163 3.7498 0
M  V30 3780 H 359.687 3.77716 2.76493 0
M  V30 3781 H 359.86 5.37406 3.62076 0
M  V30 3782 N 353.266 -1.05314 1.17247 0
M  V30 3783 C 354.512 -1.78557 0.961513 0
M  V30 3784 C 354.845 -1.87419 -0.508697 0
M  V30 3785 O 354.12 -1.37307 -1.37757 0
M  V30 3786 C 354.403 -3.22514 1.60176 0
M  V30 3787 C 354.256 -3.21673 3.14399 0
M  V30 3788 C 355.575 -4.20318 1.30463 0
M  V30 3789 H 352.694 -0.6482 0.350723 0
M  V30 3790 H 355.336 -1.23102 1.44727 0
M  V30 3791 H 353.486 -3.69867 1.18871 0
M  V30 3792 H 355.158 -2.82405 3.64753 0
M  V30 3793 H 353.401 -2.60048 3.47214 0
M  V30 3794 H 354.072 -4.23271 3.54324 0
M  V30 3795 H 356.548 -3.81454 1.66229 0
M  V30 3796 H 355.424 -5.19289 1.77848 0
M  V30 3797 H 355.685 -4.41526 0.22521 0
M  V30 3798 N 354.744 -0.972509 -1.24016 0
M  V30 3799 C 355.674 -0.525548 -2.27509 0
M  V30 3800 C 356.655 0.437262 -1.64384 0
M  V30 3801 O 357.84 0.332343 -1.91335 0
M  V30 3802 C 354.97 0.180448 -3.46831 0
M  V30 3803 C 353.924 -0.698859 -4.22256 0
M  V30 3804 C 353.25 0.138903 -5.3452 0
M  V30 3805 C 354.55 -1.98582 -4.83076 0
M  V30 3806 H 356.244 -1.39058 -2.65148 0
M  V30 3807 H 353.79 -0.67009 -1.27459 0
M  V30 3808 H 355.743 0.504387 -4.18371 0
M  V30 3809 H 354.467 1.07987 -3.08231 0
M  V30 3810 H 353.126 -1.00614 -3.52523 0
M  V30 3811 H 352.774 1.03862 -4.9216 0
M  V30 3812 H 352.474 -0.446259 -5.85903 0
M  V30 3813 H 353.998 0.457404 -6.08884 0
M  V30 3814 H 355.412 -1.72715 -5.46665 0
M  V30 3815 H 353.809 -2.5181 -5.44713 0
M  V30 3816 H 354.879 -2.67769 -4.04262 0
M  V30 3817 N 356.222 1.38976 -0.743202 0
M  V30 3818 C 357.468 2.0064 -0.295189 0
M  V30 3819 C 357.801 1.5885 1.11716 0
M  V30 3820 O 357.076 0.821181 1.76315 0
M  V30 3821 C 357.359 3.578 -0.406318 0
M  V30 3822 C 357.212 4.09586 -1.85903 0
M  V30 3823 C 358.531 4.39616 0.206439 0
M  V30 3824 H 355.65 0.728935 -0.108733 0
M  V30 3825 H 358.292 1.65067 -0.940897 0
M  V30 3826 H 356.442 3.88235 0.143419 0
M  V30 3827 H 358.114 3.89837 -2.46627 0
M  V30 3828 H 356.357 3.6284 -2.3776 0
M  V30 3829 H 357.028 5.18708 -1.888 0
M  V30 3830 H 359.504 4.15273 -0.262283 0
M  V30 3831 H 358.38 5.48812 0.0983819 0
M  V30 3832 H 358.641 4.22754 1.2935 0
M  V30 3833 N 357.7 0.491464 1.49741 0
M  V30 3834 C 359.116 0.146835 1.58923 0
M  V30 3835 C 359.316 -1.34804 1.49767 0
M  V30 3836 O 358.372 -2.12317 1.36667 0
M  V30 3837 C 359.685 0.715157 2.92072 0
M  V30 3838 C 361.233 0.680407 3.05515 0
M  V30 3839 C 361.708 1.22663 4.41269 0
M  V30 3840 N 363.199 1.18691 4.47735 0
M  V30 3841 C 363.934 1.57984 5.51207 0
M  V30 3842 N 363.43 2.04824 6.6183 0
M  V30 3843 N 365.223 1.49459 5.41866 0
M  V30 3844 H 357.374 1.46347 1.53936 0
M  V30 3845 H 359.637 0.606453 0.728642 0
M  V30 3846 H 359.343 1.76317 3.04311 0
M  V30 3847 H 359.217 0.17018 3.76816 0
M  V30 3848 H 361.604 -0.358743 2.92911 0
M  V30 3849 H 361.685 1.26242 2.22478 0
M  V30 3850 H 361.329 2.26451 4.54623 0
M  V30 3851 H 361.259 0.620637 5.2293 0
M  V30 3852 H 363.75 0.843605 3.68364 0
M  V30 3853 H 364.063 2.32901 7.3687 0
M  V30 3854 H 362.408 2.08791 6.62896 0
M  V30 3855 H 365.599 1.12692 4.54333 0
M  V30 3856 H 365.772 1.80406 6.22381 0
M  V30 3857 N 359.178 -1.55987 0.224894 0
M  V30 3858 C 360.141 -2.19178 -0.670348 0
M  V30 3859 C 361.141 -1.15461 -1.11917 0
M  V30 3860 O 362.331 -1.40675 -1.02743 0
M  V30 3861 C 359.463 -2.81777 -1.9187 0
M  V30 3862 H 360.656 -2.99662 -0.119364 0
M  V30 3863 H 358.209 -1.5628 -0.0247128 0
M  V30 3864 H 358.944 -2.05172 -2.51147 0
M  V30 3865 H 358.729 -3.57732 -1.60531 0
M  V30 3866 H 360.219 -3.30205 -2.55645 0
M  V30 3867 N 360.656 0.0484629 -1.57525 0
M  V30 3868 C 361.606 1.06246 -2.01732 0
M  V30 3869 C 362.59 1.33155 -0.903245 0
M  V30 3870 O 363.782 1.33065 -1.16717 0
M  V30 3871 C 360.911 2.36943 -2.48421 0
M  V30 3872 C 359.997 2.13208 -3.6661 0
M  V30 3873 N 360.388 1.5947 -4.80003 0
M  V30 3874 C 358.686 2.43581 -3.7361 0
M  V30 3875 C 359.387 1.51092 -5.61735 0
M  V30 3876 N 358.363 1.9797 -5.0627 0
M  V30 3877 H 362.165 0.640675 -2.86832 0
M  V30 3878 H 359.679 0.255134 -1.60383 0
M  V30 3879 H 361.676 3.10374 -2.78341 0
M  V30 3880 H 360.336 2.79818 -1.64718 0
M  V30 3881 H 361.347 1.28008 -5.01831 0
M  V30 3882 H 358.024 2.89662 -3.00669 0
M  V30 3883 H 359.414 1.10199 -6.62801 0
M  V30 3884 N 362.134 1.5431 0.320358 0
M  V30 3885 C 363.55 1.45091 0.664889 0
M  V30 3886 C 363.75 0.626382 1.91517 0
M  V30 3887 O 362.806 0.126443 2.52183 0
M  V30 3888 C 364.119 2.88848 0.83591 0
M  V30 3889 C 365.667 2.9877 0.933046 0
M  V30 3890 C 366.142 4.43683 1.13621 0
M  V30 3891 N 367.633 4.47309 1.20287 0
M  V30 3892 C 368.368 5.56595 1.37801 0
M  V30 3893 N 367.864 6.75844 1.52338 0
M  V30 3894 N 369.657 5.44248 1.40535 0
M  V30 3895 H 361.808 2.06398 -0.501374 0
M  V30 3896 H 364.071 0.933963 -0.162534 0
M  V30 3897 H 363.777 3.51698 -0.0116092 0
M  V30 3898 H 363.651 3.35148 1.73078 0
M  V30 3899 H 366.038 2.36045 1.77107 0
M  V30 3900 H 366.119 2.55796 0.0145782 0
M  V30 3901 H 365.763 5.06995 0.303032 0
M  V30 3902 H 365.693 4.84269 2.0686 0
M  V30 3903 H 368.184 3.61388 1.10485 0
M  V30 3904 H 368.497 7.54892 1.65403 0
M  V30 3905 H 366.842 6.78746 1.4943 0
M  V30 3906 H 370.033 4.50038 1.28777 0
M  V30 3907 H 370.206 6.29473 1.53842 0
M  V30 3908 N 363.613 -0.582584 1.46437 0
M  V30 3909 C 364.563 -1.68654 1.53426 0
M  V30 3910 C 365.547 -1.55971 0.395194 0
M  V30 3911 O 366.739 -1.64884 0.643612 0
M  V30 3912 C 363.868 -3.07439 1.52762 0
M  V30 3913 C 362.954 -3.25418 2.71963 0
M  V30 3914 N 363.345 -3.13556 3.96883 0
M  V30 3915 C 361.643 -3.56357 2.68189 0
M  V30 3916 C 362.344 -3.33543 4.76575 0
M  V30 3917 N 361.32 -3.58704 4.08451 0
M  V30 3918 H 365.122 -1.58014 2.47808 0
M  V30 3919 H 362.636 -0.786617 1.42078 0
M  V30 3920 H 364.633 -3.86671 1.55857 0
M  V30 3921 H 363.293 -3.1921 0.594573 0
M  V30 3922 H 364.304 -2.9142 4.28129 0
M  V30 3923 H 360.981 -3.74812 1.83908 0
M  V30 3924 H 362.371 -3.29555 5.85528 0
M  V30 3925 N 365.091 -1.34144 -0.827227 0
M  V30 3926 C 366.507 -1.13732 -1.11969 0
M  V30 3927 C 366.707 0.0640463 -2.01398 0
M  V30 3928 O 365.763 0.740856 -2.41387 0
M  V30 3929 C 367.076 -2.43047 -1.77055 0
M  V30 3930 C 368.624 -2.49063 -1.89569 0
M  V30 3931 C 369.099 -3.78369 -2.58072 0
M  V30 3932 N 370.59 -3.79505 -2.65575 0
M  V30 3933 C 371.325 -4.76274 -3.19297 0
M  V30 3934 N 370.821 -5.83424 -3.73616 0
M  V30 3935 N 372.614 -4.63735 -3.17658 0
M  V30 3936 H 364.765 -2.11126 -0.232296 0
M  V30 3937 H 367.028 -0.933424 -0.165602 0
M  V30 3938 H 366.734 -3.31025 -1.18807 0
M  V30 3939 H 366.608 -2.56066 -2.76966 0
M  V30 3940 H 368.995 -1.61527 -2.46968 0
M  V30 3941 H 369.076 -2.39975 -0.885745 0
M  V30 3942 H 368.72 -4.66293 -2.01329 0
M  V30 3943 H 368.65 -3.84737 -3.59562 0
M  V30 3944 H 371.141 -3.02074 -2.27068 0
M  V30 3945 H 371.454 -6.53282 -4.12846 0
M  V30 3946 H 369.799 -5.87143 -3.71871 0
M  V30 3947 H 372.99 -3.79177 -2.74486 0
M  V30 3948 H 373.163 -5.39318 -3.59221 0
M  V30 3949 N 366.569 1.04691 -1.17803 0
M  V30 3950 C 367.817 1.7743 -0.967617 0
M  V30 3951 C 368.138 1.88359 0.504574 0
M  V30 3952 O 367.408 1.40402 1.36617 0
M  V30 3953 H 365.988 0.657242 -0.355024 0
M  V30 3954 H 368.65 1.2638 -1.48371 0
M  V30 3955 H 367.746 2.78924 -1.40027 0
M  V30 3956 N 368.047 0.979072 1.23499 0
M  V30 3957 C 368.977 0.537606 2.27227 0
M  V30 3958 C 369.958 -0.428539 1.64613 0
M  V30 3959 O 371.143 -0.322191 1.91509 0
M  V30 3960 C 368.273 -0.162052 3.46922 0
M  V30 3961 C 367.227 0.721242 4.21879 0
M  V30 3962 C 366.553 -0.110555 5.34586 0
M  V30 3963 C 367.853 2.01141 4.82016 0
M  V30 3964 H 369.547 1.40462 2.64406 0
M  V30 3965 H 367.093 0.67684 1.27102 0
M  V30 3966 H 369.046 -0.482192 4.18632 0
M  V30 3967 H 367.77 -1.06351 3.08799 0
M  V30 3968 H 366.429 1.02482 3.51984 0
M  V30 3969 H 366.077 -1.0125 4.92704 0
M  V30 3970 H 365.777 0.477325 5.85658 0
M  V30 3971 H 367.301 -0.425107 6.09118 0
M  V30 3972 H 368.715 1.75612 5.45741 0
M  V30 3973 H 367.112 2.54695 5.43369 0
M  V30 3974 H 368.182 2.69909 4.02836 0
M  V30 3975 N 369.525 -1.3858 0.750561 0
M  V30 3976 C 370.941 -1.53759 0.427824 0
M  V30 3977 C 371.141 -1.71401 -1.05943 0
M  V30 3978 O 370.197 -1.72331 -1.84549 0
M  V30 3979 C 371.51 -2.74642 1.22443 0
M  V30 3980 C 373.058 -2.88489 1.2142 0
M  V30 3981 C 373.533 -4.12329 1.9937 0
M  V30 3982 N 375.024 -4.194 1.96616 0
M  V30 3983 C 375.759 -5.14209 2.53727 0
M  V30 3984 N 375.255 -6.14709 3.19539 0
M  V30 3985 N 377.048 -5.06537 2.43673 0
M  V30 3986 H 369.199 -1.25377 1.71447 0
M  V30 3987 H 371.462 -0.608844 0.726645 0
M  V30 3988 H 371.168 -2.68 2.27747 0
M  V30 3989 H 371.042 -3.67745 0.839273 0
M  V30 3990 H 373.429 -2.94614 0.169232 0
M  V30 3991 H 373.51 -1.96406 1.63885 0
M  V30 3992 H 373.154 -4.06966 3.03877 0
M  V30 3993 H 373.084 -5.03486 1.54302 0
M  V30 3994 H 375.575 -3.47421 1.48684 0
M  V30 3995 H 375.888 -6.8354 3.60545 0
M  V30 3996 H 374.233 -6.1505 3.23633 0
M  V30 3997 H 377.424 -4.26962 1.91889 0
M  V30 3998 H 377.597 -5.80245 2.88479 0
M  V30 3999 N 371.003 -0.499398 -1.49478 0
M  V30 4000 C 372.414 -0.051215 -1.8663 0
M  V30 4001 C 372.765 1.36238 -1.41186 0
M  V30 4002 O 371.89 2.01502 -0.789051 0
M  V30 4003 C 372.485 -0.0861651 -3.3869 0
M  V30 4004 C 371.044 0.30667 -3.75149 0
M  V30 4005 C 370.191 -0.459397 -2.73468 0
M  V30 4006 H 373.142 -0.712264 -1.41818 0
M  V30 4007 H 373.163 0.709507 -3.73826 0
M  V30 4008 H 372.675 -1.11512 -3.71735 0
M  V30 4009 H 370.776 1.33892 -3.47712 0
M  V30 4010 H 370.889 -0.0116669 -4.79099 0
M  V30 4011 H 369.253 0.0905645 -2.54539 0
M  V30 4012 H 370.036 -1.4884 -3.09357 0
M  V30 4013 N 372.481 1.55866 -0.233164 0
M  V30 4014 C 373.897 1.59133 0.121988 0
M  V30 4015 C 374.097 1.25016 1.58029 0
M  V30 4016 O 373.153 0.990922 2.32243 0
M  V30 4017 C 374.466 2.99932 -0.214792 0
M  V30 4018 C 376.014 3.12601 -0.157971 0
M  V30 4019 C 376.489 4.55597 -0.46859 0
M  V30 4020 N 377.98 4.61305 -0.418585 0
M  V30 4021 C 378.715 5.69903 -0.63227 0
M  V30 4022 N 378.211 6.86819 -0.90835 0
M  V30 4023 N 380.004 5.59264 -0.563913 0
M  V30 4024 H 372.155 1.76315 -1.18434 0
M  V30 4025 H 374.418 0.820093 -0.475553 0
M  V30 4026 H 374.124 3.29588 -1.22739 0
M  V30 4027 H 373.998 3.74327 0.464691 0
M  V30 4028 H 376.385 2.82735 0.845283 0
M  V30 4029 H 376.466 2.40511 -0.871102 0
M  V30 4030 H 376.11 4.86182 -1.46934 0
M  V30 4031 H 376.04 5.25928 0.265865 0
M  V30 4032 H 378.531 3.77297 -0.213368 0
M  V30 4033 H 378.844 7.65507 -1.05919 0
M  V30 4034 H 377.189 6.88536 -0.945673 0
M  V30 4035 H 380.38 4.66802 -0.348372 0
M  V30 4036 H 380.553 6.43831 -0.733847 0
M  V30 4037 N 373.959 -0.0401083 1.57549 0
M  V30 4038 C 375.375 -0.395556 1.54621 0
M  V30 4039 C 375.575 -1.77281 0.957799 0
M  V30 4040 O 374.631 -2.45888 0.574031 0
M  V30 4041 C 375.944 -0.307535 2.99123 0
M  V30 4042 C 377.492 -0.385425 3.10618 0
M  V30 4043 C 377.967 -0.326973 4.56831 0
M  V30 4044 N 379.458 -0.386102 4.61588 0
M  V30 4045 C 380.193 -0.363591 5.72246 0
M  V30 4046 N 379.689 -0.29402 6.92176 0
M  V30 4047 N 381.482 -0.412503 5.60584 0
M  V30 4048 H 373.633 0.861325 1.94152 0
M  V30 4049 H 375.896 0.326445 0.890021 0
M  V30 4050 H 375.602 0.638461 3.45856 0
M  V30 4051 H 375.476 -1.10552 3.60636 0
M  V30 4052 H 377.863 -1.32185 2.63839 0
M  V30 4053 H 377.944 0.44171 2.51957 0
M  V30 4054 H 377.588 0.605738 5.04275 0
M  V30 4055 H 377.518 -1.17207 5.13391 0
M  V30 4056 H 380.009 -0.442832 3.75296 0
M  V30 4057 H 380.322 -0.28164 7.72287 0
M  V30 4058 H 378.667 -0.260232 6.94513 0
M  V30 4059 H 381.858 -0.464769 4.65787 0
M  V30 4060 H 382.031 -0.391492 6.46816 0
M  V30 4061 N 375.437 -1.54477 -0.31217 0
M  V30 4062 C 376.369 -1.81011 -1.40598 0
M  V30 4063 C 377.382 -0.692546 -1.47335 0
M  V30 4064 O 378.571 -0.969847 -1.49854 0
M  V30 4065 C 375.671 -1.92307 -2.79054 0
M  V30 4066 C 374.844 -3.22594 -2.95384 0
M  V30 4067 C 373.903 -3.24448 -4.1427 0
M  V30 4068 O 372.929 -3.98035 -4.06887 0
M  V30 4069 N 374.131 -2.49042 -5.24365 0
M  V30 4070 H 376.896 -2.75408 -1.18196 0
M  V30 4071 H 374.457 -1.53914 -0.502202 0
M  V30 4072 H 376.449 -1.90962 -3.56813 0
M  V30 4073 H 375.019 -1.04955 -2.94454 0
M  V30 4074 H 374.239 -3.36806 -2.04831 0
M  V30 4075 H 375.527 -4.08593 -3.03198 0
M  V30 4076 H 374.925 -1.88867 -5.33241 0
M  V30 4077 H 373.482 -2.53463 -6.005 0
M  V30 4078 N 376.915 0.57481 -1.46744 0
M  V30 4079 C 377.862 1.68329 -1.57905 0
M  V30 4080 C 378.832 1.60625 -0.422927 0
M  V30 4081 O 380.017 1.79721 -0.640711 0
M  V30 4082 C 377.157 3.06665 -1.58274 0
M  V30 4083 C 376.27 3.24935 -2.84678 0
M  V30 4084 C 375.405 4.53566 -2.76499 0
M  V30 4085 C 374.444 4.65207 -3.97806 0
M  V30 4086 N 373.581 5.85172 -3.87967 0
M  V30 4087 H 378.421 1.58127 -2.52587 0
M  V30 4088 H 375.958 0.770552 -1.25303 0
M  V30 4089 H 377.916 3.86745 -1.56473 0
M  V30 4090 H 376.546 3.15745 -0.671194 0
M  V30 4091 H 375.598 2.38405 -2.96424 0
M  V30 4092 H 376.91 3.29403 -3.7456 0
M  V30 4093 H 376.064 5.41885 -2.72848 0
M  V30 4094 H 374.803 4.51548 -1.8427 0
M  V30 4095 H 373.808 3.75304 -4.0178 0
M  V30 4096 H 375.033 4.68997 -4.9114 0
M  V30 4097 H 372.979 5.84137 -2.98529 0
M  V30 4098 H 372.896 5.90943 -4.71511 0
M  V30 4099 H 374.164 6.759 -3.88303 0
M  V30 4100 N 378.394 1.34581 0.820102 0
M  V30 4101 C 379.357 1.2628 1.91275 0
M  V30 4102 C 380.357 0.177344 1.59819 0
M  V30 4103 O 381.547 0.430156 1.68806 0
M  V30 4104 C 378.679 0.950327 3.27386 0
M  V30 4105 H 379.872 2.23421 2.00057 0
M  V30 4106 H 377.425 1.1891 1.0144 0
M  V30 4107 H 378.16 -0.0177938 3.24295 0
M  V30 4108 H 377.945 1.73549 3.51601 0
M  V30 4109 H 379.435 0.917492 4.07396 0
M  V30 4110 N 379.872 -1.04064 1.18357 0
M  V30 4111 C 380.802 -2.14001 0.934113 0
M  V30 4112 C 381.783 -1.69616 -0.128186 0
M  V30 4113 O 382.968 -1.94185 0.0244093 0
M  V30 4114 C 380.098 -3.44253 0.459066 0
M  V30 4115 C 379.052 -4.02261 1.46185 0
M  V30 4116 C 378.378 -5.27992 0.844322 0
M  V30 4117 C 379.678 -4.38432 2.83856 0
M  V30 4118 H 381.372 -2.35127 1.85352 0
M  V30 4119 H 378.918 -1.12998 0.892604 0
M  V30 4120 H 380.871 -4.20522 0.271907 0
M  V30 4121 H 379.595 -3.22813 -0.495912 0
M  V30 4122 H 378.254 -3.28074 1.63595 0
M  V30 4123 H 377.902 -5.02862 -0.117845 0
M  V30 4124 H 377.602 -5.67765 1.51384 0
M  V30 4125 H 379.126 -6.06938 0.667693 0
M  V30 4126 H 380.54 -5.05688 2.70098 0
M  V30 4127 H 378.937 -4.89254 3.47491 0
M  V30 4128 H 380.007 -3.4826 3.37406 0
M  V30 4129 N 381.35 -0.985608 -1.22978 0
M  V30 4130 C 382.766 -0.695104 -1.43668 0
M  V30 4131 C 382.966 0.736866 -1.87543 0
M  V30 4132 O 382.022 1.50868 -2.02473 0
M  V30 4133 C 383.335 -1.69447 -2.48412 0
M  V30 4134 C 384.883 -1.70909 -2.62219 0
M  V30 4135 C 385.358 -2.6969 -3.70178 0
M  V30 4136 N 386.849 -2.6824 -3.77626 0
M  V30 4137 C 387.584 -3.41339 -4.60733 0
M  V30 4138 N 387.08 -4.24015 -5.4789 0
M  V30 4139 N 388.873 -3.30079 -4.54977 0
M  V30 4140 H 381.024 -1.91054 -0.928016 0
M  V30 4141 H 383.287 -0.823553 -0.469536 0
M  V30 4142 H 382.993 -2.7188 -2.23102 0
M  V30 4143 H 382.867 -1.48147 -3.46889 0
M  V30 4144 H 385.254 -0.691785 -2.86877 0
M  V30 4145 H 385.335 -1.96276 -1.6404 0
M  V30 4146 H 384.979 -3.71566 -3.46268 0
M  V30 4147 H 384.909 -2.41595 -4.67909 0
M  V30 4148 H 387.4 -2.08243 -3.15346 0
M  V30 4149 H 387.713 -4.76636 -6.08308 0
M  V30 4150 H 386.058 -4.28104 -5.47496 0
M  V30 4151 H 389.249 -2.64937 -3.85909 0
M  V30 4152 H 389.422 -3.87308 -5.19516 0
M  V30 4153 N 382.828 1.3818 -0.7579 0
M  V30 4154 C 383.761 2.28055 -0.0814093 0
M  V30 4155 C 384.739 1.45603 0.723779 0
M  V30 4156 O 385.923 1.74961 0.701491 0
M  V30 4157 C 383.05 3.2676 0.891394 0
M  V30 4158 C 382.096 4.26153 0.171909 0
M  V30 4159 S 382.929 5.23434 -1.13035 0
M  V30 4160 C 384.085 6.25694 -0.160727 0
M  V30 4161 H 384.318 2.85082 -0.84353 0
M  V30 4162 H 381.851 1.44246 -0.550671 0
M  V30 4163 H 383.809 3.8414 1.44731 0
M  V30 4164 H 382.47 2.68706 1.62652 0
M  V30 4165 H 381.663 4.95738 0.908843 0
M  V30 4166 H 381.265 3.72691 -0.312606 0
M  V30 4167 H 383.557 6.74161 0.671773 0
M  V30 4168 H 384.5 7.03285 -0.824353 0
M  V30 4169 H 384.908 5.64064 0.221892 0
M  V30 4170 N 384.306 0.507319 1.49211 0
M  V30 4171 C 385.555 -0.0368315 2.01666 0
M  V30 4172 C 385.868 -1.37459 1.39156 0
M  V30 4173 O 387.074 -2.00579 1.82976 0
M  V30 4174 C 385.53 -0.116089 3.59713 0
M  V30 4175 C 385.138 1.2154 4.31198 0
M  V30 4176 C 386.882 -0.610268 4.2009 0
M  V30 4177 C 384.789 1.09796 5.81119 0
M  V30 4178 H 383.719 -0.0175376 0.753796 0
M  V30 4179 H 386.37 0.647691 1.71689 0
M  V30 4180 H 384.752 -0.8652 3.86433 0
M  V30 4181 H 385.926 1.9783 4.16173 0
M  V30 4182 H 384.241 1.64352 3.82593 0
M  V30 4183 H 386.838 -0.715742 5.29888 0
M  V30 4184 H 387.181 -1.61064 3.8388 0
M  V30 4185 H 387.714 0.0824916 3.97714 0
M  V30 4186 H 384.453 2.0728 6.21864 0
M  V30 4187 H 383.973 0.376058 5.9862 0
M  V30 4188 H 385.652 0.779281 6.4229 0
M  V30 4189 N 385.784 -1.5574 0.241426 0
M  V30 4190 C 386.714 -2.24133 -0.654722 0
M  V30 4191 C 387.695 -1.21974 -1.1856 0
M  V30 4192 O 388.88 -1.50612 -1.22595 0
M  V30 4193 C 386.01 -2.93659 -1.85423 0
M  V30 4194 C 384.964 -4.0246 -1.45636 0
M  V30 4195 C 384.29 -4.59383 -2.73626 0
M  V30 4196 C 385.59 -5.18468 -0.631506 0
M  V30 4197 H 387.284 -2.99281 -0.0844353 0
M  V30 4198 H 384.83 -1.43947 -0.0391707 0
M  V30 4199 H 386.783 -3.40203 -2.48676 0
M  V30 4200 H 385.507 -2.15991 -2.44981 0
M  V30 4201 H 384.166 -3.56676 -0.847202 0
M  V30 4202 H 383.814 -3.78422 -3.3137 0
M  V30 4203 H 383.514 -5.32826 -2.4773 0
M  V30 4204 H 385.038 -5.08658 -3.37786 0
M  V30 4205 H 386.452 -5.61272 -1.1682 0
M  V30 4206 H 384.849 -5.98266 -0.468831 0
M  V30 4207 H 385.919 -4.8358 0.357506 0
M  V30 4208 N 387.262 0.0317525 -1.57568 0
M  V30 4209 C 388.225 1.01783 -2.0536 0
M  V30 4210 C 389.225 1.29203 -0.957253 0
M  V30 4211 O 390.415 1.24251 -1.22095 0
M  V30 4212 C 387.547 2.35137 -2.46827 0
M  V30 4213 H 388.74 0.605062 -2.93733 0
M  V30 4214 H 386.293 0.278514 -1.53799 0
M  V30 4215 H 387.028 2.81168 -1.61602 0
M  V30 4216 H 386.813 2.16566 -3.26866 0
M  V30 4217 H 388.303 3.05938 -2.84239 0
M  V30 4218 N 388.74 1.54641 0.303973 0
M  V30 4219 C 389.986 1.74038 1.04109 0
M  V30 4220 C 390.319 0.523051 1.87024 0
M  V30 4221 O 389.594 -0.479874 1.88487 0
M  V30 4222 C 389.877 3.02761 1.94955 0
M  V30 4223 C 389.73 4.34787 1.1524 0
M  V30 4224 C 391.049 3.27336 2.94175 0
M  V30 4225 H 388.168 0.63323 0.377079 0
M  V30 4226 H 390.81 1.87354 0.316001 0
M  V30 4227 H 388.96 2.9154 2.56782 0
M  V30 4228 H 390.632 4.57922 0.557236 0
M  V30 4229 H 388.875 4.31407 0.455053 0
M  V30 4230 H 389.546 5.21116 1.8205 0
M  V30 4231 H 392.022 3.38148 2.42477 0
M  V30 4232 H 390.898 4.18726 3.54908 0
M  V30 4233 H 391.159 2.45491 3.67677 0
M  V30 4234 N 390.218 -0.567019 1.47046 0
M  V30 4235 C 391.464 -1.32658 1.53394 0
M  V30 4236 C 391.797 -1.93254 0.19148 0
M  V30 4237 O 391.072 -1.77338 -0.798844 0
M  V30 4238 C 391.355 -2.44412 2.64452 0
M  V30 4239 C 391.208 -1.88749 4.08282 0
M  V30 4240 C 392.527 -3.46387 2.71485 0
M  V30 4241 H 389.646 -0.48098 0.558415 0
M  V30 4242 H 392.288 -0.635481 1.79058 0
M  V30 4243 H 390.438 -3.03363 2.427 0
M  V30 4244 H 392.11 -1.34134 4.41368 0
M  V30 4245 H 390.353 -1.19481 4.17021 0
M  V30 4246 H 391.024 -2.69491 4.81745 0
M  V30 4247 H 393.5 -2.9734 2.91081 0
M  V30 4248 H 392.376 -4.2202 3.50985 0
M  V30 4249 H 392.637 -4.04616 1.78153 0
M  V30 4250 N 391.696 -1.35014 -0.812953 0
M  V30 4251 C 392.626 -1.30069 -1.93919 0
M  V30 4252 C 393.607 -0.176275 -1.69184 0
M  V30 4253 O 394.792 -0.370227 -1.90638 0
M  V30 4254 C 391.922 -1.06547 -3.30552 0
M  V30 4255 C 390.876 -2.15561 -3.69753 0
M  V30 4256 C 390.202 -1.77214 -5.04479 0
M  V30 4257 C 391.502 -3.57476 -3.808 0
M  V30 4258 H 393.196 -2.24303 -1.98314 0
M  V30 4259 H 390.742 -1.07977 -0.952736 0
M  V30 4260 H 392.695 -1.01729 -4.08937 0
M  V30 4261 H 391.419 -0.0875719 -3.26483 0
M  V30 4262 H 390.078 -2.19466 -2.9365 0
M  V30 4263 H 389.726 -0.780589 -4.96906 0
M  V30 4264 H 389.426 -2.50184 -5.31678 0
M  V30 4265 H 390.95 -1.7391 -5.8531 0
M  V30 4266 H 392.364 -3.55929 -4.4943 0
M  V30 4267 H 390.761 -4.29152 -4.19462 0
M  V30 4268 H 391.831 -3.94091 -2.82525 0
M  V30 4269 N 393.175 1.03435 -1.18907 0
M  V30 4270 C 394.421 1.77005 -0.989798 0
M  V30 4271 C 394.754 1.88205 0.478816 0
M  V30 4272 O 394.029 1.39481 1.35556 0
M  V30 4273 C 394.312 3.19925 -1.65287 0
M  V30 4274 C 394.165 3.1663 -3.19477 0
M  V30 4275 C 395.484 4.18189 -1.37134 0
M  V30 4276 H 392.603 0.642538 -0.360991 0
M  V30 4277 H 395.245 1.20784 -1.46667 0
M  V30 4278 H 393.395 3.67929 -1.24741 0
M  V30 4279 H 395.067 2.76567 -3.692 0
M  V30 4280 H 393.31 2.54491 -3.51307 0
M  V30 4281 H 393.981 4.1758 -3.61013 0
M  V30 4282 H 396.457 3.78761 -1.72276 0
M  V30 4283 H 395.333 5.16394 -1.86087 0
M  V30 4284 H 395.594 4.41112 -0.295424 0
M  V30 4285 N 394.653 0.992116 1.22453 0
M  V30 4286 C 395.9 0.667534 1.91181 0
M  V30 4287 C 396.228 -0.800317 1.77271 0
M  V30 4288 O 395.483 -1.59421 1.13505 0
M  V30 4289 C 395.782 1.01832 3.42586 0
M  V30 4290 C 395.448 2.47831 3.76684 0
M  V30 4291 C 394.11 2.87729 3.85701 0
M  V30 4292 C 396.462 3.42466 3.92895 0
M  V30 4293 C 393.79 4.21252 4.08367 0
M  V30 4294 C 396.142 4.75648 4.17064 0
M  V30 4295 C 394.806 5.15288 4.24305 0
M  V30 4296 H 394.076 0.244268 0.699581 0
M  V30 4297 H 396.723 1.24816 1.45235 0
M  V30 4298 H 395.028 0.355769 3.90181 0
M  V30 4299 H 396.725 0.745228 3.94014 0
M  V30 4300 H 393.315 2.15905 3.70247 0
M  V30 4301 H 397.499 3.12814 3.85307 0
M  V30 4302 H 392.755 4.51554 4.122 0
M  V30 4303 H 396.929 5.48924 4.2855 0
M  V30 4304 H 394.556 6.18769 4.41621 0
M  V30 4305 N 396.131 -1.37776 0.765217 0
M  V30 4306 C 397.378 -1.99849 0.326588 0
M  V30 4307 C 397.706 -1.60746 -1.09504 0
M  V30 4308 O 396.961 -0.84202 -1.76659 0
M  V30 4309 C 397.26 -3.5504 0.410053 0
M  V30 4310 C 396.926 -4.13891 1.78899 0
M  V30 4311 C 395.588 -4.29678 2.16635 0
M  V30 4312 C 397.94 -4.46236 2.69301 0
M  V30 4313 C 395.268 -4.7511 3.44221 0
M  V30 4314 C 397.62 -4.93089 3.9629 0
M  V30 4315 C 396.284 -5.07082 4.34078 0
M  V30 4316 H 395.554 -0.7313 0.119507 0
M  V30 4317 H 398.201 -1.64645 0.977968 0
M  V30 4318 H 396.506 -3.90451 -0.324878 0
M  V30 4319 H 398.203 -4.00966 0.0520699 0
M  V30 4320 H 394.793 -4.02026 1.48569 0
M  V30 4321 H 398.977 -4.3363 2.41409 0
M  V30 4322 H 394.233 -4.84129 3.73402 0
M  V30 4323 H 398.407 -5.17084 4.66472 0
M  V30 4324 H 396.034 -5.42046 5.33001 0
M  V30 4325 N 397.609 -0.515225 -1.4894 0
M  V30 4326 C 398.855 0.0242508 -2.02785 0
M  V30 4327 C 399.188 1.35323 -1.39289 0
M  V30 4328 O 398.463 1.87041 -0.533469 0
M  V30 4329 C 398.746 0.16184 -3.59736 0
M  V30 4330 C 398.599 -1.19127 -4.33738 0
M  V30 4331 C 399.918 0.895719 -4.30888 0
M  V30 4332 H 397.037 0.00733914 -0.736963 0
M  V30 4333 H 399.679 -0.669395 -1.77818 0
M  V30 4334 H 397.829 0.752624 -3.8114 0
M  V30 4335 H 399.501 -1.82202 -4.23792 0
M  V30 4336 H 397.744 -1.77695 -3.95736 0
M  V30 4337 H 398.415 -1.04815 -5.41957 0
M  V30 4338 H 400.891 0.394528 -4.14225 0
M  V30 4339 H 399.767 0.960859 -5.40425 0
M  V30 4340 H 400.028 1.9427 -3.97129 0
M  V30 4341 N 399.087 1.5561 -0.249682 0
M  V30 4342 C 400.327 2.00916 0.37579 0
M  V30 4343 C 400.691 1.13409 1.54927 0
M  V30 4344 O 401.892 1.48183 2.24266 0
M  V30 4345 C 400.163 3.48949 0.772633 0
M  V30 4346 S 401.722 4.16261 1.38824 0
M  V30 4347 H 398.54 0.70112 0.118117 0
M  V30 4348 H 401.142 1.92052 -0.365567 0
M  V30 4349 H 399.846 4.103 -0.090683 0
M  V30 4350 H 399.377 3.61745 1.5461 0
M  V30 4351 H 401.392 4.17778 2.67724 0
M  V30 4352 N 400.565 -0.0233959 1.57583 0
M  V30 4353 C 401.811 -0.708611 1.90657 0
M  V30 4354 C 402.166 -1.7266 0.848895 0
M  V30 4355 O 401.459 -1.91075 -0.141749 0
M  V30 4356 C 401.653 -1.41428 3.28227 0
M  V30 4357 C 401.482 -0.466155 4.47277 0
M  V30 4358 C 400.252 -0.085117 5.05228 0
M  V30 4359 C 402.45 0.257836 5.13653 0
M  V30 4360 N 400.432 0.863672 6.07794 0
M  V30 4361 C 401.803 1.06209 6.10835 0
M  V30 4362 C 403.858 0.324174 4.96844 0
M  V30 4363 C 402.561 1.9266 6.93018 0
M  V30 4364 C 404.587 1.17583 5.79593 0
M  V30 4365 C 403.949 1.96799 6.7635 0
M  V30 4366 H 400.048 -0.233222 0.746412 0
M  V30 4367 H 402.632 0.0314512 1.94675 0
M  V30 4368 H 400.803 -2.12477 3.25128 0
M  V30 4369 H 402.535 -2.05233 3.488 0
M  V30 4370 H 399.29 -0.448516 4.71471 0
M  V30 4371 H 399.714 1.33274 6.63752 0
M  V30 4372 H 404.356 -0.273975 4.21911 0
M  V30 4373 H 402.074 2.53552 7.67292 0
M  V30 4374 H 405.66 1.23076 5.68633 0
M  V30 4375 H 404.54 2.61635 7.39268 0
M  V30 4376 N 402.043 -1.548 -0.295768 0
M  V30 4377 C 402.973 -1.89115 -1.36959 0
M  V30 4378 C 403.954 -0.75059 -1.52644 0
M  V30 4379 O 405.139 -1.00678 -1.66065 0
M  V30 4380 C 402.269 -2.14307 -2.73295 0
M  V30 4381 C 401.223 -3.30151 -2.72368 0
M  V30 4382 C 400.549 -3.40772 -4.12042 0
M  V30 4383 C 401.849 -4.67126 -2.33646 0
M  V30 4384 H 403.543 -2.79053 -1.08488 0
M  V30 4385 H 401.089 -1.34266 -0.520443 0
M  V30 4386 H 403.042 -2.36898 -3.48507 0
M  V30 4387 H 401.766 -1.21145 -3.03301 0
M  V30 4388 H 400.425 -3.0749 -1.99613 0
M  V30 4389 H 400.073 -2.45117 -4.39234 0
M  V30 4390 H 399.773 -4.18645 -4.12322 0
M  V30 4391 H 401.297 -3.6563 -4.89027 0
M  V30 4392 H 402.711 -4.89414 -2.98575 0
M  V30 4393 H 401.108 -5.47751 -2.45129 0
M  V30 4394 H 402.178 -4.67489 -1.28772 0
M  V30 4395 N 403.521 0.559213 -1.47345 0
M  V30 4396 C 404.932 1.14134 -1.47751 0
M  V30 4397 C 405.283 1.94834 -0.231103 0
M  V30 4398 O 404.408 2.05957 0.664137 0
M  V30 4399 C 405.003 2.07653 -2.67705 0
M  V30 4400 C 403.562 2.61141 -2.71076 0
M  V30 4401 C 402.709 1.3748 -2.40821 0
M  V30 4402 H 405.66 0.345917 -1.54884 0
M  V30 4403 H 405.681 2.91497 -2.44561 0
M  V30 4404 H 405.193 1.4889 -3.58404 0
M  V30 4405 H 403.294 3.23707 -1.84511 0
M  V30 4406 H 403.407 3.02272 -3.7171 0
M  V30 4407 H 401.771 1.68086 -1.91362 0
M  V30 4408 H 402.554 0.805135 -3.33725 0
M  V30 4409 N 404.999 1.35443 0.805782 0
M  V30 4410 C 405.909 1.30546 1.94923 0
M  V30 4411 C 406.925 0.210233 1.72725 0
M  V30 4412 O 408.101 0.43975 1.9654 0
M  V30 4413 C 405.166 1.07782 3.29521 0
M  V30 4414 C 404.227 2.26625 3.64609 0
M  V30 4415 C 403.46 2.04938 4.92784 0
M  V30 4416 O 403.683 1.01624 5.61274 0
M  V30 4417 O 402.617 2.9232 5.26149 0
M  V30 4418 H 406.443 2.26779 2.02002 0
M  V30 4419 H 404.028 1.15823 0.943682 0
M  V30 4420 H 405.91 0.969392 4.10098 0
M  V30 4421 H 404.585 0.146003 3.23371 0
M  V30 4422 H 403.492 2.43033 2.84404 0
M  V30 4423 H 404.825 3.18257 3.75464 0
M  V30 4424 N 406.477 -1.02803 1.19454 0
M  V30 4425 C 407.425 -2.13213 0.929673 0
M  V30 4426 C 408.419 -1.69011 -0.114806 0
M  V30 4427 O 409.625 -1.79967 0.0345147 0
M  V30 4428 H 406 -0.69662 0.28324 0
M  V30 4429 H 407.971 -2.32744 1.86743 0
M  V30 4430 C 406.72 -3.4429 0.485797 0
M  V30 4431 H 406.043 -3.7872 1.28105 0
M  V30 4432 H 407.483 -4.22638 0.339582 0
M  V30 4433 C 405.942 -3.27258 -0.800244 0
M  V30 4434 O 406.472 -3.55967 -1.86146 0
M  V30 4435 N 404.678 -2.80545 -0.75781 0
M  V30 4436 H 404.225 -2.57382 0.106039 0
M  V30 4437 H 404.183 -2.6953 -1.61867 0
M  V30 4438 N 407.956 -0.998596 -1.21925 0
M  V30 4439 C 409.202 -0.678667 -1.91107 0
M  V30 4440 C 409.535 0.78791 -1.77498 0
M  V30 4441 O 408.81 1.57043 -1.1475 0
M  V30 4442 C 409.093 -1.09245 -3.43129 0
M  V30 4443 C 408.946 -2.61801 -3.6576 0
M  V30 4444 C 410.265 -0.649984 -4.35274 0
M  V30 4445 H 407.384 -0.248025 -0.694012 0
M  V30 4446 H 410.026 -1.24314 -1.43688 0
M  V30 4447 H 408.176 -0.612171 -3.83647 0
M  V30 4448 H 409.848 -3.17543 -3.34611 0
M  V30 4449 H 408.091 -3.03609 -3.09845 0
M  V30 4450 H 408.762 -2.85804 -4.7225 0
M  V30 4451 H 411.238 -1.0626 -4.02303 0
M  V30 4452 H 410.114 -0.967743 -5.40302 0
M  V30 4453 H 410.375 0.449139 -4.39813 0
M  V30 4454 N 409.434 1.37368 -0.772513 0
M  V30 4455 C 410.681 1.99673 -0.337182 0
M  V30 4456 C 411.009 1.61324 1.0865 0
M  V30 4457 O 410.264 0.851377 1.7621 0
M  V30 4458 C 410.563 3.54817 -0.428876 0
M  V30 4459 C 410.229 4.12936 -1.81092 0
M  V30 4460 C 408.891 4.28523 -2.1891 0
M  V30 4461 C 411.243 4.44801 -2.71664 0
M  V30 4462 C 408.571 4.73277 -3.46735 0
M  V30 4463 C 410.923 4.90981 -3.98899 0
M  V30 4464 C 409.587 5.04773 -4.36761 0
M  V30 4465 H 408.857 0.730656 -0.123384 0
M  V30 4466 H 411.504 1.64124 -0.986686 0
M  V30 4467 H 409.809 3.90618 0.304167 0
M  V30 4468 H 411.506 4.00933 -0.0733334 0
M  V30 4469 H 408.096 4.01233 -1.50699 0
M  V30 4470 H 412.28 4.32344 -2.43706 0
M  V30 4471 H 407.536 4.82142 -3.75964 0
M  V30 4472 H 411.71 5.14603 -4.69208 0
M  V30 4473 H 409.337 5.39211 -5.35868 0
M  V30 4474 N 410.912 0.523116 1.48665 0
M  V30 4475 C 412.161 -0.01544 2.01694 0
M  V30 4476 C 412.474 -1.35975 1.40606 0
M  V30 4477 O 413.68 -1.98627 1.85093 0
M  V30 4478 C 412.136 -0.0779303 3.59816 0
M  V30 4479 C 411.744 1.26107 4.29885 0
M  V30 4480 C 413.488 -0.565678 4.20714 0
M  V30 4481 C 411.395 1.15954 5.79921 0
M  V30 4482 H 410.325 -0.00954163 0.75394 0
M  V30 4483 H 412.976 0.665865 1.70993 0
M  V30 4484 H 411.358 -0.824165 3.87329 0
M  V30 4485 H 412.532 2.02233 4.14051 0
M  V30 4486 H 410.847 1.68401 3.80828 0
M  V30 4487 H 413.444 -0.6595 5.30617 0
M  V30 4488 H 413.787 -1.56984 3.85567 0
M  V30 4489 H 414.32 0.12467 3.97605 0
M  V30 4490 H 411.059 2.13864 6.19631 0
M  V30 4491 H 410.579 0.439529 5.98187 0
M  V30 4492 H 412.258 0.847361 6.41427 0
M  V30 4493 N 412.39 -1.55475 0.257931 0
M  V30 4494 C 413.615 -2.04064 -0.370488 0
M  V30 4495 C 414.04 -1.13565 -1.49948 0
M  V30 4496 O 413.398 -0.130781 -1.80828 0
M  V30 4497 C 413.446 -3.50554 -0.845237 0
M  V30 4498 O 412.55 -3.63173 -1.95394 0
M  V30 4499 H 411.891 -0.659257 -0.0792243 0
M  V30 4500 H 414.421 -2.00903 0.387212 0
M  V30 4501 H 414.431 -3.91588 -1.14555 0
M  V30 4502 H 413.106 -4.15896 -0.0191259 0
M  V30 4503 H 411.683 -3.34039 -1.65748 0
M  V30 4504 N 413.868 0.0150385 -1.57593 0
M  V30 4505 C 415.114 0.704043 -1.90187 0
M  V30 4506 C 415.447 1.74249 -0.857366 0
M  V30 4507 O 414.722 1.94092 0.125843 0
M  V30 4508 C 415.005 1.36087 -3.33395 0
M  V30 4509 C 414.858 0.334981 -4.48551 0
M  V30 4510 C 416.177 2.29112 -3.7576 0
M  V30 4511 H 413.296 0.254475 -0.691673 0
M  V30 4512 H 415.938 -0.0331678 -1.89971 0
M  V30 4513 H 414.088 1.98922 -3.3371 0
M  V30 4514 H 415.76 -0.292534 -4.60372 0
M  V30 4515 H 414.003 -0.344325 -4.32431 0
M  V30 4516 H 414.674 0.833316 -5.45674 0
M  V30 4517 H 417.15 1.76308 -3.76902 0
M  V30 4518 H 416.026 2.72043 -4.76743 0
M  V30 4519 H 416.287 3.16385 -3.08793 0
M  V30 4520 N 415.346 1.54954 0.287554 0
M  V30 4521 C 416.296 1.8322 1.357 0
M  V30 4522 C 417.28 0.690152 1.45347 0
M  V30 4523 O 418.472 0.951137 1.49273 0
M  V30 4524 C 415.601 2.09481 2.71979 0
M  V30 4525 C 414.687 3.29906 2.66502 0
M  V30 4526 N 415.078 4.50154 2.30641 0
M  V30 4527 C 413.376 3.32203 2.97585 0
M  V30 4528 C 414.077 5.32209 2.34794 0
M  V30 4529 N 413.053 4.70258 2.72688 0
M  V30 4530 H 416.855 2.73746 1.0696 0
M  V30 4531 H 414.369 1.54635 0.496167 0
M  V30 4532 H 416.366 2.27882 3.49107 0
M  V30 4533 H 415.026 1.2023 3.0162 0
M  V30 4534 H 416.037 4.76515 2.02865 0
M  V30 4535 H 412.714 2.53101 3.32034 0
M  V30 4536 H 414.104 6.38321 2.09753 0
M  V30 4537 N 416.824 -0.551391 1.4764 0
M  V30 4538 C 417.754 -1.66757 1.63445 0
M  V30 4539 C 418.735 -1.63077 0.483742 0
M  V30 4540 O 419.92 -1.80607 0.71377 0
M  V30 4541 C 417.05 -3.05387 1.65396 0
M  V30 4542 C 416.004 -3.23918 2.79752 0
M  V30 4543 C 415.33 -4.63393 2.66779 0
M  V30 4544 C 416.63 -3.08735 4.21284 0
M  V30 4545 H 418.324 -1.53786 2.56886 0
M  V30 4546 H 415.87 -0.738415 1.23626 0
M  V30 4547 H 417.823 -3.83325 1.75043 0
M  V30 4548 H 416.547 -3.19332 0.685195 0
M  V30 4549 H 415.206 -2.48391 2.69625 0
M  V30 4550 H 414.854 -4.74144 1.67918 0
M  V30 4551 H 414.554 -4.7674 3.43501 0
M  V30 4552 H 416.078 -5.43458 2.78364 0
M  V30 4553 H 417.492 -3.76484 4.32357 0
M  V30 4554 H 415.889 -3.33588 4.98838 0
M  V30 4555 H 416.959 -2.0541 4.39243 0
M  V30 4556 N 418.302 -1.35869 -0.798587 0
M  V30 4557 C 419.232 -1.32118 -1.92528 0
M  V30 4558 C 420.213 -0.194209 -1.68988 0
M  V30 4559 O 421.398 -0.390426 -1.90235 0
M  V30 4560 C 418.528 -1.10047 -3.29404 0
M  V30 4561 C 417.482 -2.19471 -3.67446 0
M  V30 4562 C 416.808 -1.82555 -5.02571 0
M  V30 4563 C 418.108 -3.61495 -3.76987 0
M  V30 4564 H 419.802 -2.26394 -1.95924 0
M  V30 4565 H 417.348 -1.08981 -0.94123 0
M  V30 4566 H 419.301 -1.06061 -4.07835 0
M  V30 4567 H 418.025 -0.122195 -3.26371 0
M  V30 4568 H 416.684 -2.22568 -2.91306 0
M  V30 4569 H 416.332 -0.833249 -4.9605 0
M  V30 4570 H 416.032 -2.5581 -5.28995 0
M  V30 4571 H 417.556 -1.80108 -5.83432 0
M  V30 4572 H 418.97 -3.60676 -4.4563 0
M  V30 4573 H 417.367 -4.33577 -4.14887 0
M  V30 4574 H 418.437 -3.97065 -2.78329 0
M  V30 4575 N 419.78 1.02168 -1.19998 0
M  V30 4576 C 420.712 2.10705 -0.901994 0
M  V30 4577 C 421.725 1.6244 0.108216 0
M  V30 4578 O 422.914 1.78082 -0.12214 0
M  V30 4579 C 420.014 3.37291 -0.329834 0
M  V30 4580 C 419.187 4.14714 -1.39035 0
M  V30 4581 C 418.246 5.19606 -0.830432 0
M  V30 4582 O 417.272 5.48809 -1.50989 0
M  V30 4583 N 418.474 5.79366 0.362696 0
M  V30 4584 H 421.239 2.36856 -1.83628 0
M  V30 4585 H 418.8 1.18518 -1.10296 0
M  V30 4586 H 420.792 4.04657 0.0587633 0
M  V30 4587 H 419.362 3.0843 0.508891 0
M  V30 4588 H 418.582 3.42392 -1.9535 0
M  V30 4589 H 419.87 4.63226 -2.10474 0
M  V30 4590 H 419.268 5.57968 0.932081 0
M  V30 4591 H 417.825 6.48106 0.69299 0
M  V30 4592 N 421.258 1.00505 1.21394 0
M  V30 4593 C 422.674 0.717873 1.42544 0
M  V30 4594 C 422.874 -0.706936 1.88692 0
M  V30 4595 O 421.93 -1.47627 2.04847 0
M  V30 4596 C 423.243 1.73377 2.45684 0
M  V30 4597 C 424.791 1.75059 2.59467 0
M  V30 4598 C 425.266 2.75545 3.6584 0
M  V30 4599 N 426.757 2.74213 3.73311 0
M  V30 4600 C 427.492 3.48626 4.55245 0
M  V30 4601 N 426.988 4.32678 5.41075 0
M  V30 4602 N 428.781 3.37276 4.49668 0
M  V30 4603 H 420.932 1.92506 0.897503 0
M  V30 4604 H 423.195 0.830919 0.456375 0
M  V30 4605 H 422.901 2.75395 2.18748 0
M  V30 4606 H 422.775 1.53647 3.44489 0
M  V30 4607 H 425.162 0.737337 2.8574 0
M  V30 4608 H 425.243 1.98861 1.60897 0
M  V30 4609 H 424.887 3.77028 3.40313 0
M  V30 4610 H 424.817 2.49009 4.64007 0
M  V30 4611 H 427.308 2.13234 3.11993 0
M  V30 4612 H 427.621 4.86253 6.00648 0
M  V30 4613 H 425.966 4.3676 5.40616 0
M  V30 4614 H 429.157 2.71043 3.81646 0
M  V30 4615 H 429.33 3.95524 5.13288 0
M  V30 4616 N 422.737 -1.36956 0.779787 0
M  V30 4617 C 423.965 -2.03755 0.359398 0
M  V30 4618 C 424.38 -1.58807 -1.02106 0
M  V30 4619 O 423.737 -0.773024 -1.6532 0
M  V30 4620 C 423.788 -3.59251 0.402568 0
M  V30 4621 O 423.509 -4.02557 1.72858 0
M  V30 4622 C 425.01 -4.43291 -0.0284068 0
M  V30 4623 H 422.23 -0.654148 0.149437 0
M  V30 4624 H 424.774 -1.75128 1.05595 0
M  V30 4625 H 422.929 -3.86621 -0.245478 0
M  V30 4626 H 423.343 -4.97111 1.67275 0
M  V30 4627 H 424.817 -5.51975 0.0529466 0
M  V30 4628 H 425.294 -4.25719 -1.07982 0
M  V30 4629 H 425.9 -4.21163 0.591758 0
M  V30 4630 N 424.215 -0.530993 -1.48385 0
M  V30 4631 C 425.147 0.268353 -2.27624 0
M  V30 4632 C 426.16 0.903525 -1.35426 0
M  V30 4633 O 427.349 0.781796 -1.60469 0
M  V30 4634 C 424.449 1.39535 -3.08842 0
M  V30 4635 C 423.622 0.861913 -4.28824 0
M  V30 4636 C 422.681 1.87016 -4.91845 0
M  V30 4637 O 421.707 1.4267 -5.5103 0
M  V30 4638 N 422.909 3.20238 -4.84178 0
M  V30 4639 H 425.674 -0.41123 -2.96865 0
M  V30 4640 H 423.235 -0.365387 -1.57723 0
M  V30 4641 H 425.227 2.06803 -3.47871 0
M  V30 4642 H 423.797 1.97859 -2.42014 0
M  V30 4643 H 423.017 0.0132126 -3.94198 0
M  V30 4644 H 424.305 0.484415 -5.06489 0
M  V30 4645 H 423.703 3.58932 -4.37246 0
M  V30 4646 H 422.26 3.83136 -5.27305 0
M  V30 4647 N 425.693 1.55336 -0.266172 0
M  V30 4648 C 427.104 1.85236 0.233315 0
M  V30 4649 C 427.455 1.18816 1.56132 0
M  V30 4650 O 426.58 0.473307 2.11161 0
M  V30 4651 C 427.175 3.36059 0.430113 0
M  V30 4652 C 425.734 3.66116 0.873842 0
M  V30 4653 C 424.881 2.77274 -0.0380016 0
M  V30 4654 H 427.832 1.51004 -0.488214 0
M  V30 4655 H 427.853 3.58681 1.26998 0
M  V30 4656 H 427.365 3.84373 -0.536588 0
M  V30 4657 H 425.466 3.23295 1.85233 0
M  V30 4658 H 425.579 4.73699 0.717358 0
M  V30 4659 H 423.943 2.50198 0.476759 0
M  V30 4660 H 424.726 3.284 -1.00042 0
M  V30 4661 N 427.171 -0.0066808 1.57599 0
M  V30 4662 C 428.419 -0.691552 1.899 0
M  V30 4663 C 428.74 -1.74682 0.866672 0
M  V30 4664 O 428.01 -1.95661 -0.0968189 0
M  V30 4665 H 426.59 -0.258416 0.700878 0
M  V30 4666 H 429.252 0.0326655 1.94873 0
M  V30 4667 H 428.348 -1.16702 2.8946 0
M  V30 4668 N 428.649 -1.55105 -0.279332 0
M  V30 4669 C 429.612 -1.86783 -1.32834 0
M  V30 4670 C 430.612 -0.74199 -1.42657 0
M  V30 4671 O 431.802 -1.0102 -1.41918 0
M  V30 4672 C 428.934 -2.06746 -2.71052 0
M  V30 4673 H 430.127 -2.8055 -1.05979 0
M  V30 4674 H 427.68 -1.47499 -0.517087 0
M  V30 4675 H 428.415 -1.15339 -3.03097 0
M  V30 4676 H 428.2 -2.88711 -2.65309 0
M  V30 4677 H 429.69 -2.32549 -3.46858 0
M  V30 4678 N 430.127 0.543554 -1.4793 0
M  V30 4679 C 431.09 1.63156 -1.60975 0
M  V30 4680 C 432.09 1.53346 -0.483899 0
M  V30 4681 O 433.28 1.5726 -0.749339 0
M  V30 4682 C 430.412 3.02743 -1.56716 0
M  V30 4683 H 431.605 1.52934 -2.57975 0
M  V30 4684 H 429.158 0.764557 -1.36324 0
M  V30 4685 H 429.893 3.18484 -0.611418 0
M  V30 4686 H 429.678 3.11272 -2.38438 0
M  V30 4687 H 431.168 3.81871 -1.6901 0
M  V30 4688 N 431.605 1.3629 0.791371 0
M  V30 4689 C 433.016 1.27225 1.36641 0
M  V30 4690 C 433.367 -0.0887968 1.95999 0
M  V30 4691 O 432.492 -0.990207 1.92416 0
M  V30 4692 C 433.087 2.30375 2.48421 0
M  V30 4693 C 431.646 2.25004 3.01746 0
M  V30 4694 C 430.793 2.15259 1.7481 0
M  V30 4695 H 433.744 1.47198 0.593173 0
M  V30 4696 H 433.765 1.93905 3.27385 0
M  V30 4697 H 433.277 3.29422 2.05189 0
M  V30 4698 H 431.378 1.29417 3.49403 0
M  V30 4699 H 431.491 3.1761 3.58693 0
M  V30 4700 H 429.855 1.61482 1.96966 0
M  V30 4701 H 430.638 3.16191 1.33709 0
M  V30 4702 N 433.083 -1.0153 1.20538 0
M  V30 4703 C 434.323 -1.76689 1.02763 0
M  V30 4704 C 434.687 -1.87065 -0.432513 0
M  V30 4705 O 435.888 -2.58684 -0.730481 0
M  V30 4706 C 434.159 -3.14707 1.69393 0
M  V30 4707 S 435.718 -4.05886 1.66738 0
M  V30 4708 H 432.536 -0.608076 0.368463 0
M  V30 4709 H 435.138 -1.21558 1.53114 0
M  V30 4710 H 433.842 -3.04782 2.74838 0
M  V30 4711 H 433.373 -3.74913 1.19179 0
M  V30 4712 H 435.388 -4.91221 0.70117 0
M  V30 4713 N 434.561 -1.01147 -1.20859 0
M  V30 4714 C 435.508 -0.577354 -2.23462 0
M  V30 4715 C 436.478 0.399922 -1.61214 0
M  V30 4716 O 437.663 0.300515 -1.88419 0
M  V30 4717 C 434.803 0.083372 -3.44999 0
M  V30 4718 C 433.916 -0.937856 -4.21697 0
M  V30 4719 C 433.051 -0.248717 -5.30617 0
M  V30 4720 C 432.09 -1.25705 -5.99053 0
M  V30 4721 N 431.227 -0.594939 -6.99575 0
M  V30 4722 H 436.067 -1.45695 -2.59956 0
M  V30 4723 H 433.604 -0.729428 -1.27741 0
M  V30 4724 H 435.562 0.483535 -4.14388 0
M  V30 4725 H 434.192 0.926645 -3.09214 0
M  V30 4726 H 433.244 -1.45622 -3.51423 0
M  V30 4727 H 434.556 -1.70493 -4.68757 0
M  V30 4728 H 433.71 0.207215 -6.06346 0
M  V30 4729 H 432.449 0.55071 -4.84581 0
M  V30 4730 H 431.454 -1.72343 -5.2209 0
M  V30 4731 H 432.679 -2.05767 -6.47176 0
M  V30 4732 H 430.625 0.184713 -6.5574 0
M  V30 4733 H 430.542 -1.30017 -7.44736 0
M  V30 4734 H 431.81 -0.162427 -7.79331 0
M  V30 4735 N 436.039 1.36541 -0.78704 0
M  V30 4736 C 436.971 2.28761 -0.141773 0
M  V30 4737 C 437.984 1.49365 0.647599 0
M  V30 4738 O 439.173 1.71836 0.483173 0
M  V30 4739 C 436.273 3.28771 0.822368 0
M  V30 4740 C 435.446 4.3732 0.0835594 0
M  V30 4741 C 434.505 5.17307 0.963296 0
M  V30 4742 O 433.531 5.67638 0.421419 0
M  V30 4743 N 434.733 5.33515 2.28784 0
M  V30 4744 H 437.498 2.84777 -0.933919 0
M  V30 4745 H 435.059 1.48682 -0.640735 0
M  V30 4746 H 437.051 3.79169 1.41468 0
M  V30 4747 H 435.621 2.73412 1.5154 0
M  V30 4748 H 434.841 3.88118 -0.689809 0
M  V30 4749 H 436.129 5.0701 -0.426358 0
M  V30 4750 H 435.527 4.94234 2.75226 0
M  V30 4751 H 434.084 5.87165 2.82985 0
M  V30 4752 N 437.518 0.538854 1.48102 0
M  V30 4753 C 438.743 0.0102694 2.07397 0
M  V30 4754 C 439.168 -1.26562 1.39153 0
M  V30 4755 O 438.526 -1.75357 0.460387 0
M  V30 4756 C 438.574 -0.187602 3.60112 0
M  V30 4757 O 437.678 -1.25432 3.92862 0
M  V30 4758 H 437.019 0.0430975 0.6626 0
M  V30 4759 H 439.549 0.749301 1.90385 0
M  V30 4760 H 439.559 -0.407517 4.0596 0
M  V30 4761 H 438.234 0.744386 4.09184 0
M  V30 4762 H 436.811 -1.01636 3.58782 0
M  V30 4763 N 438.996 -1.55193 0.274407 0
M  V30 4764 C 440.243 -1.99581 -0.342579 0
M  V30 4765 C 440.571 -1.1628 -1.55914 0
M  V30 4766 O 439.826 -0.22029 -1.94456 0
M  V30 4767 C 440.125 -3.49019 -0.769458 0
M  V30 4768 C 439.791 -4.49598 0.342389 0
M  V30 4769 C 438.453 -4.76821 0.647686 0
M  V30 4770 C 440.805 -5.0964 1.09163 0
M  V30 4771 C 438.133 -5.61354 1.70581 0
M  V30 4772 C 440.485 -5.95323 2.13948 0
M  V30 4773 C 439.149 -6.20867 2.45113 0
M  V30 4774 H 438.419 -0.730319 -0.125358 0
M  V30 4775 H 441.066 -1.87529 0.387971 0
M  V30 4776 H 439.371 -3.58544 -1.57967 0
M  V30 4777 H 441.068 -3.8077 -1.25757 0
M  V30 4778 H 437.658 -4.28496 0.094318 0
M  V30 4779 H 441.842 -4.88632 0.869024 0
M  V30 4780 H 437.098 -5.79392 1.9523 0
M  V30 4781 H 441.272 -6.40881 2.72478 0
M  V30 4782 H 438.899 -6.86162 3.27239 0
M  V30 4783 N 440.474 -0.00167713 -1.576 0
M  V30 4784 C 441.89 0.354422 -1.55615 0
M  V30 4785 C 442.09 1.74679 -1.00447 0
M  V30 4786 O 441.146 2.4428 -0.639022 0
M  V30 4787 C 442.459 0.22812 -2.99833 0
M  V30 4788 C 444.007 0.302934 -3.11531 0
M  V30 4789 C 444.482 0.205737 -4.57538 0
M  V30 4790 N 445.973 0.263584 -4.62449 0
M  V30 4791 C 446.708 0.211742 -5.73009 0
M  V30 4792 N 446.204 0.110399 -6.92712 0
M  V30 4793 N 447.997 0.263729 -5.61481 0
M  V30 4794 H 440.148 -0.912498 -1.918 0
M  V30 4795 H 442.411 -0.349928 -0.881053 0
M  V30 4796 H 442.117 -0.729934 -3.44042 0
M  V30 4797 H 441.991 1.00951 -3.6344 0
M  V30 4798 H 444.378 1.25143 -2.67251 0
M  V30 4799 H 444.459 -0.508357 -2.50698 0
M  V30 4800 H 444.103 -0.739225 -5.02492 0
M  V30 4801 H 444.033 1.03554 -5.16318 0
M  V30 4802 H 446.524 0.343173 -3.76339 0
M  V30 4803 H 446.837 0.0767828 -7.72762 0
M  V30 4804 H 445.182 0.0760025 -6.94958 0
M  V30 4805 H 448.373 0.34111 -4.66855 0
M  V30 4806 H 448.546 0.219862 -6.47627 0
M  V30 4807 N 441.952 1.55251 0.271103 0
M  V30 4808 C 442.902 1.84649 1.33749 0
M  V30 4809 C 443.886 0.705529 1.44607 0
M  V30 4810 O 445.078 0.966916 1.48256 0
M  V30 4811 C 442.207 2.12354 2.69742 0
M  V30 4812 C 441.293 3.32714 2.62988 0
M  V30 4813 N 441.684 4.52575 2.25853 0
M  V30 4814 C 439.982 3.35341 2.94045 0
M  V30 4815 C 440.683 5.34669 2.29136 0
M  V30 4816 N 439.659 4.73123 2.67685 0
M  V30 4817 H 443.461 2.74865 1.0405 0
M  V30 4818 H 440.975 1.55152 0.479738 0
M  V30 4819 H 442.972 2.31572 3.4667 0
M  V30 4820 H 441.632 1.23422 3.00328 0
M  V30 4821 H 442.643 4.78639 1.978 0
M  V30 4822 H 439.32 2.56608 3.2933 0
M  V30 4823 H 440.71 6.40509 2.02971 0
M  V30 4824 N 443.43 -0.535701 1.48216 0
M  V30 4825 C 444.393 -1.623 1.61838 0
M  V30 4826 C 445.393 -1.53087 0.492024 0
M  V30 4827 O 446.583 -1.5686 0.757668 0
M  V30 4828 C 443.715 -3.01907 1.58319 0
M  V30 4829 H 444.908 -1.51564 2.58783 0
M  V30 4830 H 442.461 -0.757317 1.36727 0
M  V30 4831 H 443.196 -3.18155 0.628299 0
M  V30 4832 H 442.981 -3.10003 2.40085 0
M  V30 4833 H 444.471 -3.80969 1.71033 0
M  V30 4834 N 444.908 -1.36708 -0.784132 0
M  V30 4835 C 445.858 -1.2799 -1.88686 0
M  V30 4836 C 446.842 -0.170282 -1.59996 0
M  V30 4837 O 448.034 -0.403571 -1.72338 0
M  V30 4838 C 445.163 -1.07674 -3.25977 0
M  V30 4839 C 444.249 -2.23127 -3.60659 0
M  V30 4840 N 444.64 -3.48467 -3.66612 0
M  V30 4841 C 442.938 -2.15009 -3.90752 0
M  V30 4842 C 443.639 -4.24525 -3.97685 0
M  V30 4843 N 442.615 -3.53524 -4.12943 0
M  V30 4844 H 446.417 -2.22927 -1.91522 0
M  V30 4845 H 443.931 -1.29503 -0.979933 0
M  V30 4846 H 445.928 -0.995151 -4.04849 0
M  V30 4847 H 444.588 -0.13643 -3.24413 0
M  V30 4848 H 445.599 -3.82534 -3.49125 0
M  V30 4849 H 442.276 -1.28963 -3.97083 0
M  V30 4850 H 443.666 -5.32944 -4.0917 0
M  V30 4851 N 446.386 1.0089 -1.21074 0
M  V30 4852 C 447.797 1.56056 -1.02486 0
M  V30 4853 C 448.148 1.91728 0.416506 0
M  V30 4854 O 447.273 1.73066 1.29912 0
M  V30 4855 C 447.868 2.83563 -1.85411 0
M  V30 4856 C 446.427 3.3523 -1.71166 0
M  V30 4857 C 445.574 2.0846 -1.82865 0
M  V30 4858 H 448.525 0.831818 -1.35154 0
M  V30 4859 H 448.546 3.55286 -1.36205 0
M  V30 4860 H 448.058 2.57569 -2.9031 0
M  V30 4861 H 446.159 3.66167 -0.689361 0
M  V30 4862 H 446.272 4.06913 -2.52901 0
M  V30 4863 H 444.636 2.21275 -1.26132 0
M  V30 4864 H 445.419 1.84883 -2.89263 0
M  V30 4865 N 447.864 1.01787 1.20321 0
M  V30 4866 C 448.794 0.609625 2.25401 0
M  V30 4867 C 449.775 -0.375951 1.65893 0
M  V30 4868 O 450.96 -0.261101 1.92437 0
M  V30 4869 C 448.09 -0.0515995 3.47262 0
M  V30 4870 C 447.044 0.855095 4.19371 0
M  V30 4871 C 446.37 0.0595757 5.34667 0
M  V30 4872 C 447.67 2.16374 4.75373 0
M  V30 4873 H 449.364 1.48803 2.59804 0
M  V30 4874 H 446.91 0.716934 1.24884 0
M  V30 4875 H 448.863 -0.348764 4.19954 0
M  V30 4876 H 447.587 -0.964726 3.12027 0
M  V30 4877 H 446.246 1.13628 3.48546 0
M  V30 4878 H 445.894 -0.85524 4.95676 0
M  V30 4879 H 445.594 0.663406 5.83843 0
M  V30 4880 H 447.118 -0.231105 6.10162 0
M  V30 4881 H 448.532 1.92885 5.39878 0
M  V30 4882 H 446.929 2.71853 5.34991 0
M  V30 4883 H 447.999 2.82589 3.94045 0
M  V30 4884 N 449.342 -1.36122 0.79427 0
M  V30 4885 C 450.57 -2.03362 0.380989 0
M  V30 4886 C 450.985 -1.59881 -1.00416 0
M  V30 4887 O 450.342 -0.790515 -1.6449 0
M  V30 4888 C 450.393 -3.58804 0.440649 0
M  V30 4889 O 450.114 -4.007 1.77118 0
M  V30 4890 C 451.615 -4.43296 0.0186117 0
M  V30 4891 H 448.835 -0.652526 0.156367 0
M  V30 4892 H 451.379 -1.73998 1.07447 0
M  V30 4893 H 449.534 -3.8686 -0.204458 0
M  V30 4894 H 449.948 -4.95309 1.72538 0
M  V30 4895 H 451.422 -5.51887 0.111488 0
M  V30 4896 H 451.899 -4.2684 -1.03461 0
M  V30 4897 H 452.505 -4.20512 0.636395 0
M  V30 4898 N 450.82 -0.546701 -1.47814 0
M  V30 4899 C 452.068 -0.0187037 -2.02091 0
M  V30 4900 C 452.389 1.33168 -1.42447 0
M  V30 4901 O 451.659 1.86619 -0.595839 0
M  V30 4902 H 450.239 -0.00392531 -0.74699 0
M  V30 4903 H 452.901 -0.714327 -1.81338 0
M  V30 4904 H 451.997 0.0772219 -3.12004 0
M  V30 4905 N 452.299 1.55045 -0.282633 0
M  V30 4906 C 453.249 2.19514 0.616249 0
M  V30 4907 C 454.233 1.16216 1.11277 0
M  V30 4908 O 455.425 1.42004 1.05659 0
M  V30 4909 C 452.554 2.92548 1.7964 0
M  V30 4910 C 451.64 4.03142 1.31671 0
M  V30 4911 N 452.031 5.0276 0.553695 0
M  V30 4912 C 450.329 4.1635 1.59903 0
M  V30 4913 C 451.03 5.80923 0.30054 0
M  V30 4914 N 450.006 5.3651 0.875116 0
M  V30 4915 H 453.808 2.93889 0.0255363 0
M  V30 4916 H 451.322 1.62169 -0.0865362 0
M  V30 4917 H 453.319 3.37188 2.45173 0
M  V30 4918 H 451.979 2.19685 2.39099 0
M  V30 4919 H 452.99 5.17512 0.20032 0
M  V30 4920 H 449.667 3.54682 2.20243 0
M  V30 4921 H 451.057 6.7118 -0.311053 0
M  V30 4922 N 453.777 0.010035 1.57597 0
M  V30 4923 C 455.026 -0.671945 1.90178 0
M  V30 4924 C 455.339 -1.74376 0.886131 0
M  V30 4925 O 456.545 -2.48107 1.10252 0
M  V30 4926 C 455.001 -1.24636 3.3763 0
M  V30 4927 C 454.609 -0.208838 4.47513 0
M  V30 4928 C 456.353 -1.90595 3.79307 0
M  V30 4929 C 454.26 -0.793814 5.86048 0
M  V30 4930 H 453.19 -0.25474 0.709665 0
M  V30 4931 H 455.841 0.0722206 1.83358 0
M  V30 4932 H 454.223 -2.04152 3.3932 0
M  V30 4933 H 455.397 0.562463 4.57354 0
M  V30 4934 H 453.712 0.350889 4.14919 0
M  V30 4935 H 456.309 -2.35284 4.80151 0
M  V30 4936 H 456.652 -2.74074 3.13352 0
M  V30 4937 H 457.185 -1.17798 3.79958 0
M  V30 4938 H 453.924 0.00240855 6.555 0
M  V30 4939 H 453.444 -1.53404 5.79851 0
M  V30 4940 H 455.123 -1.2894 6.34022 0
M  V30 4941 N 455.255 -1.55392 -0.262866 0
M  V30 4942 C 456.501 -1.76737 -0.99458 0
M  V30 4943 C 456.834 -0.572453 -1.85571 0
M  V30 4944 O 456.109 0.429732 -1.89693 0
M  V30 4945 C 456.392 -3.07824 -1.8686 0
M  V30 4946 C 456.245 -4.3769 -1.03672 0
M  V30 4947 C 457.564 -3.35021 -2.85393 0
M  V30 4948 H 454.683 -0.643005 -0.360157 0
M  V30 4949 H 457.325 -1.88126 -0.266216 0
M  V30 4950 H 455.475 -2.98245 -2.48962 0
M  V30 4951 H 457.147 -4.59238 -0.43563 0
M  V30 4952 H 455.39 -4.32461 -0.340513 0
M  V30 4953 H 456.061 -5.25759 -1.6817 0
M  V30 4954 H 458.537 -3.44458 -2.33426 0
M  V30 4955 H 457.413 -4.27989 -3.43681 0
M  V30 4956 H 457.674 -2.55153 -3.61039 0
M  V30 4957 N 456.733 0.527833 -1.48498 0
M  V30 4958 C 457.681 1.65313 -1.63628 0
M  V30 4959 C 458.675 1.6177 -0.502676 0
M  V30 4960 O 459.881 1.66601 -0.681469 0
M  V30 4961 H 456.256 0.547518 -0.515488 0
M  V30 4962 H 458.227 1.49696 -2.58135 0
M  V30 4963 C 456.976 3.03576 -1.6952 0
M  V30 4964 H 456.299 3.06997 -2.56111 0
M  V30 4965 H 457.739 3.81923 -1.84149 0
M  V30 4966 C 456.198 3.34089 -0.43432 0
M  V30 4967 O 456.728 3.99151 0.451852 0
M  V30 4968 N 454.934 2.88991 -0.305368 0
M  V30 4969 H 454.481 2.36222 -1.02747 0
M  V30 4970 H 454.439 3.09776 0.537249 0
M  V30 4971 N 458.211 1.37122 0.776871 0
M  V30 4972 C 459.141 1.35164 1.90402 0
M  V30 4973 C 460.122 0.221069 1.68657 0
M  V30 4974 O 461.307 0.420642 1.8959 0
M  V30 4975 C 458.437 1.15274 3.27611 0
M  V30 4976 C 457.391 2.25289 3.63908 0
M  V30 4977 C 456.717 1.90527 4.99603 0
M  V30 4978 C 458.017 3.67446 3.71188 0
M  V30 4979 H 459.711 2.29482 1.92297 0
M  V30 4980 H 457.257 1.10465 0.923773 0
M  V30 4981 H 459.21 1.12536 4.06096 0
M  V30 4982 H 457.934 0.174102 3.26136 0
M  V30 4983 H 456.593 2.27174 2.87728 0
M  V30 4984 H 456.241 0.91206 4.94662 0
M  V30 4985 H 455.941 2.64193 5.24858 0
M  V30 4986 H 457.465 1.89367 5.80493 0
M  V30 4987 H 458.879 3.67719 4.39836 0
M  V30 4988 H 457.276 4.40123 4.07936 0
M  V30 4989 H 458.346 4.01443 2.71977 0
M  V30 4990 N 459.689 -1.00246 1.21608 0
M  V30 4991 C 460.652 -2.07233 0.979133 0
M  V30 4992 C 461.652 -1.6072 -0.0508219 0
M  V30 4993 O 462.842 -1.73196 0.186712 0
M  V30 4994 C 459.974 -3.37546 0.477016 0
M  V30 4995 H 461.167 -2.29687 1.92831 0
M  V30 4996 H 458.72 -1.17261 1.03342 0
M  V30 4997 H 459.455 -3.20773 -0.476966 0
M  V30 4998 H 459.24 -3.72638 1.21997 0
M  V30 4999 H 460.73 -4.16285 0.331181 0
M  V30 5000 N 461.167 -1.02423 -1.1978 0
M  V30 5001 C 462.13 -0.605703 -2.21052 0
M  V30 5002 C 463.13 0.328209 -1.57415 0
M  V30 5003 O 464.32 0.115853 -1.73814 0
M  V30 5004 C 461.452 0.114366 -3.40708 0
M  V30 5005 H 462.645 -1.5017 -2.59594 0
M  V30 5006 H 460.198 -0.814888 -1.33376 0
M  V30 5007 H 460.933 1.02492 -3.07678 0
M  V30 5008 H 460.718 -0.556641 -3.88129 0
M  V30 5009 H 462.208 0.394272 -4.15735 0
M  V30 5010 N 462.645 1.35699 -0.801477 0
M  V30 5011 C 463.892 1.98913 -0.379459 0
M  V30 5012 C 464.22 1.63592 1.05204 0
M  V30 5013 O 463.475 0.888563 1.74365 0
M  V30 5014 C 463.774 3.53828 -0.504041 0
M  V30 5015 C 463.44 4.09002 -1.8981 0
M  V30 5016 C 462.102 4.23783 -2.27951 0
M  V30 5017 C 464.454 4.38939 -2.81038 0
M  V30 5018 C 461.782 4.65816 -3.56696 0
M  V30 5019 C 464.134 4.82409 -4.09224 0
M  V30 5020 C 462.798 4.95395 -4.4737 0
M  V30 5021 H 462.068 0.727874 -0.138854 0
M  V30 5022 H 464.715 1.61994 -1.02128 0
M  V30 5023 H 463.02 3.91175 0.221242 0
M  V30 5024 H 464.717 4.00687 -0.158361 0
M  V30 5025 H 461.307 3.97946 -1.59176 0
M  V30 5026 H 465.491 4.27077 -2.52821 0
M  V30 5027 H 460.747 4.74059 -3.86106 0
M  V30 5028 H 464.921 5.04535 -4.80018 0
M  V30 5029 H 462.548 5.27724 -5.47185 0
M  V30 5030 N 464.123 0.554532 1.47522 0
M  V30 5031 C 465.348 0.0322661 2.07375 0
M  V30 5032 C 465.773 -1.25079 1.40488 0
M  V30 5033 O 465.131 -1.74859 0.47896 0
M  V30 5034 C 465.179 -0.149397 3.6029 0
M  V30 5035 O 464.283 -1.21259 3.9417 0
M  V30 5036 H 463.624 0.0501228 0.662106 0
M  V30 5037 H 466.154 0.769452 1.8958 0
M  V30 5038 H 466.164 -0.364437 4.06369 0
M  V30 5039 H 464.839 0.787743 4.08372 0
M  V30 5040 H 463.416 -0.97825 3.5984 0
M  V30 5041 N 465.601 -1.54893 0.290851 0
M  V30 5042 C 466.549 -2.24579 -0.605576 0
M  V30 5043 C 467.543 -1.24824 -1.14522 0
M  V30 5044 O 468.749 -1.42706 -1.09704 0
M  V30 5045 H 465.124 -0.720946 -0.213872 0
M  V30 5046 H 467.095 -2.984 0.0048173 0
M  V30 5047 C 465.844 -2.99224 -1.77088 0
M  V30 5048 H 465.167 -3.75782 -1.36484 0
M  V30 5049 H 466.607 -3.51281 -2.3744 0
M  V30 5050 C 465.066 -2.05602 -2.66888 0
M  V30 5051 O 465.596 -1.61745 -3.67698 0
M  V30 5052 N 463.802 -1.71771 -2.34399 0
M  V30 5053 H 463.349 -2.07633 -1.52468 0
M  V30 5054 H 463.307 -1.09403 -2.94751 0
M  V30 5055 N 467.08 -0.0183926 -1.57589 0
M  V30 5056 C 468.305 0.676634 -1.96052 0
M  V30 5057 C 468.73 1.6548 -0.894307 0
M  V30 5058 O 468.088 1.80712 0.145849 0
M  V30 5059 C 468.136 1.36872 -3.33614 0
M  V30 5060 O 467.24 2.48372 -3.29219 0
M  V30 5061 H 466.581 0.1786 -0.63953 0
M  V30 5062 H 469.111 -0.077056 -2.04455 0
M  V30 5063 H 469.121 1.72797 -3.69601 0
M  V30 5064 H 467.796 0.651636 -4.10763 0
M  V30 5065 H 466.373 2.14639 -3.04934 0
M  V30 5066 N 468.558 1.5553 0.254621 0
M  V30 5067 C 469.798 1.7876 0.991179 0
M  V30 5068 C 470.162 0.586669 1.82817 0
M  V30 5069 O 471.363 0.697585 2.5959 0
M  V30 5070 C 469.634 3.06679 1.83529 0
M  V30 5071 S 471.193 3.511 2.632 0
M  V30 5072 H 468.011 0.627916 0.333531 0
M  V30 5073 H 470.613 1.93766 0.259778 0
M  V30 5074 H 469.317 3.92158 1.20996 0
M  V30 5075 H 468.848 2.94388 2.60958 0
M  V30 5076 H 470.863 3.11823 3.8598 0
M  V30 5077 N 470.036 -0.519951 1.48776 0
M  V30 5078 C 470.966 -1.63253 1.66945 0
M  V30 5079 C 471.947 -1.62014 0.518224 0
M  V30 5080 O 473.132 -1.79053 0.751919 0
M  V30 5081 C 470.262 -3.0181 1.71836 0
M  V30 5082 C 469.216 -3.17911 2.8656 0
M  V30 5083 C 468.542 -4.5763 2.76548 0
M  V30 5084 C 469.842 -2.99729 4.27738 0
M  V30 5085 H 471.536 -1.48302 2.6009 0
M  V30 5086 H 469.082 -0.712026 1.25165 0
M  V30 5087 H 471.035 -3.79525 1.83135 0
M  V30 5088 H 469.759 -3.17806 0.752775 0
M  V30 5089 H 468.418 -2.42616 2.74833 0
M  V30 5090 H 468.066 -4.70476 1.77937 0
M  V30 5091 H 467.766 -4.69346 3.53536 0
M  V30 5092 H 469.29 -5.37431 2.89828 0
M  V30 5093 H 470.704 -3.67228 4.40246 0
M  V30 5094 H 469.101 -3.22932 5.05801 0
M  V30 5095 H 470.171 -1.96047 4.43502 0
M  V30 5096 N 471.514 -1.37532 -0.769588 0
M  V30 5097 C 472.462 -1.33561 -1.90432 0
M  V30 5098 C 473.456 -0.224027 -1.67912 0
M  V30 5099 O 474.662 -0.392174 -1.75676 0
M  V30 5100 H 471.037 -0.416279 -0.626271 0
M  V30 5101 H 473.008 -2.29348 -1.90899 0
M  V30 5102 C 471.757 -1.16162 -3.27722 0
M  V30 5103 H 471.08 -2.00951 -3.45628 0
M  V30 5104 H 472.52 -1.17434 -4.07413 0
M  V30 5105 C 470.979 0.132583 -3.36639 0
M  V30 5106 O 471.509 1.11539 -3.85904 0
M  V30 5107 N 469.715 0.184013 -2.90017 0
M  V30 5108 H 469.262 -0.616415 -2.50116 0
M  V30 5109 H 469.22 1.04956 -2.96364 0
M  V30 5110 N 472.992 0.995999 -1.22138 0
M  V30 5111 C 474.403 1.54961 -1.04135 0
M  V30 5112 C 474.754 1.92159 0.396147 0
M  V30 5113 O 473.879 1.74435 1.28069 0
M  V30 5114 C 474.474 2.81581 -1.88408 0
M  V30 5115 C 473.033 3.33396 -1.74712 0
M  V30 5116 C 472.18 2.06509 -1.85066 0
M  V30 5117 H 475.131 0.817436 -1.36028 0
M  V30 5118 H 475.152 3.53822 -1.39966 0
M  V30 5119 H 474.664 2.54476 -2.93025 0
M  V30 5120 H 472.765 3.65416 -0.728159 0
M  V30 5121 H 472.878 4.04208 -2.57202 0
M  V30 5122 H 471.242 2.19925 -1.28472 0
M  V30 5123 H 472.025 1.81804 -2.91208 0
M  V30 5124 N 474.47 1.03057 1.19235 0
M  V30 5125 C 475.4 0.633497 2.24742 0
M  V30 5126 C 476.381 -0.358335 1.66283 0
M  V30 5127 O 477.566 -0.240676 1.92703 0
M  V30 5128 C 474.696 -0.0147648 3.47297 0
M  V30 5129 C 473.65 0.899527 4.18441 0
M  V30 5130 C 472.976 0.116281 5.34574 0
M  V30 5131 C 474.276 2.21404 4.73051 0
M  V30 5132 H 475.97 1.5155 2.58211 0
M  V30 5133 H 473.516 0.73014 1.24117 0
M  V30 5134 H 475.469 -0.304202 4.20301 0
M  V30 5135 H 474.193 -0.931577 3.13032 0
M  V30 5136 H 472.852 1.17319 3.47321 0
M  V30 5137 H 472.5 -0.802619 4.96555 0
M  V30 5138 H 472.2 0.725293 5.83107 0
M  V30 5139 H 473.724 -0.166376 6.10373 0
M  V30 5140 H 475.138 1.98601 5.37802 0
M  V30 5141 H 473.535 2.77512 5.32078 0
M  V30 5142 H 474.605 2.86752 3.91026 0
M  V30 5143 N 475.948 -1.35272 0.808662 0
M  V30 5144 C 477.197 -1.97963 0.386483 0
M  V30 5145 C 477.51 -1.64866 -1.05255 0
M  V30 5146 O 478.716 -2.20937 -1.57794 0
M  V30 5147 C 477.172 -3.54162 0.640096 0
M  V30 5148 C 476.78 -3.96166 2.0918 0
M  V30 5149 C 478.524 -4.23553 0.283376 0
M  V30 5150 C 476.431 -5.4522 2.29106 0
M  V30 5151 H 475.361 -0.740742 0.140774 0
M  V30 5152 H 478.012 -1.5431 0.993012 0
M  V30 5153 H 476.394 -3.95983 -0.0364117 0
M  V30 5154 H 477.568 -3.65491 2.80629 0
M  V30 5155 H 475.883 -3.3967 2.40859 0
M  V30 5156 H 478.48 -5.33124 0.410273 0
M  V30 5157 H 478.823 -4.09105 -0.770659 0
M  V30 5158 H 479.356 -3.8716 0.913884 0
M  V30 5159 H 476.095 -5.64638 3.32962 0
M  V30 5160 H 475.615 -5.77457 1.62184 0
M  V30 5161 H 477.294 -6.1171 2.1076 0
M  V30 5162 N 477.426 -0.562348 -1.47226 0
M  V30 5163 C 478.656 -0.0451619 -2.06551 0
M  V30 5164 C 479.064 1.25626 -1.41473 0
M  V30 5165 O 478.407 1.76563 -0.507061 0
M  V30 5166 C 478.469 0.216068 -3.5885 0
M  V30 5167 C 478.133 -0.996691 -4.45999 0
M  V30 5168 C 479.13 -1.90358 -4.83797 0
M  V30 5169 C 476.815 -1.21281 -4.87438 0
M  V30 5170 C 478.809 -3.01023 -5.6184 0
M  V30 5171 C 476.496 -2.32255 -5.65244 0
M  V30 5172 C 477.494 -3.21956 -6.02356 0
M  V30 5173 O 477.182 -4.31005 -6.78594 0
M  V30 5174 H 476.914 -0.0451646 -0.67449 0
M  V30 5175 H 479.468 -0.776842 -1.90143 0
M  V30 5176 H 477.698 1.00212 -3.7349 0
M  V30 5177 H 479.387 0.679264 -4.00176 0
M  V30 5178 H 480.153 -1.74868 -4.52378 0
M  V30 5179 H 476.032 -0.523767 -4.58015 0
M  V30 5180 H 479.576 -3.71064 -5.90726 0
M  V30 5181 H 475.473 -2.47715 -5.96077 0
M  V30 5182 H 476.241 -4.29118 -6.96994 0
M  V30 5183 N 478.904 1.54736 -0.299062 0
M  V30 5184 C 480.129 2.04975 0.316254 0
M  V30 5185 C 480.554 1.17501 1.46885 0
M  V30 5186 O 479.912 0.178678 1.80417 0
M  V30 5187 C 479.96 3.52672 0.751997 0
M  V30 5188 O 479.064 3.68226 1.85697 0
M  V30 5189 H 478.405 0.661126 0.0617175 0
M  V30 5190 H 480.935 1.99805 -0.440341 0
M  V30 5191 H 480.945 3.94488 1.04133 0
M  V30 5192 H 479.62 4.158 -0.0911482 0
M  V30 5193 H 478.197 3.38316 1.56834 0
M  V30 5194 N 480.382 0.0267497 1.57577 0
M  V30 5195 C 481.629 -0.652404 1.91703 0
M  V30 5196 C 481.957 -1.72271 0.902936 0
M  V30 5197 O 481.212 -1.955 -0.0884843 0
M  V30 5198 C 481.511 -1.30914 3.3256 0
M  V30 5199 C 481.177 -0.369441 4.49384 0
M  V30 5200 C 479.839 -0.110791 4.81072 0
M  V30 5201 C 482.191 0.275971 5.20469 0
M  V30 5202 C 479.519 0.801116 5.81205 0
M  V30 5203 C 481.871 1.17592 6.21575 0
M  V30 5204 C 480.535 1.44348 6.51705 0
M  V30 5205 H 479.805 -0.238732 0.70149 0
M  V30 5206 H 482.452 0.0880091 1.91298 0
M  V30 5207 H 480.757 -2.12425 3.29216 0
M  V30 5208 H 482.454 -1.84115 3.56234 0
M  V30 5209 H 479.044 -0.581211 4.24641 0
M  V30 5210 H 483.228 0.0892 4.9622 0
M  V30 5211 H 478.484 1.01614 6.02897 0
M  V30 5212 H 482.658 1.68223 6.75777 0
M  V30 5213 H 480.285 2.15176 7.29111 0
M  V30 5214 N 481.861 -1.55662 -0.24637 0
M  V30 5215 C 482.791 -1.93377 -1.30873 0
M  V30 5216 C 483.772 -0.798773 -1.50179 0
M  V30 5217 O 484.957 -1.0591 -1.62778 0
M  V30 5218 C 482.087 -2.22893 -2.66338 0
M  V30 5219 C 481.041 -3.38649 -2.61727 0
M  V30 5220 C 480.367 -3.53708 -4.00992 0
M  V30 5221 C 481.667 -4.74323 -2.18666 0
M  V30 5222 H 483.361 -2.82363 -0.995552 0
M  V30 5223 H 480.907 -1.35854 -0.477464 0
M  V30 5224 H 482.86 -2.47866 -3.40794 0
M  V30 5225 H 481.584 -1.30733 -2.99293 0
M  V30 5226 H 480.243 -3.13685 -1.89729 0
M  V30 5227 H 479.891 -2.58967 -4.31214 0
M  V30 5228 H 479.591 -4.31551 -3.98795 0
M  V30 5229 H 481.115 -3.81003 -4.77147 0
M  V30 5230 H 482.529 -4.98665 -2.82854 0
M  V30 5231 H 480.926 -5.55273 -2.27579 0
M  V30 5232 H 481.996 -4.71349 -1.13834 0
M  V30 5233 N 483.339 0.512053 -1.4905 0
M  V30 5234 C 484.587 1.26436 -1.57665 0
M  V30 5235 C 484.908 1.93255 -0.260293 0
M  V30 5236 O 484.178 1.82206 0.719564 0
M  V30 5237 H 482.758 0.469658 -0.580888 0
M  V30 5238 H 485.42 0.594398 -1.85615 0
M  V30 5239 H 484.516 2.03417 -2.36702 0
M  V30 5240 N 484.817 1.37938 0.762283 0
M  V30 5241 C 485.727 1.36681 1.90671 0
M  V30 5242 C 486.743 0.265078 1.71969 0
M  V30 5243 O 487.919 0.502055 1.95042 0
M  V30 5244 C 484.984 1.18211 3.25925 0
M  V30 5245 C 484.045 2.3811 3.57214 0
M  V30 5246 C 483.278 2.20512 4.86014 0
M  V30 5247 O 483.501 1.19429 5.57757 0
M  V30 5248 O 482.435 3.08911 5.16583 0
M  V30 5249 H 486.261 2.33091 1.94685 0
M  V30 5250 H 483.846 1.18767 0.906356 0
M  V30 5251 H 485.728 1.09937 4.06807 0
M  V30 5252 H 484.403 0.248807 3.22742 0
M  V30 5253 H 483.31 2.51958 2.76529 0
M  V30 5254 H 484.643 3.30041 3.65149 0
M  V30 5255 N 486.295 -0.989507 1.22664 0
M  V30 5256 C 487.523 -1.76496 1.07967 0
M  V30 5257 C 487.938 -1.85148 -0.369543 0
M  V30 5258 O 487.295 -1.32408 -1.25596 0
M  V30 5259 C 487.346 -3.19642 1.68853 0
M  V30 5260 O 487.067 -3.11453 3.08105 0
M  V30 5261 C 488.568 -4.13621 1.59475 0
M  V30 5262 H 485.788 -0.55418 0.378319 0
M  V30 5263 H 488.332 -1.24378 1.62328 0
M  V30 5264 H 486.487 -3.68816 1.18547 0
M  V30 5265 H 486.901 -4.01499 3.37489 0
M  V30 5266 H 488.375 -5.11801 2.06795 0
M  V30 5267 H 488.852 -4.35718 0.55191 0
M  V30 5268 H 489.458 -3.70346 2.09103 0
M  V30 5269 N 487.773 -1.03688 -1.18687 0
M  V30 5270 C 489.02 -0.73803 -1.88572 0
M  V30 5271 C 489.348 0.733973 -1.8012 0
M  V30 5272 O 488.603 1.55098 -1.19344 0
M  V30 5273 C 488.902 -1.14477 -3.3857 0
M  V30 5274 C 488.568 -2.61641 -3.67226 0
M  V30 5275 C 487.23 -3.01846 -3.74757 0
M  V30 5276 C 489.582 -3.56812 -3.79914 0
M  V30 5277 C 486.91 -4.36118 -3.92451 0
M  V30 5278 C 489.262 -4.90799 -3.99123 0
M  V30 5279 C 487.926 -5.3068 -4.04888 0
M  V30 5280 H 487.196 -0.270064 -0.690034 0
M  V30 5281 H 489.843 -1.3012 -1.40503 0
M  V30 5282 H 488.148 -0.500337 -3.88592 0
M  V30 5283 H 489.845 -0.89095 -3.90977 0
M  V30 5284 H 486.435 -2.29498 -3.61979 0
M  V30 5285 H 490.619 -3.26899 -3.73431 0
M  V30 5286 H 485.875 -4.66542 -3.95157 0
M  V30 5287 H 490.049 -5.64451 -4.07882 0
M  V30 5288 H 487.676 -6.34733 -4.18351 0
M  V30 5289 N 489.251 1.34841 -0.815825 0
M  V30 5290 C 490.667 1.51543 -0.500697 0
M  V30 5291 C 490.867 1.76261 0.976444 0
M  V30 5292 O 489.923 1.8094 1.76117 0
M  V30 5293 C 491.236 2.68487 -1.35407 0
M  V30 5294 C 492.784 2.82368 -1.35046 0
M  V30 5295 C 493.259 4.02347 -2.18816 0
M  V30 5296 N 494.75 4.09542 -2.16402 0
M  V30 5297 C 495.485 5.01517 -2.77971 0
M  V30 5298 N 494.981 5.98763 -3.48503 0
M  V30 5299 N 496.774 4.94334 -2.67563 0
M  V30 5300 H 488.925 1.17055 -1.77234 0
M  V30 5301 H 491.188 0.573481 -0.754866 0
M  V30 5302 H 490.894 2.56829 -2.40274 0
M  V30 5303 H 490.768 3.63321 -1.01377 0
M  V30 5304 H 493.155 2.93471 -0.309604 0
M  V30 5305 H 493.236 1.88363 -1.73069 0
M  V30 5306 H 492.88 3.92004 -3.22948 0
M  V30 5307 H 492.81 4.95551 -1.78148 0
M  V30 5308 H 495.301 3.39932 -1.65091 0
M  V30 5309 H 495.614 6.6556 -3.92747 0
M  V30 5310 H 493.959 5.98909 -3.52609 0
M  V30 5311 H 497.15 4.1732 -2.12041 0
M  V30 5312 H 497.323 5.6582 -3.15834 0
M  V30 5313 N 490.729 0.570148 1.46925 0
M  V30 5314 C 492.006 -0.0153259 1.95594 0
M  V30 5315 C 492.386 -1.47232 1.51281 0
M  V30 5316 O 491.734 -2.15574 0.757624 0
M  V30 5317 C 491.944 0.143624 3.48704 0
M  V30 5318 C 493.292 0.00494484 4.246 0
M  V30 5319 O 494.316 0.0718214 3.56128 0
M  V30 5320 O 493.175 -0.141175 5.46318 0
M  V30 5321 H 490.269 -0.0568819 0.825041 0
M  V30 5322 H 492.815 0.637583 1.57267 0
M  V30 5323 H 491.587 1.15699 3.73804 0
M  V30 5324 H 491.21 -0.5463 3.93829 0
M  V30 5325 N 492.207 -1.54576 0.307264 0
M  V30 5326 C 493.154 -2.23751 -0.56604 0
M  V30 5327 C 494.124 -1.22235 -1.12462 0
M  V30 5328 O 495.309 -1.50873 -1.16799 0
M  V30 5329 C 492.449 -2.98661 -1.72903 0
M  V30 5330 C 491.562 -4.14963 -1.20124 0
M  V30 5331 C 490.697 -4.77441 -2.3286 0
M  V30 5332 C 489.736 -5.85875 -1.77247 0
M  V30 5333 N 488.873 -6.42282 -2.8358 0
M  V30 5334 H 493.713 -2.97984 0.0304578 0
M  V30 5335 H 491.25 -1.47076 0.0268015 0
M  V30 5336 H 493.208 -3.40329 -2.41313 0
M  V30 5337 H 491.838 -2.26793 -2.29706 0
M  V30 5338 H 490.89 -3.78193 -0.409198 0
M  V30 5339 H 492.202 -4.93066 -0.754171 0
M  V30 5340 H 491.356 -5.21993 -3.09205 0
M  V30 5341 H 490.095 -3.98684 -2.80896 0
M  V30 5342 H 489.1 -5.40741 -0.993926 0
M  V30 5343 H 490.325 -6.6652 -1.30107 0
M  V30 5344 H 488.271 -5.66406 -3.30939 0
M  V30 5345 H 488.188 -7.1575 -2.43388 0
M  V30 5346 H 489.456 -6.91492 -3.59804 0
M  V30 5347 N 493.685 -0.035106 -1.57561 0
M  V30 5348 C 494.615 0.942993 -2.13612 0
M  V30 5349 C 495.596 1.33531 -1.05373 0
M  V30 5350 O 496.781 1.41287 -1.33235 0
M  V30 5351 C 493.911 2.22332 -2.66807 0
M  V30 5352 C 492.865 1.97156 -3.79886 0
M  V30 5353 C 492.191 3.31506 -4.19533 0
M  V30 5354 C 493.491 1.30596 -5.05709 0
M  V30 5355 H 495.185 0.476179 -2.95589 0
M  V30 5356 H 492.731 0.227602 -1.4219 0
M  V30 5357 H 494.684 2.91142 -3.04654 0
M  V30 5358 H 493.408 2.7119 -1.81999 0
M  V30 5359 H 492.067 1.30763 -3.42486 0
M  V30 5360 H 491.715 3.78134 -3.31698 0
M  V30 5361 H 491.415 3.15465 -4.95738 0
M  V30 5362 H 492.939 4.01574 -4.59968 0
M  V30 5363 H 494.353 1.89416 -5.41105 0
M  V30 5364 H 492.75 1.24934 -5.86951 0
M  V30 5365 H 493.82 0.279742 -4.84092 0
M  V30 5366 N 495.163 1.55791 0.238111 0
M  V30 5367 C 496.579 1.48411 0.587045 0
M  V30 5368 C 496.779 0.72702 1.87927 0
M  V30 5369 O 495.835 0.259942 2.51158 0
M  V30 5370 C 497.148 2.92873 0.681623 0
M  V30 5371 C 498.696 3.03295 0.773363 0
M  V30 5372 C 499.171 4.49082 0.899428 0
M  V30 5373 N 500.662 4.53056 0.964075 0
M  V30 5374 C 501.397 5.63117 1.08104 0
M  V30 5375 N 500.893 6.82969 1.16299 0
M  V30 5376 N 502.686 5.50933 1.11488 0
M  V30 5377 H 494.837 2.0345 -0.610076 0
M  V30 5378 H 497.1 0.924034 -0.211813 0
M  V30 5379 H 496.806 3.51142 -0.19802 0
M  V30 5380 H 496.68 3.43851 1.55069 0
M  V30 5381 H 499.067 2.45101 1.64346 0
M  V30 5382 H 499.148 2.55513 -0.121034 0
M  V30 5383 H 498.792 5.07889 0.0338586 0
M  V30 5384 H 498.722 4.94553 1.809 0
M  V30 5385 H 501.213 3.66737 0.91173 0
M  V30 5386 H 501.526 7.62598 1.25155 0
M  V30 5387 H 499.871 6.85712 1.13241 0
M  V30 5388 H 503.062 4.56231 1.0474 0
M  V30 5389 H 503.235 6.36743 1.20259 0
M  V30 5390 N 496.642 -0.504142 1.49319 0
M  V30 5391 C 497.572 -1.61473 1.68667 0
M  V30 5392 C 498.553 -1.61455 0.535378 0
M  V30 5393 O 499.738 -1.78245 0.770868 0
M  V30 5394 C 496.868 -2.99971 1.75028 0
M  V30 5395 C 495.822 -3.14854 2.89916 0
M  V30 5396 C 495.148 -4.54671 2.81387 0
M  V30 5397 C 496.448 -2.95176 4.30893 0
M  V30 5398 H 498.142 -1.45535 2.61648 0
M  V30 5399 H 495.688 -0.698711 1.25913 0
M  V30 5400 H 497.641 -3.77562 1.8715 0
M  V30 5401 H 496.365 -3.1699 0.786441 0
M  V30 5402 H 495.024 -2.39687 2.77391 0
M  V30 5403 H 494.672 -4.68562 1.82917 0
M  V30 5404 H 494.372 -4.6557 3.58494 0
M  V30 5405 H 495.896 -5.34327 2.95512 0
M  V30 5406 H 497.31 -3.62538 4.44116 0
M  V30 5407 H 495.707 -3.17549 5.09198 0
M  V30 5408 H 496.777 -1.91332 4.45556 0
M  V30 5409 N 498.12 -1.38341 -0.754957 0
M  V30 5410 C 499.35 -1.37504 -1.54195 0
M  V30 5411 C 499.758 0.0373787 -1.89163 0
M  V30 5412 O 499.101 1.01402 -1.53178 0
M  V30 5413 C 499.163 -2.16488 -2.87008 0
M  V30 5414 C 498.827 -3.65311 -2.74585 0
M  V30 5415 C 499.824 -4.58834 -2.44474 0
M  V30 5416 C 497.509 -4.08649 -2.9208 0
M  V30 5417 C 499.503 -5.93675 -2.32011 0
M  V30 5418 C 497.19 -5.43571 -2.79237 0
M  V30 5419 C 498.188 -6.35898 -2.49245 0
M  V30 5420 O 497.876 -7.68338 -2.36458 0
M  V30 5421 H 497.608 -0.472159 -0.483779 0
M  V30 5422 H 500.162 -1.82515 -0.94221 0
M  V30 5423 H 498.392 -1.66194 -3.49166 0
M  V30 5424 H 500.081 -2.08076 -3.4851 0
M  V30 5425 H 500.847 -4.26657 -2.30627 0
M  V30 5426 H 496.726 -3.37134 -3.14422 0
M  V30 5427 H 500.27 -6.65706 -2.08522 0
M  V30 5428 H 496.167 -5.75345 -2.92657 0
M  V30 5429 H 496.935 -7.78845 -2.5168 0
M  V30 5430 N 499.598 0.982988 -1.23187 0
M  V30 5431 C 500.847 1.71817 -1.05649 0
M  V30 5432 C 501.16 1.91315 0.407176 0
M  V30 5433 O 502.366 2.62256 0.702436 0
M  V30 5434 C 500.822 3.09188 -1.84203 0
M  V30 5435 C 500.43 2.97586 -3.34882 0
M  V30 5436 C 502.174 3.86684 -1.75146 0
M  V30 5437 C 500.081 4.30173 -4.05839 0
M  V30 5438 H 499.011 0.644258 -0.391724 0
M  V30 5439 H 501.662 1.09659 -1.4713 0
M  V30 5440 H 500.044 3.72087 -1.35527 0
M  V30 5441 H 501.218 2.43793 -3.91026 0
M  V30 5442 H 499.533 2.33567 -3.44725 0
M  V30 5443 H 502.13 4.84836 -2.25473 0
M  V30 5444 H 502.473 4.10136 -0.713737 0
M  V30 5445 H 503.006 3.30482 -2.21419 0
M  V30 5446 H 499.745 4.11918 -5.09906 0
M  V30 5447 H 499.265 4.83841 -3.54482 0
M  V30 5448 H 500.944 4.98873 -4.11989 0
M  V30 5449 N 501.076 1.04316 1.18135 0
M  V30 5450 C 501.986 0.646876 2.25505 0
M  V30 5451 C 503.002 -0.328008 1.7088 0
M  V30 5452 O 504.178 -0.182309 2.00573 0
M  V30 5453 C 501.243 0.0185664 3.46695 0
M  V30 5454 C 500.304 1.04277 4.16443 0
M  V30 5455 C 499.537 0.444352 5.31847 0
M  V30 5456 O 499.76 -0.748735 5.65465 0
M  V30 5457 O 498.694 1.17428 5.90334 0
M  V30 5458 H 502.52 1.54147 2.61672 0
M  V30 5459 H 500.105 0.814188 1.25265 0
M  V30 5460 H 501.987 -0.331068 4.20097 0
M  V30 5461 H 500.662 -0.849814 3.12346 0
M  V30 5462 H 499.569 1.44425 3.45098 0
M  V30 5463 H 500.902 1.882 4.54798 0
M  V30 5464 N 502.554 -1.34406 0.822964 0
M  V30 5465 C 503.486 -2.28305 0.202375 0
M  V30 5466 C 504.499 -1.5103 -0.60777 0
M  V30 5467 O 505.688 -1.73057 -0.437444 0
M  V30 5468 C 502.788 -3.30836 -0.734911 0
M  V30 5469 C 501.961 -4.37388 0.0324177 0
M  V30 5470 C 501.02 -5.1968 -0.825803 0
M  V30 5471 O 500.046 -5.68556 -0.270771 0
M  V30 5472 N 501.248 -5.39393 -2.14558 0
M  V30 5473 H 504.013 -2.82201 1.00909 0
M  V30 5474 H 501.574 -1.4693 0.67993 0
M  V30 5475 H 503.566 -3.82786 -1.31365 0
M  V30 5476 H 502.136 -2.77334 -1.44238 0
M  V30 5477 H 501.356 -3.86152 0.792469 0
M  V30 5478 H 502.644 -5.05702 0.560633 0
M  V30 5479 H 502.042 -5.01357 -2.62025 0
M  V30 5480 H 500.599 -5.94461 -2.67318 0
M  V30 5481 N 504.032 -0.577932 -1.46621 0
M  V30 5482 C 504.979 0.158048 -2.30258 0
M  V30 5483 C 505.949 0.888669 -1.40328 0
M  V30 5484 O 507.134 0.880283 -1.6928 0
M  V30 5485 C 504.274 1.16884 -3.24703 0
M  V30 5486 C 503.387 0.442163 -4.29731 0
M  V30 5487 C 502.522 1.44007 -5.11308 0
M  V30 5488 C 501.561 0.69952 -6.0809 0
M  V30 5489 N 500.698 1.64525 -6.82551 0
M  V30 5490 H 505.538 -0.561242 -2.92667 0
M  V30 5491 H 503.075 -0.288591 -1.44241 0
M  V30 5492 H 505.033 1.7677 -3.779 0
M  V30 5493 H 503.663 1.85591 -2.64113 0
M  V30 5494 H 502.715 -0.271632 -3.79429 0
M  V30 5495 H 504.027 -0.136992 -4.98612 0
M  V30 5496 H 503.181 2.11186 -5.68758 0
M  V30 5497 H 501.92 2.05315 -4.42377 0
M  V30 5498 H 500.925 0.0139217 -5.49798 0
M  V30 5499 H 502.15 0.091894 -6.79038 0
M  V30 5500 H 500.096 2.24653 -6.16334 0
M  V30 5501 H 500.013 1.11878 -7.47676 0
M  V30 5502 H 501.281 2.30754 -7.44562 0
M  V30 5503 N 505.51 1.54411 -0.315457 0
M  V30 5504 C 506.738 2.04833 0.291738 0
M  V30 5505 C 507.153 1.19203 1.46411 0
M  V30 5506 O 506.51 0.220867 1.81159 0
M  V30 5507 C 506.561 3.53969 0.73404 0
M  V30 5508 O 506.282 4.36346 -0.391682 0
M  V30 5509 C 507.783 4.2045 1.40489 0
M  V30 5510 H 505.003 0.668195 0.0612947 0
M  V30 5511 H 507.547 1.99276 -0.45929 0
M  V30 5512 H 505.702 3.5984 1.43506 0
M  V30 5513 H 506.116 5.24481 -0.0447088 0
M  V30 5514 H 507.59 5.26278 1.66539 0
M  V30 5515 H 508.067 3.71067 2.3496 0
M  V30 5516 H 508.673 4.18694 0.746662 0
M  V30 5517 N 506.988 0.0434614 1.5754 0
M  V30 5518 C 507.936 -0.951465 2.1225 0
M  V30 5519 C 508.93 -1.3274 1.05245 0
M  V30 5520 O 510.136 -1.30795 1.23663 0
M  V30 5521 H 506.511 -0.324667 0.678303 0
M  V30 5522 H 508.482 -0.464855 2.94757 0
M  V30 5523 C 507.231 -2.21972 2.67626 0
M  V30 5524 H 506.554 -1.93923 3.4962 0
M  V30 5525 H 507.994 -2.89765 3.09536 0
M  V30 5526 C 506.453 -2.95919 1.61038 0
M  V30 5527 O 506.983 -3.8857 1.01862 0
M  V30 5528 N 505.189 -2.58511 1.32741 0
M  V30 5529 H 504.736 -1.83244 1.81051 0
M  V30 5530 H 504.694 -3.08296 0.616531 0
M  V30 5531 N 508.466 -1.55915 -0.229846 0
M  V30 5532 C 509.396 -1.94754 -1.28815 0
M  V30 5533 C 510.377 -0.814657 -1.49323 0
M  V30 5534 O 511.562 -1.07631 -1.61645 0
M  V30 5535 C 508.692 -2.25705 -2.63959 0
M  V30 5536 C 507.646 -3.41406 -2.5812 0
M  V30 5537 C 506.972 -3.57941 -3.97218 0
M  V30 5538 C 508.272 -4.76616 -2.13623 0
M  V30 5539 H 509.966 -2.83404 -0.965547 0
M  V30 5540 H 507.512 -1.36353 -0.463028 0
M  V30 5541 H 509.465 -2.51467 -3.38146 0
M  V30 5542 H 508.189 -1.339 -2.9789 0
M  V30 5543 H 506.848 -3.1568 -1.86391 0
M  V30 5544 H 506.496 -2.63526 -4.28443 0
M  V30 5545 H 506.196 -4.35757 -3.94195 0
M  V30 5546 H 507.72 -3.86042 -4.73079 0
M  V30 5547 H 509.134 -5.01637 -2.77549 0
M  V30 5548 H 507.531 -5.57655 -2.21677 0
M  V30 5549 H 508.601 -4.7253 -1.08829 0
M  V30 5550 N 509.944 0.496216 -1.49584 0
M  V30 5551 C 511.355 1.07765 -1.52459 0
M  V30 5552 C 511.706 1.93679 -0.31353 0
M  V30 5553 O 510.831 2.08588 0.576186 0
M  V30 5554 C 511.426 1.96111 -2.76271 0
M  V30 5555 C 509.985 2.49409 -2.81908 0
M  V30 5556 C 509.132 1.27142 -2.46435 0
M  V30 5557 H 512.083 0.279914 -1.56212 0
M  V30 5558 H 512.104 2.80862 -2.56704 0
M  V30 5559 H 511.616 1.33555 -3.64396 0
M  V30 5560 H 509.717 3.1559 -1.98074 0
M  V30 5561 H 509.83 2.86234 -3.84196 0
M  V30 5562 H 508.194 1.59818 -1.98319 0
M  V30 5563 H 508.977 0.662866 -3.3684 0
M  V30 5564 N 511.423 1.38739 0.74761 0
M  V30 5565 C 512.386 1.36241 1.84312 0
M  V30 5566 C 513.386 0.261811 1.58654 0
M  V30 5567 O 514.576 0.519031 1.66288 0
M  V30 5568 C 511.708 1.12253 3.21888 0
M  V30 5569 H 512.901 2.33712 1.87933 0
M  V30 5570 H 510.454 1.2412 0.949946 0
M  V30 5571 H 511.189 0.154133 3.23934 0
M  V30 5572 H 510.974 1.91943 3.41907 0
M  V30 5573 H 512.464 1.13215 4.0196 0
M  V30 5574 N 512.901 -0.976442 1.23707 0
M  V30 5575 C 513.831 -2.08749 1.04624 0
M  V30 5576 C 514.812 -1.70057 -0.0380956 0
M  V30 5577 O 515.997 -1.93782 0.127308 0
M  V30 5578 C 513.127 -3.41335 0.640902 0
M  V30 5579 C 512.081 -3.93947 1.67302 0
M  V30 5580 C 511.407 -5.22774 1.12301 0
M  V30 5581 C 512.707 -4.22769 3.06697 0
M  V30 5582 H 514.401 -2.24972 1.97555 0
M  V30 5583 H 511.947 -1.08108 0.951247 0
M  V30 5584 H 513.9 -4.18489 0.494434 0
M  V30 5585 H 512.624 -3.24988 -0.324099 0
M  V30 5586 H 511.283 -3.18941 1.80755 0
M  V30 5587 H 510.931 -5.0278 0.148877 0
M  V30 5588 H 510.631 -5.58942 1.81267 0
M  V30 5589 H 512.155 -6.02546 0.988479 0
M  V30 5590 H 513.569 -4.90659 2.96524 0
M  V30 5591 H 511.966 -4.70147 3.72937 0
M  V30 5592 H 513.036 -3.29885 3.55392 0
M  V30 5593 N 514.379 -1.04941 -1.1758 0
M  V30 5594 C 515.327 -0.64204 -2.23563 0
M  V30 5595 C 516.321 0.335453 -1.66045 0
M  V30 5596 O 517.527 0.20179 -1.78865 0
M  V30 5597 H 513.902 -0.18944 -0.727748 0
M  V30 5598 H 515.873 -1.54609 -2.55223 0
M  V30 5599 C 514.622 -0.0301051 -3.47687 0
M  V30 5600 H 513.945 -0.773339 -3.92249 0
M  V30 5601 H 515.385 0.217592 -4.23441 0
M  V30 5602 C 513.844 1.2225 -3.13937 0
M  V30 5603 O 514.374 2.3122 -3.28482 0
M  V30 5604 N 512.58 1.11917 -2.68185 0
M  V30 5605 H 512.127 0.232403 -2.5655 0
M  V30 5606 H 512.085 1.95814 -2.45976 0
M  V30 5607 N 515.857 1.33968 -0.830081 0
M  V30 5608 C 517.273 1.51003 -0.516742 0
M  V30 5609 C 517.473 1.77286 0.957694 0
M  V30 5610 O 516.529 1.82797 1.74188 0
M  V30 5611 C 517.842 2.67036 -1.38247 0
M  V30 5612 C 519.39 2.80919 -1.38034 0
M  V30 5613 C 519.865 4.00004 -2.23071 0
M  V30 5614 N 521.356 4.07224 -2.20733 0
M  V30 5615 C 522.091 4.98541 -2.83275 0
M  V30 5616 N 521.587 5.95033 -3.54835 0
M  V30 5617 N 523.38 4.91469 -2.72791 0
M  V30 5618 H 515.531 1.15168 -1.78466 0
M  V30 5619 H 517.794 0.565443 -0.760906 0
M  V30 5620 H 517.5 2.54266 -2.42985 0
M  V30 5621 H 517.374 3.62226 -1.05225 0
M  V30 5622 H 519.761 2.93127 -0.340713 0
M  V30 5623 H 519.842 1.86517 -1.75057 0
M  V30 5624 H 519.486 3.88557 -3.27087 0
M  V30 5625 H 519.416 4.93634 -1.83394 0
M  V30 5626 H 521.907 3.38162 -1.68687 0
M  V30 5627 H 522.22 6.61357 -3.99784 0
M  V30 5628 H 520.565 5.95135 -3.58942 0
M  V30 5629 H 523.756 4.15048 -2.16456 0
M  V30 5630 H 523.929 5.62439 -3.21818 0
M  V30 5631 N 517.335 0.585699 1.46312 0
M  V30 5632 C 518.582 0.0724211 2.0237 0
M  V30 5633 C 518.91 -1.28868 1.45683 0
M  V30 5634 O 518.165 -1.85853 0.612945 0
M  V30 5635 C 518.464 -0.0401312 3.57377 0
M  V30 5636 C 518.13 1.25376 4.33119 0
M  V30 5637 C 516.792 1.60824 4.5353 0
M  V30 5638 C 519.144 2.10987 4.76586 0
M  V30 5639 C 516.472 2.81676 5.14661 0
M  V30 5640 C 518.824 3.31068 5.39052 0
M  V30 5641 C 517.488 3.66794 5.5769 0
M  V30 5642 H 516.758 0.0265007 0.740526 0
M  V30 5643 H 519.405 0.762935 1.75646 0
M  V30 5644 H 517.71 -0.813791 3.83255 0
M  V30 5645 H 519.407 -0.453078 3.98432 0
M  V30 5646 H 515.997 0.967808 4.1753 0
M  V30 5647 H 520.181 1.84904 4.60569 0
M  V30 5648 H 515.437 3.0949 5.27282 0
M  V30 5649 H 519.611 3.97672 5.71691 0
M  V30 5650 H 517.238 4.60529 6.04828 0
M  V30 5651 N 518.813 -1.54241 0.323641 0
M  V30 5652 C 520.053 -2.0248 -0.279502 0
M  V30 5653 C 520.417 -1.20672 -1.49339 0
M  V30 5654 O 521.618 -1.58715 -2.1694 0
M  V30 5655 C 519.889 -3.52238 -0.605266 0
M  V30 5656 S 521.448 -4.22411 -1.18805 0
M  V30 5657 H 518.266 -0.705957 -0.0845313 0
M  V30 5658 H 520.868 -1.90089 0.456781 0
M  V30 5659 H 519.572 -4.094 0.286339 0
M  V30 5660 H 519.103 -3.6871 -1.37174 0
M  V30 5661 H 521.118 -4.30075 -2.47487 0
M  V30 5662 N 520.291 -0.0518155 -1.57515 0
M  V30 5663 C 521.241 0.932017 -2.0808 0
M  V30 5664 C 522.225 1.27141 -0.986098 0
M  V30 5665 O 523.417 1.25373 -1.24943 0
M  V30 5666 C 520.546 2.20665 -2.62986 0
M  V30 5667 C 519.632 1.89462 -3.79427 0
M  V30 5668 N 520.023 1.28621 -4.89173 0
M  V30 5669 C 518.321 2.19327 -3.88345 0
M  V30 5670 C 519.022 1.15062 -5.70207 0
M  V30 5671 N 517.998 1.65372 -5.17835 0
M  V30 5672 H 521.8 0.456964 -2.90326 0
M  V30 5673 H 519.314 0.152619 -1.61681 0
M  V30 5674 H 521.311 2.92044 -2.97516 0
M  V30 5675 H 519.971 2.68776 -1.8218 0
M  V30 5676 H 520.982 0.958341 -5.08956 0
M  V30 5677 H 517.659 2.69955 -3.18482 0
M  V30 5678 H 519.049 0.678243 -6.68468 0
M  V30 5679 N 521.769 1.56035 0.221574 0
M  V30 5680 C 522.732 1.91584 1.2581 0
M  V30 5681 C 523.732 0.794425 1.39805 0
M  V30 5682 O 524.922 1.06217 1.38071 0
M  V30 5683 C 522.054 2.16663 2.63192 0
M  V30 5684 H 523.247 2.8429 0.954935 0
M  V30 5685 H 520.8 1.49316 0.461988 0
M  V30 5686 H 521.535 1.26508 2.98607 0
M  V30 5687 H 521.32 2.98358 2.5441 0
M  V30 5688 H 522.81 2.45262 3.37988 0
M  V30 5689 N 523.247 -0.488276 1.49845 0
M  V30 5690 C 524.21 -1.57069 1.66919 0
M  V30 5691 C 525.21 -1.51445 0.540479 0
M  V30 5692 O 526.4 -1.5437 0.807188 0
M  V30 5693 C 523.532 -2.96718 1.67844 0
M  V30 5694 H 524.725 -1.43254 2.63474 0
M  V30 5695 H 522.278 -0.713435 1.39068 0
M  V30 5696 H 523.013 -3.15996 0.7292 0
M  V30 5697 H 522.798 -3.02208 2.49826 0
M  V30 5698 H 524.288 -3.75335 1.83066 0
M  V30 5699 N 524.725 -1.39134 -0.740242 0
M  V30 5700 C 525.655 -1.40165 -1.86751 0
M  V30 5701 C 526.636 -0.265708 -1.68012 0
M  V30 5702 O 527.821 -0.47076 -1.88408 0
M  V30 5703 C 524.951 -1.2392 -3.2444 0
M  V30 5704 C 523.905 -2.34858 -3.57807 0
M  V30 5705 C 523.231 -2.03707 -4.94376 0
M  V30 5706 C 524.531 -3.77159 -3.61315 0
M  V30 5707 H 526.225 -2.345 -1.86145 0
M  V30 5708 H 523.771 -1.12875 -0.89416 0
M  V30 5709 H 525.724 -1.23263 -4.02969 0
M  V30 5710 H 524.448 -0.26051 -3.25559 0
M  V30 5711 H 523.107 -2.34723 -2.81604 0
M  V30 5712 H 522.755 -1.04289 -4.9207 0
M  V30 5713 H 522.455 -2.78016 -5.17669 0
M  V30 5714 H 523.979 -2.04691 -5.75268 0
M  V30 5715 H 525.393 -3.79252 -4.29931 0
M  V30 5716 H 523.79 -4.50784 -3.96124 0
M  V30 5717 H 524.86 -4.08513 -2.61238 0
M  V30 5718 N 526.204 0.969867 -1.24223 0
M  V30 5719 C 527.151 2.06407 -1.0327 0
M  V30 5720 C 528.121 1.66014 0.0533 0
M  V30 5721 O 529.306 1.90533 -0.100896 0
M  V30 5722 C 526.446 3.3909 -0.641262 0
M  V30 5723 C 525.559 3.9269 -1.80051 0
M  V30 5724 C 524.694 5.13631 -1.35486 0
M  V30 5725 C 523.733 5.59423 -2.48419 0
M  V30 5726 N 522.87 6.71586 -2.04737 0
M  V30 5727 H 527.71 2.23663 -1.96923 0
M  V30 5728 H 525.247 1.09624 -0.980862 0
M  V30 5729 H 527.205 4.15323 -0.395351 0
M  V30 5730 H 525.835 3.21765 0.258269 0
M  V30 5731 H 524.887 3.13116 -2.16014 0
M  V30 5732 H 526.199 4.22636 -2.64916 0
M  V30 5733 H 525.353 5.97231 -1.0677 0
M  V30 5734 H 524.092 4.85364 -0.476722 0
M  V30 5735 H 523.097 4.74398 -2.77897 0
M  V30 5736 H 524.322 5.89705 -3.36786 0
M  V30 5737 H 522.268 6.45058 -1.19318 0
M  V30 5738 H 522.185 7.0097 -2.83156 0
M  V30 5739 H 523.453 7.58633 -1.79154 0
M  V30 5740 N 527.682 1.05563 1.17022 0
M  V30 5741 C 528.645 0.664098 2.19368 0
M  V30 5742 C 529.645 -0.286358 1.5823 0
M  V30 5743 O 530.835 -0.069728 1.7406 0
M  V30 5744 C 527.967 -0.0239932 3.40892 0
M  V30 5745 H 529.16 1.57 2.55521 0
M  V30 5746 H 526.713 0.849964 1.31169 0
M  V30 5747 H 527.448 -0.942988 3.10287 0
M  V30 5748 H 527.233 0.659351 3.86516 0
M  V30 5749 H 528.723 -0.283909 4.16634 0
M  V30 5750 N 529.16 -1.33526 0.837174 0
M  V30 5751 C 530.406 -1.9813 0.432704 0
M  V30 5752 C 530.739 -1.66168 -1.00508 0
M  V30 5753 O 530.014 -0.94069 -1.70239 0
M  V30 5754 C 530.297 -3.54151 0.651834 0
M  V30 5755 C 530.15 -3.95806 2.13676 0
M  V30 5756 C 531.469 -4.39993 0.0968937 0
M  V30 5757 H 528.588 -0.719713 0.15869 0
M  V30 5758 H 531.23 -1.58193 1.05237 0
M  V30 5759 H 529.38 -3.88301 0.124369 0
M  V30 5760 H 531.052 -3.71921 2.72896 0
M  V30 5761 H 529.295 -3.45599 2.62191 0
M  V30 5762 H 529.966 -5.0447 2.24084 0
M  V30 5763 H 532.442 -4.12479 0.547733 0
M  V30 5764 H 531.318 -5.48186 0.279917 0
M  V30 5765 H 531.579 -4.3066 -0.9992 0
M  V30 5766 N 530.638 -0.59345 -1.46 0
M  V30 5767 C 531.887 -0.0808084 -2.01538 0
M  V30 5768 C 532.2 1.29112 -1.46934 0
M  V30 5769 O 533.406 1.8957 -1.94359 0
M  V30 5770 C 531.862 -0.0938311 -3.59778 0
M  V30 5771 C 531.47 -1.46474 -4.23379 0
M  V30 5772 C 533.214 0.364306 -4.22934 0
M  V30 5773 C 531.121 -1.4349 -5.73729 0
M  V30 5774 H 530.051 -0.0264407 -0.753536 0
M  V30 5775 H 532.702 -0.746689 -1.67621 0
M  V30 5776 H 531.084 0.638427 -3.9082 0
M  V30 5777 H 532.258 -2.21758 -4.03931 0
M  V30 5778 H 530.573 -1.86379 -3.7236 0
M  V30 5779 H 533.17 0.405584 -5.3316 0
M  V30 5780 H 533.513 1.38409 -3.92618 0
M  V30 5781 H 534.046 -0.31423 -3.96557 0
M  V30 5782 H 530.785 -2.43184 -6.08722 0
M  V30 5783 H 530.305 -0.724431 -5.95409 0
M  V30 5784 H 531.984 -1.15243 -6.36654 0
M  V30 5785 N 532.116 1.54067 -0.331816 0
M  V30 5786 C 533.527 1.86059 0.15454 0
M  V30 5787 C 533.878 1.25331 1.50952 0
M  V30 5788 O 533.003 0.562441 2.08963 0
M  V30 5789 C 533.598 3.37581 0.287192 0
M  V30 5790 C 532.157 3.69493 0.717773 0
M  V30 5791 C 531.304 2.76863 -0.155569 0
M  V30 5792 H 534.255 1.48797 -0.55182 0
M  V30 5793 H 534.276 3.63744 1.11671 0
M  V30 5794 H 533.788 3.81751 -0.699131 0
M  V30 5795 H 531.889 3.3086 1.71354 0
M  V30 5796 H 532.002 4.76315 0.5158 0
M  V30 5797 H 530.366 2.51995 0.370213 0
M  V30 5798 H 531.149 3.23861 -1.13881 0
M  V30 5799 N 533.594 0.0601682 1.57485 0
M  V30 5800 C 534.871 -0.651956 1.84415 0
M  V30 5801 C 535.251 -1.88498 0.950361 0
M  V30 5802 O 534.599 -2.28496 0.0136719 0
M  V30 5803 C 534.809 -1.00069 3.34346 0
M  V30 5804 C 536.157 -1.37915 4.01578 0
M  V30 5805 O 537.181 -1.09277 3.39024 0
M  V30 5806 O 536.04 -1.91399 5.11887 0
M  V30 5807 H 533.134 -0.322668 0.761455 0
M  V30 5808 H 535.68 0.0902159 1.6946 0
M  V30 5809 H 534.452 -0.124463 3.91102 0
M  V30 5810 H 534.075 -1.80001 3.54521 0
M  V30 5811 N 535.072 -1.5615 -0.213296 0
M  V30 5812 C 536.297 -1.83986 -0.957282 0
M  V30 5813 C 536.722 -0.641526 -1.76822 0
M  V30 5814 O 536.08 0.409722 -1.7661 0
M  V30 5815 C 536.128 -3.09889 -1.84393 0
M  V30 5816 O 535.232 -2.89163 -2.94038 0
M  V30 5817 H 534.573 -0.606357 -0.270605 0
M  V30 5818 H 537.103 -2.03369 -0.224111 0
M  V30 5819 H 537.113 -3.40209 -2.25215 0
M  V30 5820 H 535.788 -3.96735 -1.24795 0
M  V30 5821 H 534.365 -2.70097 -2.57103 0
M  V30 5822 N 536.55 0.480323 -1.50102 0
M  V30 5823 C 537.778 1.25657 -1.64371 0
M  V30 5824 C 538.193 1.86011 -0.323316 0
M  V30 5825 O 537.55 1.68803 0.693682 0
M  V30 5826 C 537.601 2.37197 -2.728 0
M  V30 5827 O 537.322 1.7932 -3.9972 0
M  V30 5828 C 538.823 3.2823 -2.9796 0
M  V30 5829 H 536.043 0.380369 -0.552775 0
M  V30 5830 H 538.587 0.574379 -1.96268 0
M  V30 5831 H 536.742 3.01208 -2.43623 0
M  V30 5832 H 537.156 2.52701 -4.59611 0
M  V30 5833 H 538.63 4.02725 -3.77513 0
M  V30 5834 H 539.107 3.86462 -2.08671 0
M  V30 5835 H 539.713 2.69964 -3.28633 0
M  V30 5836 N 538.028 1.39524 0.732853 0
M  V30 5837 C 538.938 1.40695 1.87729 0
M  V30 5838 C 539.954 0.301496 1.71368 0
M  V30 5839 O 541.13 0.543313 1.93933 0
M  V30 5840 C 538.195 1.25098 3.23344 0
M  V30 5841 C 537.256 2.45634 3.52083 0
M  V30 5842 C 536.489 2.30772 4.81228 0
M  V30 5843 O 536.712 1.31233 5.55098 0
M  V30 5844 O 535.646 3.19799 5.09914 0
M  V30 5845 H 539.472 2.37168 1.89697 0
M  V30 5846 H 537.057 1.20663 0.880959 0
M  V30 5847 H 538.939 1.18541 4.04383 0
M  V30 5848 H 537.614 0.317209 3.22142 0
M  V30 5849 H 536.521 2.57767 2.71122 0
M  V30 5850 H 537.854 3.37712 3.58066 0
M  V30 5851 N 539.506 -0.963266 1.24736 0
M  V30 5852 C 540.438 -2.06162 1.0015 0
M  V30 5853 C 541.451 -1.62771 -0.0305905 0
M  V30 5854 O 542.64 -1.77296 0.206966 0
M  V30 5855 C 539.74 -3.35333 0.490385 0
M  V30 5856 C 538.913 -4.07609 1.58663 0
M  V30 5857 C 537.972 -5.15052 1.0774 0
M  V30 5858 O 536.998 -5.4098 1.77002 0
M  V30 5859 N 538.2 -5.80436 -0.0858605 0
M  V30 5860 H 540.965 -2.27825 1.94719 0
M  V30 5861 H 538.526 -1.13121 1.15825 0
M  V30 5862 H 540.518 -4.04477 0.134371 0
M  V30 5863 H 539.088 -3.10507 -0.361155 0
M  V30 5864 H 538.308 -3.32681 2.11463 0
M  V30 5865 H 539.596 -4.52656 2.32336 0
M  V30 5866 H 538.994 -5.6178 -0.664806 0
M  V30 5867 H 537.551 -6.50674 -0.382981 0
M  V30 5868 N 540.985 -1.06182 -1.16461 0
M  V30 5869 C 542.21 -0.798599 -1.91408 0
M  V30 5870 C 542.635 0.640987 -1.76842 0
M  V30 5871 O 541.993 1.44652 -1.09296 0
M  V30 5872 C 542.041 -1.19665 -3.40165 0
M  V30 5873 O 541.145 -0.334768 -4.11039 0
M  V30 5874 H 540.486 -0.291961 -0.596368 0
M  V30 5875 H 543.016 -1.41732 -1.47557 0
M  V30 5876 H 543.026 -1.16772 -3.90933 0
M  V30 5877 H 541.701 -2.24526 -3.50087 0
M  V30 5878 H 540.278 -0.425168 -3.70468 0
M  V30 5879 N 542.463 1.3308 -0.844243 0
M  V30 5880 C 543.74 1.92178 -0.364261 0
M  V30 5881 C 544.12 1.76961 1.15101 0
M  V30 5882 O 543.468 1.16128 1.9679 0
M  V30 5883 C 543.678 3.393 -0.817106 0
M  V30 5884 C 545.026 4.16444 -0.828236 0
M  V30 5885 O 546.05 3.47975 -0.761062 0
M  V30 5886 O 544.909 5.38685 -0.920926 0
M  V30 5887 H 542.003 0.820411 -0.10419 0
M  V30 5888 H 544.549 1.41918 -0.930453 0
M  V30 5889 H 543.321 3.44272 -1.85991 0
M  V30 5890 H 542.944 3.96947 -0.227785 0
M  V30 5891 N 543.941 0.601185 1.45683 0
M  V30 5892 C 545.187 0.0940202 2.02582 0
M  V30 5893 C 545.52 -1.26972 1.46941 0
M  V30 5894 O 544.795 -1.83613 0.641612 0
M  V30 5895 C 545.078 0.0481715 3.60068 0
M  V30 5896 C 544.931 1.44212 4.26055 0
M  V30 5897 C 546.25 -0.642975 4.35378 0
M  V30 5898 H 543.369 0.0356404 0.736138 0
M  V30 5899 H 546.011 0.771929 1.73612 0
M  V30 5900 H 544.161 -0.529128 3.8488 0
M  V30 5901 H 545.833 2.06601 4.12449 0
M  V30 5902 H 544.076 2.00465 3.84703 0
M  V30 5903 H 544.747 1.36234 5.34925 0
M  V30 5904 H 547.223 -0.152351 4.15821 0
M  V30 5905 H 546.099 -0.644141 5.45107 0
M  V30 5906 H 546.36 -1.70785 4.0778 0
M  V30 5907 N 545.419 -1.53889 0.339982 0
M  V30 5908 C 546.835 -1.59595 -0.0120752 0
M  V30 5909 C 547.035 -1.35605 -1.49042 0
M  V30 5910 O 546.091 -1.14856 -2.24865 0
M  V30 5911 C 547.404 -2.9774 0.420898 0
M  V30 5912 C 548.952 -3.1077 0.37294 0
M  V30 5913 C 549.427 -4.51286 0.781327 0
M  V30 5914 N 550.918 -4.57325 0.735374 0
M  V30 5915 C 551.653 -5.64194 1.02336 0
M  V30 5916 N 551.149 -6.7893 1.37933 0
M  V30 5917 N 552.942 -5.54051 0.947838 0
M  V30 5918 H 545.093 -1.67738 1.30299 0
M  V30 5919 H 547.356 -0.785385 0.530918 0
M  V30 5920 H 547.062 -3.20349 1.45152 0
M  V30 5921 H 546.936 -3.76639 -0.205721 0
M  V30 5922 H 549.323 -2.87886 -0.648505 0
M  V30 5923 H 549.404 -2.33939 1.03472 0
M  V30 5924 H 549.048 -4.74905 1.80077 0
M  V30 5925 H 548.978 -5.26511 0.0970679 0
M  V30 5926 H 551.469 -3.74931 0.472773 0
M  V30 5927 H 551.782 -7.56392 1.58402 0
M  V30 5928 H 550.127 -6.80386 1.41774 0
M  V30 5929 H 553.318 -4.63293 0.669115 0
M  V30 5930 H 553.491 -6.37246 1.17563 0
M  V30 5931 N 546.897 -0.0685191 -1.57451 0
M  V30 5932 C 548.144 0.601348 -1.93365 0
M  V30 5933 C 548.472 1.69816 -0.948294 0
M  V30 5934 O 547.727 1.95666 0.0366199 0
M  V30 5935 C 548.026 1.22051 -3.35914 0
M  V30 5936 C 547.692 0.250165 -4.50205 0
M  V30 5937 C 546.354 -0.0167954 -4.81197 0
M  V30 5938 C 548.706 -0.413867 -5.19554 0
M  V30 5939 C 546.034 -0.95493 -5.78876 0
M  V30 5940 C 548.386 -1.3403 -6.18238 0
M  V30 5941 C 547.05 -1.61576 -6.47649 0
M  V30 5942 H 546.32 0.220049 -0.707573 0
M  V30 5943 H 548.967 -0.138697 -1.90997 0
M  V30 5944 H 547.272 2.03622 -3.34732 0
M  V30 5945 H 548.969 1.74605 -3.6099 0
M  V30 5946 H 545.559 0.468421 -4.26033 0
M  V30 5947 H 549.743 -0.220733 -4.95809 0
M  V30 5948 H 544.999 -1.17563 -5.99991 0
M  V30 5949 H 549.173 -1.86081 -6.71079 0
M  V30 5950 H 546.8 -2.34431 -7.2315 0
M  V30 5951 N 548.375 1.56261 0.205012 0
M  V30 5952 C 549.6 1.84491 0.947512 0
M  V30 5953 C 550.025 0.650894 1.76479 0
M  V30 5954 O 549.383 -0.40035 1.76824 0
M  V30 5955 C 549.431 3.10863 1.82747 0
M  V30 5956 O 548.535 2.90719 2.925 0
M  V30 5957 H 547.876 0.607783 0.267386 0
M  V30 5958 H 550.406 2.03485 0.213323 0
M  V30 5959 H 550.416 3.41399 2.23407 0
M  V30 5960 H 549.091 3.97392 1.2269 0
M  V30 5961 H 547.668 2.71457 2.55667 0
M  V30 5962 N 549.853 -0.472356 1.50355 0
M  V30 5963 C 551.078 -1.25251 1.65309 0
M  V30 5964 C 551.503 -1.85081 0.335643 0
M  V30 5965 O 550.861 -1.67227 -0.700335 0
M  V30 5966 C 550.909 -2.3379 2.74544 0
M  V30 5967 O 550.013 -3.38401 2.35709 0
M  V30 5968 H 549.354 -0.368539 0.552336 0
M  V30 5969 H 551.884 -0.562271 1.96722 0
M  V30 5970 H 551.894 -2.79121 2.97583 0
M  V30 5971 H 550.569 -1.89614 3.70161 0
M  V30 5972 H 549.146 -2.9879 2.23112 0
M  V30 5973 N 551.331 -1.39911 -0.725443 0
M  V30 5974 C 552.294 -1.39156 -1.82121 0
M  V30 5975 C 553.294 -0.287018 -1.58218 0
M  V30 5976 O 554.484 -0.545421 -1.65441 0
M  V30 5977 C 551.616 -1.1736 -3.20062 0
M  V30 5978 H 552.809 -2.36672 -1.84191 0
M  V30 5979 H 550.362 -1.25615 -0.930079 0
M  V30 5980 H 551.097 -0.205648 -3.23647 0
M  V30 5981 H 550.882 -1.97358 -3.3881 0
M  V30 5982 H 552.372 -1.19596 -4.00108 0
M  V30 5983 N 552.809 0.956637 -1.25245 0
M  V30 5984 C 554.055 1.70352 -1.10036 0
M  V30 5985 C 554.388 1.90869 0.358156 0
M  V30 5986 O 553.663 1.47819 1.26411 0
M  V30 5987 C 553.946 3.08766 -1.85298 0
M  V30 5988 C 553.799 2.95672 -3.38966 0
M  V30 5989 C 555.118 4.08622 -1.63451 0
M  V30 5990 H 552.237 0.618279 -0.401123 0
M  V30 5991 H 554.879 1.11212 -1.54051 0
M  V30 5992 H 553.029 3.59252 -1.47887 0
M  V30 5993 H 554.701 2.52527 -3.86041 0
M  V30 5994 H 552.944 2.31634 -3.6678 0
M  V30 5995 H 553.615 3.93776 -3.86839 0
M  V30 5996 H 556.091 3.67038 -1.96015 0
M  V30 5997 H 554.967 5.03514 -2.18551 0
M  V30 5998 H 555.228 4.3834 -0.575357 0
M  V30 5999 O 554.326 1.1921 1.08956 0
M  V30 6000 H 555.017 0.939352 1.69399 0
M  V30 END ATOM
M  V30 BEGIN BOND
M  V30 END BOND
M  V30 END CTAB
M  END
$$$$
