drugbank_target|P08192 Bifunctional protein FolC (DB02437; DB03830)
 OpenBabel12092119243D

  0  0  0     0  0            999 V3000
M  V30 BEGIN CTAB
M  V30 COUNTS 6394 6461 0 0 0
M  V30 BEGIN ATOM
M  V30 1 H -0.908 1.98254 -0.117106 0
M  V30 2 N 0 1.576 0 0
M  V30 3 C 0.933 2.03868 1.02534 0
M  V30 4 C 1.911 0.928543 1.3348 0
M  V30 5 O 3.095 1.19667 1.45644 0
M  V30 6 C 0.222 2.43627 2.35294 0
M  V30 7 C -0.732 3.65373 2.2001 0
M  V30 8 S 0.101 5.13292 1.52614 0
M  V30 9 C 1.257 5.56322 2.86805 0
M  V30 10 H 1.49 2.90518 0.631377 0
M  V30 11 H -0.977 1.52953 0.210867 0
M  V30 12 H 0.981 2.67203 3.11629 0
M  V30 13 H -0.358 1.57376 2.7183 0
M  V30 14 H -1.165 3.90944 3.18086 0
M  V30 15 H -1.563 3.418 1.51819 0
M  V30 16 H 0.729 5.58782 3.83104 0
M  V30 17 H 1.672 6.56266 2.65933 0
M  V30 18 H 2.08 4.83886 2.90714 0
M  V30 19 N 1.4781 -0.272755 1.55222 0
M  V30 20 C 2.7271 -1.00211 1.75045 0
M  V30 21 C 3.0401 -1.87441 0.559046 0
M  V30 22 O 4.2461 -2.63856 0.639698 0
M  V30 23 C 2.7021 -1.83165 3.09804 0
M  V30 24 C 2.3101 -1.008 4.36513 0
M  V30 25 C 4.0541 -2.55529 3.38977 0
M  V30 26 C 1.9611 -1.83194 5.62311 0
M  V30 27 H 0.8911 -0.377878 0.652476 0
M  V30 28 H 3.5421 -0.257776 1.8168 0
M  V30 29 H 1.9241 -2.61694 2.97207 0
M  V30 30 H 3.0981 -0.266855 4.60027 0
M  V30 31 H 1.4131 -0.398897 4.14485 0
M  V30 32 H 4.0101 -3.17578 4.30172 0
M  V30 33 H 4.3531 -3.25825 2.59121 0
M  V30 34 H 4.8861 -1.84029 3.52673 0
M  V30 35 H 1.6251 -1.17318 6.44916 0
M  V30 36 H 1.1451 -2.54905 5.4294 0
M  V30 37 H 2.8241 -2.40552 6.00619 0
M  V30 38 N 2.9562 -1.48159 -0.537278 0
M  V30 39 C 4.2052 -1.5506 -1.28993 0
M  V30 40 C 4.5182 -0.226211 -1.94288 0
M  V30 41 O 5.7242 -0.173395 -2.70946 0
M  V30 42 C 4.1802 -2.73429 -2.34018 0
M  V30 43 C 3.7882 -4.1248 -1.74825 0
M  V30 44 C 5.5322 -2.89638 -3.10339 0
M  V30 45 C 3.4392 -5.22121 -2.77747 0
M  V30 46 H 2.3692 -0.577231 -0.485098 0
M  V30 47 H 5.0202 -1.74478 -0.568317 0
M  V30 48 H 3.4022 -2.47431 -3.09182 0
M  V30 49 H 4.5762 -4.48466 -1.05899 0
M  V30 50 H 2.8912 -4.01327 -1.11022 0
M  V30 51 H 5.4882 -3.68718 -3.87235 0
M  V30 52 H 5.8312 -1.9882 -3.65754 0
M  V30 53 H 6.3642 -3.15502 -2.42288 0
M  V30 54 H 3.1032 -6.1488 -2.27161 0
M  V30 55 H 2.6232 -4.90631 -3.45024 0
M  V30 56 H 4.3022 -5.49924 -3.4087 0
M  V30 57 N 4.4343 0.785586 -1.36625 0
M  V30 58 C 5.3813 1.89838 -1.31264 0
M  V30 59 C 6.3513 1.65115 -0.180633 0
M  V30 60 O 7.5363 1.87222 -0.36777 0
M  V30 61 C 4.6763 3.26706 -1.11163 0
M  V30 62 C 3.7893 3.63476 -2.33472 0
M  V30 63 C 2.9243 4.89481 -2.06353 0
M  V30 64 C 1.9633 5.18941 -3.24602 0
M  V30 65 N 1.1003 6.36131 -2.97123 0
M  V30 66 H 5.9403 1.93756 -2.26413 0
M  V30 67 H 3.4773 0.947454 -1.12524 0
M  V30 68 H 5.4353 4.05639 -0.975337 0
M  V30 69 H 4.0653 3.222 -0.196674 0
M  V30 70 H 3.1173 2.79636 -2.57891 0
M  V30 71 H 4.4293 3.81193 -3.21704 0
M  V30 72 H 3.5833 5.76288 -1.89675 0
M  V30 73 H 2.3223 4.73841 -1.15437 0
M  V30 74 H 1.3273 4.30615 -3.41834 0
M  V30 75 H 2.5523 5.36498 -4.16349 0
M  V30 76 H 0.4983 6.21875 -2.08823 0
M  V30 77 H 0.4153 6.54198 -3.78894 0
M  V30 78 H 1.6833 7.2591 -2.84033 0
M  V30 79 N 5.9124 1.20967 1.01018 0
M  V30 80 C 7.3284 0.965905 1.27053 0
M  V30 81 C 7.5284 -0.350785 1.98423 0
M  V30 82 O 6.5844 -1.07773 2.28344 0
M  V30 83 C 7.8974 2.15294 2.09926 0
M  V30 84 C 9.4454 2.19463 2.23171 0
M  V30 85 C 9.9204 3.3767 3.09424 0
M  V30 86 N 11.4114 3.37724 3.17012 0
M  V30 87 C 12.1464 4.25837 3.83993 0
M  V30 88 N 11.6424 5.24138 4.53047 0
M  V30 89 N 13.4354 4.1366 3.80581 0
M  V30 90 H 5.5864 2.0565 0.531194 0
M  V30 91 H 7.8494 0.90024 0.297106 0
M  V30 92 H 7.5554 3.10684 1.64828 0
M  V30 93 H 7.4294 2.13923 3.10672 0
M  V30 94 H 9.8164 1.24632 2.6749 0
M  V30 95 H 9.8974 2.2488 1.21912 0
M  V30 96 H 9.5414 4.32791 2.65808 0
M  V30 97 H 9.4714 3.29491 4.10784 0
M  V30 98 H 11.9624 2.6658 2.6785 0
M  V30 99 H 12.2754 5.87684 5.01844 0
M  V30 100 H 10.6204 5.28068 4.5185 0
M  V30 101 H 13.8114 3.36127 3.25785 0
M  V30 102 H 13.9844 4.82538 4.32505 0
M  V30 103 N 7.3905 -1.2043 1.01659 0
M  V30 104 C 8.6185 -1.93777 0.725132 0
M  V30 105 C 9.0335 -1.74772 -0.714166 0
M  V30 106 O 8.3905 -1.06169 -1.4844 0
M  V30 107 C 8.4415 -3.45876 1.05129 0
M  V30 108 O 8.1625 -3.6426 2.43406 0
M  V30 109 C 9.6635 -4.36368 0.780891 0
M  V30 110 H 6.8835 -0.615901 0.266284 0
M  V30 111 H 9.4275 -1.52922 1.35776 0
M  V30 112 H 7.5825 -3.8461 0.464065 0
M  V30 113 H 7.9965 -4.58246 2.55169 0
M  V30 114 H 9.4705 -5.41743 1.05918 0
M  V30 115 H 9.9475 -4.38275 -0.284937 0
M  V30 116 H 10.5535 -4.03296 1.35027 0
M  V30 117 N 8.8686 -0.792821 -1.36206 0
M  V30 118 C 10.2796 -0.429513 -1.81692 0
M  V30 119 C 10.6306 1.04695 -1.65932 0
M  V30 120 O 9.7556 1.81256 -1.18218 0
M  V30 121 C 10.3506 -0.772831 -3.29868 0
M  V30 122 C 8.9096 -0.462307 -3.7355 0
M  V30 123 C 8.0566 -1.00569 -2.5842 0
M  V30 124 H 11.0076 -0.985672 -1.24379 0
M  V30 125 H 11.0286 -0.0651928 -3.80444 0
M  V30 126 H 10.5406 -1.84747 -3.41307 0
M  V30 127 H 8.6416 0.604158 -3.67669 0
M  V30 128 H 8.7546 -0.985299 -4.68859 0
M  V30 129 H 7.1186 -0.428734 -2.51066 0
M  V30 130 H 7.9016 -2.08616 -2.72643 0
M  V30 131 N 10.3467 1.47872 -0.545128 0
M  V30 132 C 11.2787 2.27869 0.246621 0
M  V30 133 C 12.2917 1.36282 0.890561 0
M  V30 134 O 13.4807 1.61207 0.766449 0
M  V30 135 C 10.5807 3.10159 1.36582 0
M  V30 136 C 9.7537 4.29627 0.820954 0
M  V30 137 C 8.8127 4.93607 1.82314 0
M  V30 138 O 7.8387 5.52366 1.37406 0
M  V30 139 N 9.0407 4.87211 3.15603 0
M  V30 140 H 11.8057 2.96459 -0.439539 0
M  V30 141 H 9.3667 1.57367 -0.380421 0
M  V30 142 H 11.3587 3.49829 2.03474 0
M  V30 143 H 9.9287 2.43891 1.9554 0
M  V30 144 H 9.1487 3.94192 -0.0244032 0
M  V30 145 H 10.4367 5.06928 0.436063 0
M  V30 146 H 9.8347 4.40651 3.54744 0
M  V30 147 H 8.3917 5.30937 3.78087 0
M  V30 148 N 11.8248 0.280983 1.55075 0
M  V30 149 C 12.7878 -0.590896 2.21452 0
M  V30 150 C 13.7878 -1.07682 1.19421 0
M  V30 151 O 14.9778 -0.97605 1.44288 0
M  V30 152 C 12.1098 -1.81587 2.88511 0
M  V30 153 H 13.3028 -0.0112554 2.99898 0
M  V30 154 H 10.8558 0.0316438 1.56268 0
M  V30 155 H 11.5908 -2.43587 2.14093 0
M  V30 156 H 11.3758 -1.4753 3.63287 0
M  V30 157 H 12.8658 -2.43575 3.39206 0
M  V30 158 N 13.3029 -1.57598 0.00835791 0
M  V30 159 C 14.2659 -2.07884 -0.965242 0
M  V30 160 C 15.2659 -0.989825 -1.26725 0
M  V30 161 O 16.4559 -1.25218 -1.21104 0
M  V30 162 C 13.5879 -2.52731 -2.28779 0
M  V30 163 H 14.7809 -2.95178 -0.530112 0
M  V30 164 H 12.3339 -1.54458 -0.239283 0
M  V30 165 H 13.0689 -1.68705 -2.76964 0
M  V30 166 H 12.8539 -3.32272 -2.08177 0
M  V30 167 H 14.3439 -2.91933 -2.98605 0
M  V30 168 N 14.781 0.264519 -1.55364 0
M  V30 169 C 16.006 1.01726 -1.80739 0
M  V30 170 C 16.431 1.78836 -0.583044 0
M  V30 171 O 15.789 1.75167 0.467566 0
M  V30 172 C 15.837 1.94482 -3.03659 0
M  V30 173 O 14.941 3.03386 -2.7934 0
M  V30 174 H 14.282 0.290395 -0.597132 0
M  V30 175 H 16.812 0.290854 -2.02522 0
M  V30 176 H 16.822 2.36278 -3.32621 0
M  V30 177 H 15.497 1.37772 -3.92418 0
M  V30 178 H 14.074 2.65844 -2.61498 0
M  V30 179 N 16.2591 1.48442 0.529413 0
M  V30 180 C 17.6701 1.5002 1.11134 0
M  V30 181 C 18.0211 0.27031 1.94329 0
M  V30 182 O 17.1461 -0.622507 2.07253 0
M  V30 183 C 17.7411 2.71834 2.02217 0
M  V30 184 C 16.3001 2.76283 2.55627 0
M  V30 185 C 15.4471 2.43542 1.326 0
M  V30 186 H 18.3981 1.5555 0.314641 0
M  V30 187 H 18.4191 2.50384 2.8651 0
M  V30 188 H 17.9311 3.61331 1.41639 0
M  V30 189 H 16.0321 1.90995 3.19924 0
M  V30 190 H 16.1451 3.77725 2.94721 0
M  V30 191 H 14.5091 1.94709 1.64196 0
M  V30 192 H 15.2921 3.3528 0.737734 0
M  V30 193 N 17.7372 -0.778329 1.37039 0
M  V30 194 C 18.6672 -1.90546 1.34962 0
M  V30 195 C 19.6482 -1.68681 0.219274 0
M  V30 196 O 20.8332 -1.89634 0.418624 0
M  V30 197 C 17.9632 -3.27734 1.14925 0
M  V30 198 C 16.9172 -3.64147 2.24902 0
M  V30 199 C 16.2432 -4.99806 1.89996 0
M  V30 200 C 17.5432 -3.71579 3.67051 0
M  V30 201 H 19.2372 -1.92541 2.29277 0
M  V30 202 H 16.7832 -0.924948 1.10366 0
M  V30 203 H 18.7362 -4.06215 1.12104 0
M  V30 204 H 17.4602 -3.26154 0.170631 0
M  V30 205 H 16.1192 -2.8797 2.26868 0
M  V30 206 H 15.7672 -4.94759 0.906796 0
M  V30 207 H 15.4672 -5.25139 2.63634 0
M  V30 208 H 16.9912 -5.80694 1.88749 0
M  V30 209 H 18.4052 -4.40227 3.67251 0
M  V30 210 H 16.8022 -4.08405 4.39688 0
M  V30 211 H 17.8722 -2.72404 4.01154 0
M  V30 212 N 19.2153 -1.21501 -1.00376 0
M  V30 213 C 20.1783 -0.976927 -2.07337 0
M  V30 214 C 21.1783 0.0525322 -1.60714 0
M  V30 215 O 22.3683 -0.184869 -1.73216 0
M  V30 216 C 19.5003 -0.473423 -3.37597 0
M  V30 217 H 20.6933 -1.92587 -2.29892 0
M  V30 218 H 18.2463 -1.03217 -1.17371 0
M  V30 219 H 18.9813 0.480379 -3.20722 0
M  V30 220 H 18.7663 -1.216 -3.72768 0
M  V30 221 H 20.2563 -0.32675 -4.1632 0
M  V30 222 N 20.6934 1.19889 -1.02296 0
M  V30 223 C 21.9184 1.9393 -0.735237 0
M  V30 224 C 22.3434 1.74639 0.698782 0
M  V30 225 O 21.7014 1.04481 1.48167 0
M  V30 226 C 21.7494 3.43916 -1.08417 0
M  V30 227 O 20.8534 4.11917 -0.199446 0
M  V30 228 H 20.1944 0.605645 -0.272196 0
M  V30 229 H 22.7244 1.52137 -1.36804 0
M  V30 230 H 22.7344 3.9456 -1.03856 0
M  V30 231 H 21.4094 3.5728 -2.12894 0
M  V30 232 H 19.9864 3.71666 -0.303136 0
M  V30 233 N 22.1715 0.800033 1.35784 0
M  V30 234 C 23.4175 0.38701 1.99684 0
M  V30 235 C 23.7725 -1.03268 1.62338 0
M  V30 236 O 23.0655 -1.70543 0.87325 0
M  V30 237 C 23.2595 0.500276 3.53881 0
M  V30 238 C 23.0885 1.92942 4.06206 0
M  V30 239 C 21.8585 2.55637 4.35865 0
M  V30 240 C 24.0565 2.89307 4.25213 0
M  V30 241 N 22.0385 3.9003 4.74078 0
M  V30 242 C 23.4095 4.08556 4.66349 0
M  V30 243 C 25.4645 2.86225 4.07406 0
M  V30 244 C 24.1675 5.25146 4.91543 0
M  V30 245 C 26.1935 4.02011 4.33752 0
M  V30 246 C 25.5555 5.20007 4.75155 0
M  V30 247 H 21.6545 0.189252 0.758754 0
M  V30 248 H 24.2385 1.03988 1.64604 0
M  V30 249 H 22.4095 -0.122568 3.88207 0
M  V30 250 H 24.1415 0.0624733 4.04652 0
M  V30 251 H 20.8965 2.07039 4.25948 0
M  V30 252 H 21.3205 4.59205 4.97454 0
M  V30 253 H 25.9625 1.96154 3.74544 0
M  V30 254 H 23.6805 6.15794 5.23281 0
M  V30 255 H 27.2665 4.00999 4.21534 0
M  V30 256 H 26.1465 6.08113 4.95145 0
M  V30 257 N 23.6496 -1.47581 0.552962 0
M  V30 258 C 24.5796 -2.32762 -0.185451 0
M  V30 259 C 25.5606 -1.43527 -0.912905 0
M  V30 260 O 26.7456 -1.72388 -0.894201 0
M  V30 261 C 23.8756 -3.25219 -1.21859 0
M  V30 262 C 22.8296 -4.23661 -0.607864 0
M  V30 263 C 22.1556 -5.05413 -1.74533 0
M  V30 264 C 23.4556 -5.20481 0.435582 0
M  V30 265 H 25.1496 -2.94749 0.525684 0
M  V30 266 H 22.6956 -1.41738 0.254251 0
M  V30 267 H 24.6486 -3.8365 -1.7433 0
M  V30 268 H 23.3726 -2.61279 -1.95961 0
M  V30 269 H 22.0316 -3.66451 -0.104489 0
M  V30 270 H 21.6796 -4.3788 -2.47529 0
M  V30 271 H 21.3796 -5.72059 -1.34249 0
M  V30 272 H 22.9036 -5.66701 -2.27338 0
M  V30 273 H 24.3176 -5.733 -0.00290157 0
M  V30 274 H 22.7146 -5.95305 0.757067 0
M  V30 275 H 23.7846 -4.66217 1.33303 0
M  V30 276 N 25.1277 -0.289203 -1.54924 0
M  V30 277 C 26.3527 0.329299 -2.04769 0
M  V30 278 C 26.7777 1.4763 -1.16564 0
M  V30 279 O 26.1357 1.80527 -0.167186 0
M  V30 280 C 26.1837 0.774438 -3.52186 0
M  V30 281 O 25.2877 1.88038 -3.67036 0
M  V30 282 H 24.6287 0.0659259 -0.660719 0
M  V30 283 H 27.1587 -0.42761 -2.00082 0
M  V30 284 H 27.1687 1.06642 -3.93816 0
M  V30 285 H 25.8437 -0.0646707 -4.1585 0
M  V30 286 H 24.4207 1.58985 -3.3731 0
M  V30 287 N 26.6058 1.57591 -0.0167156 0
M  V30 288 C 27.8358 1.95292 0.674149 0
M  V30 289 C 28.2438 0.891097 1.66901 0
M  V30 290 O 27.5868 -0.136908 1.83189 0
M  V30 291 C 27.6488 3.29072 1.44747 0
M  V30 292 C 27.3128 4.52879 0.612331 0
M  V30 293 C 28.3098 5.1979 -0.107126 0
M  V30 294 C 25.9948 4.99242 0.553381 0
M  V30 295 C 27.9888 6.31375 -0.874339 0
M  V30 296 C 25.6758 6.10713 -0.217546 0
M  V30 297 C 26.6738 6.76637 -0.930123 0
M  V30 298 O 26.3618 7.85969 -1.68844 0
M  V30 299 H 26.0938 0.648275 0.191615 0
M  V30 300 H 28.6478 2.05284 -0.0690148 0
M  V30 301 H 26.8778 3.15535 2.2355 0
M  V30 302 H 28.5668 3.51764 2.02526 0
M  V30 303 H 29.3328 4.84948 -0.0708392 0
M  V30 304 H 25.2118 4.47744 1.09757 0
M  V30 305 H 28.7558 6.82764 -1.43106 0
M  V30 306 H 24.6528 6.44994 -0.255593 0
M  V30 307 H 25.4208 8.02571 -1.6069 0
M  V30 308 N 28.0839 -0.256276 1.55502 0
M  V30 309 C 29.0139 -1.32102 1.92539 0
M  V30 310 C 29.9949 -1.50684 0.789194 0
M  V30 311 O 31.1799 -1.63449 1.04872 0
M  V30 312 C 28.3099 -2.67752 2.21192 0
M  V30 313 C 27.2639 -2.63878 3.36975 0
M  V30 314 C 26.5899 -4.03236 3.51147 0
M  V30 315 C 27.8899 -2.21682 4.72921 0
M  V30 316 H 29.5839 -1.01351 2.81724 0
M  V30 317 H 27.1299 -0.486105 1.35547 0
M  V30 318 H 29.0829 -3.42365 2.45691 0
M  V30 319 H 27.8069 -3.0012 1.28824 0
M  V30 320 H 26.4659 -1.91722 3.12471 0
M  V30 321 H 26.1139 -4.32854 2.56216 0
M  V30 322 H 25.8139 -4.01535 4.29003 0
M  V30 323 H 27.3379 -4.79563 3.77957 0
M  V30 324 H 28.7519 -2.86023 4.96854 0
M  V30 325 H 27.1489 -2.3111 5.53812 0
M  V30 326 H 28.2189 -1.16833 4.70615 0
M  V30 327 N 29.562 -1.4872 -0.521534 0
M  V30 328 C 30.472 -1.66569 -1.65203 0
M  V30 329 C 31.488 -0.548197 -1.65139 0
M  V30 330 O 32.664 -0.820339 -1.83936 0
M  V30 331 C 29.729 -1.70917 -3.01642 0
M  V30 332 C 28.79 -2.94356 -3.12495 0
M  V30 333 C 28.023 -2.98487 -4.42426 0
M  V30 334 O 28.246 -2.10786 -5.30024 0
M  V30 335 O 27.18 -3.90746 -4.57822 0
M  V30 336 H 31.006 -2.62298 -1.5308 0
M  V30 337 H 28.591 -1.3222 -0.695565 0
M  V30 338 H 30.473 -1.7625 -3.82771 0
M  V30 339 H 29.148 -0.783633 -3.14071 0
M  V30 340 H 28.055 -2.94552 -2.3063 0
M  V30 341 H 29.388 -3.86322 -3.04986 0
M  V30 342 N 31.0401 0.771051 -1.3745 0
M  V30 343 C 31.9881 1.90574 -1.33358 0
M  V30 344 C 32.9821 1.67936 -0.22224 0
M  V30 345 O 34.1881 1.75717 -0.390304 0
M  V30 346 H 30.5631 0.626714 -0.415612 0
M  V30 347 H 32.5341 1.91142 -2.29144 0
M  V30 348 C 31.2831 3.27845 -1.15813 0
M  V30 349 H 30.6061 3.45842 -2.00583 0
M  V30 350 H 32.0461 4.07538 -1.17 0
M  V30 351 C 30.5051 3.36625 0.136165 0
M  V30 352 O 31.0351 3.85785 1.11949 0
M  V30 353 N 29.2411 2.89997 0.187099 0
M  V30 354 H 28.7881 2.50182 -0.613753 0
M  V30 355 H 28.7461 2.96252 1.05272 0
M  V30 356 N 32.5182 1.22032 0.997298 0
M  V30 357 C 33.4482 1.01065 2.10495 0
M  V30 358 C 34.4292 -0.0669542 1.69968 0
M  V30 359 O 35.6142 0.0943987 1.9397 0
M  V30 360 C 32.7442 0.582874 3.42374 0
M  V30 361 C 31.6982 1.60592 3.96729 0
M  V30 362 C 31.0242 1.03412 5.24605 0
M  V30 363 C 32.3242 2.99478 4.27914 0
M  V30 364 H 34.0182 1.93708 2.28292 0
M  V30 365 H 31.5642 0.932761 1.09707 0
M  V30 366 H 33.5172 0.423332 4.19268 0
M  V30 367 H 32.2412 -0.379213 3.24391 0
M  V30 368 H 30.9002 1.75316 3.21963 0
M  V30 369 H 30.5482 0.063518 5.0296 0
M  V30 370 H 30.2482 1.71754 5.61938 0
M  V30 371 H 31.7722 0.886066 6.04137 0
M  V30 372 H 33.1862 2.88153 4.95622 0
M  V30 373 H 31.5832 3.64903 4.76409 0
M  V30 374 H 32.6532 3.49742 3.3587 0
M  V30 375 N 33.9963 -1.19345 1.0293 0
M  V30 376 C 34.9463 -2.20472 0.58104 0
M  V30 377 C 35.9303 -1.56578 -0.370442 0
M  V30 378 O 37.1223 -1.75963 -0.191344 0
M  V30 379 C 34.2513 -3.43236 -0.066306 0
M  V30 380 C 33.3373 -4.14274 0.907642 0
M  V30 381 N 33.7283 -4.61492 2.07023 0
M  V30 382 C 32.0263 -4.39966 0.731177 0
M  V30 383 C 32.7273 -5.1605 2.68454 0
M  V30 384 N 31.7033 -5.06875 1.96414 0
M  V30 385 H 35.5053 -2.54659 1.46717 0
M  V30 386 H 33.0193 -1.35423 0.896345 0
M  V30 387 H 35.0163 -4.14927 -0.405068 0
M  V30 388 H 33.6763 -3.10549 -0.948118 0
M  V30 389 H 34.6873 -4.56304 2.44963 0
M  V30 390 H 31.3643 -4.17377 -0.101507 0
M  V30 391 H 32.7543 -5.6287 3.66915 0
M  V30 392 N 35.4744 -0.807222 -1.35358 0
M  V30 393 C 36.6994 -0.399309 -2.0352 0
M  V30 394 C 37.1244 0.981986 -1.60433 0
M  V30 395 O 36.4824 1.63601 -0.781299 0
M  V30 396 C 36.5304 -0.491552 -3.57234 0
M  V30 397 O 35.6344 0.494754 -4.09421 0
M  V30 398 H 34.9754 -0.166682 -0.642739 0
M  V30 399 H 37.5054 -1.09328 -1.72941 0
M  V30 400 H 37.5154 -0.361588 -4.06395 0
M  V30 401 H 36.1904 -1.49907 -3.87944 0
M  V30 402 H 34.7674 0.324977 -3.71481 0
M  V30 403 N 36.9525 1.47285 -0.560781 0
M  V30 404 C 37.8995 2.30058 0.18491 0
M  V30 405 C 38.8695 1.39281 0.904986 0
M  V30 406 O 40.0545 1.68241 0.899979 0
M  V30 407 C 37.1945 3.23317 1.20666 0
M  V30 408 C 36.3075 4.29186 0.492285 0
M  V30 409 C 35.4425 5.09592 1.49964 0
M  V30 410 C 34.4815 6.07232 0.770439 0
M  V30 411 N 33.6185 6.80584 1.72479 0
M  V30 412 H 38.4585 2.93302 -0.527048 0
M  V30 413 H 35.9955 1.44568 -0.271738 0
M  V30 414 H 37.9535 3.75811 1.81168 0
M  V30 415 H 36.5835 2.61929 1.88661 0
M  V30 416 H 35.6355 3.7972 -0.227333 0
M  V30 417 H 36.9475 4.98738 -0.0787929 0
M  V30 418 H 36.1015 5.66254 2.17809 0
M  V30 419 H 34.8405 4.3995 2.10464 0
M  V30 420 H 33.8455 5.49745 0.0780846 0
M  V30 421 H 35.0705 6.78884 0.171134 0
M  V30 422 H 33.0165 6.1367 2.3183 0
M  V30 423 H 32.9335 7.46319 1.20596 0
M  V30 424 H 34.2015 7.41818 2.39428 0
M  V30 425 N 38.4306 0.297415 1.54768 0
M  V30 426 C 39.6586 -0.315623 2.04478 0
M  V30 427 C 40.0736 -1.47792 1.17486 0
M  V30 428 O 39.4306 -1.81404 0.19971 0
M  V30 429 C 39.4816 -0.7753 3.53088 0
M  V30 430 O 39.2026 0.340732 4.36773 0
M  V30 431 C 40.7036 -1.45386 4.18781 0
M  V30 432 H 37.9236 -0.0690887 0.667434 0
M  V30 433 H 40.4676 0.436003 1.99798 0
M  V30 434 H 38.6226 -1.47696 3.58141 0
M  V30 435 H 39.0366 -0.0165035 5.24497 0
M  V30 436 H 40.5106 -1.72669 5.24299 0
M  V30 437 H 40.9876 -2.39275 3.68299 0
M  V30 438 H 41.5936 -0.795475 4.17795 0
M  V30 439 N 39.9087 -1.5758 0.0250728 0
M  V30 440 C 41.1577 -1.90811 -0.653767 0
M  V30 441 C 41.4707 -0.90273 -1.73523 0
M  V30 442 O 42.6767 -1.12614 -2.47043 0
M  V30 443 C 41.1327 -3.38804 -1.21409 0
M  V30 444 C 40.7407 -4.47692 -0.166126 0
M  V30 445 C 42.4847 -3.81108 -1.86967 0
M  V30 446 C 40.3917 -5.86779 -0.737856 0
M  V30 447 H 39.3217 -0.712063 -0.247956 0
M  V30 448 H 41.9727 -1.83281 0.0897137 0
M  V30 449 H 40.3547 -3.41252 -2.00905 0
M  V30 450 H 41.5287 -4.56797 0.606079 0
M  V30 451 H 39.8437 -4.14565 0.390466 0
M  V30 452 H 42.4407 -4.82375 -2.30692 0
M  V30 453 H 42.7837 -3.15953 -2.71071 0
M  V30 454 H 43.3167 -3.81065 -1.14167 0
M  V30 455 H 40.0557 -6.55468 0.0649577 0
M  V30 456 H 39.5757 -5.81288 -1.47864 0
M  V30 457 H 41.2547 -6.35223 -1.22884 0
M  V30 458 N 41.3868 0.248026 -1.55636 0
M  V30 459 C 42.6638 0.998988 -1.68165 0
M  V30 460 C 43.0438 2.03409 -0.564621 0
M  V30 461 O 42.3918 2.24378 0.432076 0
M  V30 462 C 42.6018 1.63334 -3.0842 0
M  V30 463 C 43.9498 2.13562 -3.66983 0
M  V30 464 O 44.9738 1.73277 -3.11213 0
M  V30 465 O 43.8328 2.87526 -4.64749 0
M  V30 466 H 40.9268 0.464933 -0.683935 0
M  V30 467 H 43.4728 0.241902 -1.67967 0
M  V30 468 H 42.2448 0.884583 -3.8117 0
M  V30 469 H 41.8678 2.45666 -3.12624 0
M  V30 470 N 42.8649 1.48995 0.513639 0
M  V30 471 C 43.7949 1.67636 1.62544 0
M  V30 472 C 44.7759 0.525087 1.61793 0
M  V30 473 O 45.9609 0.759502 1.78732 0
M  V30 474 C 43.0909 1.73114 3.01079 0
M  V30 475 C 42.0449 2.87905 3.16693 0
M  V30 476 C 41.3709 2.78486 4.56453 0
M  V30 477 C 42.6709 4.29005 2.97913 0
M  V30 478 H 44.3649 2.60716 1.47198 0
M  V30 479 H 41.9109 1.25465 0.706714 0
M  V30 480 H 43.8639 1.84742 3.78746 0
M  V30 481 H 42.5879 0.766241 3.17484 0
M  V30 482 H 41.2469 2.75859 2.41448 0
M  V30 483 H 40.8949 1.7993 4.69717 0
M  V30 484 H 40.5949 3.55523 4.67843 0
M  V30 485 H 42.1189 2.92104 5.36197 0
M  V30 486 H 43.5329 4.41798 3.65359 0
M  V30 487 H 41.9299 5.07166 3.20785 0
M  V30 488 H 42.9999 4.44329 1.94165 0
M  V30 489 N 44.343 -0.763751 1.37857 0
M  V30 490 C 45.591 -1.51957 1.33243 0
M  V30 491 C 45.912 -1.94835 -0.0801709 0
M  V30 492 O 45.182 -1.66894 -1.02582 0
M  V30 493 H 43.762 -0.563626 0.49024 0
M  V30 494 H 46.424 -0.908504 1.7243 0
M  V30 495 H 45.52 -2.41523 1.97669 0
M  V30 496 N 45.8211 -1.22559 -0.990812 0
M  V30 497 C 46.7511 -1.0218 -2.09956 0
M  V30 498 C 47.7321 0.0579394 -1.70001 0
M  V30 499 O 48.9171 -0.104684 -1.93918 0
M  V30 500 C 46.0471 -0.601023 -3.4206 0
M  V30 501 C 45.0011 -1.62694 -3.95872 0
M  V30 502 C 44.3271 -1.06193 -5.24049 0
M  V30 503 C 45.6271 -3.01743 -4.2632 0
M  V30 504 H 47.3211 -1.94916 -2.27262 0
M  V30 505 H 44.8671 -0.938566 -1.09211 0
M  V30 506 H 46.8201 -0.445561 -4.19038 0
M  V30 507 H 45.5441 0.362005 -3.24588 0
M  V30 508 H 44.2031 -1.77021 -3.21028 0
M  V30 509 H 43.8511 -0.0901903 -5.02919 0
M  V30 510 H 43.5511 -1.74732 -5.61019 0
M  V30 511 H 45.0751 -0.918092 -6.03658 0
M  V30 512 H 46.4891 -2.90777 -4.94087 0
M  V30 513 H 44.8861 -3.67425 -4.74467 0
M  V30 514 H 45.9561 -3.51518 -3.34011 0
M  V30 515 N 47.2992 1.18797 -1.03562 0
M  V30 516 C 48.2092 2.25913 -0.632505 0
M  V30 517 C 49.2252 1.70668 0.338882 0
M  V30 518 O 50.4012 2.00453 0.195076 0
M  V30 519 C 47.4662 3.467 0.00350942 0
M  V30 520 C 46.5272 4.17098 -1.01624 0
M  V30 521 C 45.7602 5.32119 -0.410478 0
M  V30 522 O 45.9832 5.64976 0.784725 0
M  V30 523 O 44.9172 5.9107 -1.13667 0
M  V30 524 H 48.7432 2.62648 -1.52478 0
M  V30 525 H 46.3282 1.25781 -0.806195 0
M  V30 526 H 48.2102 4.19878 0.35781 0
M  V30 527 H 46.8852 3.11798 0.869686 0
M  V30 528 H 45.7922 3.4601 -1.42224 0
M  V30 529 H 47.1252 4.55987 -1.85301 0
M  V30 530 N 48.7773 0.814389 1.34928 0
M  V30 531 C 50.1933 0.499084 1.51596 0
M  V30 532 C 50.3933 -0.978319 1.76157 0
M  V30 533 O 49.4493 -1.76309 1.80752 0
M  V30 534 C 50.7623 1.35121 2.68631 0
M  V30 535 C 52.3103 1.34746 2.82511 0
M  V30 536 C 52.7853 2.18388 4.0258 0
M  V30 537 N 54.2763 2.15966 4.09772 0
M  V30 538 C 55.0113 2.77437 5.01813 0
M  V30 539 N 54.5073 3.47866 5.99134 0
M  V30 540 N 56.3003 2.67037 4.94619 0
M  V30 541 H 48.4513 1.7711 1.17243 0
M  V30 542 H 50.7143 0.754256 0.574284 0
M  V30 543 H 50.4203 2.40001 2.57085 0
M  V30 544 H 50.2943 1.00991 3.63429 0
M  V30 545 H 52.6813 0.30648 2.93504 0
M  V30 546 H 52.7623 1.72869 1.88547 0
M  V30 547 H 52.4063 3.2253 3.92347 0
M  V30 548 H 52.3363 1.77621 4.9574 0
M  V30 549 H 54.8273 1.64729 3.40107 0
M  V30 550 H 55.1403 3.92038 6.65977 0
M  V30 551 H 53.4853 3.51972 5.99284 0
M  V30 552 H 56.6763 2.11597 4.17546 0
M  V30 553 H 56.8493 3.15232 5.66156 0
M  V30 554 N 50.2554 -1.46986 0.568584 0
M  V30 555 C 51.5014 -2.02741 0.0488709 0
M  V30 556 C 51.8344 -1.44077 -1.30214 0
M  V30 557 O 51.1094 -0.600552 -1.84996 0
M  V30 558 C 51.3924 -3.60086 -0.032047 0
M  V30 559 C 51.2454 -4.29162 1.34686 0
M  V30 560 C 52.5644 -4.33838 -0.739798 0
M  V30 561 H 49.6834 -0.736749 0.0192338 0
M  V30 562 H 52.3254 -1.75289 0.733065 0
M  V30 563 H 50.4754 -3.83606 -0.61473 0
M  V30 564 H 52.1474 -4.16948 1.97362 0
M  V30 565 H 50.3904 -3.89073 1.91846 0
M  V30 566 H 51.0614 -5.37826 1.24285 0
M  V30 567 H 53.5374 -4.15378 -0.244939 0
M  V30 568 H 52.4134 -5.43537 -0.765406 0
M  V30 569 H 52.6744 -4.03875 -1.79827 0
M  V30 570 N 51.7335 -0.305618 -1.54608 0
M  V30 571 C 52.9585 0.307562 -2.05107 0
M  V30 572 C 53.3835 1.46385 -1.18123 0
M  V30 573 O 52.7415 1.8034 -0.186324 0
M  V30 574 C 52.7895 0.73704 -3.52987 0
M  V30 575 O 51.8935 1.84134 -3.6901 0
M  V30 576 H 51.2345 0.0589143 -0.661381 0
M  V30 577 H 53.7645 -0.448807 -1.99617 0
M  V30 578 H 53.7745 1.02459 -3.94925 0
M  V30 579 H 52.4495 -0.108773 -4.15758 0
M  V30 580 H 51.0265 1.55398 -3.38978 0
M  V30 581 N 53.2116 1.57565 -0.0334293 0
M  V30 582 C 54.1416 2.13511 0.945265 0
M  V30 583 C 55.1226 1.05231 1.33643 0
M  V30 584 O 56.3076 1.33084 1.41429 0
M  V30 585 C 53.4376 2.6657 2.22616 0
M  V30 586 C 52.3916 3.79676 1.97561 0
M  V30 587 C 51.7176 4.1918 3.31952 0
M  V30 588 C 53.0176 5.0557 1.31135 0
M  V30 589 H 54.7116 2.95538 0.479325 0
M  V30 590 H 52.2576 1.42166 0.229115 0
M  V30 591 H 54.2106 3.04344 2.91466 0
M  V30 592 H 52.9346 1.8171 2.71384 0
M  V30 593 H 51.5936 3.42347 1.31127 0
M  V30 594 H 51.2416 3.31296 3.78487 0
M  V30 595 H 50.9416 4.95402 3.15992 0
M  V30 596 H 52.4656 4.59541 4.02063 0
M  V30 597 H 53.8796 5.40903 1.89992 0
M  V30 598 H 52.2766 5.86818 1.25559 0
M  V30 599 H 53.3466 4.84062 0.284894 0
M  V30 600 N 54.6897 -0.239769 1.55765 0
M  V30 601 C 55.9357 -0.968234 1.78194 0
M  V30 602 C 56.2687 -1.84701 0.599938 0
M  V30 603 O 55.5437 -1.9031 -0.401524 0
M  V30 604 C 55.8267 -1.8227 3.10564 0
M  V30 605 C 55.6797 -0.971633 4.3918 0
M  V30 606 C 56.9987 -2.80388 3.39221 0
M  V30 607 H 54.1177 -0.350572 0.648281 0
M  V30 608 H 56.7597 -0.238259 1.885 0
M  V30 609 H 54.9097 -2.44507 3.01908 0
M  V30 610 H 56.5817 -0.367408 4.59835 0
M  V30 611 H 54.8247 -0.276276 4.32919 0
M  V30 612 H 55.4957 -1.60346 5.28198 0
M  V30 613 H 57.9717 -2.28287 3.47885 0
M  V30 614 H 56.8477 -3.3729 4.33044 0
M  V30 615 H 57.1087 -3.57212 2.60484 0
M  V30 616 N 56.1678 -1.49265 -0.50573 0
M  V30 617 C 57.1308 -1.65075 -1.59006 0
M  V30 618 C 58.1308 -0.522768 -1.52065 0
M  V30 619 O 59.3208 -0.789117 -1.55302 0
M  V30 620 C 56.4528 -1.64369 -2.98656 0
M  V30 621 H 57.6458 -2.61784 -1.46319 0
M  V30 622 H 55.1988 -1.38226 -0.729616 0
M  V30 623 H 55.9338 -0.692272 -3.16825 0
M  V30 624 H 55.7188 -2.46282 -3.05103 0
M  V30 625 H 57.2088 -1.78674 -3.77446 0
M  V30 626 N 57.6459 0.756429 -1.3826 0
M  V30 627 C 58.6089 1.85176 -1.35065 0
M  V30 628 C 59.6089 1.58818 -0.251703 0
M  V30 629 O 60.7989 1.66615 -0.508433 0
M  V30 630 C 57.9309 3.22596 -1.10201 0
M  V30 631 H 59.1239 1.89417 -2.3251 0
M  V30 632 H 56.6769 0.95783 -1.23512 0
M  V30 633 H 57.4119 3.24025 -0.133504 0
M  V30 634 H 57.1969 3.43122 -1.89762 0
M  V30 635 H 58.6869 4.02673 -1.10654 0
M  V30 636 N 59.124 1.23083 0.984299 0
M  V30 637 C 60.54 0.992637 1.24975 0
M  V30 638 C 60.74 -0.308618 1.99123 0
M  V30 639 O 59.796 -1.02905 2.30579 0
M  V30 640 C 61.109 2.19698 2.05312 0
M  V30 641 C 62.657 2.24147 2.18465 0
M  V30 642 C 63.132 3.44157 3.02192 0
M  V30 643 N 64.623 3.44372 3.09777 0
M  V30 644 C 65.358 4.33886 3.74874 0
M  V30 645 N 64.854 5.3363 4.41827 0
M  V30 646 N 66.647 4.21639 3.71721 0
M  V30 647 H 58.798 2.06731 0.487453 0
M  V30 648 H 61.061 0.906339 0.277944 0
M  V30 649 H 60.767 3.1411 1.58201 0
M  V30 650 H 60.641 2.20465 3.06064 0
M  V30 651 H 63.028 1.30277 2.64786 0
M  V30 652 H 63.109 2.27415 1.17115 0
M  V30 653 H 62.753 4.38332 2.56568 0
M  V30 654 H 62.683 3.3813 4.03702 0
M  V30 655 H 65.174 2.72201 2.62135 0
M  V30 656 H 65.487 5.98196 4.89266 0
M  V30 657 H 63.832 5.37534 4.40548 0
M  V30 658 H 67.023 3.42962 3.18582 0
M  V30 659 H 67.196 4.91604 4.22173 0
M  V30 660 N 60.6021 -1.18246 1.0419 0
M  V30 661 C 61.5321 -2.24127 0.654914 0
M  V30 662 C 62.5131 -1.66617 -0.342451 0
M  V30 663 O 63.6981 -1.92924 -0.222277 0
M  V30 664 C 60.8281 -3.47295 0.0183757 0
M  V30 665 C 59.7821 -4.17563 0.939414 0
M  V30 666 C 59.1081 -5.34438 0.167286 0
M  V30 667 C 60.4081 -4.70917 2.25908 0
M  V30 668 H 62.1021 -2.56753 1.54007 0
M  V30 669 H 59.6481 -1.23414 0.74195 0
M  V30 670 H 61.6011 -4.20572 -0.264082 0
M  V30 671 H 60.3251 -3.13907 -0.901664 0
M  V30 672 H 58.9841 -3.46186 1.20628 0
M  V30 673 H 58.6321 -4.97298 -0.7552 0
M  V30 674 H 58.3321 -5.82388 0.780901 0
M  V30 675 H 59.8561 -6.10504 -0.108125 0
M  V30 676 H 61.2701 -5.35882 2.03724 0
M  V30 677 H 59.6671 -5.29406 2.82577 0
M  V30 678 H 60.7371 -3.88272 2.9047 0
M  V30 679 N 62.0802 -0.821533 -1.34494 0
M  V30 680 C 63.3282 -0.408139 -1.97936 0
M  V30 681 C 63.6492 1.03193 -1.65457 0
M  V30 682 O 62.9192 1.71622 -0.944595 0
M  V30 683 H 61.4992 -0.147928 -0.732206 0
M  V30 684 H 64.1612 -1.05067 -1.64155 0
M  V30 685 H 63.2572 -0.52601 -3.07635 0
M  V30 686 N 63.5583 1.46682 -0.576371 0
M  V30 687 C 64.8043 2.02712 -0.0596221 0
M  V30 688 C 65.1373 1.44765 1.29448 0
M  V30 689 O 64.4123 0.610355 1.84675 0
M  V30 690 C 64.6953 3.60098 0.0129503 0
M  V30 691 C 64.5483 4.28441 -1.3696 0
M  V30 692 C 65.8673 4.34224 0.71678 0
M  V30 693 H 62.9863 0.736637 -0.0231407 0
M  V30 694 H 65.6283 1.74898 -0.742351 0
M  V30 695 H 63.7783 3.83926 0.594378 0
M  V30 696 H 65.4503 4.15896 -1.9957 0
M  V30 697 H 63.6933 3.8805 -1.93907 0
M  V30 698 H 64.3643 5.3716 -1.27135 0
M  V30 699 H 66.8403 4.15503 0.222908 0
M  V30 700 H 65.7163 5.43936 0.73657 0
M  V30 701 H 65.9773 4.04823 1.77682 0
M  V30 702 N 65.0364 0.313813 1.54444 0
M  V30 703 C 65.9664 -0.549454 2.26943 0
M  V30 704 C 66.9474 -1.12741 1.27372 0
M  V30 705 O 68.1324 -1.15436 1.56167 0
M  V30 706 C 65.2624 -1.71523 3.01989 0
M  V30 707 C 64.2164 -1.26703 4.08816 0
M  V30 708 C 63.5424 -2.51898 4.71647 0
M  V30 709 C 64.8424 -0.388962 5.2085 0
M  V30 710 H 66.5364 0.0552661 2.99349 0
M  V30 711 H 64.0824 0.0280207 1.43973 0
M  V30 712 H 66.0354 -2.32535 3.51433 0
M  V30 713 H 64.7594 -2.34639 2.27183 0
M  V30 714 H 63.4184 -0.679896 3.6024 0
M  V30 715 H 63.0664 -3.13356 3.93468 0
M  V30 716 H 62.7664 -2.22605 5.43802 0
M  V30 717 H 64.2904 -3.1369 5.23861 0
M  V30 718 H 65.7044 -0.905107 5.6611 0
M  V30 719 H 64.1014 -0.18924 5.99802 0
M  V30 720 H 65.1714 0.582699 4.81386 0
M  V30 721 N 66.5145 -1.57545 0.0417849 0
M  V30 722 C 67.4615 -2.10977 -0.935805 0
M  V30 723 C 68.4315 -1.01486 -1.31491 0
M  V30 724 O 69.6165 -1.2898 -1.40602 0
M  V30 725 C 66.7565 -2.65169 -2.2086 0
M  V30 726 C 65.8695 -3.88714 -1.88482 0
M  V30 727 C 65.0045 -4.31254 -3.1015 0
M  V30 728 C 64.0435 -5.47524 -2.7365 0
M  V30 729 N 63.1805 -5.85162 -3.87982 0
M  V30 730 H 68.0205 -2.94218 -0.473249 0
M  V30 731 H 65.5575 -1.45415 -0.221981 0
M  V30 732 H 67.5155 -2.94685 -2.95325 0
M  V30 733 H 66.1455 -1.8474 -2.64709 0
M  V30 734 H 65.1975 -3.65849 -1.04205 0
M  V30 735 H 66.5095 -4.73245 -1.57608 0
M  V30 736 H 65.6635 -4.62273 -3.92923 0
M  V30 737 H 64.4025 -3.45516 -3.44195 0
M  V30 738 H 63.4075 -5.16187 -1.89291 0
M  V30 739 H 64.6325 -6.34971 -2.40807 0
M  V30 740 H 62.5785 -5.02377 -4.21846 0
M  V30 741 H 62.4955 -6.64362 -3.60775 0
M  V30 742 H 63.7635 -6.20791 -4.71422 0
M  V30 743 N 67.9926 0.231505 -1.5589 0
M  V30 744 C 69.4036 0.799327 -1.68724 0
M  V30 745 C 69.7546 1.85398 -0.642022 0
M  V30 746 O 68.8796 2.1539 0.208784 0
M  V30 747 C 69.4746 1.45664 -3.05888 0
M  V30 748 C 68.0336 1.97197 -3.20609 0
M  V30 749 C 67.1806 0.828552 -2.64632 0
M  V30 750 H 70.1316 0.00702616 -1.58698 0
M  V30 751 H 70.1526 2.32517 -3.01191 0
M  V30 752 H 69.6646 0.688808 -3.81939 0
M  V30 753 H 67.7656 2.76813 -2.4941 0
M  V30 754 H 67.8786 2.15878 -4.27707 0
M  V30 755 H 66.2426 1.23321 -2.22854 0
M  V30 756 H 67.0256 0.0735544 -3.43221 0
M  V30 757 N 69.4707 1.49531 0.497807 0
M  V30 758 C 70.4337 1.65916 1.58128 0
M  V30 759 C 71.4337 0.530825 1.51786 0
M  V30 760 O 72.6237 0.797342 1.54881 0
M  V30 761 C 69.7557 1.65951 2.9778 0
M  V30 762 H 70.9487 2.62556 1.44929 0
M  V30 763 H 68.5017 1.38611 0.722275 0
M  V30 764 H 69.2367 0.709065 3.16453 0
M  V30 765 H 69.0217 2.47897 3.03792 0
M  V30 766 H 70.5117 1.80673 3.76493 0
M  V30 767 N 70.9488 -0.749086 1.3866 0
M  V30 768 C 72.3598 -1.32664 1.31366 0
M  V30 769 C 72.7108 -1.96179 -0.028484 0
M  V30 770 O 71.8358 -1.9537 -0.93057 0
M  V30 771 C 72.4308 -2.41219 2.37905 0
M  V30 772 C 70.9898 -2.94684 2.34176 0
M  V30 773 C 70.1368 -1.68108 2.20533 0
M  V30 774 H 73.0878 -0.547628 1.48952 0
M  V30 775 H 73.1088 -3.21268 2.0388 0
M  V30 776 H 72.6208 -1.94962 3.35576 0
M  V30 777 H 70.7218 -3.45258 1.401 0
M  V30 778 H 70.8348 -3.48757 3.2849 0
M  V30 779 H 69.1988 -1.91907 1.67463 0
M  V30 780 H 69.9818 -1.23923 3.20153 0
M  V30 781 N 72.4269 -1.23603 -0.977757 0
M  V30 782 C 73.6739 -1.06971 -1.71941 0
M  V30 783 C 74.0019 0.393009 -1.90488 0
M  V30 784 O 73.2569 1.30719 -1.4564 0
M  V30 785 C 73.5559 -1.7433 -3.11999 0
M  V30 786 C 73.2219 -3.24252 -3.13323 0
M  V30 787 C 71.8839 -3.65156 -3.13392 0
M  V30 788 C 74.2359 -4.20141 -3.08433 0
M  V30 789 C 71.5639 -5.00403 -3.0629 0
M  V30 790 C 73.9159 -5.55384 -3.02873 0
M  V30 791 C 72.5799 -5.95647 -3.01265 0
M  V30 792 H 71.8499 -0.391433 -0.629175 0
M  V30 793 H 74.4969 -1.53572 -1.14403 0
M  V30 794 H 72.8019 -1.20096 -3.7294 0
M  V30 795 H 74.4989 -1.58936 -3.68158 0
M  V30 796 H 71.0889 -2.91692 -3.14029 0
M  V30 797 H 75.2729 -3.89547 -3.07517 0
M  V30 798 H 70.5289 -5.3081 -3.03399 0
M  V30 799 H 74.7029 -6.29398 -2.98046 0
M  V30 800 H 72.3299 -7.0041 -2.95516 0
M  V30 801 N 73.905 1.17692 -1.04816 0
M  V30 802 C 75.151 1.88137 -0.75711 0
M  V30 803 C 75.484 1.80604 0.713841 0
M  V30 804 O 74.759 1.21146 1.52164 0
M  V30 805 C 75.042 3.38318 -1.2334 0
M  V30 806 C 74.895 3.54622 -2.76701 0
M  V30 807 C 76.214 4.32214 -0.829415 0
M  V30 808 H 73.333 0.683163 -0.27651 0
M  V30 809 H 75.975 1.38424 -1.30149 0
M  V30 810 H 74.125 3.80787 -0.770286 0
M  V30 811 H 75.797 3.21194 -3.31107 0
M  V30 812 H 74.04 2.97026 -3.16161 0
M  V30 813 H 74.711 4.60028 -3.05088 0
M  V30 814 H 77.187 3.97565 -1.22805 0
M  V30 815 H 76.063 5.35838 -1.19033 0
M  V30 816 H 76.324 4.41294 0.266891 0
M  V30 817 N 75.3831 0.828654 1.34056 0
M  V30 818 C 76.6301 0.419458 1.98108 0
M  V30 819 C 76.9581 -1.01886 1.65679 0
M  V30 820 O 76.2131 -1.72539 0.923512 0
M  V30 821 C 76.5121 0.575226 3.52741 0
M  V30 822 C 76.1781 1.98012 4.05095 0
M  V30 823 C 74.8401 2.36442 4.19104 0
M  V30 824 C 77.1921 2.89824 4.33188 0
M  V30 825 C 74.5201 3.66009 4.58535 0
M  V30 826 C 76.8721 4.1886 4.74066 0
M  V30 827 C 75.5361 4.5726 4.86281 0
M  V30 828 H 74.8061 0.153491 0.724929 0
M  V30 829 H 77.4531 1.05371 1.59904 0
M  V30 830 H 75.7581 -0.142385 3.91541 0
M  V30 831 H 77.4551 0.239057 4.00287 0
M  V30 832 H 74.0451 1.67162 3.94658 0
M  V30 833 H 78.2291 2.61375 4.21897 0
M  V30 834 H 73.4851 3.95579 4.66184 0
M  V30 835 H 77.6591 4.90086 4.94761 0
M  V30 836 H 75.2861 5.57707 5.16592 0
M  V30 837 N 76.8612 -1.46375 0.584142 0
M  V30 838 C 78.0892 -2.06761 0.0759296 0
M  V30 839 C 78.5042 -1.43266 -1.22965 0
M  V30 840 O 77.8612 -0.538458 -1.74376 0
M  V30 841 C 77.9122 -3.61375 -0.0950384 0
M  V30 842 O 77.6332 -4.22495 1.15887 0
M  V30 843 C 79.1342 -4.38693 -0.637434 0
M  V30 844 H 76.3542 -0.668479 0.0581075 0
M  V30 845 H 78.8982 -1.8798 0.805218 0
M  V30 846 H 77.0532 -3.79578 -0.774554 0
M  V30 847 H 77.4672 -5.15385 0.973598 0
M  V30 848 H 78.9412 -5.47464 -0.706237 0
M  V30 849 H 79.4182 -4.06836 -1.65472 0
M  V30 850 H 80.0242 -4.25299 0.00725967 0
M  V30 851 N 78.3393 -0.321999 -1.54275 0
M  V30 852 C 79.5853 0.281461 -2.00837 0
M  V30 853 C 79.9183 1.51909 -1.20985 0
M  V30 854 O 79.1933 1.923 -0.291733 0
M  V30 855 C 79.4763 0.617162 -3.54772 0
M  V30 856 C 79.3293 -0.631064 -4.45351 0
M  V30 857 C 80.6483 1.43542 -4.16033 0
M  V30 858 H 77.7673 0.100826 -0.730071 0
M  V30 859 H 80.4093 -0.438268 -1.84876 0
M  V30 860 H 78.5593 1.23034 -3.68504 0
M  V30 861 H 80.2313 -1.26934 -4.43492 0
M  V30 862 H 78.4743 -1.26025 -4.15091 0
M  V30 863 H 79.1453 -0.351735 -5.50878 0
M  V30 864 H 81.6213 0.917134 -4.05867 0
M  V30 865 H 80.4973 1.63907 -5.23856 0
M  V30 866 H 80.7583 2.43108 -3.69257 0
M  V30 867 N 79.8174 1.5752 -0.0501392 0
M  V30 868 C 80.7804 2.1037 0.909786 0
M  V30 869 C 81.7804 1.02308 1.24056 0
M  V30 870 O 82.9704 1.28385 1.17741 0
M  V30 871 C 80.1024 2.58708 2.21998 0
M  V30 872 H 81.2954 2.96479 0.451665 0
M  V30 873 H 78.8484 1.55038 0.198248 0
M  V30 874 H 79.5834 1.75989 2.72394 0
M  V30 875 H 79.3684 3.37675 1.99295 0
M  V30 876 H 80.8584 2.99747 2.9076 0
M  V30 877 N 81.2955 -0.223234 1.56011 0
M  V30 878 C 82.5435 -0.946003 1.78592 0
M  V30 879 C 82.8645 -1.84936 0.618349 0
M  V30 880 O 82.1345 -1.92473 -0.364833 0
M  V30 881 H 80.7145 -0.352298 0.658707 0
M  V30 882 H 83.3765 -0.235494 1.93472 0
M  V30 883 H 82.4725 -1.55381 2.70672 0
M  V30 884 N 82.7736 -1.49793 -0.48987 0
M  V30 885 C 84.0016 -1.63568 -1.26701 0
M  V30 886 C 84.4166 -0.311465 -1.86213 0
M  V30 887 O 83.7736 0.704416 -1.68357 0
M  V30 888 C 83.8246 -2.71284 -2.38929 0
M  V30 889 O 83.5456 -3.9857 -1.81861 0
M  V30 890 C 85.0466 -2.95864 -3.3012 0
M  V30 891 H 82.2666 -0.550342 -0.383881 0
M  V30 892 H 84.8106 -1.95898 -0.586864 0
M  V30 893 H 82.9656 -2.417 -3.02753 0
M  V30 894 H 83.3796 -4.57993 -2.55622 0
M  V30 895 H 84.8536 -3.74941 -4.05121 0
M  V30 896 H 85.3306 -2.06206 -3.87783 0
M  V30 897 H 85.9366 -3.26907 -2.72051 0
M  V30 898 N 84.2517 0.741722 -1.39055 0
M  V30 899 C 85.1997 1.87702 -1.3737 0
M  V30 900 C 86.1937 1.67427 -0.257812 0
M  V30 901 O 87.3997 1.7485 -0.427489 0
M  V30 902 H 83.7747 0.617757 -0.428812 0
M  V30 903 H 85.7457 1.86239 -2.33147 0
M  V30 904 C 84.4947 3.25315 -1.22741 0
M  V30 905 H 83.8177 3.41509 -2.07873 0
M  V30 906 H 85.2577 4.04964 -1.25618 0
M  V30 907 C 83.7167 3.36838 0.0647316 0
M  V30 908 O 84.2467 3.88073 1.03741 0
M  V30 909 N 82.4527 2.90329 0.125544 0
M  V30 910 H 81.9997 2.48823 -0.666682 0
M  V30 911 H 81.9577 2.98418 0.989639 0
M  V30 912 N 85.7298 1.2412 0.971189 0
M  V30 913 C 86.9778 1.07668 1.71032 0
M  V30 914 C 87.2988 -0.385797 1.91146 0
M  V30 915 O 86.5688 -1.27569 1.4867 0
M  V30 916 H 85.1488 0.395429 0.633755 0
M  V30 917 H 87.8108 1.55984 1.16855 0
M  V30 918 H 86.9068 1.57195 2.69622 0
M  V30 919 N 87.2079 -1.17134 1.05439 0
M  V30 920 C 88.1549 -2.21235 0.657539 0
M  V30 921 C 89.1249 -1.62551 -0.341543 0
M  V30 922 O 90.3099 -1.89379 -0.232393 0
M  V30 923 C 87.4499 -3.45076 0.0410575 0
M  V30 924 C 86.5629 -4.18042 1.08927 0
M  V30 925 C 85.6979 -5.29376 0.439848 0
M  V30 926 C 84.7369 -5.94132 1.4722 0
M  V30 927 N 83.8739 -6.96975 0.846756 0
M  V30 928 H 88.7139 -2.54534 1.54972 0
M  V30 929 H 86.2509 -1.25028 0.775006 0
M  V30 930 H 88.2089 -4.15862 -0.33383 0
M  V30 931 H 86.8389 -3.12353 -0.814568 0
M  V30 932 H 85.8909 -3.45945 1.58196 0
M  V30 933 H 87.2029 -4.62306 1.87282 0
M  V30 934 H 86.3569 -6.06699 0.0115125 0
M  V30 935 H 85.0959 -4.86251 -0.375656 0
M  V30 936 H 84.1009 -5.15538 1.91052 0
M  V30 937 H 85.3259 -6.39337 2.28965 0
M  V30 938 H 83.2719 -6.5598 0.0518075 0
M  V30 939 H 83.1889 -7.39565 1.5678 0
M  V30 940 H 84.4569 -7.78239 0.443277 0
M  V30 941 N 88.686 -0.835752 -1.33615 0
M  V30 942 C 89.934 -0.429109 -1.97492 0
M  V30 943 C 90.255 1.01433 -1.66543 0
M  V30 944 O 89.525 1.70611 -0.962744 0
M  V30 945 H 88.105 -0.155686 -0.730596 0
M  V30 946 H 90.767 -1.06802 -1.63031 0
M  V30 947 H 89.863 -0.55861 -3.0706 0
M  V30 948 N 90.1641 1.46063 -0.591896 0
M  V30 949 C 91.3921 2.06717 -0.0868936 0
M  V30 950 C 91.8071 1.43916 1.22203 0
M  V30 951 O 91.1641 0.547698 1.74088 0
M  V30 952 C 91.2151 3.6142 0.0758725 0
M  V30 953 O 90.9361 4.21874 -1.18126 0
M  V30 954 C 92.4371 4.39025 0.61416 0
M  V30 955 H 89.6571 0.668162 -0.0616518 0
M  V30 956 H 92.2011 1.8755 -0.815175 0
M  V30 957 H 90.3561 3.79983 0.754413 0
M  V30 958 H 90.7701 5.14861 -1.00092 0
M  V30 959 H 92.2441 5.4783 0.677193 0
M  V30 960 H 92.7211 4.07708 1.63312 0
M  V30 961 H 93.3271 4.2529 -0.0298142 0
M  V30 962 N 91.6422 0.330177 1.54103 0
M  V30 963 C 92.8702 -0.272179 2.05102 0
M  V30 964 C 93.2852 -1.45267 1.20595 0
M  V30 965 O 92.6422 -1.8094 0.238144 0
M  V30 966 C 92.6932 -0.70023 3.54653 0
M  V30 967 O 92.4142 0.433301 4.35952 0
M  V30 968 C 93.9152 -1.3647 4.21771 0
M  V30 969 H 91.1352 -0.0549159 0.668749 0
M  V30 970 H 93.6792 0.478285 1.98828 0
M  V30 971 H 91.8342 -1.40066 3.61193 0
M  V30 972 H 92.2482 0.0947539 5.24414 0
M  V30 973 H 93.7222 -1.61509 5.27843 0
M  V30 974 H 94.1992 -2.31409 3.73292 0
M  V30 975 H 94.8052 -0.706675 4.19388 0
M  V30 976 N 93.1203 -1.57491 0.0584922 0
M  V30 977 C 94.3603 -1.94851 -0.617458 0
M  V30 978 C 94.7243 -0.937165 -1.67575 0
M  V30 979 O 95.9253 -1.19795 -2.40629 0
M  V30 980 C 94.1963 -3.36955 -1.19147 0
M  V30 981 S 95.7553 -3.96277 -1.8844 0
M  V30 982 H 92.5733 -0.681539 -0.202547 0
M  V30 983 H 95.1753 -1.95073 0.129176 0
M  V30 984 H 93.8793 -4.08355 -0.409215 0
M  V30 985 H 93.4103 -3.40245 -1.97476 0
M  V30 986 H 95.4253 -3.82099 -3.16568 0
M  V30 987 N 94.5984 0.214957 -1.56127 0
M  V30 988 C 96.0144 0.564948 -1.49267 0
M  V30 989 C 96.2144 1.86827 -0.754838 0
M  V30 990 O 95.2704 2.50745 -0.297198 0
M  V30 991 C 96.5834 0.638071 -2.93852 0
M  V30 992 C 98.1314 0.728253 -3.0441 0
M  V30 993 C 98.6064 0.832663 -4.50367 0
M  V30 994 N 100.097 0.896712 -4.54437 0
M  V30 995 C 100.832 0.997324 -5.6466 0
M  V30 996 N 100.328 1.06147 -6.8462 0
M  V30 997 N 102.121 1.03297 -5.52527 0
M  V30 998 H 94.2724 -0.640211 -2.02522 0
M  V30 999 H 96.5354 -0.225507 -0.920788 0
M  V30 1000 H 96.2414 -0.250126 -3.50809 0
M  V30 1001 H 96.1154 1.49947 -3.46115 0
M  V30 1002 H 98.5024 1.60689 -2.47514 0
M  V30 1003 H 98.5834 -0.158952 -2.55306 0
M  V30 1004 H 98.2274 -0.0415417 -5.07883 0
M  V30 1005 H 98.1574 1.73538 -4.97184 0
M  V30 1006 H 100.648 0.857188 -3.6805 0
M  V30 1007 H 100.961 1.1382 -7.64372 0
M  V30 1008 H 99.3064 1.03049 -6.87318 0
M  V30 1009 H 102.497 0.979558 -4.57736 0
M  V30 1010 H 102.67 1.10793 -6.38458 0
M  V30 1011 N 96.0765 1.50051 0.48192 0
M  V30 1012 C 97.3045 1.64237 1.25832 0
M  V30 1013 C 97.7195 0.321336 1.86045 0
M  V30 1014 O 97.0765 -0.695478 1.68729 0
M  V30 1015 C 97.1275 2.72548 2.37487 0
M  V30 1016 O 96.8485 3.99529 1.79745 0
M  V30 1017 C 98.3495 2.9761 3.28547 0
M  V30 1018 H 95.5695 0.55237 0.380957 0
M  V30 1019 H 98.1135 1.96207 0.576467 0
M  V30 1020 H 96.2685 2.43303 3.01467 0
M  V30 1021 H 96.6825 4.59342 2.5319 0
M  V30 1022 H 98.1565 3.77084 4.03127 0
M  V30 1023 H 98.6335 2.0826 3.86684 0
M  V30 1024 H 99.2395 3.28345 2.70314 0
M  V30 1025 N 97.5546 -0.734337 1.39446 0
M  V30 1026 C 98.4846 -1.86155 1.40955 0
M  V30 1027 C 99.4656 -1.67898 0.272827 0
M  V30 1028 O 100.651 -1.88207 0.478743 0
M  V30 1029 C 97.7806 -3.23912 1.25294 0
M  V30 1030 C 96.7346 -3.56808 2.36373 0
M  V30 1031 C 96.0606 -4.93508 2.058 0
M  V30 1032 C 97.3606 -3.59713 3.78687 0
M  V30 1033 H 99.0546 -1.8515 2.35287 0
M  V30 1034 H 96.6006 -0.889367 1.13253 0
M  V30 1035 H 98.5536 -4.02443 1.2497 0
M  V30 1036 H 97.2776 -3.25446 0.274308 0
M  V30 1037 H 95.9366 -2.80606 2.35914 0
M  V30 1038 H 95.5846 -4.91623 1.06374 0
M  V30 1039 H 95.2846 -5.16486 2.80208 0
M  V30 1040 H 96.8086 -5.74396 2.07128 0
M  V30 1041 H 98.2226 -4.2832 3.81071 0
M  V30 1042 H 96.6196 -3.94209 4.52459 0
M  V30 1043 H 97.6896 -2.59504 4.09617 0
M  V30 1044 N 99.0327 -1.24633 -0.964593 0
M  V30 1045 C 99.9427 -1.05859 -2.09359 0
M  V30 1046 C 100.959 0.00148855 -1.74 0
M  V30 1047 O 102.135 -0.197346 -2.00431 0
M  V30 1048 C 99.1997 -0.668879 -3.40187 0
M  V30 1049 C 98.2607 -1.80578 -3.89474 0
M  V30 1050 C 97.4937 -1.43457 -5.14058 0
M  V30 1051 O 97.7167 -0.325775 -5.69469 0
M  V30 1052 O 96.6507 -2.2613 -5.57807 0
M  V30 1053 H 100.477 -2.00516 -2.28094 0
M  V30 1054 H 98.0617 -1.03481 -1.0776 0
M  V30 1055 H 99.9437 -0.463211 -4.18846 0
M  V30 1056 H 98.6187 0.248536 -3.22744 0
M  V30 1057 H 97.5257 -2.06623 -3.11862 0
M  V30 1058 H 98.8587 -2.70208 -4.11398 0
M  V30 1059 N 100.511 1.16574 -1.06058 0
M  V30 1060 C 101.736 1.91493 -0.796562 0
M  V30 1061 C 102.161 1.76773 0.642868 0
M  V30 1062 O 101.519 1.09142 1.44768 0
M  V30 1063 C 101.567 3.40293 -1.19303 0
M  V30 1064 O 100.671 4.11074 -0.330394 0
M  V30 1065 H 100.012 0.596678 -0.291326 0
M  V30 1066 H 102.542 1.47708 -1.41575 0
M  V30 1067 H 102.552 3.91057 -1.16356 0
M  V30 1068 H 101.227 3.50326 -2.24153 0
M  V30 1069 H 99.8038 3.70513 -0.421225 0
M  V30 1070 N 101.989 0.842826 1.3317 0
M  V30 1071 C 103.238 0.436738 1.96915 0
M  V30 1072 C 103.551 -1.01025 1.67491 0
M  V30 1073 O 104.757 -1.5212 2.24881 0
M  V30 1074 C 103.213 0.730021 3.52418 0
M  V30 1075 C 102.821 2.19195 3.90714 0
M  V30 1076 C 104.565 0.391076 4.22695 0
M  V30 1077 C 102.472 2.42907 5.39212 0
M  V30 1078 H 101.402 0.15958 0.736919 0
M  V30 1079 H 104.053 1.03196 1.51733 0
M  V30 1080 H 102.435 0.0643755 3.95948 0
M  V30 1081 H 103.609 2.8984 3.58231 0
M  V30 1082 H 101.924 2.49425 3.33431 0
M  V30 1083 H 104.521 0.545817 5.31907 0
M  V30 1084 H 104.864 -0.666294 4.10933 0
M  V30 1085 H 105.397 1.01212 3.84709 0
M  V30 1086 H 102.136 3.47224 5.55982 0
M  V30 1087 H 101.656 1.76827 5.73142 0
M  V30 1088 H 103.335 2.2626 6.06148 0
M  V30 1089 N 103.467 -1.45747 0.599634 0
M  V30 1090 C 104.397 -2.33235 -0.111306 0
M  V30 1091 C 105.378 -1.46359 -0.866781 0
M  V30 1092 O 106.563 -1.75146 -0.838904 0
M  V30 1093 C 103.693 -3.28932 -1.11451 0
M  V30 1094 C 102.647 -4.25381 -0.472772 0
M  V30 1095 C 101.973 -5.1071 -1.58365 0
M  V30 1096 C 103.273 -5.18831 0.600948 0
M  V30 1097 H 104.967 -2.92927 0.61919 0
M  V30 1098 H 102.513 -1.40857 0.299215 0
M  V30 1099 H 104.466 -3.89002 -1.62036 0
M  V30 1100 H 103.19 -2.67381 -1.8755 0
M  V30 1101 H 101.849 -3.66598 0.0121472 0
M  V30 1102 H 101.497 -4.45533 -2.33473 0
M  V30 1103 H 101.197 -5.7604 -1.15982 0
M  V30 1104 H 102.721 -5.73647 -2.09194 0
M  V30 1105 H 104.135 -5.73019 0.179491 0
M  V30 1106 H 102.532 -5.92595 0.946076 0
M  V30 1107 H 103.602 -4.6174 1.48068 0
M  V30 1108 N 104.945 -0.338344 -1.53925 0
M  V30 1109 C 105.878 0.563758 -2.21127 0
M  V30 1110 C 106.856 1.10433 -1.19345 0
M  V30 1111 O 108.04 1.16557 -1.48144 0
M  V30 1112 C 105.167 1.77505 -2.88461 0
M  V30 1113 C 104.213 1.3644 -4.04087 0
M  V30 1114 S 105.046 0.388593 -5.34088 0
M  V30 1115 C 106.202 1.60683 -6.04923 0
M  V30 1116 H 106.435 -0.00704546 -2.97299 0
M  V30 1117 H 103.968 -0.122418 -1.53914 0
M  V30 1118 H 105.926 2.46999 -3.27875 0
M  V30 1119 H 104.587 2.31706 -2.12064 0
M  V30 1120 H 103.78 2.26739 -4.50117 0
M  V30 1121 H 103.382 0.748998 -3.66423 0
M  V30 1122 H 105.674 2.54209 -6.28 0
M  V30 1123 H 106.617 1.18842 -6.98056 0
M  V30 1124 H 107.025 1.80052 -5.35015 0
M  V30 1125 N 106.423 1.57458 -0.0668435 0
M  V30 1126 C 107.386 2.11323 0.887422 0
M  V30 1127 C 108.386 1.03618 1.22964 0
M  V30 1128 O 109.576 1.29626 1.16373 0
M  V30 1129 C 106.708 2.61048 2.19242 0
M  V30 1130 H 107.901 2.96942 0.420194 0
M  V30 1131 H 105.454 1.55239 0.181793 0
M  V30 1132 H 106.189 1.78868 2.70512 0
M  V30 1133 H 105.974 3.39769 1.95702 0
M  V30 1134 H 107.464 3.02814 2.87565 0
M  V30 1135 N 107.901 -0.206675 1.56239 0
M  V30 1136 C 108.864 -1.23976 1.92776 0
M  V30 1137 C 109.864 -1.39041 0.807729 0
M  V30 1138 O 111.054 -1.37051 1.0753 0
M  V30 1139 C 108.186 -2.61112 2.19165 0
M  V30 1140 H 109.379 -0.927764 2.85189 0
M  V30 1141 H 106.932 -0.447718 1.4975 0
M  V30 1142 H 107.667 -2.97386 1.29352 0
M  V30 1143 H 107.452 -2.51552 3.00772 0
M  V30 1144 H 108.942 -3.35633 2.48476 0
M  V30 1145 N 109.379 -1.50304 -0.473955 0
M  V30 1146 C 110.627 -1.60832 -1.22382 0
M  V30 1147 C 110.948 -0.30939 -1.9253 0
M  V30 1148 O 110.218 0.67296 -1.83978 0
M  V30 1149 H 108.798 -0.592652 -0.454723 0
M  V30 1150 H 111.46 -1.87068 -0.546968 0
M  V30 1151 H 110.556 -2.41803 -1.97327 0
M  V30 1152 N 110.857 0.726932 -1.39834 0
M  V30 1153 C 112.087 1.51393 -1.40583 0
M  V30 1154 C 112.495 1.892 -0.000740625 0
M  V30 1155 O 111.838 1.55189 0.982951 0
M  V30 1156 C 111.9 2.82588 -2.22226 0
M  V30 1157 C 111.564 2.67169 -3.70769 0
M  V30 1158 C 112.561 2.3518 -4.63666 0
M  V30 1159 C 110.246 2.83788 -4.14451 0
M  V30 1160 C 112.24 2.20002 -5.98229 0
M  V30 1161 C 109.927 2.68229 -5.49087 0
M  V30 1162 C 110.925 2.36382 -6.4079 0
M  V30 1163 O 110.613 2.2093 -7.72946 0
M  V30 1164 H 110.345 0.474168 -0.48181 0
M  V30 1165 H 112.899 0.905247 -1.84376 0
M  V30 1166 H 111.129 3.45746 -1.73195 0
M  V30 1167 H 112.818 3.44247 -2.15055 0
M  V30 1168 H 113.584 2.21984 -4.31217 0
M  V30 1169 H 109.463 3.07566 -3.43401 0
M  V30 1170 H 113.007 1.95067 -6.69772 0
M  V30 1171 H 108.904 2.81006 -5.81125 0
M  V30 1172 H 109.672 2.35937 -7.83757 0
M  V30 1173 N 112.336 1.25143 0.95797 0
M  V30 1174 C 113.283 1.05235 2.05412 0
M  V30 1175 C 114.253 -0.0374561 1.66058 0
M  V30 1176 O 115.438 0.119073 1.90428 0
M  V30 1177 C 112.578 0.673589 3.38462 0
M  V30 1178 C 111.691 1.8379 3.90954 0
M  V30 1179 C 110.826 1.40381 5.12315 0
M  V30 1180 C 109.865 2.53746 5.57027 0
M  V30 1181 N 109.002 2.11136 6.69601 0
M  V30 1182 H 113.842 1.99048 2.21774 0
M  V30 1183 H 111.379 0.991277 1.08683 0
M  V30 1184 H 113.337 0.434964 4.14926 0
M  V30 1185 H 111.967 -0.227554 3.21997 0
M  V30 1186 H 111.019 2.18992 3.11041 0
M  V30 1187 H 112.331 2.68937 4.20089 0
M  V30 1188 H 111.485 1.12464 5.96185 0
M  V30 1189 H 110.224 0.523015 4.84887 0
M  V30 1190 H 109.229 2.82412 4.71724 0
M  V30 1191 H 110.454 3.42398 5.86464 0
M  V30 1192 H 108.4 1.25468 6.4389 0
M  V30 1193 H 108.317 2.89832 6.98236 0
M  V30 1194 H 109.585 1.86385 7.56889 0
M  V30 1195 N 113.814 -1.1601 1.06675 0
M  V30 1196 C 115.06 -1.86909 0.786945 0
M  V30 1197 C 115.393 -1.81717 -0.685018 0
M  V30 1198 O 114.668 -1.23551 -1.50218 0
M  V30 1199 C 114.951 -3.36313 1.28707 0
M  V30 1200 C 114.804 -3.50175 2.82308 0
M  V30 1201 C 116.123 -4.3084 0.898071 0
M  V30 1202 H 113.242 -0.678677 0.287343 0
M  V30 1203 H 115.884 -1.36336 1.32334 0
M  V30 1204 H 114.034 -3.79513 0.830768 0
M  V30 1205 H 115.706 -3.15886 3.36175 0
M  V30 1206 H 113.949 -2.91959 3.20847 0
M  V30 1207 H 114.62 -4.55116 3.12368 0
M  V30 1208 H 117.096 -3.95561 1.29114 0
M  V30 1209 H 115.972 -5.33876 1.27543 0
M  V30 1210 H 116.233 -4.41662 -0.196651 0
M  V30 1211 N 115.292 -0.849877 -1.32721 0
M  V30 1212 C 116.54 -0.450032 -1.97026 0
M  V30 1213 C 116.861 0.996604 -1.67609 0
M  V30 1214 O 116.131 1.6958 -0.980786 0
M  V30 1215 H 114.711 -0.163426 -0.728904 0
M  V30 1216 H 117.373 -1.08526 -1.6189 0
M  V30 1217 H 116.469 -0.591146 -3.0645 0
M  V30 1218 N 116.77 1.45427 -0.607355 0
M  V30 1219 C 118.016 2.0254 -0.102607 0
M  V30 1220 C 118.349 1.47478 1.26348 0
M  V30 1221 O 117.624 0.64939 1.83339 0
M  V30 1222 C 117.907 3.60044 -0.0634347 0
M  V30 1223 C 117.76 4.2544 -1.46017 0
M  V30 1224 C 119.079 4.35646 0.624514 0
M  V30 1225 H 116.198 0.73598 -0.0387607 0
M  V30 1226 H 118.84 1.73284 -0.779282 0
M  V30 1227 H 116.99 3.85101 0.512808 0
M  V30 1228 H 118.662 4.11569 -2.08347 0
M  V30 1229 H 116.905 3.83849 -2.02094 0
M  V30 1230 H 117.576 5.34342 -1.385 0
M  V30 1231 H 120.052 4.15882 0.134723 0
M  V30 1232 H 118.928 5.45376 0.621028 0
M  V30 1233 H 119.189 4.08501 1.69055 0
M  V30 1234 N 118.248 0.346503 1.53744 0
M  V30 1235 C 119.478 -0.250047 2.05081 0
M  V30 1236 C 119.886 -1.44529 1.22098 0
M  V30 1237 O 119.229 -1.81992 0.249917 0
M  V30 1238 C 119.291 -0.725934 3.52094 0
M  V30 1239 C 118.955 0.350053 4.55657 0
M  V30 1240 C 119.952 1.19372 5.0601 0
M  V30 1241 C 117.637 0.504827 4.99757 0
M  V30 1242 C 119.631 2.17768 5.99046 0
M  V30 1243 C 117.318 1.49218 5.92602 0
M  V30 1244 C 118.316 2.32706 6.42135 0
M  V30 1245 O 118.004 3.2976 7.33153 0
M  V30 1246 H 117.736 -0.0515469 0.674032 0
M  V30 1247 H 120.29 0.497559 1.99282 0
M  V30 1248 H 118.52 -1.52483 3.55367 0
M  V30 1249 H 120.209 -1.24336 3.86388 0
M  V30 1250 H 120.975 1.08525 4.72702 0
M  V30 1251 H 116.854 -0.135178 4.60802 0
M  V30 1252 H 120.398 2.82971 6.37631 0
M  V30 1253 H 116.295 1.6012 6.25325 0
M  V30 1254 H 117.063 3.25265 7.51096 0
M  V30 1255 N 119.726 -1.57421 0.075193 0
M  V30 1256 C 120.951 -1.98364 -0.605515 0
M  V30 1257 C 121.376 -0.953383 -1.62149 0
M  V30 1258 O 120.734 0.0806053 -1.81121 0
M  V30 1259 C 120.782 -3.38332 -1.24756 0
M  V30 1260 O 119.886 -3.37959 -2.36342 0
M  V30 1261 H 119.227 -0.645553 -0.155428 0
M  V30 1262 H 121.757 -2.04044 0.150714 0
M  V30 1263 H 121.767 -3.75591 -1.5936 0
M  V30 1264 H 120.442 -4.12846 -0.503129 0
M  V30 1265 H 119.019 -3.12474 -2.03506 0
M  V30 1266 N 121.204 0.198386 -1.56346 0
M  V30 1267 C 122.429 0.939682 -1.84891 0
M  V30 1268 C 122.854 1.76202 -0.658369 0
M  V30 1269 O 122.212 1.76993 0.392851 0
M  V30 1270 C 122.26 1.81428 -3.11635 0
M  V30 1271 O 121.364 2.91265 -2.91956 0
M  V30 1272 H 120.705 0.264807 -0.608912 0
M  V30 1273 H 123.235 0.204695 -2.03573 0
M  V30 1274 H 123.245 2.21958 -3.42343 0
M  V30 1275 H 121.92 1.21004 -3.97908 0
M  V30 1276 H 120.497 2.54514 -2.72538 0
M  V30 1277 N 122.682 1.50554 0.465978 0
M  V30 1278 C 124.093 1.54599 1.04671 0
M  V30 1279 C 124.444 0.352488 1.93008 0
M  V30 1280 O 123.569 -0.534044 2.09707 0
M  V30 1281 C 124.164 2.80166 1.90505 0
M  V30 1282 C 122.723 2.86876 2.43678 0
M  V30 1283 C 121.87 2.48947 1.22151 0
M  V30 1284 H 124.821 1.56744 0.248384 0
M  V30 1285 H 124.842 2.62311 2.75633 0
M  V30 1286 H 124.354 3.67013 1.26186 0
M  V30 1287 H 122.455 2.04393 3.11536 0
M  V30 1288 H 122.568 3.89885 2.78436 0
M  V30 1289 H 120.932 2.01498 1.5579 0
M  V30 1290 H 121.715 3.38107 0.594866 0
M  V30 1291 N 124.16 -0.719506 1.40217 0
M  V30 1292 C 125.11 -1.8251 1.36653 0
M  V30 1293 C 126.094 -1.59028 0.244732 0
M  V30 1294 O 127.286 -1.70268 0.483524 0
M  V30 1295 C 124.415 -3.20599 1.22763 0
M  V30 1296 C 123.501 -3.49858 2.39708 0
M  V30 1297 N 123.892 -3.49957 3.6519 0
M  V30 1298 C 122.19 -3.80297 2.33002 0
M  V30 1299 C 122.891 -3.77449 4.42614 0
M  V30 1300 N 121.867 -3.96002 3.72402 0
M  V30 1301 H 125.669 -1.80914 2.31619 0
M  V30 1302 H 123.183 -0.918455 1.33933 0
M  V30 1303 H 125.18 -3.99766 1.18292 0
M  V30 1304 H 123.84 -3.23424 0.287614 0
M  V30 1305 H 124.851 -3.309 3.98404 0
M  V30 1306 H 121.528 -3.90635 1.47346 0
M  V30 1307 H 122.918 -3.83863 5.51451 0
M  V30 1308 N 125.638 -1.25649 -0.95132 0
M  V30 1309 C 126.568 -1.08808 -2.06599 0
M  V30 1310 C 127.549 0.00382547 -1.701 0
M  V30 1311 O 128.734 -0.166325 -1.93486 0
M  V30 1312 C 125.864 -0.709542 -3.39975 0
M  V30 1313 C 124.818 -1.75206 -3.90496 0
M  V30 1314 C 124.144 -1.22811 -5.20405 0
M  V30 1315 C 125.444 -3.15153 -4.16504 0
M  V30 1316 H 127.138 -2.02048 -2.20946 0
M  V30 1317 H 124.684 -0.972835 -1.06169 0
M  V30 1318 H 126.637 -0.578649 -4.17408 0
M  V30 1319 H 125.361 0.258556 -3.25575 0
M  V30 1320 H 124.02 -1.87145 -3.15234 0
M  V30 1321 H 123.668 -0.250145 -5.02378 0
M  V30 1322 H 123.368 -1.92492 -5.55176 0
M  V30 1323 H 124.892 -1.10968 -6.00432 0
M  V30 1324 H 126.306 -3.06349 -4.84586 0
M  V30 1325 H 124.703 -3.82333 -4.62538 0
M  V30 1326 H 125.773 -3.61966 -3.22658 0
M  V30 1327 N 127.117 1.15442 -1.07289 0
M  V30 1328 C 128.363 1.86489 -0.796846 0
M  V30 1329 C 128.696 1.82078 0.675371 0
M  V30 1330 O 127.971 1.24346 1.4956 0
M  V30 1331 C 128.254 3.35626 -1.30489 0
M  V30 1332 C 128.107 3.48673 -2.84161 0
M  V30 1333 C 129.426 4.30357 -0.920907 0
M  V30 1334 H 126.545 0.677144 -0.290939 0
M  V30 1335 H 129.187 1.35633 -1.33056 0
M  V30 1336 H 127.337 3.79068 -0.850883 0
M  V30 1337 H 129.009 3.14099 -3.37846 0
M  V30 1338 H 127.252 2.90253 -3.22391 0
M  V30 1339 H 127.923 4.53453 -3.14777 0
M  V30 1340 H 130.399 3.94871 -1.3121 0
M  V30 1341 H 129.275 5.33193 -1.30372 0
M  V30 1342 H 129.536 4.4176 0.173226 0
M  V30 1343 N 128.595 0.856903 1.32268 0
M  V30 1344 C 130.011 0.547061 1.49931 0
M  V30 1345 C 130.211 -0.921781 1.7918 0
M  V30 1346 O 129.267 -1.70469 1.8627 0
M  V30 1347 C 130.58 1.43599 2.64196 0
M  V30 1348 C 132.128 1.43665 2.78081 0
M  V30 1349 C 132.603 2.31085 3.95428 0
M  V30 1350 N 134.094 2.28893 4.02694 0
M  V30 1351 C 134.829 2.93262 4.92732 0
M  V30 1352 N 134.325 3.66751 5.87763 0
M  V30 1353 N 136.118 2.82638 4.85873 0
M  V30 1354 H 128.269 1.8075 1.11549 0
M  V30 1355 H 130.532 0.772144 0.549997 0
M  V30 1356 H 130.238 2.48058 2.49319 0
M  V30 1357 H 130.112 1.12502 3.60032 0
M  V30 1358 H 132.499 0.399701 2.92381 0
M  V30 1359 H 132.58 1.7878 1.82952 0
M  V30 1360 H 132.224 3.34849 3.81888 0
M  V30 1361 H 132.154 1.93302 4.89839 0
M  V30 1362 H 134.645 1.75466 3.34694 0
M  V30 1363 H 134.958 4.13027 6.53168 0
M  V30 1364 H 133.303 3.70859 5.87783 0
M  V30 1365 H 136.494 2.24774 4.10602 0
M  V30 1366 H 136.667 3.33084 5.55841 0
M  V30 1367 N 130.073 -1.45103 0.615059 0
M  V30 1368 C 131.303 -2.06254 0.119596 0
M  V30 1369 C 131.711 -1.4591 -1.20445 0
M  V30 1370 O 131.054 -0.570384 -1.7462 0
M  V30 1371 C 131.116 -3.59396 -0.0865591 0
M  V30 1372 C 130.78 -4.42116 1.15683 0
M  V30 1373 C 131.777 -4.7662 2.07676 0
M  V30 1374 C 129.462 -4.82749 1.38775 0
M  V30 1375 C 131.456 -5.50622 3.21082 0
M  V30 1376 C 129.143 -5.56504 2.52481 0
M  V30 1377 C 130.141 -5.90358 3.43463 0
M  V30 1378 O 129.829 -6.62615 4.55189 0
M  V30 1379 H 129.561 -0.672423 0.0694512 0
M  V30 1380 H 132.115 -1.87219 0.844885 0
M  V30 1381 H 130.345 -3.76859 -0.866823 0
M  V30 1382 H 132.034 -4.02365 -0.534555 0
M  V30 1383 H 132.8 -4.4578 1.91063 0
M  V30 1384 H 128.679 -4.55829 0.688545 0
M  V30 1385 H 132.223 -5.76965 3.92119 0
M  V30 1386 H 128.12 -5.86759 2.69043 0
M  V30 1387 H 128.888 -6.81071 4.53966 0
M  V30 1388 N 131.551 -0.354651 -1.53558 0
M  V30 1389 C 132.779 0.239515 -2.05509 0
M  V30 1390 C 133.194 1.4333 -1.2289 0
M  V30 1391 O 132.551 1.80538 -0.266899 0
M  V30 1392 C 132.602 0.643719 -3.55723 0
M  V30 1393 O 132.323 -0.502602 -4.35207 0
M  V30 1394 C 133.824 1.29743 -4.23889 0
M  V30 1395 H 131.044 0.0442697 -0.669538 0
M  V30 1396 H 133.588 -0.509856 -1.98042 0
M  V30 1397 H 131.743 1.34302 -3.63376 0
M  V30 1398 H 132.157 -0.178172 -5.24197 0
M  V30 1399 H 133.631 1.53091 -5.30346 0
M  V30 1400 H 134.108 2.25441 -3.76926 0
M  V30 1401 H 134.714 0.639865 -4.20459 0
M  V30 1402 N 133.029 1.57378 -0.0835403 0
M  V30 1403 C 133.939 2.16897 0.894021 0
M  V30 1404 C 134.955 1.13528 1.31861 0
M  V30 1405 O 136.131 1.45848 1.3889 0
M  V30 1406 C 133.196 2.72831 2.13925 0
M  V30 1407 C 132.257 3.91115 1.76997 0
M  V30 1408 C 131.49 4.44371 2.95584 0
M  V30 1409 O 131.713 3.96596 4.09961 0
M  V30 1410 O 130.647 5.35549 2.74719 0
M  V30 1411 H 134.473 3.00814 0.417679 0
M  V30 1412 H 132.058 1.48741 0.140181 0
M  V30 1413 H 133.94 3.0863 2.86924 0
M  V30 1414 H 132.615 1.91967 2.60635 0
M  V30 1415 H 131.522 3.60148 1.01214 0
M  V30 1416 H 132.855 4.73307 1.3506 0
M  V30 1417 N 134.507 -0.190092 1.56449 0
M  V30 1418 C 135.923 -0.54113 1.50146 0
M  V30 1419 C 136.123 -1.85603 0.784465 0
M  V30 1420 O 135.179 -2.5024 0.337051 0
M  V30 1421 C 136.492 -0.591241 2.9483 0
M  V30 1422 C 138.04 -0.679732 3.0553 0
M  V30 1423 C 138.515 -0.760908 4.51635 0
M  V30 1424 N 140.006 -0.824302 4.55806 0
M  V30 1425 C 140.741 -0.907365 5.66175 0
M  V30 1426 N 140.237 -0.952422 6.86222 0
M  V30 1427 N 142.03 -0.94494 5.541 0
M  V30 1428 H 134.181 0.67235 2.01478 0
M  V30 1429 H 136.444 0.240127 0.917084 0
M  V30 1430 H 136.15 0.305905 3.50367 0
M  V30 1431 H 136.024 -1.44422 3.48457 0
M  V30 1432 H 138.411 -1.56731 2.50039 0
M  V30 1433 H 138.492 0.199549 2.5502 0
M  V30 1434 H 138.136 0.122336 5.07753 0
M  V30 1435 H 138.066 -1.65606 4.99882 0
M  V30 1436 H 140.557 -0.798526 3.69367 0
M  V30 1437 H 140.87 -1.01645 7.66086 0
M  V30 1438 H 139.215 -0.921014 6.8887 0
M  V30 1439 H 142.406 -0.906612 4.59236 0
M  V30 1440 H 142.579 -1.00622 6.4014 0
M  V30 1441 N 135.985 -1.50799 -0.457987 0
M  V30 1442 C 137.231 -1.62683 -1.21088 0
M  V30 1443 C 137.564 -0.332268 -1.91336 0
M  V30 1444 O 136.839 0.667043 -1.82704 0
M  V30 1445 C 137.122 -2.81615 -2.24422 0
M  V30 1446 C 136.975 -4.20989 -1.58392 0
M  V30 1447 C 138.294 -2.96085 -3.2561 0
M  V30 1448 H 135.413 -0.592087 -0.438864 0
M  V30 1449 H 138.055 -1.83225 -0.50286 0
M  V30 1450 H 136.205 -2.64231 -2.84806 0
M  V30 1451 H 137.877 -4.49994 -1.01504 0
M  V30 1452 H 136.12 -4.24641 -0.886704 0
M  V30 1453 H 136.791 -5.0016 -2.33547 0
M  V30 1454 H 139.267 -3.12042 -2.75262 0
M  V30 1455 H 138.143 -3.80902 -3.95228 0
M  V30 1456 H 138.404 -2.0726 -3.90507 0
M  V30 1457 N 137.463 0.71206 -1.40597 0
M  V30 1458 C 138.879 1.02058 -1.22704 0
M  V30 1459 C 139.079 2.01228 -0.104729 0
M  V30 1460 O 138.135 2.4674 0.53624 0
M  V30 1461 C 139.448 1.56094 -2.57012 0
M  V30 1462 C 140.996 1.6806 -2.64054 0
M  V30 1463 C 141.471 2.25501 -3.9864 0
M  V30 1464 N 142.962 2.32882 -4.004 0
M  V30 1465 C 143.697 2.78317 -5.01325 0
M  V30 1466 N 143.193 3.23478 -6.12645 0
M  V30 1467 N 144.986 2.77733 -4.88693 0
M  V30 1468 H 137.137 0.0547896 -2.12329 0
M  V30 1469 H 139.4 0.0869027 -0.944008 0
M  V30 1470 H 139.106 0.906865 -3.39807 0
M  V30 1471 H 138.98 2.54564 -2.78347 0
M  V30 1472 H 141.367 2.32583 -1.81629 0
M  V30 1473 H 141.448 0.681802 -2.46546 0
M  V30 1474 H 141.092 1.61598 -4.81506 0
M  V30 1475 H 141.022 3.26102 -4.13479 0
M  V30 1476 H 143.513 2.00991 -3.20017 0
M  V30 1477 H 143.826 3.56725 -6.85542 0
M  V30 1478 H 142.171 3.21429 -6.16205 0
M  V30 1479 H 145.362 2.4179 -4.00818 0
M  V30 1480 H 145.535 3.12826 -5.67489 0
M  V30 1481 N 138.941 1.26152 0.944643 0
M  V30 1482 C 140.187 1.11657 1.69294 0
M  V30 1483 C 140.52 -0.339926 1.91202 0
M  V30 1484 O 139.795 -1.24994 1.49019 0
M  V30 1485 C 140.078 1.88236 3.06984 0
M  V30 1486 C 139.931 3.41772 2.92424 0
M  V30 1487 C 141.25 1.67343 4.07043 0
M  V30 1488 H 138.369 0.407004 0.614424 0
M  V30 1489 H 141.011 1.55106 1.09737 0
M  V30 1490 H 139.161 1.51308 3.57824 0
M  V30 1491 H 140.833 3.88433 2.48832 0
M  V30 1492 H 139.076 3.68974 2.28124 0
M  V30 1493 H 139.747 3.90579 3.90067 0
M  V30 1494 H 142.223 1.99509 3.65151 0
M  V30 1495 H 141.099 2.23346 5.01406 0
M  V30 1496 H 141.36 0.617158 4.37771 0
M  V30 1497 N 140.419 -1.14872 1.07899 0
M  V30 1498 C 141.351 -2.19425 0.662231 0
M  V30 1499 C 142.364 -1.60231 -0.288079 0
M  V30 1500 O 143.553 -1.78336 -0.076534 0
M  V30 1501 C 140.653 -3.38867 -0.0470695 0
M  V30 1502 C 139.826 -4.27597 0.920831 0
M  V30 1503 C 138.885 -5.25616 0.247805 0
M  V30 1504 O 137.911 -5.62189 0.890599 0
M  V30 1505 N 139.113 -5.71746 -1.00435 0
M  V30 1506 H 141.878 -2.55797 1.56166 0
M  V30 1507 H 139.439 -1.30042 0.964404 0
M  V30 1508 H 141.431 -4.01497 -0.50813 0
M  V30 1509 H 140.001 -3.00864 -0.848523 0
M  V30 1510 H 139.221 -3.61982 1.56087 0
M  V30 1511 H 140.509 -4.83748 1.57688 0
M  V30 1512 H 139.907 -5.44153 -1.54642 0
M  V30 1513 H 138.464 -6.36389 -1.40899 0
M  V30 1514 N 141.898 -0.863906 -1.31812 0
M  V30 1515 C 143.146 -0.470904 -1.96537 0
M  V30 1516 C 143.467 0.978771 -1.68657 0
M  V30 1517 O 142.737 1.6853 -0.998717 0
M  V30 1518 H 141.317 -0.171148 -0.72713 0
M  V30 1519 H 143.979 -1.10236 -1.60729 0
M  V30 1520 H 143.075 -0.623616 -3.05806 0
M  V30 1521 N 143.376 1.44774 -0.622745 0
M  V30 1522 C 144.308 2.28856 0.125485 0
M  V30 1523 C 145.321 1.40811 0.817069 0
M  V30 1524 O 146.51 1.65044 0.679918 0
M  V30 1525 C 143.61 3.16963 1.19949 0
M  V30 1526 C 142.783 4.33374 0.592064 0
M  V30 1527 C 141.842 5.02577 1.55893 0
M  V30 1528 O 140.868 5.58873 1.07933 0
M  V30 1529 N 142.07 5.03256 2.89334 0
M  V30 1530 H 144.835 2.93713 -0.596068 0
M  V30 1531 H 142.396 1.55129 -0.463303 0
M  V30 1532 H 144.388 3.60123 1.84644 0
M  V30 1533 H 142.958 2.53913 1.82337 0
M  V30 1534 H 142.178 3.93509 -0.233322 0
M  V30 1535 H 143.466 5.08527 0.166738 0
M  V30 1536 H 142.864 4.58836 3.30887 0
M  V30 1537 H 141.421 5.50232 3.49412 0
M  V30 1538 N 144.854 0.36279 1.53368 0
M  V30 1539 C 145.764 -0.492994 2.29362 0
M  V30 1540 C 146.78 -1.09507 1.35219 0
M  V30 1541 O 147.956 -1.10662 1.68273 0
M  V30 1542 C 145.021 -1.61855 3.066 0
M  V30 1543 C 144.082 -1.04429 4.16405 0
M  V30 1544 C 143.315 -2.11621 4.89951 0
M  V30 1545 O 143.538 -3.32684 4.63333 0
M  V30 1546 O 142.472 -1.74835 5.75948 0
M  V30 1547 H 146.298 0.125331 3.03441 0
M  V30 1548 H 143.883 0.127253 1.48857 0
M  V30 1549 H 145.765 -2.27302 3.54841 0
M  V30 1550 H 144.44 -2.22233 2.3536 0
M  V30 1551 H 143.347 -0.353819 3.72423 0
M  V30 1552 H 144.68 -0.485113 4.89804 0
M  V30 1553 N 146.332 -1.57332 0.0918853 0
M  V30 1554 C 147.262 -2.16872 -0.865371 0
M  V30 1555 C 148.243 -1.10118 -1.29646 0
M  V30 1556 O 149.428 -1.38242 -1.36392 0
M  V30 1557 C 146.558 -2.74649 -2.12569 0
M  V30 1558 C 145.512 -3.86747 -1.83333 0
M  V30 1559 C 144.838 -4.31212 -3.16166 0
M  V30 1560 C 146.138 -5.10089 -1.1228 0
M  V30 1561 H 147.832 -2.97114 -0.369307 0
M  V30 1562 H 145.378 -1.42918 -0.176194 0
M  V30 1563 H 147.331 -3.14952 -2.7997 0
M  V30 1564 H 146.055 -1.91657 -2.64452 0
M  V30 1565 H 144.714 -3.46978 -1.18331 0
M  V30 1566 H 144.362 -3.45115 -3.6593 0
M  V30 1567 H 144.062 -5.06788 -2.97388 0
M  V30 1568 H 145.586 -4.74146 -3.84731 0
M  V30 1569 H 147 -5.47582 -1.69785 0
M  V30 1570 H 145.397 -5.91073 -1.03693 0
M  V30 1571 H 146.467 -4.84786 -0.105041 0
M  V30 1572 N 147.81 0.181792 -1.56548 0
M  V30 1573 C 149.221 0.745244 -1.71181 0
M  V30 1574 C 149.572 1.83262 -0.70068 0
M  V30 1575 O 148.697 2.15946 0.140154 0
M  V30 1576 C 149.292 1.35859 -3.10367 0
M  V30 1577 C 147.851 1.86898 -3.2672 0
M  V30 1578 C 146.998 0.743942 -2.67134 0
M  V30 1579 H 149.949 -0.0434661 -1.5864 0
M  V30 1580 H 149.97 2.22817 -3.08436 0
M  V30 1581 H 149.482 0.566948 -3.83937 0
M  V30 1582 H 147.583 2.68738 -2.5809 0
M  V30 1583 H 147.696 2.02162 -4.34359 0
M  V30 1584 H 146.06 1.16169 -2.26665 0
M  V30 1585 H 146.843 -0.035676 -3.43281 0
M  V30 1586 N 149.288 1.51039 0.449983 0
M  V30 1587 C 150.198 1.74261 1.57067 0
M  V30 1588 C 151.214 0.626363 1.62335 0
M  V30 1589 O 152.39 0.907162 1.79812 0
M  V30 1590 C 149.455 1.85114 2.93144 0
M  V30 1591 C 148.516 3.0893 2.98095 0
M  V30 1592 C 147.749 3.19256 4.27681 0
M  V30 1593 O 147.972 2.35835 5.19363 0
M  V30 1594 O 146.906 4.12144 4.38658 0
M  V30 1595 H 150.732 2.69303 1.40391 0
M  V30 1596 H 148.317 1.35389 0.631688 0
M  V30 1597 H 150.199 1.94311 3.73926 0
M  V30 1598 H 148.874 0.932588 3.09975 0
M  V30 1599 H 147.781 3.0522 2.16314 0
M  V30 1600 H 149.114 4.00433 2.86206 0
M  V30 1601 N 150.766 -0.704594 1.40972 0
M  V30 1602 C 151.991 -1.49858 1.43378 0
M  V30 1603 C 152.416 -1.88061 0.038184 0
M  V30 1604 O 151.774 -1.5402 -0.956425 0
M  V30 1605 C 151.822 -2.74333 2.34038 0
M  V30 1606 O 150.926 -3.7147 1.7912 0
M  V30 1607 H 150.267 -0.45139 0.486974 0
M  V30 1608 H 152.797 -0.866832 1.8533 0
M  V30 1609 H 152.807 -3.22741 2.49604 0
M  V30 1610 H 151.482 -2.45863 3.35446 0
M  V30 1611 H 150.059 -3.30363 1.72958 0
M  V30 1612 N 152.244 -1.26651 -0.937939 0
M  V30 1613 C 153.207 -1.08546 -2.01867 0
M  V30 1614 C 154.207 -0.0327327 -1.60767 0
M  V30 1615 O 155.397 -0.276427 -1.71993 0
M  V30 1616 C 152.529 -0.651711 -3.34613 0
M  V30 1617 H 153.722 -2.04502 -2.1936 0
M  V30 1618 H 151.275 -1.09294 -1.11734 0
M  V30 1619 H 152.01 0.309696 -3.22818 0
M  V30 1620 H 151.795 -1.41189 -3.65798 0
M  V30 1621 H 153.285 -0.546973 -4.14002 0
M  V30 1622 N 153.722 1.14298 -1.08507 0
M  V30 1623 C 154.672 2.17449 -0.685569 0
M  V30 1624 C 155.656 1.58167 0.295315 0
M  V30 1625 O 156.848 1.76675 0.107172 0
M  V30 1626 C 153.977 3.43161 -0.0975318 0
M  V30 1627 C 153.063 4.09471 -1.10426 0
M  V30 1628 N 153.454 4.51089 -2.28806 0
M  V30 1629 C 151.752 4.35976 -0.940258 0
M  V30 1630 C 152.453 5.02654 -2.9277 0
M  V30 1631 N 151.429 4.96927 -2.20374 0
M  V30 1632 H 155.231 2.47369 -1.587 0
M  V30 1633 H 152.745 1.30992 -0.959936 0
M  V30 1634 H 154.742 4.16388 0.20664 0
M  V30 1635 H 153.402 3.14719 0.798872 0
M  V30 1636 H 154.413 4.44097 -2.66455 0
M  V30 1637 H 151.09 4.17386 -0.0977441 0
M  V30 1638 H 152.48 5.44723 -3.93352 0
M  V30 1639 N 155.201 0.870884 1.31352 0
M  V30 1640 C 156.429 0.49677 2.00848 0
M  V30 1641 C 156.844 -0.910998 1.65367 0
M  V30 1642 O 156.201 -1.59696 0.883374 0
M  V30 1643 C 156.252 0.645308 3.55694 0
M  V30 1644 O 155.973 1.99764 3.89905 0
M  V30 1645 C 157.474 0.272326 4.42463 0
M  V30 1646 H 154.694 0.193462 0.642506 0
M  V30 1647 H 157.238 1.1723 1.67563 0
M  V30 1648 H 155.393 0.0173176 3.87396 0
M  V30 1649 H 155.807 2.00607 4.84621 0
M  V30 1650 H 157.281 0.427208 5.50344 0
M  V30 1651 H 157.758 -0.788587 4.32062 0
M  V30 1652 H 158.364 0.876054 4.1618 0
M  V30 1653 N 156.679 -1.44442 0.630414 0
M  V30 1654 C 157.642 -2.29107 -0.0652523 0
M  V30 1655 C 158.642 -1.41002 -0.772995 0
M  V30 1656 O 159.832 -1.62881 -0.617692 0
M  V30 1657 C 156.964 -3.22564 -1.10296 0
M  V30 1658 H 158.157 -2.92103 0.679401 0
M  V30 1659 H 155.71 -1.51343 0.390517 0
M  V30 1660 H 156.445 -2.64416 -1.87762 0
M  V30 1661 H 156.23 -3.87491 -0.59941 0
M  V30 1662 H 157.72 -3.86167 -1.5895 0
M  V30 1663 N 158.157 -0.370918 -1.53173 0
M  V30 1664 C 159.382 0.220293 -2.06227 0
M  V30 1665 C 159.807 1.41243 -1.24225 0
M  V30 1666 O 159.165 1.79387 -0.262645 0
M  V30 1667 C 159.213 0.586663 -3.55796 0
M  V30 1668 O 158.317 1.68317 -3.76488 0
M  V30 1669 H 157.658 0.0308099 -0.663285 0
M  V30 1670 H 160.188 -0.533068 -1.97534 0
M  V30 1671 H 160.198 0.85617 -3.98916 0
M  V30 1672 H 158.873 -0.285013 -4.14922 0
M  V30 1673 H 157.45 1.40881 -3.45264 0
M  V30 1674 N 159.635 1.57281 -0.100228 0
M  V30 1675 C 160.882 1.94537 0.562268 0
M  V30 1676 C 161.21 0.982315 1.67871 0
M  V30 1677 O 160.465 0.00280936 1.957 0
M  V30 1678 C 160.764 3.38305 1.15259 0
M  V30 1679 C 160.43 4.50618 0.159409 0
M  V30 1680 C 159.092 4.81066 -0.113741 0
M  V30 1681 C 161.444 5.18615 -0.518461 0
M  V30 1682 C 158.772 5.76835 -1.07137 0
M  V30 1683 C 161.124 6.15412 -1.46459 0
M  V30 1684 C 159.788 6.44262 -1.74592 0
M  V30 1685 H 159.058 0.711863 0.205748 0
M  V30 1686 H 161.705 1.90679 -0.17715 0
M  V30 1687 H 160.01 3.38766 1.96836 0
M  V30 1688 H 161.707 3.64435 1.67297 0
M  V30 1689 H 158.297 4.2689 0.382491 0
M  V30 1690 H 162.481 4.95264 -0.320581 0
M  V30 1691 H 157.737 5.975 -1.29628 0
M  V30 1692 H 161.911 6.67194 -1.99564 0
M  V30 1693 H 159.538 7.1828 -2.48953 0
M  V30 1694 N 161.113 -0.173488 1.56642 0
M  V30 1695 C 162.076 -1.19859 1.95362 0
M  V30 1696 C 163.076 -1.37296 0.83704 0
M  V30 1697 O 164.266 -1.34739 1.10413 0
M  V30 1698 C 161.398 -2.56405 2.24654 0
M  V30 1699 H 162.591 -0.867062 2.87092 0
M  V30 1700 H 160.144 -0.415853 1.50666 0
M  V30 1701 H 160.879 -2.94576 1.35631 0
M  V30 1702 H 160.664 -2.45115 3.06041 0
M  V30 1703 H 162.154 -3.30287 2.5554 0
M  V30 1704 N 162.591 -1.51276 -0.441967 0
M  V30 1705 C 163.501 -1.75092 -1.56141 0
M  V30 1706 C 164.517 -0.634963 -1.62001 0
M  V30 1707 O 165.693 -0.916686 -1.79329 0
M  V30 1708 C 162.758 -1.86666 -2.92158 0
M  V30 1709 C 161.819 -3.10506 -2.96453 0
M  V30 1710 C 161.052 -3.21519 -4.25982 0
M  V30 1711 O 161.275 -2.38586 -5.18105 0
M  V30 1712 O 160.209 -4.14465 -4.36466 0
M  V30 1713 H 164.035 -2.70044 -1.38961 0
M  V30 1714 H 161.62 -1.35722 -0.624499 0
M  V30 1715 H 163.502 -1.96292 -3.72891 0
M  V30 1716 H 162.177 -0.949014 -3.09476 0
M  V30 1717 H 161.084 -3.06363 -2.14692 0
M  V30 1718 H 162.417 -4.01945 -2.84079 0
M  V30 1719 N 164.069 0.697108 -1.41344 0
M  V30 1720 C 165.318 1.45279 -1.39918 0
M  V30 1721 C 165.631 1.95597 -0.0109624 0
M  V30 1722 O 166.837 2.71208 0.125919 0
M  V30 1723 C 165.293 2.62695 -2.46007 0
M  V30 1724 C 164.901 2.19169 -3.90729 0
M  V30 1725 C 166.645 3.40336 -2.53715 0
M  V30 1726 C 164.552 3.33535 -4.88373 0
M  V30 1727 H 163.482 0.545692 -0.520323 0
M  V30 1728 H 166.133 0.756929 -1.67161 0
M  V30 1729 H 164.515 3.34541 -2.11892 0
M  V30 1730 H 165.689 1.54623 -4.34083 0
M  V30 1731 H 164.004 1.54525 -3.86666 0
M  V30 1732 H 166.601 4.2547 -3.2385 0
M  V30 1733 H 166.944 3.85418 -1.5735 0
M  V30 1734 H 167.477 2.75546 -2.86913 0
M  V30 1735 H 164.216 2.93468 -5.86137 0
M  V30 1736 H 163.736 3.96936 -4.49668 0
M  V30 1737 H 165.415 3.99335 -5.09059 0
M  V30 1738 N 165.547 1.27147 0.931209 0
M  V30 1739 C 166.457 1.11372 2.06478 0
M  V30 1740 C 167.473 0.044645 1.73943 0
M  V30 1741 O 168.649 0.250417 1.99837 0
M  V30 1742 C 165.714 0.758838 3.38294 0
M  V30 1743 C 164.775 1.90841 3.84549 0
M  V30 1744 C 164.008 1.57036 5.10074 0
M  V30 1745 O 164.231 0.476645 5.68405 0
M  V30 1746 O 163.165 2.40839 5.51616 0
M  V30 1747 H 166.991 2.06493 2.22698 0
M  V30 1748 H 164.576 1.06301 1.04978 0
M  V30 1749 H 166.458 0.574098 4.17471 0
M  V30 1750 H 165.133 -0.162879 3.2329 0
M  V30 1751 H 164.04 2.14819 3.06274 0
M  V30 1752 H 165.373 2.81021 4.04089 0
M  V30 1753 N 167.025 -1.13721 1.09112 0
M  V30 1754 C 168.25 -1.89314 0.847053 0
M  V30 1755 C 168.675 -1.78416 -0.595774 0
M  V30 1756 O 168.033 -1.12942 -1.41823 0
M  V30 1757 C 168.081 -3.3701 1.28284 0
M  V30 1758 O 167.185 -4.10054 0.439267 0
M  V30 1759 H 166.526 -0.588745 0.307044 0
M  V30 1760 H 169.056 -1.43902 1.45442 0
M  V30 1761 H 169.066 -3.87834 1.26683 0
M  V30 1762 H 167.741 -3.4426 2.33363 0
M  V30 1763 H 166.318 -3.69266 0.519312 0
M  V30 1764 N 168.503 -0.877838 -1.30888 0
M  V30 1765 C 169.466 -0.344265 -2.266 0
M  V30 1766 C 170.466 0.50922 -1.52524 0
M  V30 1767 O 171.656 0.317398 -1.71284 0
M  V30 1768 C 168.788 0.510198 -3.37061 0
M  V30 1769 H 169.981 -1.1893 -2.7531 0
M  V30 1770 H 167.534 -0.654088 -1.41956 0
M  V30 1771 H 168.269 1.37612 -2.93655 0
M  V30 1772 H 168.054 -0.101047 -3.9197 0
M  V30 1773 H 169.544 0.875537 -4.08319 0
M  V30 1774 N 169.982 1.44106 -0.638065 0
M  V30 1775 C 171.398 1.56672 -0.304286 0
M  V30 1776 C 171.598 1.6244 1.19228 0
M  V30 1777 O 170.654 1.57121 1.9766 0
M  V30 1778 C 171.967 2.83503 -1.00231 0
M  V30 1779 C 173.515 2.97226 -0.981116 0
M  V30 1780 C 173.99 4.26868 -1.65974 0
M  V30 1781 N 175.481 4.33698 -1.62666 0
M  V30 1782 C 176.216 5.32745 -2.12063 0
M  V30 1783 N 175.712 6.38157 -2.6968 0
M  V30 1784 N 177.505 5.24299 -2.02651 0
M  V30 1785 H 169.656 1.38605 -1.60942 0
M  V30 1786 H 171.919 0.664661 -0.675965 0
M  V30 1787 H 171.625 2.85251 -2.0573 0
M  V30 1788 H 171.499 3.73251 -0.54439 0
M  V30 1789 H 173.886 2.95027 0.0654188 0
M  V30 1790 H 173.967 2.08808 -1.47759 0
M  V30 1791 H 173.611 4.29826 -2.70576 0
M  V30 1792 H 173.541 5.14156 -1.13804 0
M  V30 1793 H 176.032 3.58138 -1.20606 0
M  V30 1794 H 176.345 7.10029 -3.05087 0
M  V30 1795 H 174.69 6.38823 -2.73734 0
M  V30 1796 H 177.881 4.4086 -1.57353 0
M  V30 1797 H 178.054 6.01334 -2.41457 0
M  V30 1798 N 171.46 0.379036 1.52974 0
M  V30 1799 C 172.708 -0.206014 2.01047 0
M  V30 1800 C 173.029 -1.48175 1.26765 0
M  V30 1801 O 172.299 -1.92085 0.384743 0
M  V30 1802 H 170.879 -0.0791184 0.742798 0
M  V30 1803 H 173.541 0.508366 1.88153 0
M  V30 1804 H 172.637 -0.423501 3.09213 0
M  V30 1805 N 172.938 -1.57226 0.108567 0
M  V30 1806 C 174.215 -1.86333 -0.594939 0
M  V30 1807 C 174.595 -1.00788 -1.85486 0
M  V30 1808 O 173.943 -0.0839293 -2.28346 0
M  V30 1809 C 174.153 -3.37265 -0.897405 0
M  V30 1810 C 175.501 -4.05629 -1.25501 0
M  V30 1811 O 176.525 -3.42224 -0.987998 0
M  V30 1812 O 175.384 -5.17531 -1.75567 0
M  V30 1813 H 172.478 -0.771018 -0.2991 0
M  V30 1814 H 175.024 -1.69102 0.142283 0
M  V30 1815 H 173.796 -3.913 -0.00413806 0
M  V30 1816 H 173.419 -3.59889 -1.69014 0
M  V30 1817 N 174.416 0.165178 -1.56732 0
M  V30 1818 C 175.665 0.879143 -1.81532 0
M  V30 1819 C 175.978 1.83144 -0.686842 0
M  V30 1820 O 177.184 2.58823 -0.819944 0
M  V30 1821 C 175.64 1.61388 -3.21686 0
M  V30 1822 C 175.248 0.704904 -4.4242 0
M  V30 1823 C 176.992 2.3157 -3.55774 0
M  V30 1824 C 174.899 1.44022 -5.73595 0
M  V30 1825 H 173.829 0.332033 -0.676957 0
M  V30 1826 H 176.48 0.132008 -1.83025 0
M  V30 1827 H 174.862 2.40599 -3.14529 0
M  V30 1828 H 176.036 -0.0506815 -4.60772 0
M  V30 1829 H 174.351 0.112419 -4.16248 0
M  V30 1830 H 176.948 2.8719 -4.51028 0
M  V30 1831 H 177.291 3.07201 -2.8095 0
M  V30 1832 H 177.824 1.59297 -3.64513 0
M  V30 1833 H 174.563 0.72612 -6.51466 0
M  V30 1834 H 174.083 2.16898 -5.5921 0
M  V30 1835 H 175.762 1.98606 -6.15764 0
M  V30 1836 N 175.894 1.51508 0.433938 0
M  V30 1837 C 177.119 1.68443 1.21003 0
M  V30 1838 C 177.544 0.382636 1.84167 0
M  V30 1839 O 176.902 -0.65755 1.68956 0
M  V30 1840 C 176.95 2.80405 2.26727 0
M  V30 1841 O 176.054 2.44245 3.32292 0
M  V30 1842 H 175.395 0.561536 0.354363 0
M  V30 1843 H 177.925 1.9809 0.512024 0
M  V30 1844 H 177.935 3.0459 2.71457 0
M  V30 1845 H 176.61 3.74867 1.80132 0
M  V30 1846 H 175.187 2.30644 2.93015 0
M  V30 1847 N 177.372 -0.689602 1.41712 0
M  V30 1848 C 178.302 -1.81577 1.46806 0
M  V30 1849 C 179.283 -1.66945 0.326105 0
M  V30 1850 O 180.468 -1.86588 0.538377 0
M  V30 1851 C 177.598 -3.19762 1.35535 0
M  V30 1852 C 176.552 -3.49107 2.47605 0
M  V30 1853 C 175.878 -4.86711 2.21397 0
M  V30 1854 C 177.178 -3.47483 3.89939 0
M  V30 1855 H 178.872 -1.7757 2.41058 0
M  V30 1856 H 176.418 -0.852887 1.16025 0
M  V30 1857 H 178.371 -3.98263 1.3771 0
M  V30 1858 H 177.095 -3.24409 0.377708 0
M  V30 1859 H 175.754 -2.72959 2.44722 0
M  V30 1860 H 175.402 -4.8799 1.21961 0
M  V30 1861 H 175.102 -5.0731 2.96497 0
M  V30 1862 H 176.626 -5.67515 2.25297 0
M  V30 1863 H 178.04 -4.1598 3.94505 0
M  V30 1864 H 176.437 -3.79615 4.64771 0
M  V30 1865 H 177.507 -2.46341 4.17665 0
M  V30 1866 N 178.85 -1.27639 -0.924453 0
M  V30 1867 C 180.078 -1.16989 -1.70649 0
M  V30 1868 C 180.493 0.272869 -1.86818 0
M  V30 1869 O 179.85 1.18549 -1.38753 0
M  V30 1870 C 179.901 -1.85229 -3.10439 0
M  V30 1871 O 179.622 -3.23868 -2.95028 0
M  V30 1872 C 181.123 -1.80746 -4.04779 0
M  V30 1873 H 178.343 -0.406595 -0.53378 0
M  V30 1874 H 180.887 -1.68569 -1.15778 0
M  V30 1875 H 179.042 -1.37545 -3.6216 0
M  V30 1876 H 179.456 -3.57889 -3.83426 0
M  V30 1877 H 180.93 -2.33101 -5.00368 0
M  V30 1878 H 181.407 -0.777499 -4.32263 0
M  V30 1879 H 182.013 -2.28059 -3.58984 0
M  V30 1880 N 180.328 1.1314 -1.09713 0
M  V30 1881 C 181.558 1.88048 -0.855656 0
M  V30 1882 C 181.966 1.79537 0.596919 0
M  V30 1883 O 181.309 1.16196 1.42282 0
M  V30 1884 C 181.371 3.38314 -1.21589 0
M  V30 1885 C 181.035 3.70605 -2.67397 0
M  V30 1886 C 182.032 3.69596 -3.65643 0
M  V30 1887 C 179.717 4.0017 -3.03593 0
M  V30 1888 C 181.711 3.977 -4.9811 0
M  V30 1889 C 179.398 4.27935 -4.36251 0
M  V30 1890 C 180.396 4.26685 -5.33318 0
M  V30 1891 O 180.084 4.53767 -6.63589 0
M  V30 1892 H 179.816 0.60208 -0.307368 0
M  V30 1893 H 182.37 1.44128 -1.46343 0
M  V30 1894 H 180.6 3.82752 -0.551177 0
M  V30 1895 H 182.289 3.94552 -0.953083 0
M  V30 1896 H 183.055 3.46826 -3.39023 0
M  V30 1897 H 178.934 4.00289 -2.2867 0
M  V30 1898 H 182.478 3.9664 -5.73866 0
M  V30 1899 H 178.375 4.50178 -4.62613 0
M  V30 1900 H 179.143 4.71422 -6.69107 0
M  V30 1901 N 181.806 0.884767 1.30421 0
M  V30 1902 C 183.053 0.503105 1.96151 0
M  V30 1903 C 183.381 -0.947676 1.69851 0
M  V30 1904 O 182.636 -1.68467 0.995861 0
M  V30 1905 C 182.935 0.724318 3.49983 0
M  V30 1906 C 182.601 2.15015 3.96332 0
M  V30 1907 C 181.263 2.54005 4.08699 0
M  V30 1908 C 183.615 3.07936 4.20505 0
M  V30 1909 C 180.943 3.85128 4.42599 0
M  V30 1910 C 183.295 4.3859 4.55874 0
M  V30 1911 C 181.959 4.77474 4.66449 0
M  V30 1912 H 181.229 0.184099 0.717766 0
M  V30 1913 H 183.876 1.12058 1.55291 0
M  V30 1914 H 182.181 0.0238086 3.91793 0
M  V30 1915 H 183.878 0.408617 3.98913 0
M  V30 1916 H 180.468 1.8375 3.87213 0
M  V30 1917 H 184.652 2.79033 4.10431 0
M  V30 1918 H 179.908 4.14996 4.48986 0
M  V30 1919 H 184.082 5.10629 4.7353 0
M  V30 1920 H 181.709 5.79115 4.92473 0
M  V30 1921 N 183.284 -1.43765 0.645699 0
M  V30 1922 C 184.194 -2.34544 -0.0512957 0
M  V30 1923 C 185.21 -1.53455 -0.82022 0
M  V30 1924 O 186.386 -1.86133 -0.769176 0
M  V30 1925 C 183.451 -3.31636 -1.01087 0
M  V30 1926 C 182.512 -4.2863 -0.239712 0
M  V30 1927 C 181.745 -5.21084 -1.15358 0
M  V30 1928 O 181.968 -5.1779 -2.39269 0
M  V30 1929 O 180.902 -5.98593 -0.630038 0
M  V30 1930 H 184.728 -2.95624 0.695718 0
M  V30 1931 H 182.313 -1.43781 0.405882 0
M  V30 1932 H 184.195 -3.9136 -1.56254 0
M  V30 1933 H 182.87 -2.73069 -1.73824 0
M  V30 1934 H 181.777 -3.72408 0.355356 0
M  V30 1935 H 183.11 -4.90157 0.447936 0
M  V30 1936 N 184.763 -0.387143 -1.52771 0
M  V30 1937 C 185.993 0.195585 -2.05672 0
M  V30 1938 C 186.401 1.41241 -1.25887 0
M  V30 1939 O 185.744 1.81265 -0.298081 0
M  V30 1940 C 185.806 0.632327 -3.53895 0
M  V30 1941 C 185.47 -0.470739 -4.54569 0
M  V30 1942 C 186.467 -1.32746 -5.02667 0
M  V30 1943 C 184.152 -0.637151 -4.98243 0
M  V30 1944 C 186.146 -2.33574 -5.93061 0
M  V30 1945 C 183.833 -1.64877 -5.88438 0
M  V30 1946 C 184.831 -2.49649 -6.35739 0
M  V30 1947 O 184.519 -3.49082 -7.24153 0
M  V30 1948 H 184.251 0.033658 -0.675162 0
M  V30 1949 H 186.805 -0.550221 -1.97893 0
M  V30 1950 H 185.035 1.43008 -3.59285 0
M  V30 1951 H 186.724 1.14048 -3.89548 0
M  V30 1952 H 187.49 -1.21019 -4.69659 0
M  V30 1953 H 183.369 0.0129567 -4.60998 0
M  V30 1954 H 186.913 -2.99777 -6.29904 0
M  V30 1955 H 182.81 -1.76643 -6.2086 0
M  V30 1956 H 183.578 -3.45065 -7.42208 0
M  V30 1957 N 186.241 1.57166 -0.116904 0
M  V30 1958 C 187.489 1.94737 0.540533 0
M  V30 1959 C 187.81 1.00096 1.67349 0
M  V30 1960 O 187.08 0.0568854 1.95817 0
M  V30 1961 H 185.66 0.718981 0.202669 0
M  V30 1962 H 188.322 1.94017 -0.185353 0
M  V30 1963 H 187.418 2.97719 0.936483 0
M  V30 1964 N 187.719 -0.156864 1.56817 0
M  V30 1965 C 188.947 -0.886316 1.86955 0
M  V30 1966 C 189.362 -1.75185 0.703975 0
M  V30 1967 O 188.719 -1.79555 -0.326552 0
M  V30 1968 C 188.77 -1.75117 3.16253 0
M  V30 1969 O 188.491 -0.920537 4.2832 0
M  V30 1970 C 189.992 -2.58905 3.59837 0
M  V30 1971 H 187.212 -0.25678 0.619923 0
M  V30 1972 H 189.756 -0.152615 2.0393 0
M  V30 1973 H 187.911 -2.43805 3.01062 0
M  V30 1974 H 188.325 -1.51337 5.02192 0
M  V30 1975 H 189.799 -3.1518 4.53172 0
M  V30 1976 H 190.276 -3.34472 2.84649 0
M  V30 1977 H 190.882 -1.95526 3.7769 0
M  V30 1978 N 189.197 -1.51736 -0.425897 0
M  V30 1979 C 190.127 -1.76827 -1.52494 0
M  V30 1980 C 191.108 -0.618524 -1.58456 0
M  V30 1981 O 192.293 -0.862416 -1.74 0
M  V30 1982 C 189.423 -1.90374 -2.90474 0
M  V30 1983 C 188.377 -3.0588 -2.99369 0
M  V30 1984 C 187.703 -3.04625 -4.3944 0
M  V30 1985 C 189.003 -4.45644 -2.72394 0
M  V30 1986 H 190.697 -2.68855 -1.31748 0
M  V30 1987 H 188.243 -1.29372 -0.632362 0
M  V30 1988 H 190.196 -2.0651 -3.6733 0
M  V30 1989 H 188.92 -0.95004 -3.12477 0
M  V30 1990 H 187.579 -2.89467 -2.24954 0
M  V30 1991 H 187.227 -2.0701 -4.58428 0
M  V30 1992 H 186.927 -3.82195 -4.46319 0
M  V30 1993 H 188.451 -3.22869 -5.18255 0
M  V30 1994 H 189.865 -4.62348 -3.38979 0
M  V30 1995 H 188.262 -5.25006 -2.9067 0
M  V30 1996 H 189.332 -4.54893 -1.67929 0
M  V30 1997 N 190.675 0.682077 -1.42076 0
M  V30 1998 C 191.9 1.47558 -1.45744 0
M  V30 1999 C 192.325 1.87977 -0.0680981 0
M  V30 2000 O 191.683 1.55522 0.9318 0
M  V30 2001 C 191.731 2.70575 -2.38373 0
M  V30 2002 O 190.835 3.68573 -1.85007 0
M  V30 2003 H 190.176 0.443585 -0.494093 0
M  V30 2004 H 192.706 0.837238 -1.86686 0
M  V30 2005 H 192.716 3.18729 -2.54707 0
M  V30 2006 H 191.391 2.40495 -3.39315 0
M  V30 2007 H 189.968 3.2757 -1.78192 0
M  V30 2008 N 192.153 1.28127 0.917671 0
M  V30 2009 C 193.116 1.11744 2.00115 0
M  V30 2010 C 194.116 0.0583052 1.60694 0
M  V30 2011 O 195.306 0.303755 1.71531 0
M  V30 2012 C 192.438 0.704862 3.33533 0
M  V30 2013 H 193.631 2.07966 2.16079 0
M  V30 2014 H 191.184 1.11058 1.09981 0
M  V30 2015 H 191.919 -0.258299 3.2327 0
M  V30 2016 H 191.704 1.4699 3.63505 0
M  V30 2017 H 193.194 0.612768 4.1308 0
M  V30 2018 N 193.631 -1.12557 1.10312 0
M  V30 2019 C 194.561 -2.20341 0.772798 0
M  V30 2020 C 195.542 -1.68198 -0.25365 0
M  V30 2021 O 196.727 -1.93831 -0.119699 0
M  V30 2022 C 193.857 -3.46709 0.202443 0
M  V30 2023 C 192.811 -4.11996 1.15943 0
M  V30 2024 C 192.137 -5.328 0.450345 0
M  V30 2025 C 193.437 -4.5828 2.50552 0
M  V30 2026 H 195.131 -2.48229 1.674 0
M  V30 2027 H 192.677 -1.19308 0.806326 0
M  V30 2028 H 194.63 -4.2138 -0.0407752 0
M  V30 2029 H 193.354 -3.18245 -0.734001 0
M  V30 2030 H 192.013 -3.39305 1.38808 0
M  V30 2031 H 191.661 -5.00602 -0.490531 0
M  V30 2032 H 191.361 -5.7743 1.08851 0
M  V30 2033 H 192.885 -6.10219 0.215642 0
M  V30 2034 H 194.299 -5.2433 2.31843 0
M  V30 2035 H 192.696 -5.13683 3.10242 0
M  V30 2036 H 193.766 -3.72329 3.10643 0
M  V30 2037 N 195.109 -0.891671 -1.2995 0
M  V30 2038 C 196.355 -0.523649 -1.96544 0
M  V30 2039 C 196.71 0.918394 -1.69066 0
M  V30 2040 O 196.003 1.64122 -0.988659 0
M  V30 2041 C 196.197 -0.742868 -3.49594 0
M  V30 2042 C 196.026 -2.20467 -3.9195 0
M  V30 2043 C 194.796 -2.85055 -4.17219 0
M  V30 2044 C 196.994 -3.17912 -4.04273 0
M  V30 2045 N 194.976 -4.21762 -4.46083 0
M  V30 2046 C 196.347 -4.39712 -4.37097 0
M  V30 2047 C 198.402 -3.1361 -3.86721 0
M  V30 2048 C 197.105 -5.5776 -4.54199 0
M  V30 2049 C 199.131 -4.30936 -4.05028 0
M  V30 2050 C 198.493 -5.51504 -4.38204 0
M  V30 2051 H 194.592 -0.241072 -0.743914 0
M  V30 2052 H 197.176 -1.15081 -1.5705 0
M  V30 2053 H 195.347 -0.14515 -3.88129 0
M  V30 2054 H 197.079 -0.341081 -4.0326 0
M  V30 2055 H 193.834 -2.35889 -4.10674 0
M  V30 2056 H 194.258 -4.92382 -4.64638 0
M  V30 2057 H 198.9 -2.21489 -3.60142 0
M  V30 2058 H 196.618 -6.50379 -4.79618 0
M  V30 2059 H 200.204 -4.29085 -3.92909 0
M  V30 2060 H 199.084 -6.40778 -4.52077 0
M  V30 2061 N 196.587 1.43421 -0.653314 0
M  V30 2062 C 197.517 2.33487 0.0246656 0
M  V30 2063 C 198.498 1.49475 0.811863 0
M  V30 2064 O 199.683 1.78139 0.773322 0
M  V30 2065 C 196.813 3.32841 0.99166 0
M  V30 2066 C 195.767 4.26842 0.314568 0
M  V30 2067 C 195.093 5.16236 1.39302 0
M  V30 2068 C 196.393 5.16243 -0.793095 0
M  V30 2069 H 198.087 2.90427 -0.727481 0
M  V30 2070 H 195.633 1.39649 -0.351287 0
M  V30 2071 H 197.586 3.94747 1.47487 0
M  V30 2072 H 196.31 2.74158 1.77497 0
M  V30 2073 H 194.969 3.663 -0.148199 0
M  V30 2074 H 194.617 4.53891 2.16776 0
M  V30 2075 H 194.317 5.79948 0.945223 0
M  V30 2076 H 195.841 5.81015 1.87759 0
M  V30 2077 H 197.255 5.71958 -0.392039 0
M  V30 2078 H 195.652 5.88676 -1.16536 0
M  V30 2079 H 196.722 4.55927 -1.65103 0
M  V30 2080 N 198.065 0.39524 1.52563 0
M  V30 2081 C 199.312 -0.185044 2.01653 0
M  V30 2082 C 199.64 -1.46317 1.28146 0
M  V30 2083 O 198.895 -1.9213 0.372074 0
M  V30 2084 C 199.194 -0.493444 3.53977 0
M  V30 2085 C 198.86 0.69384 4.4553 0
M  V30 2086 C 197.522 1.01954 4.70275 0
M  V30 2087 C 199.874 1.48785 4.99512 0
M  V30 2088 C 197.202 2.14069 5.46252 0
M  V30 2089 C 199.554 2.59965 5.76716 0
M  V30 2090 C 198.218 2.93037 5.99738 0
M  V30 2091 H 197.488 -0.0677123 0.7379 0
M  V30 2092 H 200.135 0.533807 1.8391 0
M  V30 2093 H 198.44 -1.29369 3.69825 0
M  V30 2094 H 200.137 -0.955163 3.89458 0
M  V30 2095 H 196.727 0.429987 4.26438 0
M  V30 2096 H 200.911 1.24946 4.80315 0
M  V30 2097 H 196.167 2.40056 5.62302 0
M  V30 2098 H 200.341 3.21887 6.17545 0
M  V30 2099 H 197.968 3.8003 6.58393 0
M  V30 2100 N 199.544 -1.57102 0.125237 0
M  V30 2101 C 200.491 -2.15641 -0.822655 0
M  V30 2102 C 201.461 -1.08313 -1.25927 0
M  V30 2103 O 202.646 -1.36251 -1.33567 0
M  V30 2104 C 199.786 -2.76504 -2.06494 0
M  V30 2105 C 198.899 -3.98158 -1.67612 0
M  V30 2106 C 198.034 -4.47088 -2.86854 0
M  V30 2107 C 197.073 -5.6126 -2.44242 0
M  V30 2108 N 196.21 -6.04905 -3.56419 0
M  V30 2109 H 201.05 -2.96313 -0.316625 0
M  V30 2110 H 198.587 -1.46388 -0.144588 0
M  V30 2111 H 200.545 -3.09925 -2.79289 0
M  V30 2112 H 199.175 -1.98512 -2.54545 0
M  V30 2113 H 198.227 -3.70858 -0.846661 0
M  V30 2114 H 199.539 -4.80934 -1.32301 0
M  V30 2115 H 198.693 -4.82451 -3.67867 0
M  V30 2116 H 197.432 -3.63275 -3.25396 0
M  V30 2117 H 196.437 -5.25495 -1.61663 0
M  V30 2118 H 197.662 -6.46843 -2.0681 0
M  V30 2119 H 195.608 -5.24032 -3.94623 0
M  V30 2120 H 195.525 -6.82552 -3.25051 0
M  V30 2121 H 196.793 -6.44907 -4.37853 0
M  V30 2122 N 201.022 0.148545 -1.56898 0
M  V30 2123 C 201.954 1.20852 -1.9475 0
M  V30 2124 C 202.967 1.39265 -0.843152 0
M  V30 2125 O 204.156 1.38864 -1.12156 0
M  V30 2126 C 201.256 2.57362 -2.20495 0
M  V30 2127 C 200.429 2.59947 -3.51776 0
M  V30 2128 C 199.488 3.77984 -3.6608 0
M  V30 2129 O 198.514 3.62929 -4.38487 0
M  V30 2130 N 199.716 4.95375 -3.02629 0
M  V30 2131 H 202.481 0.886804 -2.86279 0
M  V30 2132 H 200.042 0.338121 -1.5833 0
M  V30 2133 H 202.034 3.34833 -2.27307 0
M  V30 2134 H 200.604 2.81832 -1.35238 0
M  V30 2135 H 199.824 1.68403 -3.56419 0
M  V30 2136 H 201.112 2.58704 -4.38121 0
M  V30 2137 H 200.51 5.10509 -2.43715 0
M  V30 2138 H 199.067 5.70627 -3.15004 0
M  V30 2139 N 202.5 1.5196 0.417844 0
M  V30 2140 C 203.463 1.74065 1.49111 0
M  V30 2141 C 204.463 0.610537 1.48758 0
M  V30 2142 O 205.653 0.87832 1.50437 0
M  V30 2143 C 202.785 1.81502 2.88565 0
M  V30 2144 H 203.978 2.69869 1.30807 0
M  V30 2145 H 201.531 1.42244 0.647785 0
M  V30 2146 H 202.266 0.875813 3.1225 0
M  V30 2147 H 202.051 2.63651 2.90225 0
M  V30 2148 H 203.541 2.00376 3.66387 0
M  V30 2149 N 203.978 -0.674533 1.42435 0
M  V30 2150 C 204.91 -1.80005 1.41883 0
M  V30 2151 C 205.923 -1.59667 0.31787 0
M  V30 2152 O 207.112 -1.68781 0.580973 0
M  V30 2153 C 204.212 -3.17114 1.19549 0
M  V30 2154 C 203.385 -3.64299 2.42084 0
M  V30 2155 C 202.444 -4.80142 2.15291 0
M  V30 2156 O 201.47 -4.90673 2.88493 0
M  V30 2157 N 202.672 -5.68869 1.1562 0
M  V30 2158 H 205.437 -1.80964 2.38898 0
M  V30 2159 H 202.998 -0.857633 1.37318 0
M  V30 2160 H 204.99 -3.92267 0.995417 0
M  V30 2161 H 203.56 -3.11053 0.310569 0
M  V30 2162 H 202.78 -2.79822 2.77657 0
M  V30 2163 H 204.068 -3.92567 3.23679 0
M  V30 2164 H 203.466 -5.63012 0.550765 0
M  V30 2165 H 202.023 -6.43833 1.016 0
M  V30 2166 N 205.456 -1.28612 -0.910864 0
M  V30 2167 C 206.386 -1.15326 -2.03032 0
M  V30 2168 C 207.367 -0.0502924 -1.70026 0
M  V30 2169 O 208.552 -0.227797 -1.92859 0
M  V30 2170 C 205.682 -0.817343 -3.37545 0
M  V30 2171 C 204.636 -1.8754 -3.84724 0
M  V30 2172 C 203.962 -1.39305 -5.16235 0
M  V30 2173 C 205.262 -3.28244 -4.06267 0
M  V30 2174 H 206.956 -2.08975 -2.14406 0
M  V30 2175 H 204.502 -1.00612 -1.03021 0
M  V30 2176 H 206.455 -0.711151 -4.15356 0
M  V30 2177 H 205.179 0.154846 -3.26233 0
M  V30 2178 H 203.838 -1.97079 -3.09121 0
M  V30 2179 H 203.486 -0.409846 -5.01328 0
M  V30 2180 H 203.186 -2.10057 -5.48771 0
M  V30 2181 H 204.71 -1.30014 -5.96598 0
M  V30 2182 H 206.124 -3.21611 -4.74594 0
M  V30 2183 H 204.521 -3.96855 -4.5014 0
M  V30 2184 H 205.591 -3.72048 -3.10979 0
M  V30 2185 N 206.934 1.1197 -1.10907 0
M  V30 2186 C 208.211 1.79959 -0.766432 0
M  V30 2187 C 208.591 1.97466 0.746363 0
M  V30 2188 O 207.939 1.55491 1.67436 0
M  V30 2189 C 208.149 3.14009 -1.52314 0
M  V30 2190 C 209.497 3.89134 -1.69883 0
M  V30 2191 O 210.521 3.2368 -1.48692 0
M  V30 2192 O 209.38 5.06572 -2.05054 0
M  V30 2193 H 206.474 0.779208 -0.277062 0
M  V30 2194 H 209.02 1.18762 -1.21217 0
M  V30 2195 H 207.792 2.96587 -2.55249 0
M  V30 2196 H 207.415 3.82915 -1.07059 0
M  V30 2197 N 208.412 0.89855 1.29475 0
M  V30 2198 C 209.658 0.524658 1.95896 0
M  V30 2199 C 209.991 -0.926468 1.70676 0
M  V30 2200 O 209.266 -1.65665 1.01908 0
M  V30 2201 C 209.549 0.81633 3.50725 0
M  V30 2202 C 209.402 2.31907 3.85408 0
M  V30 2203 C 210.721 0.302038 4.39062 0
M  V30 2204 H 207.84 0.19209 0.711527 0
M  V30 2205 H 210.482 1.12502 1.53112 0
M  V30 2206 H 208.632 0.305369 3.87298 0
M  V30 2207 H 210.304 2.89949 3.58786 0
M  V30 2208 H 208.547 2.78027 3.32992 0
M  V30 2209 H 209.218 2.47373 4.93468 0
M  V30 2210 H 211.694 0.739551 4.09475 0
M  V30 2211 H 210.57 0.535331 5.46283 0
M  V30 2212 H 210.831 -0.797216 4.34853 0
M  V30 2213 N 209.89 -1.43072 0.660911 0
M  V30 2214 C 211.136 -2.0202 0.177708 0
M  V30 2215 C 211.469 -1.52066 -1.20787 0
M  V30 2216 O 210.744 -0.716987 -1.80802 0
M  V30 2217 C 211.027 -3.59561 0.197019 0
M  V30 2218 C 210.88 -4.19727 1.61706 0
M  V30 2219 C 212.199 -4.37664 -0.462396 0
M  V30 2220 H 209.318 -0.734034 0.0660494 0
M  V30 2221 H 211.96 -1.70272 0.843058 0
M  V30 2222 H 210.11 -3.86739 -0.369527 0
M  V30 2223 H 211.782 -4.03553 2.23479 0
M  V30 2224 H 210.025 -3.76084 2.16201 0
M  V30 2225 H 210.696 -5.28834 1.58237 0
M  V30 2226 H 213.172 -4.16095 0.0197215 0
M  V30 2227 H 212.048 -5.47305 -0.418188 0
M  V30 2228 H 212.309 -4.14493 -1.53778 0
M  V30 2229 N 211.368 -0.403325 -1.52352 0
M  V30 2230 C 212.617 0.175668 -2.00934 0
M  V30 2231 C 212.93 1.46718 -1.29356 0
M  V30 2232 O 214.136 2.12708 -1.68724 0
M  V30 2233 C 212.592 0.363612 -3.58058 0
M  V30 2234 C 212.2 -0.915472 -4.38547 0
M  V30 2235 C 213.944 0.89821 -4.14888 0
M  V30 2236 C 211.851 -0.695035 -5.87302 0
M  V30 2237 H 210.781 0.0694234 -0.750797 0
M  V30 2238 H 213.432 -0.527879 -1.75743 0
M  V30 2239 H 211.814 1.12935 -3.79555 0
M  V30 2240 H 212.988 -1.68691 -4.28812 0
M  V30 2241 H 211.303 -1.37606 -3.93006 0
M  V30 2242 H 213.9 1.07907 -5.23699 0
M  V30 2243 H 214.243 1.87126 -3.71873 0
M  V30 2244 H 214.776 0.191681 -3.97338 0
M  V30 2245 H 211.515 -1.63948 -6.34666 0
M  V30 2246 H 211.035 0.0372116 -5.99788 0
M  V30 2247 H 212.714 -0.33497 -6.46132 0
M  V30 2248 N 212.846 1.57033 -0.133567 0
M  V30 2249 C 213.776 2.1909 0.807567 0
M  V30 2250 C 214.757 1.13517 1.26681 0
M  V30 2251 O 215.942 1.41809 1.32679 0
M  V30 2252 C 213.072 2.80188 2.05212 0
M  V30 2253 C 212.026 3.91471 1.73015 0
M  V30 2254 C 211.352 4.39443 3.04622 0
M  V30 2255 C 212.652 5.12886 0.987168 0
M  V30 2256 H 214.346 2.97988 0.290403 0
M  V30 2257 H 211.892 1.43335 0.138239 0
M  V30 2258 H 213.845 3.22264 2.71521 0
M  V30 2259 H 212.569 1.98601 2.59278 0
M  V30 2260 H 211.228 3.49993 1.0909 0
M  V30 2261 H 210.876 3.54695 3.56651 0
M  V30 2262 H 210.576 5.14495 2.83847 0
M  V30 2263 H 212.1 4.8418 3.72024 0
M  V30 2264 H 213.514 5.51891 1.55208 0
M  V30 2265 H 211.911 5.93615 0.87985 0
M  V30 2266 H 212.981 4.84894 -0.0235286 0
M  V30 2267 N 214.325 -0.140222 1.56975 0
M  V30 2268 C 215.235 -1.19223 2.02047 0
M  V30 2269 C 216.251 -1.46612 0.937062 0
M  V30 2270 O 217.427 -1.58148 1.24704 0
M  V30 2271 C 214.492 -2.50414 2.39778 0
M  V30 2272 C 213.553 -2.30612 3.621 0
M  V30 2273 C 212.786 -3.55547 3.98023 0
M  V30 2274 O 213.009 -4.62004 3.34528 0
M  V30 2275 O 211.943 -3.47808 4.91237 0
M  V30 2276 H 215.769 -0.839559 2.91865 0
M  V30 2277 H 213.354 -0.349453 1.45256 0
M  V30 2278 H 215.236 -3.27747 2.64877 0
M  V30 2279 H 213.911 -2.85198 1.53114 0
M  V30 2280 H 212.818 -1.51207 3.4218 0
M  V30 2281 H 214.151 -2.00741 4.49404 0
M  V30 2282 N 215.803 -1.52179 -0.40978 0
M  V30 2283 C 217.049 -1.66453 -1.15851 0
M  V30 2284 C 217.382 -0.392972 -1.90182 0
M  V30 2285 O 216.657 0.608579 -1.84734 0
M  V30 2286 C 216.94 -2.88612 -2.15349 0
M  V30 2287 C 216.793 -4.25815 -1.44918 0
M  V30 2288 C 218.112 -3.06294 -3.16026 0
M  V30 2289 H 215.231 -0.60575 -0.419805 0
M  V30 2290 H 217.873 -1.84732 -0.444314 0
M  V30 2291 H 216.023 -2.73158 -2.76255 0
M  V30 2292 H 217.695 -4.52995 -0.871365 0
M  V30 2293 H 215.938 -4.27247 -0.751159 0
M  V30 2294 H 216.609 -5.07337 -2.17516 0
M  V30 2295 H 219.085 -3.20641 -2.65195 0
M  V30 2296 H 217.961 -3.93283 -3.8291 0
M  V30 2297 H 218.222 -2.19579 -3.83715 0
M  V30 2298 N 217.281 0.66697 -1.42791 0
M  V30 2299 C 218.529 1.42417 -1.43394 0
M  V30 2300 C 218.85 1.94925 -0.0542373 0
M  V30 2301 O 218.12 1.73564 0.908415 0
M  V30 2302 H 216.7 0.528515 -0.527902 0
M  V30 2303 H 219.362 0.787562 -1.78279 0
M  V30 2304 H 218.458 2.27333 -2.13837 0
M  V30 2305 N 218.759 1.29093 0.90403 0
M  V30 2306 C 219.689 1.16401 2.02418 0
M  V30 2307 C 220.67 0.0593085 1.69997 0
M  V30 2308 O 221.855 0.238021 1.92736 0
M  V30 2309 C 218.985 0.835233 3.37107 0
M  V30 2310 C 217.939 1.89578 3.83724 0
M  V30 2311 C 217.265 1.42041 5.15489 0
M  V30 2312 C 218.565 3.30394 4.04521 0
M  V30 2313 H 220.259 2.10109 2.13295 0
M  V30 2314 H 217.805 1.01157 1.02486 0
M  V30 2315 H 219.758 0.733169 4.14973 0
M  V30 2316 H 218.482 -0.137543 3.2631 0
M  V30 2317 H 217.141 1.98715 3.08071 0
M  V30 2318 H 216.789 0.436426 5.01103 0
M  V30 2319 H 216.489 2.12964 5.4765 0
M  V30 2320 H 218.013 1.33176 5.959 0
M  V30 2321 H 219.427 3.24123 4.72882 0
M  V30 2322 H 217.824 3.99237 4.48029 0
M  V30 2323 H 218.894 3.73692 3.09002 0
M  V30 2324 N 220.237 -1.11381 1.11499 0
M  V30 2325 C 221.485 -1.8277 0.862524 0
M  V30 2326 C 221.806 -1.85097 -0.613534 0
M  V30 2327 O 221.076 -1.32198 -1.4457 0
M  V30 2328 H 219.656 -0.676823 0.316101 0
M  V30 2329 H 222.318 -1.34816 1.4075 0
M  V30 2330 H 221.414 -2.86614 1.23527 0
M  V30 2331 N 221.715 -0.905404 -1.28997 0
M  V30 2332 C 222.963 -0.533192 -1.9494 0
M  V30 2333 C 223.284 0.924618 -1.71685 0
M  V30 2334 O 222.554 1.65268 -1.05183 0
M  V30 2335 H 221.134 -0.194194 -0.721317 0
M  V30 2336 H 223.796 -1.15294 -1.57141 0
M  V30 2337 H 222.892 -0.72059 -3.03667 0
M  V30 2338 N 223.193 1.4272 -0.668489 0
M  V30 2339 C 224.609 1.55992 -0.33745 0
M  V30 2340 C 224.809 1.64933 1.15756 0
M  V30 2341 O 223.865 1.61278 1.94282 0
M  V30 2342 C 225.178 2.81314 -1.06222 0
M  V30 2343 C 226.726 2.95078 -1.04394 0
M  V30 2344 C 227.201 4.23252 -1.74991 0
M  V30 2345 N 228.692 4.3015 -1.71829 0
M  V30 2346 C 229.427 5.28127 -2.23315 0
M  V30 2347 N 228.923 6.32293 -2.83156 0
M  V30 2348 N 230.716 5.19882 -2.13726 0
M  V30 2349 H 222.867 1.3516 -1.63846 0
M  V30 2350 H 225.13 0.650174 -0.689912 0
M  V30 2351 H 224.836 2.80823 -2.11734 0
M  V30 2352 H 224.71 3.72012 -0.62344 0
M  V30 2353 H 227.097 2.951 0.0028244 0
M  V30 2354 H 227.178 2.05627 -1.52155 0
M  V30 2355 H 226.822 4.2399 -2.79633 0
M  V30 2356 H 226.752 5.11626 -1.24685 0
M  V30 2357 H 229.243 3.55499 -1.28175 0
M  V30 2358 H 229.556 7.03398 -3.20079 0
M  V30 2359 H 227.901 6.32873 -2.87223 0
M  V30 2360 H 231.092 4.37423 -1.66669 0
M  V30 2361 H 231.265 5.96077 -2.54158 0
M  V30 2362 N 224.671 0.411399 1.52136 0
M  V30 2363 C 225.601 -0.404015 2.29978 0
M  V30 2364 C 226.582 -1.04412 1.34284 0
M  V30 2365 O 227.767 -1.0527 1.63192 0
M  V30 2366 C 224.897 -1.5197 3.12286 0
M  V30 2367 C 223.851 -1.00448 4.16046 0
M  V30 2368 C 223.177 -2.21393 4.86712 0
M  V30 2369 C 224.477 -0.0569336 5.22269 0
M  V30 2370 H 226.171 0.245529 2.98392 0
M  V30 2371 H 223.717 0.119525 1.43503 0
M  V30 2372 H 225.67 -2.09715 3.6551 0
M  V30 2373 H 224.394 -2.19716 2.41646 0
M  V30 2374 H 223.053 -0.449421 3.63835 0
M  V30 2375 H 222.701 -2.87699 4.12599 0
M  V30 2376 H 222.401 -1.87571 5.56858 0
M  V30 2377 H 223.925 -2.7974 5.4275 0
M  V30 2378 H 225.339 -0.54325 5.7072 0
M  V30 2379 H 223.736 0.192594 5.99791 0
M  V30 2380 H 224.806 0.887663 4.76706 0
M  V30 2381 N 226.149 -1.5696 0.141893 0
M  V30 2382 C 227.426 -1.87553 -0.555281 0
M  V30 2383 C 227.806 -1.04699 -1.83306 0
M  V30 2384 O 227.154 -0.132346 -2.28116 0
M  V30 2385 C 227.364 -3.39093 -0.825664 0
M  V30 2386 C 228.712 -4.08199 -1.16869 0
M  V30 2387 O 229.736 -3.44242 -0.915185 0
M  V30 2388 O 228.595 -5.21139 -1.6455 0
M  V30 2389 H 225.689 -0.777188 -0.282679 0
M  V30 2390 H 228.235 -1.68763 0.17812 0
M  V30 2391 H 227.007 -3.91221 0.0788633 0
M  V30 2392 H 226.63 -3.63393 -1.61343 0
M  V30 2393 N 227.627 0.131896 -1.57047 0
M  V30 2394 C 228.59 1.14638 -1.98471 0
M  V30 2395 C 229.59 1.35029 -0.873148 0
M  V30 2396 O 230.78 1.31764 -1.13946 0
M  V30 2397 C 227.912 2.50358 -2.31373 0
M  V30 2398 H 229.105 0.79064 -2.8929 0
M  V30 2399 H 226.658 0.375761 -1.51716 0
M  V30 2400 H 227.393 2.90876 -1.43393 0
M  V30 2401 H 227.178 2.36915 -3.12432 0
M  V30 2402 H 228.668 3.23395 -2.64207 0
M  V30 2403 N 229.106 1.52395 0.401703 0
M  V30 2404 C 230.334 1.70676 1.16949 0
M  V30 2405 C 230.749 0.419503 1.8408 0
M  V30 2406 O 230.106 -0.605061 1.72178 0
M  V30 2407 C 230.157 2.84753 2.22706 0
M  V30 2408 O 229.878 4.08495 1.58314 0
M  V30 2409 C 231.379 3.14608 3.12309 0
M  V30 2410 H 228.599 0.571787 0.351142 0
M  V30 2411 H 231.143 1.98987 0.471652 0
M  V30 2412 H 229.298 2.58941 2.88147 0
M  V30 2413 H 229.712 4.72117 2.28485 0
M  V30 2414 H 231.186 3.97923 3.82572 0
M  V30 2415 H 231.663 2.28464 3.75101 0
M  V30 2416 H 232.269 3.42212 2.52529 0
M  V30 2417 N 230.584 -0.659388 1.43143 0
M  V30 2418 C 231.532 -1.79374 1.4808 0
M  V30 2419 C 232.526 -1.65639 0.354988 0
M  V30 2420 O 233.732 -1.7206 0.528704 0
M  V30 2421 H 230.107 -0.591705 0.4641 0
M  V30 2422 H 232.078 -1.72329 2.43609 0
M  V30 2423 C 230.827 -3.17606 1.41499 0
M  V30 2424 H 230.15 -3.28809 2.27431 0
M  V30 2425 H 231.59 -3.96951 1.49015 0
M  V30 2426 C 230.049 -3.36642 0.131765 0
M  V30 2427 O 230.579 -3.93461 -0.809386 0
M  V30 2428 N 228.785 -2.90567 0.0439396 0
M  V30 2429 H 228.332 -2.44513 0.810619 0
M  V30 2430 H 228.29 -3.03681 -0.813969 0
M  V30 2431 N 232.062 -1.29571 -0.897171 0
M  V30 2432 C 233.311 -1.1706 -1.64256 0
M  V30 2433 C 233.624 0.276476 -1.93636 0
M  V30 2434 O 234.83 0.52294 -2.66416 0
M  V30 2435 C 233.286 -2.0475 -2.95982 0
M  V30 2436 C 232.894 -3.54295 -2.74187 0
M  V30 2437 C 234.638 -2.0097 -3.73914 0
M  V30 2438 C 232.545 -4.34081 -4.01656 0
M  V30 2439 H 231.475 -0.43452 -0.616205 0
M  V30 2440 H 234.126 -1.54229 -0.994268 0
M  V30 2441 H 232.508 -1.60452 -3.62038 0
M  V30 2442 H 233.682 -4.06662 -2.1671 0
M  V30 2443 H 231.997 -3.59773 -2.09648 0
M  V30 2444 H 234.594 -2.57838 -4.68427 0
M  V30 2445 H 234.937 -0.990273 -4.0435 0
M  V30 2446 H 235.47 -2.43325 -3.14703 0
M  V30 2447 H 232.209 -5.36671 -3.76384 0
M  V30 2448 H 231.729 -3.86483 -4.58684 0
M  V30 2449 H 233.408 -4.44877 -4.69781 0
M  V30 2450 N 233.54 1.10788 -1.12088 0
M  V30 2451 C 234.786 1.82942 -0.875226 0
M  V30 2452 C 235.119 1.84779 0.597538 0
M  V30 2453 O 234.394 1.30578 1.44152 0
M  V30 2454 C 234.677 3.29789 -1.44606 0
M  V30 2455 C 234.53 3.36307 -2.98693 0
M  V30 2456 C 235.849 4.26064 -1.10261 0
M  V30 2457 H 232.968 0.664195 -0.319397 0
M  V30 2458 H 235.61 1.29867 -1.38689 0
M  V30 2459 H 233.76 3.75118 -1.01089 0
M  V30 2460 H 235.432 2.99487 -3.50864 0
M  V30 2461 H 233.675 2.76318 -3.34411 0
M  V30 2462 H 234.346 4.39694 -3.33726 0
M  V30 2463 H 236.822 3.88951 -1.4784 0
M  V30 2464 H 235.698 5.27183 -1.52869 0
M  V30 2465 H 235.959 4.42098 -0.0142953 0
M  V30 2466 N 235.018 0.912232 1.28515 0
M  V30 2467 C 236.295 0.463597 1.90027 0
M  V30 2468 C 236.675 -1.05753 1.82701 0
M  V30 2469 O 236.023 -1.90492 1.26194 0
M  V30 2470 C 236.233 0.992253 3.34597 0
M  V30 2471 C 237.581 1.04344 4.11579 0
M  V30 2472 O 238.605 0.94079 3.43551 0
M  V30 2473 O 237.464 1.1995 5.33174 0
M  V30 2474 H 234.558 0.146666 0.813891 0
M  V30 2475 H 237.104 1.00292 1.36893 0
M  V30 2476 H 235.876 2.03623 3.34146 0
M  V30 2477 H 235.499 0.433672 3.95228 0
M  V30 2478 N 236.496 -1.42363 0.676048 0
M  V30 2479 C 237.459 -2.29199 0.00766941 0
M  V30 2480 C 238.459 -1.43389 -0.727745 0
M  V30 2481 O 239.649 -1.64764 -0.56556 0
M  V30 2482 C 236.781 -3.2591 -0.999785 0
M  V30 2483 H 237.974 -2.89794 0.771988 0
M  V30 2484 H 235.527 -1.50024 0.438468 0
M  V30 2485 H 236.262 -2.70256 -1.79255 0
M  V30 2486 H 236.047 -3.89202 -0.475829 0
M  V30 2487 H 237.537 -3.91028 -1.46583 0
M  V30 2488 N 237.974 -0.419461 -1.51915 0
M  V30 2489 C 239.251 0.211999 -1.94448 0
M  V30 2490 C 239.631 1.61703 -1.35703 0
M  V30 2491 O 238.979 2.22102 -0.536931 0
M  V30 2492 C 239.189 0.207872 -3.4838 0
M  V30 2493 C 240.537 0.422192 -4.22496 0
M  V30 2494 O 241.561 0.286778 -3.55044 0
M  V30 2495 O 240.42 0.690009 -5.42126 0
M  V30 2496 H 237.514 0.139586 -0.815135 0
M  V30 2497 H 240.06 -0.476151 -1.62883 0
M  V30 2498 H 238.832 -0.775102 -3.83546 0
M  V30 2499 H 238.455 0.939688 -3.86336 0
M  V30 2500 N 239.452 1.56882 -0.150215 0
M  V30 2501 C 240.698 1.96518 0.500834 0
M  V30 2502 C 241.031 1.03527 1.64304 0
M  V30 2503 O 240.306 0.0782751 1.94342 0
M  V30 2504 C 240.589 3.45822 1.00395 0
M  V30 2505 C 240.442 4.49591 -0.136983 0
M  V30 2506 C 241.761 3.97704 1.88467 0
M  V30 2507 H 238.88 0.714535 0.18058 0
M  V30 2508 H 241.522 1.88577 -0.232091 0
M  V30 2509 H 239.672 3.5272 1.62851 0
M  V30 2510 H 241.344 4.5477 -0.77343 0
M  V30 2511 H 239.587 4.26441 -0.795652 0
M  V30 2512 H 240.258 5.51402 0.256815 0
M  V30 2513 H 242.734 3.93304 1.35834 0
M  V30 2514 H 241.61 5.0263 2.20578 0
M  V30 2515 H 241.871 3.40252 2.82279 0
M  V30 2516 N 240.93 -0.123565 1.57115 0
M  V30 2517 C 241.893 -1.13583 1.99076 0
M  V30 2518 C 242.893 -1.34564 0.880296 0
M  V30 2519 O 244.083 -1.31158 1.14644 0
M  V30 2520 C 241.215 -2.49128 2.32698 0
M  V30 2521 H 242.408 -0.775287 2.89706 0
M  V30 2522 H 239.961 -0.36771 1.51913 0
M  V30 2523 H 240.696 -2.90111 1.44934 0
M  V30 2524 H 240.481 -2.35255 3.13684 0
M  V30 2525 H 241.971 -3.2199 2.65918 0
M  V30 2526 N 242.408 -1.52605 -0.393616 0
M  V30 2527 C 243.654 -1.67672 -1.14079 0
M  V30 2528 C 243.987 -0.413121 -1.89755 0
M  V30 2529 O 243.262 0.588952 -1.85369 0
M  V30 2530 C 243.545 -2.9088 -2.12276 0
M  V30 2531 C 243.398 -4.27329 -1.40394 0
M  V30 2532 C 244.717 -3.09628 -3.12759 0
M  V30 2533 H 241.836 -0.610168 -0.413356 0
M  V30 2534 H 244.478 -1.85193 -0.424696 0
M  V30 2535 H 242.628 -2.76073 -2.73342 0
M  V30 2536 H 244.3 -4.53894 -0.82327 0
M  V30 2537 H 242.543 -4.2802 -0.705801 0
M  V30 2538 H 243.214 -5.09615 -2.12123 0
M  V30 2539 H 245.69 -3.23436 -2.61779 0
M  V30 2540 H 244.566 -3.97322 -3.78717 0
M  V30 2541 H 244.827 -2.23637 -3.81365 0
M  V30 2542 N 243.887 0.651787 -1.4349 0
M  V30 2543 C 245.133 1.41376 -1.45398 0
M  V30 2544 C 245.466 1.94041 -0.0784823 0
M  V30 2545 O 244.741 1.72379 0.900878 0
M  V30 2546 C 245.024 2.59414 -2.49752 0
M  V30 2547 C 244.877 2.12232 -3.96582 0
M  V30 2548 C 246.196 3.61626 -2.50827 0
M  V30 2549 H 243.315 0.512719 -0.529422 0
M  V30 2550 H 245.957 0.738796 -1.75048 0
M  V30 2551 H 244.107 3.16997 -2.246 0
M  V30 2552 H 245.779 1.59639 -4.32797 0
M  V30 2553 H 244.022 1.43592 -4.09346 0
M  V30 2554 H 244.693 2.9712 -4.65214 0
M  V30 2555 H 247.169 3.13805 -2.7325 0
M  V30 2556 H 246.045 4.41766 -3.25783 0
M  V30 2557 H 246.306 4.14314 -1.5426 0
M  V30 2558 N 245.365 1.30045 0.890287 0
M  V30 2559 C 246.593 1.21472 1.67487 0
M  V30 2560 C 247.008 -0.223241 1.87476 0
M  V30 2561 O 246.365 -1.14828 1.41847 0
M  V30 2562 C 246.416 1.93394 3.05419 0
M  V30 2563 O 246.137 3.31576 2.86337 0
M  V30 2564 C 247.638 1.91414 3.99844 0
M  V30 2565 H 244.858 0.420604 0.522813 0
M  V30 2566 H 247.402 1.7158 1.11268 0
M  V30 2567 H 245.557 1.47099 3.58386 0
M  V30 2568 H 245.971 3.67929 3.73802 0
M  V30 2569 H 247.445 2.46285 4.94012 0
M  V30 2570 H 247.922 0.891833 4.3005 0
M  V30 2571 H 248.528 2.37496 3.52811 0
M  V30 2572 N 246.843 -1.10192 1.12674 0
M  V30 2573 C 248.068 -1.86523 0.906853 0
M  V30 2574 C 248.493 -1.80221 -0.538711 0
M  V30 2575 O 247.851 -1.17396 -1.38158 0
M  V30 2576 C 247.899 -3.32758 1.3894 0
M  V30 2577 O 247.003 -4.08449 0.5695 0
M  V30 2578 H 246.344 -0.578678 0.325619 0
M  V30 2579 H 248.874 -1.39203 1.49946 0
M  V30 2580 H 248.884 -3.83608 1.38958 0
M  V30 2581 H 247.559 -3.36661 2.44197 0
M  V30 2582 H 246.136 -3.67427 0.636528 0
M  V30 2583 N 248.321 -0.919034 -1.28029 0
M  V30 2584 C 249.57 -0.550802 -1.94034 0
M  V30 2585 C 249.883 0.910877 -1.73096 0
M  V30 2586 O 251.089 1.3875 -2.33368 0
M  V30 2587 C 249.545 -0.934249 -3.47563 0
M  V30 2588 C 249.153 -2.41602 -3.7727 0
M  V30 2589 C 250.897 -0.636854 -4.19696 0
M  V30 2590 C 248.804 -2.73932 -5.24133 0
M  V30 2591 H 247.734 -0.202273 -0.726362 0
M  V30 2592 H 250.385 -1.11867 -1.45458 0
M  V30 2593 H 248.767 -0.295115 -3.94899 0
M  V30 2594 H 249.941 -3.10233 -3.40723 0
M  V30 2595 H 248.256 -2.68441 -3.18321 0
M  V30 2596 H 250.853 -0.855005 -5.2782 0
M  V30 2597 H 251.196 0.425575 -4.14119 0
M  V30 2598 H 251.729 -1.23469 -3.78154 0
M  V30 2599 H 248.468 -3.79049 -5.34792 0
M  V30 2600 H 247.988 -2.09942 -5.61858 0
M  V30 2601 H 249.667 -2.61215 -5.91925 0
M  V30 2602 N 249.799 1.42003 -0.683588 0
M  V30 2603 C 250.762 2.29191 -0.0198243 0
M  V30 2604 C 251.762 1.43773 0.72013 0
M  V30 2605 O 252.952 1.65061 0.556815 0
M  V30 2606 C 250.084 3.26435 0.982487 0
M  V30 2607 H 251.277 2.8938 -0.787345 0
M  V30 2608 H 248.83 1.49789 -0.446418 0
M  V30 2609 H 249.565 2.71203 1.77819 0
M  V30 2610 H 249.35 3.89449 0.455182 0
M  V30 2611 H 250.84 3.918 1.44508 0
M  V30 2612 N 251.277 0.427512 1.51691 0
M  V30 2613 C 252.207 -0.3796 2.30394 0
M  V30 2614 C 253.188 -1.02982 1.35384 0
M  V30 2615 O 254.373 -1.03534 1.643 0
M  V30 2616 C 251.503 -1.48649 3.1388 0
M  V30 2617 C 250.457 -0.960294 4.17088 0
M  V30 2618 C 249.783 -2.16219 4.89033 0
M  V30 2619 C 251.083 -0.00153679 5.223 0
M  V30 2620 H 252.777 0.277164 2.98114 0
M  V30 2621 H 250.323 0.134739 1.43368 0
M  V30 2622 H 252.276 -2.05826 3.67714 0
M  V30 2623 H 251 -2.1714 2.43962 0
M  V30 2624 H 249.659 -0.410806 3.64291 0
M  V30 2625 H 249.307 -2.83307 4.15628 0
M  V30 2626 H 249.007 -1.81654 5.58816 0
M  V30 2627 H 250.531 -2.73968 5.45687 0
M  V30 2628 H 251.945 -0.482687 5.71264 0
M  V30 2629 H 250.342 0.256199 5.99553 0
M  V30 2630 H 251.412 0.938174 4.75738 0
M  V30 2631 N 252.755 -1.56801 0.158532 0
M  V30 2632 C 254.032 -1.88131 -0.535357 0
M  V30 2633 C 254.412 -1.06638 -1.82186 0
M  V30 2634 O 253.76 -0.156533 -2.27963 0
M  V30 2635 C 253.97 -3.39949 -0.789653 0
M  V30 2636 C 255.318 -4.09416 -1.12533 0
M  V30 2637 O 256.342 -3.45194 -0.878622 0
M  V30 2638 O 255.201 -5.22855 -1.59014 0
M  V30 2639 H 252.295 -0.780143 -0.27442 0
M  V30 2640 H 254.841 -1.68564 0.19601 0
M  V30 2641 H 253.613 -3.91115 0.120353 0
M  V30 2642 H 253.236 -3.65084 -1.57479 0
M  V30 2643 N 254.233 0.115231 -1.57178 0
M  V30 2644 C 255.183 1.14707 -1.97044 0
M  V30 2645 C 256.167 1.36866 -0.845957 0
M  V30 2646 O 257.359 1.37895 -1.10968 0
M  V30 2647 C 254.488 2.47266 -2.38148 0
M  V30 2648 C 253.574 2.28566 -3.57237 0
M  V30 2649 N 253.965 1.79685 -4.72807 0
M  V30 2650 C 252.263 2.59208 -3.62943 0
M  V30 2651 C 252.964 1.74781 -5.54821 0
M  V30 2652 N 251.94 2.19264 -4.97417 0
M  V30 2653 H 255.742 0.761754 -2.83857 0
M  V30 2654 H 253.256 0.322928 -1.59157 0
M  V30 2655 H 255.253 3.219 -2.64927 0
M  V30 2656 H 253.913 2.86552 -1.52702 0
M  V30 2657 H 254.924 1.49177 -4.9595 0
M  V30 2658 H 251.601 3.02154 -2.88113 0
M  V30 2659 H 252.991 1.38212 -6.57531 0
M  V30 2660 N 255.711 1.52812 0.385517 0
M  V30 2661 C 256.939 1.71907 1.15133 0
M  V30 2662 C 257.354 0.439004 1.83625 0
M  V30 2663 O 256.711 -0.586765 1.7281 0
M  V30 2664 C 256.762 2.87099 2.19673 0
M  V30 2665 O 256.483 4.10151 1.53973 0
M  V30 2666 C 257.984 3.17902 3.08955 0
M  V30 2667 H 255.204 0.575479 0.345057 0
M  V30 2668 H 257.748 1.99476 0.45052 0
M  V30 2669 H 255.903 2.61982 2.85384 0
M  V30 2670 H 256.317 4.74514 2.23465 0
M  V30 2671 H 257.791 4.01959 3.7833 0
M  V30 2672 H 258.268 2.3243 3.72657 0
M  V30 2673 H 258.874 3.44871 2.48885 0
M  V30 2674 N 257.189 -0.644168 1.43834 0
M  V30 2675 C 258.466 -1.40188 1.36406 0
M  V30 2676 C 258.846 -2.11094 0.0163124 0
M  V30 2677 O 258.194 -2.05426 -1.00062 0
M  V30 2678 C 258.404 -2.3791 2.55343 0
M  V30 2679 C 259.752 -3.01637 2.98832 0
M  V30 2680 O 260.776 -2.48237 2.55455 0
M  V30 2681 O 259.635 -3.98477 3.74003 0
M  V30 2682 H 256.729 -0.626773 0.539523 0
M  V30 2683 H 259.275 -0.670317 1.559 0
M  V30 2684 H 258.047 -1.84525 3.4506 0
M  V30 2685 H 257.67 -3.18503 2.37995 0
M  V30 2686 N 258.668 -1.30515 -0.883378 0
M  V30 2687 C 259.914 -1.20617 -1.63778 0
M  V30 2688 C 260.269 0.236469 -1.90941 0
M  V30 2689 O 259.562 1.16596 -1.52039 0
M  V30 2690 C 259.756 -1.96994 -2.98209 0
M  V30 2691 C 259.585 -3.48537 -2.84169 0
M  V30 2692 C 258.355 -4.17893 -2.84067 0
M  V30 2693 C 260.553 -4.43738 -2.60001 0
M  V30 2694 N 258.535 -5.55685 -2.60936 0
M  V30 2695 C 259.906 -5.69105 -2.46007 0
M  V30 2696 C 261.961 -4.33316 -2.45239 0
M  V30 2697 C 260.664 -6.8523 -2.18752 0
M  V30 2698 C 262.69 -5.4921 -2.19369 0
M  V30 2699 C 262.052 -6.73558 -2.06153 0
M  V30 2700 H 258.151 -0.496434 -0.604216 0
M  V30 2701 H 260.735 -1.64544 -1.04083 0
M  V30 2702 H 258.906 -1.55455 -3.55933 0
M  V30 2703 H 260.638 -1.79225 -3.62851 0
M  V30 2704 H 257.393 -3.69739 -2.95956 0
M  V30 2705 H 257.817 -6.28199 -2.52378 0
M  V30 2706 H 262.459 -3.37856 -2.54191 0
M  V30 2707 H 260.177 -7.80729 -2.08537 0
M  V30 2708 H 263.763 -5.43054 -2.08766 0
M  V30 2709 H 262.643 -7.61721 -1.86416 0
M  V30 2710 N 260.146 1.09593 -1.13257 0
M  V30 2711 C 261.076 2.18214 -0.830946 0
M  V30 2712 C 262.057 1.68812 0.208966 0
M  V30 2713 O 263.242 1.9408 0.0682666 0
M  V30 2714 C 260.372 3.46051 -0.294296 0
M  V30 2715 C 259.326 4.08778 -1.26826 0
M  V30 2716 C 258.652 5.31419 -0.591449 0
M  V30 2717 C 259.952 4.51476 -2.62615 0
M  V30 2718 H 261.646 2.43703 -1.73923 0
M  V30 2719 H 259.192 1.17128 -0.837675 0
M  V30 2720 H 261.145 4.2134 -0.0709606 0
M  V30 2721 H 259.869 3.20079 0.649366 0
M  V30 2722 H 258.528 3.35505 -1.47756 0
M  V30 2723 H 258.176 5.01727 0.357633 0
M  V30 2724 H 257.876 5.74341 -1.24123 0
M  V30 2725 H 259.4 6.09433 -0.377355 0
M  V30 2726 H 260.814 5.17999 -2.45663 0
M  V30 2727 H 259.211 5.05277 -3.23752 0
M  V30 2728 H 260.281 3.63962 -3.20406 0
M  V30 2729 N 261.624 0.925811 1.2754 0
M  V30 2730 C 262.872 0.564138 1.94067 0
M  V30 2731 C 263.193 -0.897188 1.73134 0
M  V30 2732 O 262.463 -1.63573 1.07799 0
M  V30 2733 H 261.043 0.205645 0.718136 0
M  V30 2734 H 263.705 1.1778 1.55287 0
M  V30 2735 H 262.801 0.76881 3.02483 0
M  V30 2736 N 263.102 -1.41638 0.69111 0
M  V30 2737 C 264.513 -1.84346 0.295517 0
M  V30 2738 C 264.864 -1.57833 -1.16547 0
M  V30 2739 O 263.989 -1.04648 -1.89414 0
M  V30 2740 C 264.584 -3.34636 0.529575 0
M  V30 2741 C 263.143 -3.7593 0.187944 0
M  V30 2742 C 262.29 -2.65082 0.814052 0
M  V30 2743 H 265.241 -1.31253 0.892092 0
M  V30 2744 H 265.262 -3.79903 -0.213148 0
M  V30 2745 H 264.774 -3.53901 1.59297 0
M  V30 2746 H 262.875 -3.62268 -0.871367 0
M  V30 2747 H 262.988 -4.74808 0.63985 0
M  V30 2748 H 261.352 -2.53528 0.244017 0
M  V30 2749 H 262.135 -2.87167 1.88123 0
M  V30 2750 N 264.58 -0.43555 -1.51462 0
M  V30 2751 C 265.857 0.191364 -1.94662 0
M  V30 2752 C 266.237 1.60254 -1.37411 0
M  V30 2753 O 265.585 2.2152 -0.560458 0
M  V30 2754 C 265.795 0.17091 -3.48581 0
M  V30 2755 C 267.143 0.377357 -4.2292 0
M  V30 2756 O 268.167 0.249104 -3.55328 0
M  V30 2757 O 267.026 0.63247 -5.42828 0
M  V30 2758 H 264.12 0.130932 -0.816569 0
M  V30 2759 H 266.666 -0.4934 -1.62369 0
M  V30 2760 H 265.438 -0.815738 -3.82703 0
M  V30 2761 H 265.061 0.898659 -3.87311 0
M  V30 2762 N 266.058 1.56714 -0.166846 0
M  V30 2763 C 267.474 1.58473 0.189372 0
M  V30 2764 C 267.674 1.18201 1.63189 0
M  V30 2765 O 266.73 0.891528 2.36237 0
M  V30 2766 C 268.043 3.00573 -0.0873872 0
M  V30 2767 C 269.591 3.1299 -0.0252443 0
M  V30 2768 C 270.066 4.57174 -0.274934 0
M  V30 2769 N 271.557 4.62665 -0.222553 0
M  V30 2770 C 272.292 5.72072 -0.389985 0
M  V30 2771 N 271.788 6.90054 -0.616229 0
M  V30 2772 N 273.581 5.61153 -0.326202 0
M  V30 2773 H 265.732 1.8118 -1.10849 0
M  V30 2774 H 267.995 0.839525 -0.440342 0
M  V30 2775 H 267.701 3.34497 -1.0865 0
M  V30 2776 H 267.575 3.72019 0.623037 0
M  V30 2777 H 269.962 2.78895 0.96444 0
M  V30 2778 H 270.043 2.43989 -0.768309 0
M  V30 2779 H 269.687 4.91976 -1.26181 0
M  V30 2780 H 269.617 5.24328 0.48869 0
M  V30 2781 H 272.108 3.77863 -0.0531512 0
M  V30 2782 H 272.421 7.69311 -0.733559 0
M  V30 2783 H 270.766 6.91927 -0.652791 0
M  V30 2784 H 273.957 4.67859 -0.150072 0
M  V30 2785 H 274.13 6.46364 -0.460116 0
M  V30 2786 N 267.536 -0.106894 1.57237 0
M  V30 2787 C 268.446 -1.14911 2.0453 0
M  V30 2788 C 269.462 -1.44592 0.96795 0
M  V30 2789 O 270.638 -1.55468 1.2803 0
M  V30 2790 C 267.703 -2.45272 2.45036 0
M  V30 2791 C 266.764 -2.22879 3.66911 0
M  V30 2792 C 265.997 -3.47024 4.05475 0
M  V30 2793 O 266.22 -4.54804 3.44252 0
M  V30 2794 O 265.154 -3.3731 4.98504 0
M  V30 2795 H 268.98 -0.777461 2.9358 0
M  V30 2796 H 266.565 -0.318563 1.45964 0
M  V30 2797 H 268.447 -3.22055 2.71769 0
M  V30 2798 H 267.122 -2.81886 1.59129 0
M  V30 2799 H 266.029 -1.43915 3.45311 0
M  V30 2800 H 267.362 -1.91163 4.53561 0
M  V30 2801 N 269.014 -1.53014 -0.377408 0
M  V30 2802 C 270.239 -1.72818 -1.14668 0
M  V30 2803 C 270.664 -0.450725 -1.8262 0
M  V30 2804 O 270.022 0.59439 -1.7128 0
M  V30 2805 C 270.07 -2.88627 -2.16164 0
M  V30 2806 O 269.174 -2.56409 -3.22998 0
M  V30 2807 H 268.515 -0.574301 -0.333278 0
M  V30 2808 H 271.045 -1.99853 -0.438152 0
M  V30 2809 H 271.055 -3.14455 -2.59966 0
M  V30 2810 H 269.73 -3.81294 -1.66095 0
M  V30 2811 H 268.307 -2.4136 -2.84253 0
M  V30 2812 N 270.492 0.636531 -1.44174 0
M  V30 2813 C 271.741 1.39213 -1.45954 0
M  V30 2814 C 272.054 1.95374 -0.0939119 0
M  V30 2815 O 273.26 2.71498 0.0107767 0
M  V30 2816 C 271.716 2.52025 -2.56927 0
M  V30 2817 C 271.324 2.024 -3.99673 0
M  V30 2818 C 273.068 3.29269 -2.67922 0
M  V30 2819 C 270.975 3.12521 -5.0208 0
M  V30 2820 H 269.905 0.523132 -0.542999 0
M  V30 2821 H 272.556 0.685349 -1.70221 0
M  V30 2822 H 270.938 3.25253 -2.25891 0
M  V30 2823 H 272.112 1.36073 -4.40251 0
M  V30 2824 H 270.427 1.37987 -3.92872 0
M  V30 2825 H 273.024 4.11352 -3.41605 0
M  V30 2826 H 273.367 3.78397 -1.73555 0
M  V30 2827 H 273.9 2.63129 -2.98342 0
M  V30 2828 H 270.639 2.68343 -5.98057 0
M  V30 2829 H 270.159 3.77507 -4.66099 0
M  V30 2830 H 271.838 3.77385 -5.25538 0
M  V30 2831 N 271.97 1.30982 0.876444 0
M  V30 2832 C 273.218 1.20058 1.62575 0
M  V30 2833 C 273.539 -0.242947 1.93481 0
M  V30 2834 O 272.809 -1.1619 1.57724 0
M  V30 2835 H 271.389 0.44135 0.602677 0
M  V30 2836 H 274.051 1.64222 1.04962 0
M  V30 2837 H 273.147 1.76762 2.57219 0
M  V30 2838 N 273.449 -1.08991 1.13837 0
M  V30 2839 C 274.865 -1.33312 0.877506 0
M  V30 2840 C 275.065 -1.95587 -0.48456 0
M  V30 2841 O 274.121 -2.20509 -1.23013 0
M  V30 2842 C 275.434 -2.24045 2.0056 0
M  V30 2843 C 276.982 -2.37542 2.03821 0
M  V30 2844 C 277.457 -3.31614 3.15905 0
M  V30 2845 N 278.948 -3.39189 3.15445 0
M  V30 2846 C 279.683 -4.11992 3.98811 0
M  V30 2847 N 279.179 -4.87553 4.92203 0
M  V30 2848 N 280.972 -4.07762 3.86894 0
M  V30 2849 H 273.123 -0.669456 2.01574 0
M  V30 2850 H 275.386 -0.357482 0.878015 0
M  V30 2851 H 275.092 -1.85521 2.98789 0
M  V30 2852 H 274.966 -3.24466 1.92359 0
M  V30 2853 H 277.353 -2.75327 1.06202 0
M  V30 2854 H 277.434 -1.36884 2.16093 0
M  V30 2855 H 277.078 -2.94551 4.13766 0
M  V30 2856 H 277.008 -4.32186 3.0087 0
M  V30 2857 H 279.499 -2.85314 2.47799 0
M  V30 2858 H 279.812 -5.40549 5.52292 0
M  V30 2859 H 278.157 -4.86627 4.96205 0
M  V30 2860 H 281.348 -3.47833 3.13257 0
M  V30 2861 H 281.521 -4.64238 4.52092 0
M  V30 2862 N 274.927 -0.932562 -1.27047 0
M  V30 2863 C 275.837 -0.441219 -2.30414 0
M  V30 2864 C 276.853 0.480525 -1.67233 0
M  V30 2865 O 278.029 0.362151 -1.98117 0
M  V30 2866 C 275.094 0.293651 -3.45454 0
M  V30 2867 C 274.155 -0.663601 -4.2414 0
M  V30 2868 C 273.388 0.0362932 -5.33688 0
M  V30 2869 O 273.611 1.2548 -5.56427 0
M  V30 2870 O 272.545 -0.638015 -5.98509 0
M  V30 2871 H 276.371 -1.29962 -2.74488 0
M  V30 2872 H 273.956 -0.6981 -1.32087 0
M  V30 2873 H 275.838 0.707951 -4.15411 0
M  V30 2874 H 274.513 1.12758 -3.03426 0
M  V30 2875 H 273.42 -1.12768 -3.56699 0
M  V30 2876 H 274.753 -1.46489 -4.69896 0
M  V30 2877 N 276.405 1.4127 -0.698611 0
M  V30 2878 C 277.352 2.30773 -0.0352094 0
M  V30 2879 C 278.322 1.47273 0.768111 0
M  V30 2880 O 279.507 1.76053 0.735524 0
M  V30 2881 C 276.647 3.33346 0.893 0
M  V30 2882 C 275.76 4.31924 0.0809695 0
M  V30 2883 C 274.895 5.21566 1.0071 0
M  V30 2884 C 273.934 6.11811 0.188155 0
M  V30 2885 N 273.071 6.93926 1.06825 0
M  V30 2886 H 277.911 2.86943 -0.804207 0
M  V30 2887 H 275.448 1.4132 -0.408294 0
M  V30 2888 H 277.406 3.91368 1.44523 0
M  V30 2889 H 276.036 2.78719 1.62836 0
M  V30 2890 H 275.088 3.75825 -0.588224 0
M  V30 2891 H 276.4 4.95716 -0.553801 0
M  V30 2892 H 275.554 5.84437 1.62845 0
M  V30 2893 H 274.293 4.58008 1.67572 0
M  V30 2894 H 273.298 5.47986 -0.446254 0
M  V30 2895 H 274.523 6.77425 -0.476716 0
M  V30 2896 H 272.469 6.32973 1.72283 0
M  V30 2897 H 272.386 7.54416 0.489123 0
M  V30 2898 H 273.654 7.61262 1.67632 0
M  V30 2899 N 277.883 0.443576 1.51229 0
M  V30 2900 C 278.846 -0.353132 2.26463 0
M  V30 2901 C 279.846 -0.944338 1.3015 0
M  V30 2902 O 281.036 -0.817813 1.5381 0
M  V30 2903 C 278.168 -1.50023 3.06114 0
M  V30 2904 H 279.361 0.3063 2.98332 0
M  V30 2905 H 276.914 0.196902 1.55055 0
M  V30 2906 H 277.649 -2.19553 2.38677 0
M  V30 2907 H 277.434 -1.08241 3.76864 0
M  V30 2908 H 278.924 -2.06296 3.63087 0
M  V30 2909 N 279.361 -1.56624 0.175154 0
M  V30 2910 C 280.609 -1.96609 -0.467885 0
M  V30 2911 C 280.93 -1.06238 -1.63519 0
M  V30 2912 O 280.2 -0.129523 -1.95471 0
M  V30 2913 H 278.78 -0.726008 -0.175845 0
M  V30 2914 H 281.442 -1.93195 0.257234 0
M  V30 2915 H 280.538 -3.00989 -0.825342 0
M  V30 2916 N 280.839 0.0985539 -1.57292 0
M  V30 2917 C 282.088 0.801358 -1.85098 0
M  V30 2918 C 282.401 1.80066 -0.763902 0
M  V30 2919 O 283.607 2.55112 -0.928981 0
M  V30 2920 C 282.063 1.47599 -3.28242 0
M  V30 2921 C 281.671 0.516624 -4.45011 0
M  V30 2922 C 283.415 2.16272 -3.65276 0
M  V30 2923 C 281.322 1.19564 -5.79188 0
M  V30 2924 H 280.252 0.303022 -0.69043 0
M  V30 2925 H 282.903 0.0542623 -1.8342 0
M  V30 2926 H 281.285 2.27042 -3.2445 0
M  V30 2927 H 282.459 -0.246065 -4.60143 0
M  V30 2928 H 280.774 -0.064227 -4.1635 0
M  V30 2929 H 283.371 2.67802 -4.62803 0
M  V30 2930 H 283.714 2.95009 -2.93727 0
M  V30 2931 H 284.247 1.43693 -3.70941 0
M  V30 2932 H 280.986 0.449157 -6.53959 0
M  V30 2933 H 280.506 1.92984 -5.67906 0
M  V30 2934 H 282.185 1.7231 -6.23633 0
M  V30 2935 N 282.317 1.53212 0.369288 0
M  V30 2936 C 283.564 1.69215 1.11232 0
M  V30 2937 C 283.892 0.442048 1.8941 0
M  V30 2938 O 283.147 -0.575944 1.87033 0
M  V30 2939 C 283.446 2.89101 2.10132 0
M  V30 2940 C 283.112 4.25758 1.48463 0
M  V30 2941 C 281.774 4.6292 1.31372 0
M  V30 2942 C 284.126 5.10757 1.03811 0
M  V30 2943 C 281.454 5.82722 0.68207 0
M  V30 2944 C 283.806 6.31201 0.420487 0
M  V30 2945 C 282.47 6.67079 0.237038 0
M  V30 2946 H 281.74 0.619201 0.407027 0
M  V30 2947 H 284.387 1.87391 0.394552 0
M  V30 2948 H 282.692 2.65421 2.88199 0
M  V30 2949 H 284.389 2.98676 2.6757 0
M  V30 2950 H 280.979 3.96494 1.62758 0
M  V30 2951 H 285.163 4.82599 1.1581 0
M  V30 2952 H 280.419 6.09113 0.528316 0
M  V30 2953 H 284.593 6.96368 0.0662874 0
M  V30 2954 H 282.22 7.59774 -0.254477 0
M  V30 2955 N 283.795 -0.628877 1.44509 0
M  V30 2956 C 285.211 -0.947305 1.28446 0
M  V30 2957 C 285.411 -2.00275 0.221872 0
M  V30 2958 O 284.467 -2.49447 -0.391471 0
M  V30 2959 C 285.78 -1.40843 2.65676 0
M  V30 2960 C 287.328 -1.52379 2.73404 0
M  V30 2961 C 287.803 -2.01875 4.11109 0
M  V30 2962 N 289.294 -2.09142 4.13296 0
M  V30 2963 C 290.029 -2.48615 5.16699 0
M  V30 2964 N 289.525 -2.87209 6.30462 0
M  V30 2965 N 291.318 -2.48768 5.04054 0
M  V30 2966 H 283.469 0.0690977 2.12288 0
M  V30 2967 H 285.732 -0.0317164 0.947469 0
M  V30 2968 H 285.438 -0.707206 3.44516 0
M  V30 2969 H 285.312 -2.37902 2.92716 0
M  V30 2970 H 287.699 -2.21598 1.9488 0
M  V30 2971 H 287.78 -0.536898 2.50102 0
M  V30 2972 H 287.424 -1.3325 4.90109 0
M  V30 2973 H 287.354 -3.0144 4.31789 0
M  V30 2974 H 289.845 -1.81991 3.31191 0
M  V30 2975 H 290.158 -3.16149 7.05174 0
M  V30 2976 H 288.503 -2.84955 6.33897 0
M  V30 2977 H 291.694 -2.18009 4.14234 0
M  V30 2978 H 291.867 -2.79207 5.84763 0
M  V30 2979 N 285.273 -1.31445 -0.869486 0
M  V30 2980 C 286.498 -1.24256 -1.66058 0
M  V30 2981 C 286.923 0.188928 -1.87149 0
M  V30 2982 O 286.281 1.13522 -1.4136 0
M  V30 2983 C 286.329 -1.9924 -3.00559 0
M  V30 2984 O 285.433 -1.33007 -3.90362 0
M  V30 2985 H 284.774 -0.428973 -0.506831 0
M  V30 2986 H 287.304 -1.73521 -1.08404 0
M  V30 2987 H 287.314 -2.08854 -3.50491 0
M  V30 2988 H 285.989 -3.03342 -2.84528 0
M  V30 2989 H 284.566 -1.31848 -3.48813 0
M  V30 2990 N 286.751 1.08385 -1.14413 0
M  V30 2991 C 287.661 2.18856 -0.844951 0
M  V30 2992 C 288.677 1.73121 0.174668 0
M  V30 2993 O 289.853 2.014 0.00312857 0
M  V30 2994 C 286.918 3.45155 -0.32696 0
M  V30 2995 C 285.979 4.05513 -1.40916 0
M  V30 2996 C 285.212 5.25784 -0.915793 0
M  V30 2997 O 285.435 5.69884 0.242651 0
M  V30 2998 O 284.369 5.77545 -1.69487 0
M  V30 2999 H 288.195 2.46919 -1.76818 0
M  V30 3000 H 285.78 1.17524 -0.922411 0
M  V30 3001 H 287.662 4.21377 -0.0440211 0
M  V30 3002 H 286.337 3.18668 0.568539 0
M  V30 3003 H 285.244 3.30879 -1.74556 0
M  V30 3004 H 286.577 4.3625 -2.27919 0
M  V30 3005 N 288.23 0.939286 1.26551 0
M  V30 3006 C 289.177 0.446088 2.26448 0
M  V30 3007 C 290.147 -0.493234 1.58608 0
M  V30 3008 O 291.332 -0.409857 1.86346 0
M  V30 3009 C 288.472 -0.284375 3.43926 0
M  V30 3010 C 287.585 0.690399 4.26448 0
M  V30 3011 C 286.72 -0.0610712 5.31165 0
M  V30 3012 C 285.759 0.905649 6.05363 0
M  V30 3013 N 284.896 0.186055 7.01853 0
M  V30 3014 H 289.736 1.30291 2.68008 0
M  V30 3015 H 287.273 0.65371 1.31776 0
M  V30 3016 H 289.231 -0.724313 4.10864 0
M  V30 3017 H 287.861 -1.10535 3.03285 0
M  V30 3018 H 286.913 1.24885 3.59316 0
M  V30 3019 H 288.225 1.42873 4.779 0
M  V30 3020 H 287.379 -0.56038 6.04106 0
M  V30 3021 H 286.118 -0.832297 4.80546 0
M  V30 3022 H 285.123 1.4161 5.3125 0
M  V30 3023 H 286.348 1.67685 6.58072 0
M  V30 3024 H 284.294 -0.566714 6.53548 0
M  V30 3025 H 284.211 0.863752 7.51049 0
M  V30 3026 H 285.479 -0.292221 7.78952 0
M  V30 3027 N 289.708 -1.40897 0.706093 0
M  V30 3028 C 291.119 -1.84023 0.315052 0
M  V30 3029 C 291.47 -1.5906 -1.14866 0
M  V30 3030 O 290.595 -1.06651 -1.88293 0
M  V30 3031 C 291.19 -3.34055 0.565038 0
M  V30 3032 C 289.749 -3.7571 0.227806 0
M  V30 3033 C 288.896 -2.64204 0.842122 0
M  V30 3034 H 291.847 -1.303 0.905963 0
M  V30 3035 H 291.868 -3.80107 -0.172843 0
M  V30 3036 H 291.38 -3.52192 1.63042 0
M  V30 3037 H 289.481 -3.63172 -0.832895 0
M  V30 3038 H 289.594 -4.74103 0.690174 0
M  V30 3039 H 287.958 -2.53255 0.270893 0
M  V30 3040 H 288.741 -2.85155 1.91158 0
M  V30 3041 N 291.186 -0.45159 -1.50991 0
M  V30 3042 C 292.149 0.341117 -2.26647 0
M  V30 3043 C 293.149 0.937422 -1.30649 0
M  V30 3044 O 294.339 0.809644 -1.54241 0
M  V30 3045 C 291.471 1.48398 -3.06905 0
M  V30 3046 H 292.664 -0.322117 -2.98165 0
M  V30 3047 H 290.217 -0.205122 -1.54948 0
M  V30 3048 H 290.952 2.18284 -2.39838 0
M  V30 3049 H 290.737 1.06241 -3.77432 0
M  V30 3050 H 292.227 2.04367 -3.64176 0
M  V30 3051 N 292.664 1.56529 -0.183458 0
M  V30 3052 C 293.913 1.96419 0.458511 0
M  V30 3053 C 294.226 1.0727 1.63562 0
M  V30 3054 O 295.432 1.36893 2.34462 0
M  V30 3055 C 293.888 3.49298 0.867122 0
M  V30 3056 C 293.496 4.47092 -0.285057 0
M  V30 3057 C 295.24 3.97983 1.47683 0
M  V30 3058 C 293.147 5.91225 0.143862 0
M  V30 3059 H 292.077 0.733394 0.175071 0
M  V30 3060 H 294.728 1.81448 -0.273624 0
M  V30 3061 H 293.11 3.59731 1.65559 0
M  V30 3062 H 294.284 4.48383 -1.0625 0
M  V30 3063 H 292.599 4.08535 -0.805503 0
M  V30 3064 H 295.196 5.03134 1.80999 0
M  V30 3065 H 295.539 3.41618 2.37914 0
M  V30 3066 H 296.072 3.90617 0.752562 0
M  V30 3067 H 292.811 6.5149 -0.723974 0
M  V30 3068 H 292.331 5.93214 0.886413 0
M  V30 3069 H 294.01 6.44362 0.583628 0
M  V30 3070 N 294.142 -0.090211 1.57342 0
M  V30 3071 C 295.388 -0.793982 1.86611 0
M  V30 3072 C 295.721 -1.78142 0.773252 0
M  V30 3073 O 294.996 -1.93271 -0.218304 0
M  V30 3074 C 295.279 -1.51839 3.26523 0
M  V30 3075 C 295.132 -0.548609 4.46442 0
M  V30 3076 C 296.451 -2.46779 3.64401 0
M  V30 3077 H 293.57 -0.287186 0.678744 0
M  V30 3078 H 296.212 -0.0575076 1.89913 0
M  V30 3079 H 294.362 -2.14617 3.23839 0
M  V30 3080 H 296.034 0.0725513 4.61243 0
M  V30 3081 H 294.277 0.137614 4.33582 0
M  V30 3082 H 294.948 -1.09271 5.41076 0
M  V30 3083 H 297.424 -1.94089 3.68061 0
M  V30 3084 H 296.3 -2.94479 4.63221 0
M  V30 3085 H 296.561 -3.30758 2.93346 0
M  V30 3086 N 295.62 -1.53406 -0.361157 0
M  V30 3087 C 296.868 -1.69467 -1.10115 0
M  V30 3088 C 297.189 -0.451352 -1.89705 0
M  V30 3089 O 296.459 0.534636 -1.88463 0
M  V30 3090 H 295.039 -0.624749 -0.409508 0
M  V30 3091 H 297.701 -1.90609 -0.406699 0
M  V30 3092 H 296.797 -2.55774 -1.78847 0
M  V30 3093 N 297.098 0.621204 -1.44841 0
M  V30 3094 C 298.008 1.7612 -1.5498 0
M  V30 3095 C 299.024 1.68477 -0.434927 0
M  V30 3096 O 300.2 1.89076 -0.693693 0
M  V30 3097 C 297.265 3.1254 -1.50065 0
M  V30 3098 C 296.326 3.31741 -2.72482 0
M  V30 3099 C 295.559 4.61653 -2.67792 0
M  V30 3100 O 295.782 5.431 -1.74352 0
M  V30 3101 O 294.716 4.83271 -3.58794 0
M  V30 3102 H 298.542 1.70518 -2.51311 0
M  V30 3103 H 296.127 0.783643 -1.27198 0
M  V30 3104 H 298.009 3.93844 -1.49882 0
M  V30 3105 H 296.684 3.18663 -0.568806 0
M  V30 3106 H 295.591 2.50077 -2.7823 0
M  V30 3107 H 296.924 3.30486 -3.64746 0
M  V30 3108 N 298.576 1.31904 0.862503 0
M  V30 3109 C 299.987 1.19803 1.43193 0
M  V30 3110 C 300.338 -0.192567 1.95253 0
M  V30 3111 O 299.463 -1.09081 1.86896 0
M  V30 3112 C 300.058 2.16883 2.60283 0
M  V30 3113 C 298.617 2.08692 3.13248 0
M  V30 3114 C 297.764 2.05691 1.85975 0
M  V30 3115 H 300.715 1.43846 0.670365 0
M  V30 3116 H 300.736 1.76278 3.37204 0
M  V30 3117 H 300.248 3.18083 2.22363 0
M  V30 3118 H 298.349 1.10713 3.55771 0
M  V30 3119 H 298.462 2.9815 3.75025 0
M  V30 3120 H 296.826 1.50814 2.05249 0
M  V30 3121 H 297.609 3.08659 1.50282 0
M  V30 3122 N 300.054 -1.07777 1.14986 0
M  V30 3123 C 300.964 -2.18404 0.856546 0
M  V30 3124 C 301.98 -1.73211 -0.165485 0
M  V30 3125 O 303.156 -2.01399 0.00755219 0
M  V30 3126 C 300.221 -3.44977 0.34526 0
M  V30 3127 C 299.282 -4.0476 1.43065 0
M  V30 3128 C 298.515 -5.25291 0.943663 0
M  V30 3129 O 298.738 -5.70004 -0.212426 0
M  V30 3130 O 297.672 -5.76638 1.72547 0
M  V30 3131 H 301.498 -2.45978 1.78125 0
M  V30 3132 H 299.083 -1.17033 0.928631 0
M  V30 3133 H 300.965 -4.21348 0.0663671 0
M  V30 3134 H 299.64 -3.18965 -0.551631 0
M  V30 3135 H 298.547 -3.29949 1.76309 0
M  V30 3136 H 299.88 -4.35035 2.30229 0
M  V30 3137 N 301.532 -0.945985 -1.26051 0
M  V30 3138 C 302.465 -0.403619 -2.24602 0
M  V30 3139 C 303.443 0.510241 -1.54387 0
M  V30 3140 O 304.627 0.446593 -1.83133 0
M  V30 3141 C 301.754 0.419564 -3.36091 0
M  V30 3142 C 300.8 -0.433454 -4.24292 0
M  V30 3143 S 301.633 -1.86037 -5.02146 0
M  V30 3144 C 302.789 -1.04538 -6.17108 0
M  V30 3145 H 303.022 -1.23883 -2.7026 0
M  V30 3146 H 300.555 -0.749438 -1.34992 0
M  V30 3147 H 302.513 0.888595 -4.00767 0
M  V30 3148 H 301.174 1.22951 -2.89036 0
M  V30 3149 H 300.367 0.197486 -5.03613 0
M  V30 3150 H 299.969 -0.837357 -3.64506 0
M  V30 3151 H 302.261 -0.289923 -6.76879 0
M  V30 3152 H 303.204 -1.81222 -6.84518 0
M  V30 3153 H 303.612 -0.579319 -5.61519 0
M  V30 3154 N 303.011 1.40521 -0.713556 0
M  V30 3155 C 304.422 1.83853 -0.324807 0
M  V30 3156 C 304.773 1.59667 1.14021 0
M  V30 3157 O 303.898 1.07649 1.87725 0
M  V30 3158 C 304.493 3.33751 -0.582746 0
M  V30 3159 C 303.052 3.75584 -0.247727 0
M  V30 3160 C 302.199 2.63753 -0.856121 0
M  V30 3161 H 305.15 1.29817 -0.91286 0
M  V30 3162 H 305.171 3.80194 0.152682 0
M  V30 3163 H 304.683 3.51322 -1.64908 0
M  V30 3164 H 302.784 3.63608 0.813624 0
M  V30 3165 H 302.897 4.7373 -0.715307 0
M  V30 3166 H 301.261 2.53108 -0.28432 0
M  V30 3167 H 302.044 2.84137 -1.92668 0
M  V30 3168 N 304.489 0.459591 1.5075 0
M  V30 3169 C 305.714 -0.0996819 2.0716 0
M  V30 3170 C 306.139 -1.33761 1.32249 0
M  V30 3171 O 305.497 -1.77551 0.366786 0
M  V30 3172 C 305.545 -0.378226 3.58611 0
M  V30 3173 O 304.649 -1.46081 3.85661 0
M  V30 3174 H 303.99 0.00791392 0.663953 0
M  V30 3175 H 306.52 0.647329 1.9409 0
M  V30 3176 H 306.53 -0.622135 4.03229 0
M  V30 3177 H 305.205 0.526439 4.12555 0
M  V30 3178 H 303.782 -1.20511 3.5289 0
M  V30 3179 N 305.967 -1.56429 0.191757 0
M  V30 3180 C 307.195 -2.01867 -0.453586 0
M  V30 3181 C 307.61 -1.07191 -1.5542 0
M  V30 3182 O 306.967 -0.0762108 -1.82341 0
M  V30 3183 C 307.018 -3.47017 -1.013 0
M  V30 3184 O 306.739 -4.38078 0.0437005 0
M  V30 3185 C 308.24 -4.07956 -1.73456 0
M  V30 3186 H 305.46 -0.661211 -0.114199 0
M  V30 3187 H 308.004 -2.02295 0.299483 0
M  V30 3188 H 306.159 -3.47298 -1.71647 0
M  V30 3189 H 306.573 -5.23178 -0.372212 0
M  V30 3190 H 308.047 -5.1138 -2.07833 0
M  V30 3191 H 308.524 -3.51222 -2.63704 0
M  V30 3192 H 309.13 -4.11437 -1.07702 0
M  V30 3193 N 307.445 0.0818655 -1.57387 0
M  V30 3194 C 308.694 0.781681 -1.85937 0
M  V30 3195 C 309.007 1.79246 -0.782957 0
M  V30 3196 O 310.213 2.54112 -0.955987 0
M  V30 3197 C 308.669 1.44109 -3.29789 0
M  V30 3198 C 308.277 0.469396 -4.45534 0
M  V30 3199 C 310.021 2.12386 -3.67549 0
M  V30 3200 C 307.928 1.13415 -5.80423 0
M  V30 3201 H 306.858 0.295682 -0.693605 0
M  V30 3202 H 309.509 0.0348051 -1.83467 0
M  V30 3203 H 307.891 2.23588 -3.2684 0
M  V30 3204 H 309.065 -0.294856 -4.59856 0
M  V30 3205 H 307.38 -0.108383 -4.16259 0
M  V30 3206 H 309.977 2.62878 -4.65617 0
M  V30 3207 H 310.32 2.91877 -2.96839 0
M  V30 3208 H 310.853 1.39751 -3.72444 0
M  V30 3209 H 307.592 0.379771 -6.54399 0
M  V30 3210 H 307.112 1.8695 -5.69921 0
M  V30 3211 H 308.791 1.65686 -6.25426 0
M  V30 3212 N 308.923 1.53595 0.353017 0
M  V30 3213 C 309.886 1.80232 1.41594 0
M  V30 3214 C 310.886 0.673081 1.46035 0
M  V30 3215 O 312.076 0.941335 1.46576 0
M  V30 3216 C 309.208 1.93578 2.80607 0
M  V30 3217 H 310.401 2.75174 1.19244 0
M  V30 3218 H 307.954 1.44864 0.586872 0
M  V30 3219 H 308.689 1.00746 3.08254 0
M  V30 3220 H 308.474 2.75724 2.78781 0
M  V30 3221 H 309.964 2.15735 3.57558 0
M  V30 3222 N 310.401 -0.613514 1.45168 0
M  V30 3223 C 311.678 -1.37263 1.39349 0
M  V30 3224 C 312.058 -2.11012 0.0610848 0
M  V30 3225 O 311.406 -2.07502 -0.956825 0
M  V30 3226 C 311.616 -2.3244 2.60332 0
M  V30 3227 C 312.964 -2.9523 3.05163 0
M  V30 3228 O 313.988 -2.42762 2.60663 0
M  V30 3229 O 312.847 -3.90454 3.82372 0
M  V30 3230 H 309.941 -0.615188 0.552696 0
M  V30 3231 H 312.487 -0.637097 1.57287 0
M  V30 3232 H 311.259 -1.77164 3.48896 0
M  V30 3233 H 310.882 -3.13383 2.44698 0
M  V30 3234 N 311.879 -1.3236 -0.855495 0
M  V30 3235 C 313.125 -1.23054 -1.612 0
M  V30 3236 C 313.458 0.207404 -1.93089 0
M  V30 3237 O 312.733 1.14432 -1.57275 0
M  V30 3238 C 313.016 -2.08937 -2.93287 0
M  V30 3239 C 312.869 -3.61105 -2.68185 0
M  V30 3240 C 314.188 -1.94986 -3.94549 0
M  V30 3241 H 311.307 -0.448364 -0.584926 0
M  V30 3242 H 313.949 -1.62297 -0.987917 0
M  V30 3243 H 312.099 -1.75599 -3.46551 0
M  V30 3244 H 313.771 -4.04652 -2.21483 0
M  V30 3245 H 312.014 -3.83813 -2.02164 0
M  V30 3246 H 312.685 -4.16522 -3.62234 0
M  V30 3247 H 315.161 -2.24189 -3.5054 0
M  V30 3248 H 314.037 -2.57356 -4.84829 0
M  V30 3249 H 314.298 -0.917263 -4.3248 0
M  V30 3250 N 313.357 1.07166 -1.15556 0
M  V30 3251 C 314.32 2.12589 -0.856644 0
M  V30 3252 C 315.32 1.6015 0.14444 0
M  V30 3253 O 316.51 1.7399 -0.0854163 0
M  V30 3254 C 313.642 3.39753 -0.279405 0
M  V30 3255 H 314.835 2.40539 -1.79112 0
M  V30 3256 H 312.388 1.23086 -0.963298 0
M  V30 3257 H 313.123 3.17447 0.663174 0
M  V30 3258 H 312.908 3.79117 -1.00063 0
M  V30 3259 H 314.398 4.17507 -0.0879113 0
M  V30 3260 N 314.835 0.952656 1.25548 0
M  V30 3261 C 315.767 0.428609 2.25157 0
M  V30 3262 C 316.78 -0.454428 1.56329 0
M  V30 3263 O 317.969 -0.263023 1.76552 0
M  V30 3264 C 315.069 -0.401972 3.36508 0
M  V30 3265 C 314.242 0.467601 4.34893 0
M  V30 3266 C 313.301 -0.30445 5.25319 0
M  V30 3267 O 312.327 0.296473 5.68427 0
M  V30 3268 N 313.529 -1.59805 5.5807 0
M  V30 3269 H 316.294 1.28497 2.70756 0
M  V30 3270 H 313.855 0.822798 1.39433 0
M  V30 3271 H 315.847 -0.926134 3.9396 0
M  V30 3272 H 314.417 -1.15918 2.90313 0
M  V30 3273 H 313.637 1.17288 3.76347 0
M  V30 3274 H 314.925 1.06119 4.97611 0
M  V30 3275 H 314.323 -2.10823 5.24948 0
M  V30 3276 H 312.88 -2.06822 6.18116 0
M  V30 3277 N 316.313 -1.40141 0.720998 0
M  V30 3278 C 317.223 -2.34486 0.0731031 0
M  V30 3279 C 318.239 -1.57587 -0.737723 0
M  V30 3280 O 319.415 -1.89949 -0.669429 0
M  V30 3281 C 316.48 -3.36528 -0.833656 0
M  V30 3282 C 315.541 -4.29298 -0.0121673 0
M  V30 3283 C 314.774 -5.26466 -0.875742 0
M  V30 3284 O 314.997 -5.29745 -2.11485 0
M  V30 3285 O 313.931 -6.01092 -0.31185 0
M  V30 3286 H 317.757 -2.9152 0.851444 0
M  V30 3287 H 315.342 -1.41427 0.481527 0
M  V30 3288 H 317.224 -3.99093 -1.35289 0
M  V30 3289 H 315.899 -2.81899 -1.59105 0
M  V30 3290 H 314.806 -3.70001 0.552262 0
M  V30 3291 H 316.139 -4.87094 0.707129 0
M  V30 3292 N 317.792 -0.46758 -1.50504 0
M  V30 3293 C 318.739 0.328413 -2.28452 0
M  V30 3294 C 319.709 0.990313 -1.33349 0
M  V30 3295 O 320.894 1.00343 -1.62284 0
M  V30 3296 C 318.034 1.40648 -3.15138 0
M  V30 3297 C 317.147 0.759709 -4.25267 0
M  V30 3298 C 316.282 1.81537 -4.99217 0
M  V30 3299 C 315.321 1.14866 -6.01226 0
M  V30 3300 N 314.458 2.14702 -6.68467 0
M  V30 3301 H 319.298 -0.342603 -2.96024 0
M  V30 3302 H 316.835 -0.180801 -1.45985 0
M  V30 3303 H 318.793 2.04315 -3.63746 0
M  V30 3304 H 317.423 2.04671 -2.49619 0
M  V30 3305 H 316.475 0.0105671 -3.80399 0
M  V30 3306 H 317.787 0.233243 -4.98254 0
M  V30 3307 H 316.941 2.52793 -5.51526 0
M  V30 3308 H 315.68 2.37564 -4.25928 0
M  V30 3309 H 314.685 0.42171 -5.4818 0
M  V30 3310 H 315.91 0.595334 -6.76485 0
M  V30 3311 H 313.856 2.69752 -5.97972 0
M  V30 3312 H 313.773 1.6703 -7.37317 0
M  V30 3313 H 315.041 2.85348 -7.25394 0
M  V30 3314 N 319.27 1.56325 -0.20005 0
M  V30 3315 C 320.518 1.97329 0.436547 0
M  V30 3316 C 320.839 1.08826 1.61808 0
M  V30 3317 O 320.109 0.160604 1.95241 0
M  V30 3318 H 318.689 0.728714 0.164272 0
M  V30 3319 H 321.351 1.92761 -0.287937 0
M  V30 3320 H 320.447 3.02264 0.777353 0
M  V30 3321 N 320.748 -0.0735177 1.57428 0
M  V30 3322 C 321.711 -1.07192 2.02589 0
M  V30 3323 C 322.711 -1.31695 0.922661 0
M  V30 3324 O 323.901 -1.27445 1.18758 0
M  V30 3325 C 321.033 -2.41599 2.40506 0
M  V30 3326 H 322.226 -0.682727 2.92025 0
M  V30 3327 H 319.779 -0.319193 1.53006 0
M  V30 3328 H 320.514 -2.85354 1.5409 0
M  V30 3329 H 320.299 -2.25156 3.21009 0
M  V30 3330 H 321.789 -3.13367 2.76027 0
M  V30 3331 N 322.226 -1.5378 -0.344866 0
M  V30 3332 C 323.156 -1.84662 -1.42906 0
M  V30 3333 C 324.137 -0.701648 -1.54955 0
M  V30 3334 O 325.322 -0.953438 -1.69184 0
M  V30 3335 C 322.452 -2.05503 -2.79974 0
M  V30 3336 C 321.406 -3.21318 -2.82734 0
M  V30 3337 C 320.732 -3.2749 -4.22675 0
M  V30 3338 C 322.032 -4.59456 -2.48389 0
M  V30 3339 H 323.726 -2.75461 -1.17311 0
M  V30 3340 H 321.272 -1.32542 -0.562896 0
M  V30 3341 H 323.225 -2.25691 -3.55867 0
M  V30 3342 H 321.949 -1.11434 -3.07002 0
M  V30 3343 H 320.608 -3.00984 -2.09294 0
M  V30 3344 H 320.256 -2.31019 -4.4681 0
M  V30 3345 H 319.956 -4.05316 -4.25433 0
M  V30 3346 H 321.48 -3.49887 -5.00412 0
M  V30 3347 H 322.894 -4.79667 -3.13995 0
M  V30 3348 H 321.291 -5.39675 -2.62432 0
M  V30 3349 H 322.361 -4.63155 -1.4358 0
M  V30 3350 N 323.704 0.605807 -1.45491 0
M  V30 3351 C 324.634 1.72709 -1.57143 0
M  V30 3352 C 325.615 1.6476 -0.422884 0
M  V30 3353 O 326.8 1.83132 -0.646247 0
M  V30 3354 C 323.93 3.11316 -1.53948 0
M  V30 3355 C 322.884 3.34077 -2.67537 0
M  V30 3356 C 322.21 4.72975 -2.49397 0
M  V30 3357 C 323.51 3.24158 -4.09535 0
M  V30 3358 H 325.204 1.63214 -2.51001 0
M  V30 3359 H 322.75 0.78379 -1.208 0
M  V30 3360 H 324.703 3.89557 -1.60696 0
M  V30 3361 H 323.427 3.21655 -0.566205 0
M  V30 3362 H 322.086 2.58227 -2.6022 0
M  V30 3363 H 321.734 4.8005 -1.50205 0
M  V30 3364 H 321.434 4.8916 -3.25571 0
M  V30 3365 H 322.958 5.53414 -2.58002 0
M  V30 3366 H 324.372 3.92271 -4.18086 0
M  V30 3367 H 322.769 3.51872 -4.86113 0
M  V30 3368 H 323.839 2.2157 -4.31317 0
M  V30 3369 N 325.182 1.32811 0.848464 0
M  V30 3370 C 326.114 1.18095 1.96433 0
M  V30 3371 C 327.127 0.114354 1.62398 0
M  V30 3372 O 328.316 0.363892 1.74751 0
M  V30 3373 C 325.416 0.786798 3.2964 0
M  V30 3374 C 324.589 1.943 3.91875 0
M  V30 3375 C 323.648 1.53138 5.03423 0
M  V30 3376 O 322.674 2.24432 5.23086 0
M  V30 3377 N 323.876 0.430915 5.78898 0
M  V30 3378 H 326.641 2.14218 2.09597 0
M  V30 3379 H 324.202 1.2543 1.02367 0
M  V30 3380 H 326.194 0.493715 4.01677 0
M  V30 3381 H 324.764 -0.0834541 3.12489 0
M  V30 3382 H 323.984 2.40224 3.12547 0
M  V30 3383 H 325.272 2.71689 4.30189 0
M  V30 3384 H 324.67 -0.162333 5.65467 0
M  V30 3385 H 323.227 0.197466 6.51501 0
M  V30 3386 N 326.66 -1.06551 1.16123 0
M  V30 3387 C 328.076 -1.3142 0.905585 0
M  V30 3388 C 328.276 -1.96571 -0.442964 0
M  V30 3389 O 327.332 -2.23068 -1.18308 0
M  V30 3390 C 328.645 -2.19741 2.05267 0
M  V30 3391 C 330.193 -2.33165 2.08813 0
M  V30 3392 C 330.668 -3.24838 3.22868 0
M  V30 3393 N 332.159 -3.32421 3.22568 0
M  V30 3394 C 332.894 -4.0344 4.0746 0
M  V30 3395 N 332.39 -4.77003 5.02434 0
M  V30 3396 N 334.183 -3.99464 3.95456 0
M  V30 3397 H 326.334 -0.626548 2.02949 0
M  V30 3398 H 328.597 -0.338777 0.8854 0
M  V30 3399 H 328.303 -1.79142 3.02657 0
M  V30 3400 H 328.177 -3.20313 1.99198 0
M  V30 3401 H 330.564 -2.73013 1.12018 0
M  V30 3402 H 330.645 -1.3227 2.18948 0
M  V30 3403 H 330.289 -2.85708 4.19921 0
M  V30 3404 H 330.219 -4.25707 3.0997 0
M  V30 3405 H 332.71 -2.79994 2.53795 0
M  V30 3406 H 333.023 -5.28712 5.63634 0
M  V30 3407 H 331.368 -4.75992 5.06415 0
M  V30 3408 H 334.559 -3.4111 3.20564 0
M  V30 3409 H 334.732 -4.54544 4.61837 0
M  V30 3410 N 328.138 -0.959301 -1.25041 0
M  V30 3411 C 329.554 -0.664474 -1.4511 0
M  V30 3412 C 329.754 0.776481 -1.85938 0
M  V30 3413 O 328.81 1.55128 -1.99227 0
M  V30 3414 C 330.123 -1.64139 -2.5195 0
M  V30 3415 C 331.671 -1.65309 -2.65786 0
M  V30 3416 C 332.146 -2.61777 -3.75815 0
M  V30 3417 N 333.637 -2.60169 -3.83231 0
M  V30 3418 C 334.372 -3.31489 -4.6787 0
M  V30 3419 N 333.868 -4.12298 -5.56761 0
M  V30 3420 N 335.661 -3.20354 -4.61876 0
M  V30 3421 H 327.812 -1.89043 -0.968332 0
M  V30 3422 H 330.075 -0.813408 -0.4869 0
M  V30 3423 H 329.781 -2.67086 -2.28819 0
M  V30 3424 H 329.655 -1.40756 -3.49954 0
M  V30 3425 H 332.042 -0.630778 -2.8828 0
M  V30 3426 H 332.123 -1.92753 -1.68167 0
M  V30 3427 H 331.767 -3.64137 -3.54071 0
M  V30 3428 H 331.697 -2.31616 -4.72929 0
M  V30 3429 H 334.188 -2.01507 -3.19692 0
M  V30 3430 H 334.501 -4.63625 -6.18281 0
M  V30 3431 H 332.846 -4.16395 -5.56454 0
M  V30 3432 H 336.037 -2.56692 -3.91442 0
M  V30 3433 H 336.21 -3.76201 -5.27614 0
M  V30 3434 N 329.616 1.39756 -0.72842 0
M  V30 3435 C 330.864 2.00248 -0.272946 0
M  V30 3436 C 331.185 1.58077 1.14178 0
M  V30 3437 O 330.455 0.826014 1.77634 0
M  V30 3438 H 329.035 0.740554 -0.0979247 0
M  V30 3439 H 331.697 1.70903 -0.936912 0
M  V30 3440 H 330.793 3.10495 -0.316142 0
M  V30 3441 N 331.094 0.475555 1.50254 0
M  V30 3442 C 332.34 -0.0780073 2.0265 0
M  V30 3443 C 332.673 -1.38968 1.35652 0
M  V30 3444 O 331.948 -1.8839 0.483691 0
M  V30 3445 C 332.231 -0.257161 3.59181 0
M  V30 3446 C 332.084 1.07585 4.36744 0
M  V30 3447 C 333.403 -1.00965 4.28362 0
M  V30 3448 H 330.522 -0.0268758 0.73651 0
M  V30 3449 H 333.164 0.622015 1.7953 0
M  V30 3450 H 331.314 -0.853412 3.79011 0
M  V30 3451 H 332.986 1.70902 4.28474 0
M  V30 3452 H 331.229 1.6714 4.00308 0
M  V30 3453 H 331.9 0.904088 5.44546 0
M  V30 3454 H 334.376 -0.504214 4.13034 0
M  V30 3455 H 333.252 -1.10381 5.37687 0
M  V30 3456 H 333.513 -2.04731 3.91839 0
M  V30 3457 N 332.573 -1.56217 0.208337 0
M  V30 3458 C 333.483 -2.23316 -0.718836 0
M  V30 3459 C 334.499 -1.23648 -1.22422 0
M  V30 3460 O 335.675 -1.56423 -1.26861 0
M  V30 3461 C 332.74 -2.88968 -1.91568 0
M  V30 3462 C 331.801 -4.03943 -1.45357 0
M  V30 3463 C 331.034 -4.66455 -2.59337 0
M  V30 3464 O 331.257 -4.27919 -3.77149 0
M  V30 3465 O 330.191 -5.55686 -2.31293 0
M  V30 3466 H 334.017 -3.03182 -0.177315 0
M  V30 3467 H 331.602 -1.49384 -0.0215402 0
M  V30 3468 H 333.484 -3.30455 -2.61491 0
M  V30 3469 H 332.159 -2.12071 -2.44556 0
M  V30 3470 H 331.066 -3.67052 -0.722746 0
M  V30 3471 H 332.399 -4.82543 -0.970219 0
M  V30 3472 N 334.051 0.0651679 -1.57465 0
M  V30 3473 C 335.297 0.758912 -1.88712 0
M  V30 3474 C 335.652 1.7485 -0.802819 0
M  V30 3475 O 334.945 1.90632 0.192359 0
M  V30 3476 C 335.139 1.50081 -3.24362 0
M  V30 3477 C 334.968 0.584579 -4.45884 0
M  V30 3478 C 333.738 0.219039 -5.04825 0
M  V30 3479 C 335.936 -0.121559 -5.14156 0
M  V30 3480 N 333.918 -0.702222 -6.09871 0
M  V30 3481 C 335.289 -0.899767 -6.13436 0
M  V30 3482 C 337.344 -0.192331 -4.97528 0
M  V30 3483 C 336.047 -1.74218 -6.97883 0
M  V30 3484 C 338.073 -1.02174 -5.82507 0
M  V30 3485 C 337.435 -1.78798 -6.8133 0
M  V30 3486 H 333.534 0.25293 -0.739967 0
M  V30 3487 H 336.118 0.0201744 -1.9469 0
M  V30 3488 H 334.289 2.21023 -3.1938 0
M  V30 3489 H 336.021 2.14409 -3.43236 0
M  V30 3490 H 332.776 0.57336 -4.70117 0
M  V30 3491 H 333.2 -1.15629 -6.67052 0
M  V30 3492 H 337.842 0.385741 -4.21037 0
M  V30 3493 H 335.56 -2.3312 -7.73745 0
M  V30 3494 H 339.146 -1.07957 -5.71696 0
M  V30 3495 H 338.026 -2.41942 -7.45945 0
M  V30 3496 N 335.529 1.53961 0.336706 0
M  V30 3497 C 336.477 1.83136 1.43401 0
M  V30 3498 C 337.471 0.702313 1.54156 0
M  V30 3499 O 338.677 0.885765 1.56698 0
M  V30 3500 H 335.052 0.580309 0.478273 0
M  V30 3501 H 337.023 2.74925 1.16012 0
M  V30 3502 C 335.772 2.06385 2.79822 0
M  V30 3503 H 335.095 2.92718 2.72316 0
M  V30 3504 H 336.535 2.30761 3.55704 0
M  V30 3505 C 334.994 0.851414 3.25964 0
M  V30 3506 O 335.524 0.0541904 4.01663 0
M  V30 3507 N 333.73 0.66672 2.82848 0
M  V30 3508 H 333.277 1.31665 2.21409 0
M  V30 3509 H 333.235 -0.143032 3.14074 0
M  V30 3510 N 337.007 -0.598083 1.45811 0
M  V30 3511 C 338.237 -1.38121 1.53643 0
M  V30 3512 C 338.645 -1.88425 0.171081 0
M  V30 3513 O 337.988 -1.63409 -0.839237 0
M  V30 3514 C 338.05 -2.61432 2.46766 0
M  V30 3515 C 337.714 -2.32702 3.93318 0
M  V30 3516 C 338.711 -1.92479 4.82957 0
M  V30 3517 C 336.396 -2.45321 4.38318 0
M  V30 3518 C 338.39 -1.65248 6.15607 0
M  V30 3519 C 336.077 -2.17703 5.71007 0
M  V30 3520 C 337.075 -1.7773 6.5947 0
M  V30 3521 O 336.763 -1.50441 7.89698 0
M  V30 3522 H 336.495 -0.428863 0.522544 0
M  V30 3523 H 339.049 -0.73557 1.91777 0
M  V30 3524 H 337.279 -3.28749 2.0362 0
M  V30 3525 H 338.968 -3.23487 2.45175 0
M  V30 3526 H 339.734 -1.82258 4.49452 0
M  V30 3527 H 335.613 -2.75399 3.69697 0
M  V30 3528 H 339.157 -1.33973 6.84614 0
M  V30 3529 H 335.054 -2.27544 6.04065 0
M  V30 3530 H 335.822 -1.64415 8.01817 0
M  V30 3531 N 338.485 -1.33259 -0.841409 0
M  V30 3532 C 339.71 -1.2775 -1.63385 0
M  V30 3533 C 340.135 0.149188 -1.87507 0
M  V30 3534 O 339.493 1.10498 -1.43736 0
M  V30 3535 C 339.541 -2.05571 -2.96265 0
M  V30 3536 O 338.645 -1.41257 -3.87453 0
M  V30 3537 H 337.986 -0.439627 -0.497618 0
M  V30 3538 H 340.516 -1.75782 -1.04699 0
M  V30 3539 H 340.526 -2.16241 -3.45982 0
M  V30 3540 H 339.201 -3.09309 -2.7803 0
M  V30 3541 H 337.778 -1.39217 -3.45938 0
M  V30 3542 N 339.963 1.05934 -1.16686 0
M  V30 3543 C 341.209 1.79065 -0.95203 0
M  V30 3544 C 341.542 1.87147 0.518629 0
M  V30 3545 O 340.817 1.36574 1.38484 0
M  V30 3546 C 341.1 3.23359 -1.58464 0
M  V30 3547 C 340.953 3.23336 -3.12689 0
M  V30 3548 C 342.272 4.21004 -1.28232 0
M  V30 3549 H 339.391 0.65005 -0.34728 0
M  V30 3550 H 342.033 1.23868 -1.44072 0
M  V30 3551 H 340.183 3.70493 -1.16908 0
M  V30 3552 H 341.855 2.84336 -3.6325 0
M  V30 3553 H 340.098 2.61886 -3.4583 0
M  V30 3554 H 340.769 4.25144 -3.52075 0
M  V30 3555 H 343.245 3.8233 -1.64203 0
M  V30 3556 H 342.121 5.20225 -1.75092 0
M  V30 3557 H 342.382 4.41639 -0.201791 0
M  V30 3558 N 341.441 0.965919 1.2453 0
M  V30 3559 C 342.669 0.644385 1.96609 0
M  V30 3560 C 343.084 -0.785823 1.71669 0
M  V30 3561 O 342.441 -1.52703 0.999399 0
M  V30 3562 C 342.492 0.907375 3.49927 0
M  V30 3563 O 342.213 2.28136 3.74013 0
M  V30 3564 C 343.714 0.599784 4.39224 0
M  V30 3565 H 340.934 0.240588 0.626385 0
M  V30 3566 H 343.478 1.29337 1.58405 0
M  V30 3567 H 341.633 0.304631 3.862 0
M  V30 3568 H 342.047 2.36002 4.68405 0
M  V30 3569 H 343.521 0.834263 5.45659 0
M  V30 3570 H 343.998 -0.465921 4.36722 0
M  V30 3571 H 344.604 1.18235 4.08535 0
M  V30 3572 N 342.919 -1.39368 0.735821 0
M  V30 3573 C 344.196 -1.94465 0.210395 0
M  V30 3574 C 344.576 -1.67254 -1.28799 0
M  V30 3575 O 343.924 -1.00123 -2.05396 0
M  V30 3576 C 344.134 -3.4472 0.544897 0
M  V30 3577 C 345.482 -4.21708 0.494689 0
M  V30 3578 O 346.506 -3.52922 0.482136 0
M  V30 3579 O 345.365 -5.44299 0.489947 0
M  V30 3580 H 342.459 -0.826096 0.0386666 0
M  V30 3581 H 345.005 -1.48863 0.814735 0
M  V30 3582 H 343.777 -3.57963 1.58045 0
M  V30 3583 H 343.4 -3.97502 -0.08837 0
M  V30 3584 N 344.397 -0.483516 -1.5 0
M  V30 3585 C 345.347 0.32306 -2.257 0
M  V30 3586 C 346.331 0.950755 -1.29805 0
M  V30 3587 O 347.523 0.861247 -1.54634 0
M  V30 3588 C 344.652 1.39724 -3.13579 0
M  V30 3589 C 343.738 0.776663 -4.16928 0
M  V30 3590 N 344.129 -0.1104 -5.0568 0
M  V30 3591 C 342.427 1.03922 -4.33724 0
M  V30 3592 C 343.128 -0.46387 -5.79848 0
M  V30 3593 N 342.104 0.163987 -5.43353 0
M  V30 3594 H 345.906 -0.360086 -2.91686 0
M  V30 3595 H 343.42 -0.298456 -1.59634 0
M  V30 3596 H 345.417 1.98837 -3.66428 0
M  V30 3597 H 344.077 2.08225 -2.49143 0
M  V30 3598 H 345.088 -0.480069 -5.1567 0
M  V30 3599 H 341.765 1.71829 -3.80501 0
M  V30 3600 H 343.155 -1.18854 -6.61304 0
M  V30 3601 N 345.875 1.56104 -0.216619 0
M  V30 3602 C 347.152 1.89988 0.465165 0
M  V30 3603 C 347.532 1.13326 1.78102 0
M  V30 3604 O 346.88 0.241033 2.27225 0
M  V30 3605 C 347.09 3.42646 0.662939 0
M  V30 3606 C 348.438 4.13311 0.972602 0
M  V30 3607 O 349.462 3.48217 0.749901 0
M  V30 3608 O 348.321 5.28396 1.39499 0
M  V30 3609 H 345.415 0.78979 0.245276 0
M  V30 3610 H 347.961 1.67721 -0.258436 0
M  V30 3611 H 346.733 3.90399 -0.26543 0
M  V30 3612 H 346.356 3.70677 1.43821 0
M  V30 3613 N 347.353 -0.0568162 1.57498 0
M  V30 3614 C 348.599 -0.748893 1.89111 0
M  V30 3615 C 348.954 -1.74422 0.81208 0
M  V30 3616 O 348.247 -1.90731 -0.182247 0
M  V30 3617 C 348.441 -1.48359 3.25153 0
M  V30 3618 C 348.27 -0.560924 4.46188 0
M  V30 3619 C 347.04 -0.192264 5.04934 0
M  V30 3620 C 349.238 0.148824 5.14085 0
M  V30 3621 N 347.22 0.734555 6.0949 0
M  V30 3622 C 348.591 0.932286 6.12951 0
M  V30 3623 C 350.646 0.218713 4.97419 0
M  V30 3624 C 349.349 1.77917 6.96949 0
M  V30 3625 C 351.375 1.05262 5.81957 0
M  V30 3626 C 350.737 1.82409 6.80372 0
M  V30 3627 H 346.836 -0.249002 0.741298 0
M  V30 3628 H 349.42 -0.00984926 1.94698 0
M  V30 3629 H 347.591 -2.19326 3.20547 0
M  V30 3630 H 349.323 -2.12586 3.44368 0
M  V30 3631 H 346.078 -0.548421 4.70414 0
M  V30 3632 H 346.502 1.19165 6.6643 0
M  V30 3633 H 351.144 -0.363407 4.21235 0
M  V30 3634 H 348.862 2.3722 7.72497 0
M  V30 3635 H 352.448 1.10987 5.71116 0
M  V30 3636 H 351.328 2.45895 7.44651 0
M  V30 3637 N 348.832 -1.54138 -0.328536 0
M  V30 3638 C 349.795 -1.82462 -1.38709 0
M  V30 3639 C 350.795 -0.696229 -1.44946 0
M  V30 3640 O 351.985 -0.964535 -1.4506 0
M  V30 3641 C 349.117 -1.98018 -2.77492 0
M  V30 3642 H 350.31 -2.77037 -1.14851 0
M  V30 3643 H 347.863 -1.45779 -0.563751 0
M  V30 3644 H 348.598 -1.05637 -3.06613 0
M  V30 3645 H 348.383 -2.80124 -2.74359 0
M  V30 3646 H 349.873 -2.21396 -3.54081 0
M  V30 3647 N 350.31 0.590341 -1.46126 0
M  V30 3648 C 351.557 1.34882 -1.5104 0
M  V30 3649 C 351.885 1.93849 -0.159021 0
M  V30 3650 O 351.14 1.76544 0.844436 0
M  V30 3651 C 351.439 2.5032 -2.55097 0
M  V30 3652 C 351.105 2.09394 -3.99331 0
M  V30 3653 C 349.767 1.97947 -4.38601 0
M  V30 3654 C 352.119 1.77712 -4.89967 0
M  V30 3655 C 349.447 1.53065 -5.66381 0
M  V30 3656 C 351.799 1.34312 -6.18177 0
M  V30 3657 C 350.463 1.21436 -6.56361 0
M  V30 3658 H 349.733 0.493568 -0.552695 0
M  V30 3659 H 352.38 0.665539 -1.79563 0
M  V30 3660 H 350.685 3.24062 -2.20207 0
M  V30 3661 H 352.382 3.08541 -2.56132 0
M  V30 3662 H 348.972 2.19235 -3.68285 0
M  V30 3663 H 353.156 1.85445 -4.60352 0
M  V30 3664 H 348.412 1.41733 -5.94745 0
M  V30 3665 H 352.586 1.08849 -6.87841 0
M  V30 3666 H 350.213 0.864345 -7.5527 0
M  V30 3667 N 351.788 1.33704 0.83433 0
M  V30 3668 C 353.013 1.28615 1.62705 0
M  V30 3669 C 353.438 -0.139242 1.87584 0
M  V30 3670 O 352.796 -1.09734 1.4432 0
M  V30 3671 C 352.844 2.07139 2.95171 0
M  V30 3672 O 351.948 1.4331 3.86699 0
M  V30 3673 H 351.289 0.44226 0.49528 0
M  V30 3674 H 353.819 1.76335 1.03766 0
M  V30 3675 H 353.829 2.18073 3.44831 0
M  V30 3676 H 352.504 3.10779 2.76386 0
M  V30 3677 H 351.081 1.4105 3.45195 0
M  V30 3678 N 353.266 -1.05314 1.17247 0
M  V30 3679 C 354.543 -1.75184 0.87005 0
M  V30 3680 C 354.923 -2.01481 -0.629965 0
M  V30 3681 O 354.271 -1.64988 -1.58086 0
M  V30 3682 C 354.481 -3.04594 1.70363 0
M  V30 3683 C 355.829 -3.78567 1.92281 0
M  V30 3684 O 356.853 -3.14461 1.67311 0
M  V30 3685 O 355.712 -4.93755 2.3424 0
M  V30 3686 H 352.806 -0.761729 0.322021 0
M  V30 3687 H 355.352 -1.11493 1.27935 0
M  V30 3688 H 354.124 -2.81201 2.72106 0
M  V30 3689 H 353.747 -3.76022 1.29202 0
M  V30 3690 N 354.744 -0.972509 -1.24016 0
M  V30 3691 C 355.707 -0.511403 -2.23422 0
M  V30 3692 C 356.707 0.394679 -1.55881 0
M  V30 3693 O 357.897 0.189469 -1.73167 0
M  V30 3694 C 355.029 0.258769 -3.39916 0
M  V30 3695 H 356.222 -1.39024 -2.6573 0
M  V30 3696 H 353.775 -0.757585 -1.36713 0
M  V30 3697 H 354.51 1.1545 -3.03054 0
M  V30 3698 H 354.295 -0.391522 -3.9014 0
M  V30 3699 H 355.785 0.570244 -4.13688 0
M  V30 3700 N 356.222 1.38976 -0.743202 0
M  V30 3701 C 357.172 2.27843 -0.084513 0
M  V30 3702 C 358.156 1.44677 0.704094 0
M  V30 3703 O 359.348 1.67511 0.571755 0
M  V30 3704 C 356.477 3.33466 0.815781 0
M  V30 3705 C 355.563 4.24095 0.0208844 0
M  V30 3706 N 355.954 4.95609 -1.0102 0
M  V30 3707 C 354.252 4.45303 0.249293 0
M  V30 3708 C 354.953 5.62287 -1.49024 0
M  V30 3709 N 353.929 5.37571 -0.807377 0
M  V30 3710 H 357.731 2.80593 -0.87436 0
M  V30 3711 H 355.245 1.51755 -0.578283 0
M  V30 3712 H 357.242 3.96008 1.30321 0
M  V30 3713 H 355.902 2.82276 1.6047 0
M  V30 3714 H 356.913 4.98849 -1.39176 0
M  V30 3715 H 353.59 4.0504 1.01237 0
M  V30 3716 H 354.98 6.29519 -2.34853 0
M  V30 3717 N 357.7 0.491464 1.49741 0
M  V30 3718 C 358.948 -0.0563141 2.02022 0
M  V30 3719 C 359.269 -1.38363 1.37407 0
M  V30 3720 O 358.539 -1.88702 0.526166 0
M  V30 3721 H 357.119 -0.0238014 0.746621 0
M  V30 3722 H 359.781 0.646533 1.83864 0
M  V30 3723 H 358.877 -0.192967 3.11503 0
M  V30 3724 N 359.178 -1.55987 0.224894 0
M  V30 3725 C 360.406 -2.02784 -0.410665 0
M  V30 3726 C 360.821 -1.10464 -1.53112 0
M  V30 3727 O 360.178 -0.114871 -1.82138 0
M  V30 3728 C 360.229 -3.49087 -0.939165 0
M  V30 3729 O 359.95 -4.37887 0.136614 0
M  V30 3730 C 361.451 -4.11543 -1.64763 0
M  V30 3731 H 358.671 -0.663484 -0.100148 0
M  V30 3732 H 361.215 -2.01614 0.342326 0
M  V30 3733 H 359.37 -3.50861 -1.64242 0
M  V30 3734 H 359.784 -5.23849 -0.261155 0
M  V30 3735 H 361.258 -5.15673 -1.96939 0
M  V30 3736 H 361.735 -3.56736 -2.56195 0
M  V30 3737 H 362.341 -4.13629 -0.989503 0
M  V30 3738 N 360.656 0.0484629 -1.57525 0
M  V30 3739 C 361.586 1.0549 -2.08313 0
M  V30 3740 C 362.567 1.38929 -0.981463 0
M  V30 3741 O 363.752 1.48151 -1.25558 0
M  V30 3742 C 360.882 2.36162 -2.54646 0
M  V30 3743 C 359.836 2.17016 -3.68901 0
M  V30 3744 C 359.162 3.53278 -4.01371 0
M  V30 3745 C 360.462 1.57219 -4.98076 0
M  V30 3746 H 362.156 0.632195 -2.92649 0
M  V30 3747 H 359.702 0.302654 -1.40784 0
M  V30 3748 H 361.655 3.06882 -2.88793 0
M  V30 3749 H 360.379 2.80456 -1.67368 0
M  V30 3750 H 359.038 1.48733 -3.35073 0
M  V30 3751 H 358.686 3.95185 -3.11188 0
M  V30 3752 H 358.386 3.41299 -4.78318 0
M  V30 3753 H 359.91 4.25391 -4.38035 0
M  V30 3754 H 361.324 2.17832 -5.30304 0
M  V30 3755 H 359.721 1.55871 -5.79503 0
M  V30 3756 H 360.791 0.535956 -4.81929 0
M  V30 3757 N 362.134 1.5431 0.320358 0
M  V30 3758 C 363.044 1.86946 1.41734 0
M  V30 3759 C 364.06 0.761689 1.56443 0
M  V30 3760 O 365.236 1.05629 1.71477 0
M  V30 3761 C 362.301 2.09293 2.76401 0
M  V30 3762 C 361.362 3.33082 2.70841 0
M  V30 3763 C 360.595 3.54353 3.99086 0
M  V30 3764 O 360.818 2.79002 4.97508 0
M  V30 3765 O 359.752 4.47838 4.0215 0
M  V30 3766 H 363.578 2.80232 1.17062 0
M  V30 3767 H 361.163 1.40255 0.514673 0
M  V30 3768 H 363.045 2.25303 3.56113 0
M  V30 3769 H 361.72 1.19194 3.00956 0
M  V30 3770 H 360.627 3.22454 1.89668 0
M  V30 3771 H 361.96 4.23249 2.5124 0
M  V30 3772 N 363.613 -0.582584 1.46437 0
M  V30 3773 C 364.561 -1.71272 1.5738 0
M  V30 3774 C 365.555 -1.63524 0.44229 0
M  V30 3775 O 366.761 -1.69016 0.619166 0
M  V30 3776 H 363.136 -0.566273 0.494813 0
M  V30 3777 H 365.107 -1.59174 2.52401 0
M  V30 3778 C 363.856 -3.09658 1.58136 0
M  V30 3779 H 363.179 -3.16291 2.44541 0
M  V30 3780 H 364.619 -3.88494 1.69847 0
M  V30 3781 C 363.078 -3.3547 0.310026 0
M  V30 3782 O 363.608 -3.97199 -0.599683 0
M  V30 3783 N 361.814 -2.89925 0.197901 0
M  V30 3784 H 361.361 -2.39873 0.93909 0
M  V30 3785 H 361.319 -3.07568 -0.65185 0
M  V30 3786 N 365.091 -1.34144 -0.827227 0
M  V30 3787 C 366.021 -1.28005 -1.95287 0
M  V30 3788 C 367.002 -0.158321 -1.69362 0
M  V30 3789 O 368.187 -0.349987 -1.9102 0
M  V30 3790 C 365.317 -1.03036 -3.31664 0
M  V30 3791 C 364.271 -2.11628 -3.72019 0
M  V30 3792 C 363.597 -1.71854 -5.0633 0
M  V30 3793 C 364.897 -3.53417 -3.8457 0
M  V30 3794 H 366.591 -2.22187 -2.00682 0
M  V30 3795 H 364.137 -1.0696 -0.964135 0
M  V30 3796 H 366.09 -0.973863 -4.09993 0
M  V30 3797 H 364.814 -0.0529391 -3.26557 0
M  V30 3798 H 363.473 -2.16339 -2.95961 0
M  V30 3799 H 363.121 -0.727841 -4.97706 0
M  V30 3800 H 362.821 -2.44531 -5.34302 0
M  V30 3801 H 364.345 -1.67692 -5.87122 0
M  V30 3802 H 365.759 -3.51142 -4.5318 0
M  V30 3803 H 364.156 -4.24679 -4.2399 0
M  V30 3804 H 365.226 -3.91072 -2.86689 0
M  V30 3805 N 366.569 1.04691 -1.17803 0
M  V30 3806 C 367.98 1.59238 -0.974689 0
M  V30 3807 C 368.331 1.90306 0.477292 0
M  V30 3808 O 367.456 1.68846 1.35352 0
M  V30 3809 C 368.051 2.89318 -1.76296 0
M  V30 3810 C 366.61 3.40506 -1.60414 0
M  V30 3811 C 365.757 2.14172 -1.76141 0
M  V30 3812 H 368.708 0.874395 -1.32439 0
M  V30 3813 H 368.729 3.5944 -1.24833 0
M  V30 3814 H 368.241 2.66675 -2.81968 0
M  V30 3815 H 366.342 3.68175 -0.572519 0
M  V30 3816 H 366.455 4.14753 -2.39827 0
M  V30 3817 H 364.819 2.25176 -1.19028 0
M  V30 3818 H 365.602 1.93992 -2.83235 0
M  V30 3819 N 368.047 0.979072 1.23499 0
M  V30 3820 C 368.977 0.537606 2.27227 0
M  V30 3821 C 369.958 -0.428539 1.64613 0
M  V30 3822 O 371.143 -0.322191 1.91509 0
M  V30 3823 C 368.273 -0.162052 3.46922 0
M  V30 3824 C 367.227 0.721242 4.21879 0
M  V30 3825 C 366.553 -0.110555 5.34586 0
M  V30 3826 C 367.853 2.01141 4.82016 0
M  V30 3827 H 369.547 1.40462 2.64406 0
M  V30 3828 H 367.093 0.67684 1.27102 0
M  V30 3829 H 369.046 -0.482192 4.18632 0
M  V30 3830 H 367.77 -1.06351 3.08799 0
M  V30 3831 H 366.429 1.02482 3.51984 0
M  V30 3832 H 366.077 -1.0125 4.92704 0
M  V30 3833 H 365.777 0.477325 5.85658 0
M  V30 3834 H 367.301 -0.425107 6.09118 0
M  V30 3835 H 368.715 1.75612 5.45741 0
M  V30 3836 H 367.112 2.54695 5.43369 0
M  V30 3837 H 368.182 2.69909 4.02836 0
M  V30 3838 N 369.525 -1.3858 0.750561 0
M  V30 3839 C 370.936 -1.82927 0.373438 0
M  V30 3840 C 371.287 -1.62634 -1.09748 0
M  V30 3841 O 370.412 -1.12588 -1.84805 0
M  V30 3842 C 371.007 -3.32088 0.671029 0
M  V30 3843 C 369.566 -3.74795 0.34722 0
M  V30 3844 C 368.713 -2.61391 0.92575 0
M  V30 3845 H 371.664 -1.27351 0.946958 0
M  V30 3846 H 371.685 -3.80465 -0.0518269 0
M  V30 3847 H 371.197 -3.46826 1.74164 0
M  V30 3848 H 369.298 -3.65638 -0.716933 0
M  V30 3849 H 369.411 -4.71667 0.840656 0
M  V30 3850 H 367.775 -2.52265 0.351327 0
M  V30 3851 H 368.558 -2.78929 2.00133 0
M  V30 3852 N 371.003 -0.499398 -1.49478 0
M  V30 3853 C 371.933 0.269244 -2.31943 0
M  V30 3854 C 372.914 0.964054 -1.40143 0
M  V30 3855 O 374.099 0.955767 -1.69052 0
M  V30 3856 C 371.229 1.33504 -3.20615 0
M  V30 3857 C 370.183 0.760202 -4.21195 0
M  V30 3858 C 369.509 1.9264 -4.98792 0
M  V30 3859 C 370.809 -0.247661 -5.21712 0
M  V30 3860 H 372.503 -0.419082 -2.96452 0
M  V30 3861 H 370.049 -0.202988 -1.42562 0
M  V30 3862 H 372.002 1.88048 -3.77115 0
M  V30 3863 H 370.726 2.05253 -2.54045 0
M  V30 3864 H 369.385 0.23653 -3.65836 0
M  V30 3865 H 369.033 2.63154 -4.28671 0
M  V30 3866 H 368.733 1.54785 -5.66847 0
M  V30 3867 H 370.257 2.4762 -5.58137 0
M  V30 3868 H 371.671 0.209579 -5.72917 0
M  V30 3869 H 370.068 -0.541962 -5.97648 0
M  V30 3870 H 371.138 -1.16409 -4.7072 0
M  V30 3871 N 372.481 1.55866 -0.233164 0
M  V30 3872 C 373.727 1.98897 0.395959 0
M  V30 3873 C 374.06 1.12091 1.58585 0
M  V30 3874 O 373.335 0.181182 1.93654 0
M  V30 3875 C 373.618 3.50658 0.819224 0
M  V30 3876 C 373.471 4.48233 -0.375109 0
M  V30 3877 C 374.79 4.07135 1.67121 0
M  V30 3878 H 371.909 0.723102 0.142451 0
M  V30 3879 H 374.551 1.87082 -0.331725 0
M  V30 3880 H 372.701 3.60857 1.43925 0
M  V30 3881 H 374.373 4.50031 -1.01341 0
M  V30 3882 H 372.616 4.21624 -1.02058 0
M  V30 3883 H 373.287 5.51988 -0.0358328 0
M  V30 3884 H 375.763 3.99952 1.14795 0
M  V30 3885 H 374.639 5.13615 1.93625 0
M  V30 3886 H 374.9 3.54736 2.63846 0
M  V30 3887 N 373.959 -0.0401083 1.57549 0
M  V30 3888 C 375.37 -0.588097 1.77196 0
M  V30 3889 C 375.721 -1.76209 0.862832 0
M  V30 3890 O 374.846 -2.16331 0.0548389 0
M  V30 3891 C 375.441 -1.07363 3.21339 0
M  V30 3892 C 374 -1.56723 3.42221 0
M  V30 3893 C 373.147 -0.50041 2.72747 0
M  V30 3894 H 376.098 0.186119 1.57605 0
M  V30 3895 H 376.119 -1.94143 3.27244 0
M  V30 3896 H 375.631 -0.218975 3.87482 0
M  V30 3897 H 373.732 -2.4441 2.81237 0
M  V30 3898 H 373.845 -1.62234 4.50796 0
M  V30 3899 H 372.209 -0.952894 2.36203 0
M  V30 3900 H 372.992 0.344599 3.41566 0
M  V30 3901 N 375.437 -1.54477 -0.31217 0
M  V30 3902 C 376.369 -1.81011 -1.40598 0
M  V30 3903 C 377.382 -0.692546 -1.47335 0
M  V30 3904 O 378.571 -0.969847 -1.49854 0
M  V30 3905 C 375.671 -1.92307 -2.79054 0
M  V30 3906 C 374.844 -3.22594 -2.95384 0
M  V30 3907 C 373.903 -3.24448 -4.1427 0
M  V30 3908 O 372.929 -3.98035 -4.06887 0
M  V30 3909 N 374.131 -2.49042 -5.24365 0
M  V30 3910 H 376.896 -2.75408 -1.18196 0
M  V30 3911 H 374.457 -1.53914 -0.502202 0
M  V30 3912 H 376.449 -1.90962 -3.56813 0
M  V30 3913 H 375.019 -1.04955 -2.94454 0
M  V30 3914 H 374.239 -3.36806 -2.04831 0
M  V30 3915 H 375.527 -4.08593 -3.03198 0
M  V30 3916 H 374.925 -1.88867 -5.33241 0
M  V30 3917 H 373.482 -2.53463 -6.005 0
M  V30 3918 N 376.915 0.57481 -1.46744 0
M  V30 3919 C 378.326 1.15695 -1.46532 0
M  V30 3920 C 378.677 1.95068 -0.210425 0
M  V30 3921 O 377.802 2.05241 0.685944 0
M  V30 3922 C 378.397 2.1048 -2.65487 0
M  V30 3923 C 376.956 2.64002 -2.68291 0
M  V30 3924 C 376.103 1.40026 -2.39349 0
M  V30 3925 H 379.054 0.362325 -1.54509 0
M  V30 3926 H 379.075 2.94074 -2.41455 0
M  V30 3927 H 378.587 1.52683 -3.56805 0
M  V30 3928 H 376.688 3.25646 -1.81067 0
M  V30 3929 H 376.801 3.06197 -3.68483 0
M  V30 3930 H 375.165 1.70106 -1.89568 0
M  V30 3931 H 375.948 0.840485 -3.32852 0
M  V30 3932 N 378.394 1.34581 0.820102 0
M  V30 3933 C 379.342 1.26401 1.95258 0
M  V30 3934 C 380.336 0.161553 1.68628 0
M  V30 3935 O 381.542 0.326703 1.7701 0
M  V30 3936 H 377.917 0.392749 0.64129 0
M  V30 3937 H 379.888 2.22105 1.99279 0
M  V30 3938 C 378.637 1.03919 3.31807 0
M  V30 3939 H 377.96 1.87984 3.52848 0
M  V30 3940 H 379.4 1.02232 4.11491 0
M  V30 3941 C 377.859 -0.257433 3.35915 0
M  V30 3942 O 378.389 -1.25784 3.81499 0
M  V30 3943 N 376.595 -0.291524 2.89134 0
M  V30 3944 H 376.142 0.523161 2.52232 0
M  V30 3945 H 376.1 -1.15883 2.92264 0
M  V30 3946 N 379.872 -1.04064 1.18357 0
M  V30 3947 C 380.835 -2.10243 0.912707 0
M  V30 3948 C 381.835 -1.60477 -0.101928 0
M  V30 3949 O 383.025 -1.73703 0.131517 0
M  V30 3950 C 380.157 -3.38893 0.369387 0
M  V30 3951 H 381.35 -2.35706 1.85426 0
M  V30 3952 H 378.903 -1.20489 0.995594 0
M  V30 3953 H 379.638 -3.19094 -0.578776 0
M  V30 3954 H 379.423 -3.76331 1.1008 0
M  V30 3955 H 380.913 -4.17128 0.198575 0
M  V30 3956 N 381.35 -0.985608 -1.22978 0
M  V30 3957 C 382.313 -0.535071 -2.22867 0
M  V30 3958 C 383.313 0.378123 -1.56291 0
M  V30 3959 O 384.503 0.171092 -1.73358 0
M  V30 3960 C 381.635 0.222702 -3.40172 0
M  V30 3961 H 382.828 -1.41835 -2.6424 0
M  V30 3962 H 380.381 -0.772042 -1.35901 0
M  V30 3963 H 381.116 1.12229 -3.04262 0
M  V30 3964 H 380.901 -0.43288 -3.89703 0
M  V30 3965 H 382.391 0.526335 -4.1427 0
M  V30 3966 N 382.828 1.3818 -0.7579 0
M  V30 3967 C 384.056 2.04301 -0.326937 0
M  V30 3968 C 384.471 1.57163 1.0462 0
M  V30 3969 O 383.828 0.746626 1.66529 0
M  V30 3970 C 383.879 3.59846 -0.345363 0
M  V30 3971 O 383.6 4.05256 -1.66432 0
M  V30 3972 C 385.101 4.4319 0.098927 0
M  V30 3973 H 382.321 0.656443 -0.139012 0
M  V30 3974 H 384.865 1.76786 -1.02796 0
M  V30 3975 H 383.02 3.86182 0.306955 0
M  V30 3976 H 383.434 4.99709 -1.59345 0
M  V30 3977 H 384.908 5.51989 0.0348745 0
M  V30 3978 H 385.385 4.23947 1.14741 0
M  V30 3979 H 385.991 4.22051 -0.52468 0
M  V30 3980 N 384.306 0.507319 1.49211 0
M  V30 3981 C 385.269 -0.256763 2.27757 0
M  V30 3982 C 386.269 -0.888287 1.34038 0
M  V30 3983 O 387.459 -0.751841 1.5714 0
M  V30 3984 C 384.591 -1.36905 3.12202 0
M  V30 3985 H 385.784 0.432557 2.96764 0
M  V30 3986 H 383.337 0.262488 1.5408 0
M  V30 3987 H 384.072 -2.09233 2.47775 0
M  V30 3988 H 383.857 -0.921599 3.81115 0
M  V30 3989 H 385.347 -1.9071 3.7151 0
M  V30 3990 N 385.784 -1.5574 0.241426 0
M  V30 3991 C 386.714 -2.24133 -0.654722 0
M  V30 3992 C 387.695 -1.21974 -1.1856 0
M  V30 3993 O 388.88 -1.50612 -1.22595 0
M  V30 3994 C 386.01 -2.93659 -1.85423 0
M  V30 3995 C 384.964 -4.0246 -1.45636 0
M  V30 3996 C 384.29 -4.59383 -2.73626 0
M  V30 3997 C 385.59 -5.18468 -0.631506 0
M  V30 3998 H 387.284 -2.99281 -0.0844353 0
M  V30 3999 H 384.83 -1.43947 -0.0391707 0
M  V30 4000 H 386.783 -3.40203 -2.48676 0
M  V30 4001 H 385.507 -2.15991 -2.44981 0
M  V30 4002 H 384.166 -3.56676 -0.847202 0
M  V30 4003 H 383.814 -3.78422 -3.3137 0
M  V30 4004 H 383.514 -5.32826 -2.4773 0
M  V30 4005 H 385.038 -5.08658 -3.37786 0
M  V30 4006 H 386.452 -5.61272 -1.1682 0
M  V30 4007 H 384.849 -5.98266 -0.468831 0
M  V30 4008 H 385.919 -4.8358 0.357506 0
M  V30 4009 N 387.262 0.0317525 -1.57568 0
M  V30 4010 C 388.225 1.01783 -2.0536 0
M  V30 4011 C 389.225 1.29203 -0.957253 0
M  V30 4012 O 390.415 1.24251 -1.22095 0
M  V30 4013 C 387.547 2.35137 -2.46827 0
M  V30 4014 H 388.74 0.605062 -2.93733 0
M  V30 4015 H 386.293 0.278514 -1.53799 0
M  V30 4016 H 387.028 2.81168 -1.61602 0
M  V30 4017 H 386.813 2.16566 -3.26866 0
M  V30 4018 H 388.303 3.05938 -2.84239 0
M  V30 4019 N 388.74 1.54641 0.303973 0
M  V30 4020 C 389.703 1.84646 1.35789 0
M  V30 4021 C 390.703 0.7192 1.4382 0
M  V30 4022 O 391.893 0.987491 1.43507 0
M  V30 4023 C 389.025 2.02407 2.74307 0
M  V30 4024 H 390.218 2.78829 1.10429 0
M  V30 4025 H 387.771 1.46658 0.540487 0
M  V30 4026 H 388.506 1.10502 3.04893 0
M  V30 4027 H 388.291 2.84453 2.69868 0
M  V30 4028 H 389.781 2.27002 3.50514 0
M  V30 4029 N 390.218 -0.567019 1.47046 0
M  V30 4030 C 391.148 -1.68482 1.61667 0
M  V30 4031 C 392.129 -1.6358 0.466418 0
M  V30 4032 O 393.314 -1.81354 0.694574 0
M  V30 4033 C 390.444 -3.07124 1.62148 0
M  V30 4034 C 389.398 -3.26867 2.76301 0
M  V30 4035 C 388.724 -4.66196 2.61849 0
M  V30 4036 C 390.024 -3.13186 4.17986 0
M  V30 4037 H 391.718 -1.56502 2.5524 0
M  V30 4038 H 389.264 -0.751486 1.22836 0
M  V30 4039 H 391.217 -3.8516 1.70968 0
M  V30 4040 H 389.941 -3.2004 0.651287 0
M  V30 4041 H 388.6 -2.51237 2.66975 0
M  V30 4042 H 388.248 -4.75898 1.62879 0
M  V30 4043 H 387.948 -4.80356 3.38425 0
M  V30 4044 H 389.472 -5.46379 2.72584 0
M  V30 4045 H 390.886 -3.81049 4.2834 0
M  V30 4046 H 389.283 -3.3886 4.95272 0
M  V30 4047 H 390.353 -2.10057 4.3704 0
M  V30 4048 N 391.696 -1.35014 -0.812953 0
M  V30 4049 C 393.112 -1.14914 -1.10757 0
M  V30 4050 C 393.312 0.0426818 -2.01455 0
M  V30 4051 O 392.368 0.715212 -2.42159 0
M  V30 4052 C 393.681 -2.44911 -1.74468 0
M  V30 4053 C 395.229 -2.5106 -1.86917 0
M  V30 4054 C 395.704 -3.81085 -2.54044 0
M  V30 4055 N 397.195 -3.82301 -2.61535 0
M  V30 4056 C 397.93 -4.79634 -3.14227 0
M  V30 4057 N 397.426 -5.87353 -3.67407 0
M  V30 4058 N 399.219 -4.67078 -3.12721 0
M  V30 4059 H 391.37 -2.1136 -0.20989 0
M  V30 4060 H 393.633 -0.935128 -0.155692 0
M  V30 4061 H 393.339 -3.32267 -1.15289 0
M  V30 4062 H 393.213 -2.58989 -2.74234 0
M  V30 4063 H 395.6 -1.64137 -2.45241 0
M  V30 4064 H 395.681 -2.40901 -0.860242 0
M  V30 4065 H 395.325 -4.68402 -1.96372 0
M  V30 4066 H 395.255 -3.88529 -3.55461 0
M  V30 4067 H 397.746 -3.04465 -2.23851 0
M  V30 4068 H 398.059 -6.57624 -4.05894 0
M  V30 4069 H 396.404 -5.91054 -3.65623 0
M  V30 4070 H 399.595 -3.82067 -2.70449 0
M  V30 4071 H 399.768 -5.43098 -3.53481 0
M  V30 4072 N 393.175 1.03435 -1.18907 0
M  V30 4073 C 394.138 2.09756 -0.923844 0
M  V30 4074 C 395.138 1.60528 0.093416 0
M  V30 4075 O 396.328 1.73631 -0.140727 0
M  V30 4076 C 393.46 3.38692 -0.387354 0
M  V30 4077 H 394.653 2.34719 -1.86674 0
M  V30 4078 H 392.206 1.19959 -1.00197 0
M  V30 4079 H 392.941 3.19396 0.561845 0
M  V30 4080 H 392.726 3.75742 -1.12074 0
M  V30 4081 H 394.216 4.17016 -0.220694 0
M  V30 4082 N 394.653 0.992116 1.22453 0
M  V30 4083 C 395.878 0.685644 1.95739 0
M  V30 4084 C 396.303 -0.743 1.72804 0
M  V30 4085 O 395.661 -1.50778 1.00676 0
M  V30 4086 C 395.709 0.996293 3.46564 0
M  V30 4087 O 394.813 0.0945512 4.12292 0
M  V30 4088 H 394.154 0.256694 0.612376 0
M  V30 4089 H 396.684 1.32888 1.5557 0
M  V30 4090 H 396.694 0.93781 3.97076 0
M  V30 4091 H 395.369 2.03733 3.62582 0
M  V30 4092 H 393.946 0.208451 3.72317 0
M  V30 4093 N 396.131 -1.37776 0.765217 0
M  V30 4094 C 397.379 -1.99454 0.325943 0
M  V30 4095 C 397.7 -1.61049 -1.09947 0
M  V30 4096 O 396.97 -0.872821 -1.75381 0
M  V30 4097 H 395.55 -0.737697 0.117525 0
M  V30 4098 H 398.212 -1.68359 0.981895 0
M  V30 4099 H 397.308 -3.09547 0.398353 0
M  V30 4100 N 397.609 -0.515225 -1.4894 0
M  V30 4101 C 398.539 0.244628 -2.32215 0
M  V30 4102 C 399.52 0.949136 -1.41157 0
M  V30 4103 O 400.705 0.937783 -1.70057 0
M  V30 4104 C 397.835 1.30096 -3.22013 0
M  V30 4105 C 396.789 0.715486 -4.21977 0
M  V30 4106 C 396.115 1.87339 -5.00808 0
M  V30 4107 C 397.415 -0.302982 -5.2142 0
M  V30 4108 H 399.109 -0.450501 -2.95991 0
M  V30 4109 H 396.655 -0.218098 -1.42339 0
M  V30 4110 H 398.608 1.84037 -3.79089 0
M  V30 4111 H 397.332 2.02547 -2.56207 0
M  V30 4112 H 395.991 0.197715 -3.66066 0
M  V30 4113 H 395.639 2.58592 -4.31438 0
M  V30 4114 H 395.339 1.48764 -5.68457 0
M  V30 4115 H 396.863 2.41686 -5.60732 0
M  V30 4116 H 398.277 0.148802 -5.73107 0
M  V30 4117 H 396.674 -0.60532 -5.97039 0
M  V30 4118 H 397.744 -1.21395 -4.69459 0
M  V30 4119 N 399.087 1.5561 -0.249682 0
M  V30 4120 C 399.997 2.25143 0.659375 0
M  V30 4121 C 401.013 1.2685 1.19101 0
M  V30 4122 O 402.189 1.59732 1.22669 0
M  V30 4123 C 399.254 2.93945 1.8384 0
M  V30 4124 C 398.315 4.07655 1.34596 0
M  V30 4125 C 397.548 4.73167 2.46878 0
M  V30 4126 O 397.771 4.37768 3.65671 0
M  V30 4127 O 396.705 5.61623 2.16478 0
M  V30 4128 H 400.531 3.03545 0.0968698 0
M  V30 4129 H 398.116 1.49389 -0.018074 0
M  V30 4130 H 399.998 3.37271 2.52638 0
M  V30 4131 H 398.673 2.18481 2.38847 0
M  V30 4132 H 397.58 3.68839 0.625174 0
M  V30 4133 H 398.913 4.84946 0.841941 0
M  V30 4134 N 400.565 -0.0233959 1.57583 0
M  V30 4135 C 401.811 -0.714119 1.89811 0
M  V30 4136 C 402.144 -1.74702 0.848113 0
M  V30 4137 O 401.419 -1.94023 -0.136135 0
M  V30 4138 C 401.702 -1.37853 3.32669 0
M  V30 4139 C 401.555 -0.358764 4.48367 0
M  V30 4140 C 402.874 -2.31101 3.7454 0
M  V30 4141 H 399.993 -0.25814 0.690314 0
M  V30 4142 H 402.635 0.0230927 1.89986 0
M  V30 4143 H 400.785 -2.00689 3.3265 0
M  V30 4144 H 402.457 0.268115 4.6052 0
M  V30 4145 H 400.7 0.321387 4.32608 0
M  V30 4146 H 401.371 -0.862242 5.45224 0
M  V30 4147 H 403.847 -1.78304 3.75961 0
M  V30 4148 H 402.723 -2.74567 4.75294 0
M  V30 4149 H 402.984 -3.18018 3.0711 0
M  V30 4150 N 402.043 -1.548 -0.295768 0
M  V30 4151 C 403.268 -1.78653 -1.05346 0
M  V30 4152 C 403.693 -0.546894 -1.79974 0
M  V30 4153 O 403.051 0.502763 -1.7419 0
M  V30 4154 C 403.099 -2.99679 -2.00561 0
M  V30 4155 O 402.203 -2.7317 -3.08953 0
M  V30 4156 H 401.544 -0.59116 -0.302367 0
M  V30 4157 H 404.074 -2.01895 -0.331598 0
M  V30 4158 H 404.084 -3.27793 -2.42932 0
M  V30 4159 H 402.759 -3.89562 -1.4565 0
M  V30 4160 H 401.336 -2.56089 -2.71059 0
M  V30 4161 N 403.521 0.559213 -1.47345 0
M  V30 4162 C 404.431 1.69388 -1.62311 0
M  V30 4163 C 405.447 1.6648 -0.505993 0
M  V30 4164 O 406.623 1.85964 -0.773262 0
M  V30 4165 C 403.688 3.05894 -1.63185 0
M  V30 4166 C 402.749 3.19885 -2.86307 0
M  V30 4167 C 401.982 4.49879 -2.87131 0
M  V30 4168 O 402.205 5.35217 -1.97229 0
M  V30 4169 O 401.139 4.67618 -3.78968 0
M  V30 4170 H 404.965 1.59706 -2.58317 0
M  V30 4171 H 402.55 0.728989 -1.30407 0
M  V30 4172 H 404.432 3.87133 -1.66451 0
M  V30 4173 H 403.107 3.15964 -0.70345 0
M  V30 4174 H 402.014 2.38052 -2.88587 0
M  V30 4175 H 403.347 3.14718 -3.78435 0
M  V30 4176 N 404.999 1.35443 0.805782 0
M  V30 4177 C 405.947 1.28465 1.93906 0
M  V30 4178 C 406.941 0.17943 1.68447 0
M  V30 4179 O 408.147 0.345459 1.76654 0
M  V30 4180 H 404.522 0.399528 0.637088 0
M  V30 4181 H 406.493 2.24206 1.96912 0
M  V30 4182 C 405.242 1.07432 3.30687 0
M  V30 4183 H 404.565 1.91716 3.50835 0
M  V30 4184 H 406.005 1.06591 4.10383 0
M  V30 4185 C 404.464 -0.22179 3.36169 0
M  V30 4186 O 404.994 -1.21731 3.82811 0
M  V30 4187 N 403.2 -0.260841 2.89427 0
M  V30 4188 H 402.747 0.549884 2.51663 0
M  V30 4189 H 402.705 -1.12777 2.93477 0
M  V30 4190 N 406.477 -1.02803 1.19454 0
M  V30 4191 C 407.44 -2.09264 0.934955 0
M  V30 4192 C 408.44 -1.60576 -0.0849015 0
M  V30 4193 O 409.63 -1.73554 0.149933 0
M  V30 4194 C 406.762 -3.38482 0.40531 0
M  V30 4195 H 407.955 -2.33726 1.87916 0
M  V30 4196 H 405.508 -1.19426 1.00832 0
M  V30 4197 H 406.243 -3.19689 -0.544899 0
M  V30 4198 H 406.028 -3.75142 1.14065 0
M  V30 4199 H 407.518 -4.16894 0.242806 0
M  V30 4200 N 407.956 -0.998596 -1.21925 0
M  V30 4201 C 409.205 -0.673085 -1.90138 0
M  V30 4202 C 409.518 0.79895 -1.78539 0
M  V30 4203 O 410.724 1.23628 -2.4172 0
M  V30 4204 C 409.18 -1.15339 -3.40918 0
M  V30 4205 C 408.788 -2.65106 -3.61141 0
M  V30 4206 C 410.532 -0.902476 -4.14796 0
M  V30 4207 C 408.439 -3.0671 -5.05651 0
M  V30 4208 H 407.369 -0.248057 -0.712028 0
M  V30 4209 H 410.02 -1.20891 -1.38049 0
M  V30 4210 H 408.402 -0.545658 -3.92223 0
M  V30 4211 H 409.576 -3.31274 -3.20304 0
M  V30 4212 H 407.891 -2.88142 -3.00605 0
M  V30 4213 H 410.488 -1.18895 -5.21314 0
M  V30 4214 H 410.831 0.161349 -4.15987 0
M  V30 4215 H 411.364 -1.47269 -3.69536 0
M  V30 4216 H 408.103 -4.12292 -5.09603 0
M  V30 4217 H 407.623 -2.45249 -5.47369 0
M  V30 4218 H 409.302 -2.9833 -5.74115 0
M  V30 4219 N 409.434 1.37368 -0.772513 0
M  V30 4220 C 410.85 1.53059 -0.452231 0
M  V30 4221 C 411.05 1.73065 1.03203 0
M  V30 4222 O 410.106 1.75245 1.81784 0
M  V30 4223 C 411.419 2.72659 -1.26797 0
M  V30 4224 C 412.967 2.86521 -1.25995 0
M  V30 4225 C 413.442 4.09105 -2.05905 0
M  V30 4226 N 414.933 4.16219 -2.03263 0
M  V30 4227 C 415.668 5.10107 -2.61875 0
M  V30 4228 N 415.164 6.09547 -3.29278 0
M  V30 4229 N 416.957 5.02596 -2.51701 0
M  V30 4230 H 409.108 1.22634 -1.7342 0
M  V30 4231 H 411.371 0.597206 -0.736239 0
M  V30 4232 H 411.077 2.64343 -2.31982 0
M  V30 4233 H 410.951 3.66363 -0.897672 0
M  V30 4234 H 413.338 2.94308 -0.216081 0
M  V30 4235 H 413.419 1.93774 -1.66989 0
M  V30 4236 H 413.063 4.0208 -3.10313 0
M  V30 4237 H 412.993 5.00968 -1.62292 0
M  V30 4238 H 415.484 3.45012 -1.54192 0
M  V30 4239 H 415.797 6.77718 -3.71374 0
M  V30 4240 H 414.142 6.09824 -3.33377 0
M  V30 4241 H 417.333 4.23855 -1.98657 0
M  V30 4242 H 417.506 5.75582 -2.97673 0
M  V30 4243 N 410.912 0.523116 1.48665 0
M  V30 4244 C 412.189 -0.0775449 1.95446 0
M  V30 4245 C 412.569 -1.5197 1.4652 0
M  V30 4246 O 411.917 -2.17876 0.688657 0
M  V30 4247 C 412.127 0.0326135 3.48985 0
M  V30 4248 C 413.475 -0.130141 4.24401 0
M  V30 4249 O 414.499 -0.0415142 3.56176 0
M  V30 4250 O 413.358 -0.31491 5.45592 0
M  V30 4251 H 410.452 -0.0831012 0.822814 0
M  V30 4252 H 412.998 0.587227 1.59216 0
M  V30 4253 H 411.77 1.03748 3.77296 0
M  V30 4254 H 411.393 -0.671317 3.91892 0
M  V30 4255 N 412.39 -1.55475 0.257931 0
M  V30 4256 C 413.638 -1.98813 -0.363009 0
M  V30 4257 C 413.959 -1.14757 -1.57657 0
M  V30 4258 O 413.229 -0.232956 -1.9451 0
M  V30 4259 H 411.809 -0.734308 -0.137113 0
M  V30 4260 H 414.471 -1.9156 0.359281 0
M  V30 4261 H 413.567 -3.04941 -0.664634 0
M  V30 4262 N 413.868 0.0150385 -1.57593 0
M  V30 4263 C 415.117 0.702115 -1.89085 0
M  V30 4264 C 415.43 1.75764 -0.858277 0
M  V30 4265 O 416.636 2.49829 -1.0629 0
M  V30 4266 C 415.092 1.29992 -3.35604 0
M  V30 4267 C 414.7 0.280007 -4.47124 0
M  V30 4268 C 416.444 1.96606 -3.76227 0
M  V30 4269 C 414.351 0.886949 -5.84711 0
M  V30 4270 H 413.281 0.265997 -0.705522 0
M  V30 4271 H 415.932 -0.0430408 -1.8345 0
M  V30 4272 H 414.314 2.09525 -3.36029 0
M  V30 4273 H 415.488 -0.489631 -4.58191 0
M  V30 4274 H 413.803 -0.284835 -4.15425 0
M  V30 4275 H 416.4 2.42893 -4.76347 0
M  V30 4276 H 416.743 2.79024 -3.08952 0
M  V30 4277 H 417.276 1.23828 -3.78036 0
M  V30 4278 H 414.015 0.101876 -6.55421 0
M  V30 4279 H 413.535 1.6261 -5.77337 0
M  V30 4280 H 415.214 1.39011 -6.3189 0
M  V30 4281 N 415.346 1.54954 0.287554 0
M  V30 4282 C 416.309 1.86076 1.33823 0
M  V30 4283 C 417.309 0.734414 1.43049 0
M  V30 4284 O 418.499 1.00266 1.42452 0
M  V30 4285 C 415.631 2.05305 2.72144 0
M  V30 4286 H 416.824 2.79984 1.07465 0
M  V30 4287 H 414.377 1.47223 0.524902 0
M  V30 4288 H 415.112 1.1373 3.03704 0
M  V30 4289 H 414.897 2.873 2.66836 0
M  V30 4290 H 416.387 2.30706 3.48087 0
M  V30 4291 N 416.824 -0.551391 1.4764 0
M  V30 4292 C 418.049 -1.33837 1.58437 0
M  V30 4293 C 418.474 -1.866 0.237063 0
M  V30 4294 O 417.832 -1.6328 -0.787994 0
M  V30 4295 C 417.88 -2.48014 2.61766 0
M  V30 4296 O 416.984 -3.50419 2.1744 0
M  V30 4297 H 416.325 -0.397299 0.532024 0
M  V30 4298 H 418.855 -0.665759 1.93465 0
M  V30 4299 H 418.865 -2.94503 2.82369 0
M  V30 4300 H 417.54 -2.08969 3.5959 0
M  V30 4301 H 416.117 -3.10196 2.06961 0
M  V30 4302 N 418.302 -1.35869 -0.798587 0
M  V30 4303 C 419.265 -1.29307 -1.89242 0
M  V30 4304 C 420.265 -0.202747 -1.59517 0
M  V30 4305 O 421.455 -0.456957 -1.681 0
M  V30 4306 C 418.587 -1.00229 -3.25833 0
M  V30 4307 H 419.78 -2.26576 -1.96478 0
M  V30 4308 H 417.333 -1.20509 -0.995358 0
M  V30 4309 H 418.068 -0.033801 -3.24282 0
M  V30 4310 H 417.853 -1.79121 -3.48795 0
M  V30 4311 H 419.343 -0.98219 -4.05885 0
M  V30 4312 N 419.78 1.02168 -1.19998 0
M  V30 4313 C 421.029 1.75091 -1.0013 0
M  V30 4314 C 421.342 1.89923 0.467835 0
M  V30 4315 O 422.548 2.59888 0.785515 0
M  V30 4316 C 421.004 3.14892 -1.74273 0
M  V30 4317 C 420.612 3.0809 -3.25245 0
M  V30 4318 C 422.356 3.9206 -1.62755 0
M  V30 4319 C 420.263 4.42867 -3.91948 0
M  V30 4320 H 419.193 0.656394 -0.37103 0
M  V30 4321 H 421.844 1.14284 -1.43567 0
M  V30 4322 H 420.226 3.7621 -1.2362 0
M  V30 4323 H 421.4 2.5611 -3.83072 0
M  V30 4324 H 419.715 2.44416 -3.3712 0
M  V30 4325 H 422.312 4.91764 -2.09934 0
M  V30 4326 H 422.655 4.12199 -0.582894 0
M  V30 4327 H 423.188 3.37359 -2.10793 0
M  V30 4328 H 419.927 4.27931 -4.96543 0
M  V30 4329 H 419.447 4.94874 -3.3891 0
M  V30 4330 H 421.126 5.11728 -3.95909 0
M  V30 4331 N 421.258 1.00505 1.21394 0
M  V30 4332 C 422.188 0.585684 2.26035 0
M  V30 4333 C 423.169 -0.393525 1.65485 0
M  V30 4334 O 424.354 -0.281497 1.92149 0
M  V30 4335 C 421.484 -0.0884283 3.47187 0
M  V30 4336 C 420.438 0.810567 4.20254 0
M  V30 4337 C 419.764 0.00286382 5.347 0
M  V30 4338 C 421.064 2.1132 4.77641 0
M  V30 4339 H 422.758 1.46039 2.61368 0
M  V30 4340 H 420.304 0.703648 1.25638 0
M  V30 4341 H 422.257 -0.393286 4.19561 0
M  V30 4342 H 420.981 -0.997766 3.10986 0
M  V30 4343 H 419.64 1.09925 3.49731 0
M  V30 4344 H 419.288 -0.907765 4.94741 0
M  V30 4345 H 418.988 0.601444 5.84514 0
M  V30 4346 H 420.512 -0.295808 6.09883 0
M  V30 4347 H 421.926 1.87148 5.41893 0
M  V30 4348 H 420.323 2.66164 5.37845 0
M  V30 4349 H 421.393 2.78393 3.9702 0
M  V30 4350 N 422.737 -1.36956 0.779787 0
M  V30 4351 C 424.148 -1.82094 0.412156 0
M  V30 4352 C 424.499 -1.64926 -1.06273 0
M  V30 4353 O 423.624 -1.16483 -1.82375 0
M  V30 4354 C 424.219 -3.3059 0.741319 0
M  V30 4355 C 422.778 -3.73974 0.426641 0
M  V30 4356 C 421.925 -2.59368 0.980987 0
M  V30 4357 H 424.876 -1.25314 0.973758 0
M  V30 4358 H 424.897 -3.80489 0.028887 0
M  V30 4359 H 424.409 -3.43054 1.81482 0
M  V30 4360 H 422.51 -3.67076 -0.639215 0
M  V30 4361 H 422.623 -4.69778 0.940515 0
M  V30 4362 H 420.987 -2.51463 0.404757 0
M  V30 4363 H 421.77 -2.74621 2.06005 0
M  V30 4364 N 424.215 -0.530993 -1.48385 0
M  V30 4365 C 425.463 0.00273189 -2.021 0
M  V30 4366 C 425.784 1.34672 -1.41027 0
M  V30 4367 O 425.054 1.8724 -0.576012 0
M  V30 4368 H 423.634 0.00399774 -0.746989 0
M  V30 4369 H 426.296 -0.695054 -1.82085 0
M  V30 4370 H 425.392 0.11031 -3.11905 0
M  V30 4371 N 425.693 1.55336 -0.266172 0
M  V30 4372 C 427.109 1.59356 0.0882065 0
M  V30 4373 C 427.309 1.2834 1.55342 0
M  V30 4374 O 426.365 1.03996 2.30089 0
M  V30 4375 C 427.678 2.99409 -0.278364 0
M  V30 4376 C 429.226 3.12196 -0.224243 0
M  V30 4377 C 429.701 4.545 -0.565123 0
M  V30 4378 N 431.192 4.60313 -0.51634 0
M  V30 4379 C 431.927 5.68434 -0.753013 0
M  V30 4380 N 431.423 6.84738 -1.05383 0
M  V30 4381 N 433.216 5.57942 -0.682414 0
M  V30 4382 H 425.367 1.73764 -1.22147 0
M  V30 4383 H 427.63 0.809822 -0.492841 0
M  V30 4384 H 427.336 3.2691 -1.29703 0
M  V30 4385 H 427.21 3.75228 0.385186 0
M  V30 4386 H 429.597 2.84464 0.78512 0
M  V30 4387 H 429.678 2.38609 -0.921922 0
M  V30 4388 H 429.322 4.82956 -1.57213 0
M  V30 4389 H 429.252 5.26374 0.154248 0
M  V30 4390 H 431.743 3.7676 -0.29335 0
M  V30 4391 H 432.056 7.63088 -1.22133 0
M  V30 4392 H 430.401 6.86375 -1.09151 0
M  V30 4393 H 433.592 4.65958 -0.44731 0
M  V30 4394 H 433.765 6.4213 -0.870248 0
M  V30 4395 N 427.171 -0.0066808 1.57599 0
M  V30 4396 C 428.418 -0.69292 1.90276 0
M  V30 4397 C 428.746 -1.74148 0.866192 0
M  V30 4398 O 428.001 -1.95268 -0.129933 0
M  V30 4399 C 428.3 -1.37939 3.29708 0
M  V30 4400 C 427.966 -0.464679 4.48499 0
M  V30 4401 C 426.628 -0.212809 4.80729 0
M  V30 4402 C 428.98 0.16551 5.20937 0
M  V30 4403 C 426.308 0.677653 5.82773 0
M  V30 4404 C 428.66 1.04381 6.23929 0
M  V30 4405 C 427.324 1.30492 6.54621 0
M  V30 4406 H 426.594 -0.253558 0.696268 0
M  V30 4407 H 429.241 0.0474123 1.91441 0
M  V30 4408 H 427.546 -2.1936 3.24636 0
M  V30 4409 H 429.243 -1.9163 3.52249 0
M  V30 4410 H 425.833 -0.671153 4.23313 0
M  V30 4411 H 430.017 -0.0160756 4.96297 0
M  V30 4412 H 425.273 0.88803 6.04917 0
M  V30 4413 H 429.447 1.53851 6.79193 0
M  V30 4414 H 427.074 1.99662 7.33512 0
M  V30 4415 N 428.649 -1.55105 -0.279332 0
M  V30 4416 C 429.581 -1.83952 -1.36727 0
M  V30 4417 C 430.594 -0.723642 -1.45833 0
M  V30 4418 O 431.783 -1.00141 -1.47763 0
M  V30 4419 C 428.883 -1.98183 -2.74912 0
M  V30 4420 C 428.056 -3.28787 -2.88475 0
M  V30 4421 C 427.115 -3.33162 -4.07295 0
M  V30 4422 O 426.141 -4.06576 -3.98353 0
M  V30 4423 N 427.343 -2.60109 -5.18964 0
M  V30 4424 H 430.108 -2.77853 -1.12328 0
M  V30 4425 H 427.669 -1.54945 -0.469442 0
M  V30 4426 H 429.661 -1.98488 -3.52682 0
M  V30 4427 H 428.231 -1.11177 -2.92162 0
M  V30 4428 H 427.451 -3.41075 -1.97641 0
M  V30 4429 H 428.739 -4.14933 -2.94463 0
M  V30 4430 H 428.137 -2.00136 -5.29115 0
M  V30 4431 H 426.694 -2.66143 -5.94988 0
M  V30 4432 N 430.127 0.543554 -1.4793 0
M  V30 4433 C 431.376 1.29649 -1.54512 0
M  V30 4434 C 431.689 1.94382 -0.217973 0
M  V30 4435 O 432.895 2.71017 -0.161908 0
M  V30 4436 C 431.351 2.35175 -2.72435 0
M  V30 4437 C 430.959 1.76572 -4.11736 0
M  V30 4438 C 432.703 3.11564 -2.8832 0
M  V30 4439 C 430.61 2.79958 -5.20939 0
M  V30 4440 H 429.54 0.487541 -0.57517 0
M  V30 4441 H 432.191 0.575708 -1.74235 0
M  V30 4442 H 430.573 3.10229 -2.46118 0
M  V30 4443 H 431.747 1.07799 -4.48013 0
M  V30 4444 H 430.062 1.12722 -4.00852 0
M  V30 4445 H 432.659 3.88794 -3.67074 0
M  V30 4446 H 433.002 3.66594 -1.97268 0
M  V30 4447 H 433.535 2.43623 -3.14472 0
M  V30 4448 H 430.274 2.29766 -6.13912 0
M  V30 4449 H 429.794 3.47101 -4.89164 0
M  V30 4450 H 431.473 3.43198 -5.48474 0
M  V30 4451 N 431.605 1.3629 0.791371 0
M  V30 4452 C 432.851 1.30605 1.55146 0
M  V30 4453 C 433.184 -0.115042 1.93859 0
M  V30 4454 O 432.459 -1.06798 1.62556 0
M  V30 4455 C 432.742 2.22692 2.82985 0
M  V30 4456 C 432.595 3.73489 2.50651 0
M  V30 4457 C 433.914 2.13588 3.84796 0
M  V30 4458 H 431.033 0.475761 0.562868 0
M  V30 4459 H 433.675 1.66825 0.909358 0
M  V30 4460 H 431.825 1.91933 3.37778 0
M  V30 4461 H 433.497 4.14758 2.01924 0
M  V30 4462 H 431.74 3.93021 1.83622 0
M  V30 4463 H 432.411 4.3333 3.41949 0
M  V30 4464 H 434.887 2.40659 3.39445 0
M  V30 4465 H 433.763 2.80195 4.71998 0
M  V30 4466 H 434.024 1.12256 4.27611 0
M  V30 4467 N 433.083 -1.0153 1.20538 0
M  V30 4468 C 434.308 -1.79283 1.04271 0
M  V30 4469 C 434.733 -1.8372 -0.403544 0
M  V30 4470 O 434.091 -1.27321 -1.2907 0
M  V30 4471 C 434.139 -3.21535 1.63241 0
M  V30 4472 O 433.243 -4.03099 0.870908 0
M  V30 4473 H 432.584 -0.55293 0.367647 0
M  V30 4474 H 435.114 -1.27696 1.59859 0
M  V30 4475 H 435.124 -3.72243 1.6703 0
M  V30 4476 H 433.799 -3.1762 2.68497 0
M  V30 4477 H 432.376 -3.61693 0.907323 0
M  V30 4478 N 434.561 -1.01147 -1.20859 0
M  V30 4479 C 435.471 -0.58686 -2.27141 0
M  V30 4480 C 436.487 0.373198 -1.69951 0
M  V30 4481 O 437.663 0.235423 -2.00019 0
M  V30 4482 C 434.728 0.0733602 -3.46622 0
M  V30 4483 C 433.789 -0.931995 -4.19061 0
M  V30 4484 C 433.022 -0.303186 -5.32838 0
M  V30 4485 O 433.245 0.898395 -5.63281 0
M  V30 4486 O 432.179 -1.01735 -5.9324 0
M  V30 4487 H 436.005 -1.47155 -2.65667 0
M  V30 4488 H 433.59 -0.780689 -1.2738 0
M  V30 4489 H 435.472 0.442333 -4.19072 0
M  V30 4490 H 434.147 0.932329 -3.09983 0
M  V30 4491 H 433.054 -1.35224 -3.48805 0
M  V30 4492 H 434.387 -1.76076 -4.59628 0
M  V30 4493 N 436.039 1.36541 -0.78704 0
M  V30 4494 C 437.264 2.0409 -0.369053 0
M  V30 4495 C 437.689 1.58957 1.00569 0
M  V30 4496 O 437.047 0.756926 1.64743 0
M  V30 4497 C 437.095 3.57924 -0.438466 0
M  V30 4498 O 436.199 4.08642 0.555479 0
M  V30 4499 H 435.54 0.645142 -0.157122 0
M  V30 4500 H 438.07 1.74545 -1.06749 0
M  V30 4501 H 438.08 4.06887 -0.301218 0
M  V30 4502 H 436.755 3.90127 -1.44132 0
M  V30 4503 H 435.332 3.70958 0.380088 0
M  V30 4504 N 437.518 0.538854 1.48102 0
M  V30 4505 C 438.929 0.100679 1.86428 0
M  V30 4506 C 439.28 -1.32447 1.44749 0
M  V30 4507 O 438.405 -1.99339 0.842199 0
M  V30 4508 C 439 0.175933 3.38343 0
M  V30 4509 C 437.559 -0.207098 3.7583 0
M  V30 4510 C 436.706 0.531741 2.72154 0
M  V30 4511 H 439.657 0.749614 1.3988 0
M  V30 4512 H 439.678 -0.610144 3.75576 0
M  V30 4513 H 439.19 1.21328 3.68648 0
M  V30 4514 H 437.291 -1.24626 3.5114 0
M  V30 4515 H 437.404 0.138687 4.78899 0
M  V30 4516 H 435.768 -0.0230462 2.5469 0
M  V30 4517 H 436.551 1.56989 3.05302 0
M  V30 4518 N 438.996 -1.55193 0.274407 0
M  V30 4519 C 440.412 -1.59401 -0.0797543 0
M  V30 4520 C 440.612 -1.29162 -1.54659 0
M  V30 4521 O 439.668 -1.05215 -2.29534 0
M  V30 4522 C 440.981 -2.99257 0.294238 0
M  V30 4523 C 442.529 -3.12072 0.240796 0
M  V30 4524 C 443.004 -4.54194 0.589218 0
M  V30 4525 N 444.495 -4.60033 0.540744 0
M  V30 4526 C 445.23 -5.68027 0.783147 0
M  V30 4527 N 444.726 -6.8417 1.09013 0
M  V30 4528 N 446.519 -5.57572 0.711993 0
M  V30 4529 H 438.67 -1.73113 1.23067 0
M  V30 4530 H 440.933 -0.807197 0.497129 0
M  V30 4531 H 440.639 -3.26217 1.31435 0
M  V30 4532 H 440.513 -3.75427 -0.365281 0
M  V30 4533 H 442.9 -2.84877 -0.770024 0
M  V30 4534 H 442.981 -2.38117 0.934563 0
M  V30 4535 H 442.625 -4.82115 1.59772 0
M  V30 4536 H 442.555 -5.26448 -0.126331 0
M  V30 4537 H 445.046 -3.76599 0.313327 0
M  V30 4538 H 445.359 -7.6243 1.26178 0
M  V30 4539 H 443.704 -6.85787 1.12789 0
M  V30 4540 H 446.895 -4.65714 0.472014 0
M  V30 4541 H 447.068 -6.41659 0.90429 0
M  V30 4542 N 440.474 -0.00167713 -1.576 0
M  V30 4543 C 441.72 0.683832 -1.90923 0
M  V30 4544 C 442.053 1.7333 -0.875799 0
M  V30 4545 O 441.328 1.94215 0.10525 0
M  V30 4546 C 441.611 1.32543 -3.3482 0
M  V30 4547 C 441.464 0.287387 -4.48881 0
M  V30 4548 C 442.783 2.25114 -3.78169 0
M  V30 4549 H 439.902 0.247125 -0.694333 0
M  V30 4550 H 442.544 -0.0533149 -1.89925 0
M  V30 4551 H 440.694 1.95372 -3.35801 0
M  V30 4552 H 442.366 -0.341346 -4.60035 0
M  V30 4553 H 440.609 -0.39017 -4.32042 0
M  V30 4554 H 441.28 0.775393 -5.46527 0
M  V30 4555 H 443.756 1.723 -3.7875 0
M  V30 4556 H 442.632 2.66971 -4.79602 0
M  V30 4557 H 442.893 3.13092 -3.12131 0
M  V30 4558 N 441.952 1.55251 0.271103 0
M  V30 4559 C 443.201 1.75151 1.00025 0
M  V30 4560 C 443.514 0.561041 1.87381 0
M  V30 4561 O 444.72 0.642506 2.63788 0
M  V30 4562 C 443.176 3.09999 1.82835 0
M  V30 4563 C 442.784 4.3662 1.00336 0
M  V30 4564 C 444.528 3.39249 2.55168 0
M  V30 4565 C 442.435 5.62506 1.82595 0
M  V30 4566 H 441.365 0.652877 0.377183 0
M  V30 4567 H 444.016 1.81708 0.255843 0
M  V30 4568 H 442.398 2.97485 2.61378 0
M  V30 4569 H 443.572 4.60055 0.261959 0
M  V30 4570 H 441.887 4.14527 0.394486 0
M  V30 4571 H 444.484 4.3051 3.1712 0
M  V30 4572 H 444.827 2.59467 3.2555 0
M  V30 4573 H 445.36 3.52869 1.83653 0
M  V30 4574 H 442.099 6.45041 1.16631 0
M  V30 4575 H 441.619 5.43211 2.54327 0
M  V30 4576 H 443.298 6.00875 2.39913 0
M  V30 4577 N 443.43 -0.535701 1.48216 0
M  V30 4578 C 444.677 -1.29183 1.55942 0
M  V30 4579 C 445.005 -1.93125 0.230857 0
M  V30 4580 O 444.26 -1.79556 -0.778331 0
M  V30 4581 C 444.559 -2.4068 2.64212 0
M  V30 4582 C 444.225 -1.94428 4.06827 0
M  V30 4583 C 442.887 -1.81532 4.45645 0
M  V30 4584 C 445.239 -1.59405 4.96225 0
M  V30 4585 C 442.567 -1.31939 5.71672 0
M  V30 4586 C 444.919 -1.11276 6.22736 0
M  V30 4587 C 443.583 -0.969924 6.60416 0
M  V30 4588 H 442.853 -0.472715 0.570632 0
M  V30 4589 H 445.5 -0.598437 1.81909 0
M  V30 4590 H 443.805 -3.15666 2.32083 0
M  V30 4591 H 445.502 -2.98822 2.67407 0
M  V30 4592 H 442.092 -2.05415 3.76168 0
M  V30 4593 H 446.276 -1.68231 4.66917 0
M  V30 4594 H 441.532 -1.19562 5.99596 0
M  V30 4595 H 445.706 -0.832453 6.91407 0
M  V30 4596 H 443.333 -0.583436 7.57958 0
M  V30 4597 N 444.908 -1.36708 -0.784132 0
M  V30 4598 C 446.185 -1.21776 -1.53069 0
M  V30 4599 C 446.565 0.193876 -2.10208 0
M  V30 4600 O 445.913 1.20012 -1.94446 0
M  V30 4601 C 446.123 -2.30395 -2.62143 0
M  V30 4602 C 447.471 -2.67325 -3.29882 0
M  V30 4603 O 448.495 -2.29478 -2.7243 0
M  V30 4604 O 447.354 -3.32485 -4.33724 0
M  V30 4605 H 444.448 -0.474459 -0.677361 0
M  V30 4606 H 446.994 -1.48454 -0.82216 0
M  V30 4607 H 445.766 -3.2498 -2.17953 0
M  V30 4608 H 445.389 -2.05112 -3.40609 0
M  V30 4609 N 446.386 1.0089 -1.21074 0
M  V30 4610 C 447.632 1.74866 -1.02712 0
M  V30 4611 C 447.965 1.89178 0.438787 0
M  V30 4612 O 447.24 1.42325 1.32567 0
M  V30 4613 C 447.523 3.16347 -1.72036 0
M  V30 4614 C 447.376 3.09782 -3.26121 0
M  V30 4615 C 448.695 4.15187 -1.45973 0
M  V30 4616 H 445.814 0.634736 -0.374539 0
M  V30 4617 H 448.456 1.17646 -1.49196 0
M  V30 4618 H 446.606 3.65201 -1.32517 0
M  V30 4619 H 448.278 2.68673 -3.74983 0
M  V30 4620 H 446.521 2.46982 -3.56626 0
M  V30 4621 H 447.192 4.09829 -3.6979 0
M  V30 4622 H 449.668 3.75022 -1.80272 0
M  V30 4623 H 448.544 5.12331 -1.96999 0
M  V30 4624 H 448.805 4.40386 -0.388924 0
M  V30 4625 N 447.864 1.01787 1.20321 0
M  V30 4626 C 448.827 0.593972 2.2137 0
M  V30 4627 C 449.827 -0.336553 1.57239 0
M  V30 4628 O 451.017 -0.125069 1.7375 0
M  V30 4629 C 448.149 -0.132433 3.40643 0
M  V30 4630 H 449.342 1.48791 2.60387 0
M  V30 4631 H 446.895 0.807803 1.33807 0
M  V30 4632 H 447.63 -1.04123 3.0713 0
M  V30 4633 H 447.415 0.53605 3.88418 0
M  V30 4634 H 448.905 -0.416314 4.1552 0
M  V30 4635 N 449.342 -1.36122 0.79427 0
M  V30 4636 C 450.292 -2.27373 0.169017 0
M  V30 4637 C 451.276 -1.4719 -0.649913 0
M  V30 4638 O 452.468 -1.69518 -0.50919 0
M  V30 4639 C 449.597 -3.36264 -0.691455 0
M  V30 4640 C 448.683 -4.2388 0.13653 0
M  V30 4641 N 449.074 -4.91519 1.19345 0
M  V30 4642 C 447.372 -4.45921 -0.0838499 0
M  V30 4643 C 448.073 -5.56369 1.6979 0
M  V30 4644 N 447.049 -5.34204 1.00634 0
M  V30 4645 H 450.851 -2.77154 0.977897 0
M  V30 4646 H 448.365 -1.49504 0.634208 0
M  V30 4647 H 450.362 -4.00572 -1.15534 0
M  V30 4648 H 449.022 -2.88037 -1.49883 0
M  V30 4649 H 450.033 -4.9334 1.57594 0
M  V30 4650 H 446.71 -4.08518 -0.861341 0
M  V30 4651 H 448.1 -6.20368 2.58055 0
M  V30 4652 N 450.82 -0.546701 -1.47814 0
M  V30 4653 C 451.768 0.220048 -2.31557 0
M  V30 4654 C 452.762 0.919472 -1.42275 0
M  V30 4655 O 453.968 0.841953 -1.59095 0
M  V30 4656 H 450.343 0.0898334 -0.746615 0
M  V30 4657 H 452.314 -0.505589 -2.94086 0
M  V30 4658 C 451.063 1.24353 -3.24702 0
M  V30 4659 H 450.386 0.714758 -3.93359 0
M  V30 4660 H 451.826 1.75112 -3.8615 0
M  V30 4661 C 450.285 2.28593 -2.47481 0
M  V30 4662 O 450.815 3.35334 -2.21165 0
M  V30 4663 N 449.021 2.02244 -2.08676 0
M  V30 4664 H 448.568 1.15455 -2.30278 0
M  V30 4665 H 448.526 2.72207 -1.57323 0
M  V30 4666 N 452.299 1.55045 -0.282633 0
M  V30 4667 C 453.71 1.85473 0.213655 0
M  V30 4668 C 454.061 1.20465 1.54863 0
M  V30 4669 O 453.186 0.495676 2.10647 0
M  V30 4670 C 453.781 3.36496 0.394445 0
M  V30 4671 C 452.34 3.67022 0.834961 0
M  V30 4672 C 451.487 2.77218 -0.0674081 0
M  V30 4673 H 454.438 1.50478 -0.504202 0
M  V30 4674 H 454.459 3.60007 1.23186 0
M  V30 4675 H 453.971 3.83782 -0.577326 0
M  V30 4676 H 452.072 3.25241 1.81794 0
M  V30 4677 H 452.185 4.74433 0.667075 0
M  V30 4678 H 450.549 2.5069 0.450196 0
M  V30 4679 H 451.332 3.2732 -1.0352 0
M  V30 4680 N 453.777 0.010035 1.57597 0
M  V30 4681 C 454.727 -0.986858 2.05536 0
M  V30 4682 C 455.711 -1.29711 0.952042 0
M  V30 4683 O 456.903 -1.28641 1.21575 0
M  V30 4684 C 454.032 -2.2756 2.57043 0
M  V30 4685 C 453.118 -1.99455 3.74271 0
M  V30 4686 N 453.509 -1.41546 4.85591 0
M  V30 4687 C 451.807 -2.29547 3.82393 0
M  V30 4688 C 452.508 -1.3014 5.66956 0
M  V30 4689 N 451.484 -1.79044 5.13268 0
M  V30 4690 H 455.286 -0.533778 2.89012 0
M  V30 4691 H 452.8 -0.195432 1.6122 0
M  V30 4692 H 454.797 -2.99829 2.89669 0
M  V30 4693 H 453.457 -2.73512 1.7499 0
M  V30 4694 H 454.468 -1.09294 5.06236 0
M  V30 4695 H 451.145 -2.78304 3.11213 0
M  V30 4696 H 452.535 -0.855237 6.66435 0
M  V30 4697 N 455.255 -1.55392 -0.262866 0
M  V30 4698 C 456.218 -1.88181 -1.30846 0
M  V30 4699 C 457.218 -0.757079 -1.41862 0
M  V30 4700 O 458.408 -1.02519 -1.40838 0
M  V30 4701 C 455.54 -2.09609 -2.68844 0
M  V30 4702 H 456.733 -2.81659 -1.02997 0
M  V30 4703 H 454.286 -1.48039 -0.501414 0
M  V30 4704 H 455.021 -1.18547 -3.01856 0
M  V30 4705 H 454.806 -2.91508 -2.62231 0
M  V30 4706 H 456.296 -2.36215 -3.44372 0
M  V30 4707 N 456.733 0.527833 -1.48498 0
M  V30 4708 C 457.696 1.61439 -1.62696 0
M  V30 4709 C 458.696 1.52824 -0.500136 0
M  V30 4710 O 459.886 1.56456 -0.765976 0
M  V30 4711 C 457.018 3.01063 -1.59918 0
M  V30 4712 H 458.211 1.50189 -2.59583 0
M  V30 4713 H 455.764 0.750055 -1.37127 0
M  V30 4714 H 456.499 3.17818 -0.645163 0
M  V30 4715 H 456.284 3.08725 -2.41726 0
M  V30 4716 H 457.774 3.80057 -1.73051 0
M  V30 4717 N 458.211 1.37122 0.776871 0
M  V30 4718 C 459.121 1.34651 1.9211 0
M  V30 4719 C 460.137 0.246824 1.7224 0
M  V30 4720 O 461.313 0.48134 1.95563 0
M  V30 4721 C 458.378 1.14748 3.2716 0
M  V30 4722 C 457.439 2.34308 3.5972 0
M  V30 4723 C 456.672 2.15345 4.88326 0
M  V30 4724 O 456.895 1.13507 5.58992 0
M  V30 4725 O 455.829 3.03414 5.1983 0
M  V30 4726 H 459.655 2.31013 1.97146 0
M  V30 4727 H 457.24 1.17799 0.918901 0
M  V30 4728 H 459.122 1.05616 4.0795 0
M  V30 4729 H 457.797 0.214562 3.22988 0
M  V30 4730 H 456.704 2.49011 2.79185 0
M  V30 4731 H 458.037 3.26149 3.68629 0
M  V30 4732 N 459.689 -1.00246 1.21608 0
M  V30 4733 C 460.919 -1.77373 1.05935 0
M  V30 4734 C 461.327 -1.85059 -0.393686 0
M  V30 4735 O 460.67 -1.31289 -1.28487 0
M  V30 4736 C 460.732 -3.22705 1.58435 0
M  V30 4737 C 460.396 -3.38591 3.06929 0
M  V30 4738 C 461.393 -3.2667 4.04454 0
M  V30 4739 C 459.078 -3.6395 3.46187 0
M  V30 4740 C 461.072 -3.39877 5.39224 0
M  V30 4741 C 458.759 -3.768 4.81108 0
M  V30 4742 C 459.757 -3.6477 5.77436 0
M  V30 4743 O 459.445 -3.77206 7.09909 0
M  V30 4744 H 459.177 -0.56419 0.372378 0
M  V30 4745 H 461.731 -1.26971 1.61454 0
M  V30 4746 H 459.961 -3.74255 0.973147 0
M  V30 4747 H 461.65 -3.81515 1.38568 0
M  V30 4748 H 462.416 -3.06999 3.75468 0
M  V30 4749 H 458.295 -3.72395 2.71741 0
M  V30 4750 H 461.839 -3.30404 6.14393 0
M  V30 4751 H 457.736 -3.95975 5.09779 0
M  V30 4752 H 458.504 -3.94138 7.17355 0
M  V30 4753 N 461.167 -1.02423 -1.1978 0
M  V30 4754 C 462.097 -0.62157 -2.25075 0
M  V30 4755 C 463.078 0.367148 -1.6609 0
M  V30 4756 O 464.263 0.250892 -1.92573 0
M  V30 4757 C 461.393 0.0331826 -3.47284 0
M  V30 4758 C 460.347 -0.877323 -4.18912 0
M  V30 4759 C 459.673 -0.0879296 -5.34628 0
M  V30 4760 C 460.973 -2.18892 -4.74219 0
M  V30 4761 H 462.667 -1.50179 -2.59011 0
M  V30 4762 H 460.213 -0.723547 -1.24502 0
M  V30 4763 H 462.166 0.326488 -4.20133 0
M  V30 4764 H 460.89 0.948164 -3.12534 0
M  V30 4765 H 459.549 -1.15475 -3.47938 0
M  V30 4766 H 459.197 0.828941 -4.96123 0
M  V30 4767 H 458.897 -0.694359 -5.83483 0
M  V30 4768 H 460.421 0.198743 -6.10276 0
M  V30 4769 H 461.835 -1.95746 -5.38847 0
M  V30 4770 H 460.232 -2.74686 -5.33542 0
M  V30 4771 H 461.302 -2.84674 -3.92541 0
M  V30 4772 N 462.645 1.35699 -0.801477 0
M  V30 4773 C 463.873 2.03157 -0.391768 0
M  V30 4774 C 464.288 1.60412 0.995668 0
M  V30 4775 O 463.645 0.799228 1.64069 0
M  V30 4776 C 463.696 3.58566 -0.459671 0
M  V30 4777 O 463.417 3.99756 -1.7924 0
M  V30 4778 C 464.918 4.4328 -0.0421205 0
M  V30 4779 H 462.138 0.651688 -0.159825 0
M  V30 4780 H 464.682 1.73426 -1.08368 0
M  V30 4781 H 462.837 3.86963 0.183939 0
M  V30 4782 H 463.251 4.94387 -1.75162 0
M  V30 4783 H 464.725 5.51821 -0.140754 0
M  V30 4784 H 465.202 4.27383 1.01196 0
M  V30 4785 H 465.808 4.20168 -0.658687 0
M  V30 4786 N 464.123 0.554532 1.47522 0
M  V30 4787 C 465.371 0.0294208 2.02079 0
M  V30 4788 C 465.692 -1.32411 1.43151 0
M  V30 4789 O 464.962 -1.863 0.605728 0
M  V30 4790 H 463.542 0.00788672 0.746958 0
M  V30 4791 H 466.204 0.723934 1.80956 0
M  V30 4792 H 465.3 -0.0606745 3.12041 0
M  V30 4793 N 465.601 -1.54893 0.290851 0
M  V30 4794 C 467.017 -1.59476 -0.0628432 0
M  V30 4795 C 467.217 -1.30795 -1.5328 0
M  V30 4796 O 466.273 -1.07644 -2.28406 0
M  V30 4797 C 467.586 -2.98928 0.325962 0
M  V30 4798 C 469.134 -3.11799 0.273882 0
M  V30 4799 C 469.609 -4.53544 0.637359 0
M  V30 4800 N 471.1 -4.59433 0.589507 0
M  V30 4801 C 471.835 -5.67164 0.84335 0
M  V30 4802 N 471.331 -6.82975 1.16263 0
M  V30 4803 N 473.124 -5.56786 0.771091 0
M  V30 4804 H 465.275 -1.71798 1.24896 0
M  V30 4805 H 467.538 -0.801879 0.505663 0
M  V30 4806 H 467.244 -3.24805 1.34887 0
M  V30 4807 H 467.118 -3.75793 -0.325441 0
M  V30 4808 H 469.505 -2.85677 -0.739765 0
M  V30 4809 H 469.586 -2.37112 0.959766 0
M  V30 4810 H 469.23 -4.80394 1.64877 0
M  V30 4811 H 469.16 -5.26553 -0.0704866 0
M  V30 4812 H 471.651 -3.76245 0.353252 0
M  V30 4813 H 471.964 -7.61048 1.34257 0
M  V30 4814 H 470.309 -6.84552 1.20057 0
M  V30 4815 H 473.5 -4.65187 0.521383 0
M  V30 4816 H 473.673 -6.40664 0.972295 0
M  V30 4817 N 467.08 -0.0183926 -1.57589 0
M  V30 4818 C 468.013 1.00148 -2.0505 0
M  V30 4819 C 468.991 1.32387 -0.944058 0
M  V30 4820 O 470.175 1.44237 -1.21358 0
M  V30 4821 C 467.302 2.32435 -2.46357 0
M  V30 4822 C 466.348 2.15731 -3.67916 0
M  V30 4823 S 467.181 1.46613 -5.15039 0
M  V30 4824 C 468.337 2.80293 -5.59631 0
M  V30 4825 H 468.57 0.597429 -2.91235 0
M  V30 4826 H 466.103 0.193002 -1.53189 0
M  V30 4827 H 468.061 3.0849 -2.70822 0
M  V30 4828 H 466.722 2.69975 -1.60537 0
M  V30 4829 H 465.915 3.13502 -3.9463 0
M  V30 4830 H 465.517 1.4782 -3.43548 0
M  V30 4831 H 467.809 3.76557 -5.63215 0
M  V30 4832 H 468.752 2.58256 -6.59325 0
M  V30 4833 H 469.16 2.85047 -4.87246 0
M  V30 4834 N 468.558 1.5553 0.254621 0
M  V30 4835 C 469.505 1.89666 1.31512 0
M  V30 4836 C 470.475 0.750057 1.482 0
M  V30 4837 O 471.66 1.00301 1.62309 0
M  V30 4838 C 468.8 2.19009 2.667 0
M  V30 4839 C 467.913 3.46435 2.58083 0
M  V30 4840 C 467.048 3.65386 3.85573 0
M  V30 4841 C 466.087 4.8644 3.71541 0
M  V30 4842 N 465.224 5.01952 4.90906 0
M  V30 4843 H 470.064 2.80109 1.017 0
M  V30 4844 H 467.601 1.38666 0.490938 0
M  V30 4845 H 469.559 2.34025 3.45381 0
M  V30 4846 H 468.189 1.31779 2.94676 0
M  V30 4847 H 467.241 3.39792 1.71013 0
M  V30 4848 H 468.553 4.35258 2.43622 0
M  V30 4849 H 467.707 3.80319 4.72697 0
M  V30 4850 H 466.446 2.74781 4.02922 0
M  V30 4851 H 465.451 4.71491 2.82801 0
M  V30 4852 H 466.676 5.78497 3.55694 0
M  V30 4853 H 464.622 4.14283 5.08631 0
M  V30 4854 H 464.539 5.84851 4.79046 0
M  V30 4855 H 465.807 5.21289 5.7955 0
M  V30 4856 N 470.036 -0.519951 1.48776 0
M  V30 4857 C 470.999 -1.60574 1.6355 0
M  V30 4858 C 471.999 -1.52557 0.508234 0
M  V30 4859 O 473.189 -1.56047 0.774262 0
M  V30 4860 C 470.321 -3.00211 1.61512 0
M  V30 4861 H 471.514 -1.4881 2.60376 0
M  V30 4862 H 469.067 -0.742772 1.37523 0
M  V30 4863 H 469.802 -3.17471 0.662009 0
M  V30 4864 H 469.587 -3.07439 2.43359 0
M  V30 4865 H 471.077 -3.79134 1.75064 0
M  V30 4866 N 471.514 -1.37532 -0.769588 0
M  V30 4867 C 472.444 -1.36172 -1.89682 0
M  V30 4868 C 473.425 -0.23001 -1.68538 0
M  V30 4869 O 474.61 -0.43069 -1.89364 0
M  V30 4870 C 471.74 -1.1701 -3.26995 0
M  V30 4871 C 470.694 -2.27216 -3.62708 0
M  V30 4872 C 470.02 -1.93174 -4.98586 0
M  V30 4873 C 471.32 -3.6941 -3.69234 0
M  V30 4874 H 473.014 -2.30499 -1.91078 0
M  V30 4875 H 470.56 -1.10953 -0.917902 0
M  V30 4876 H 472.513 -1.14688 -4.05493 0
M  V30 4877 H 471.237 -0.191395 -3.26039 0
M  V30 4878 H 469.896 -2.28697 -2.86519 0
M  V30 4879 H 469.544 -0.938281 -4.94171 0
M  V30 4880 H 469.244 -2.66973 -5.23449 0
M  V30 4881 H 470.768 -1.92443 -5.79481 0
M  V30 4882 H 472.182 -3.70047 -4.37879 0
M  V30 4883 H 470.579 -4.4228 -4.05597 0
M  V30 4884 H 471.649 -4.0288 -2.69844 0
M  V30 4885 N 472.992 0.995999 -1.22138 0
M  V30 4886 C 474.403 1.54961 -1.04135 0
M  V30 4887 C 474.754 1.92159 0.396147 0
M  V30 4888 O 473.879 1.74435 1.28069 0
M  V30 4889 C 474.474 2.81581 -1.88408 0
M  V30 4890 C 473.033 3.33396 -1.74712 0
M  V30 4891 C 472.18 2.06509 -1.85066 0
M  V30 4892 H 475.131 0.817436 -1.36028 0
M  V30 4893 H 475.152 3.53822 -1.39966 0
M  V30 4894 H 474.664 2.54476 -2.93025 0
M  V30 4895 H 472.765 3.65416 -0.728159 0
M  V30 4896 H 472.878 4.04208 -2.57202 0
M  V30 4897 H 471.242 2.19925 -1.28472 0
M  V30 4898 H 472.025 1.81804 -2.91208 0
M  V30 4899 N 474.47 1.03057 1.19235 0
M  V30 4900 C 475.417 0.612832 2.22515 0
M  V30 4901 C 476.387 -0.374224 1.61829 0
M  V30 4902 O 477.572 -0.270501 1.88873 0
M  V30 4903 C 474.712 -0.028475 3.45088 0
M  V30 4904 C 473.825 1.00483 4.20151 0
M  V30 4905 C 472.96 0.333102 5.30155 0
M  V30 4906 C 471.999 1.3522 5.96977 0
M  V30 4907 N 471.136 0.70616 6.9854 0
M  V30 4908 H 475.976 1.49812 2.57605 0
M  V30 4909 H 473.513 0.749658 1.26564 0
M  V30 4910 H 475.471 -0.417548 4.15105 0
M  V30 4911 H 474.101 -0.877334 3.10649 0
M  V30 4912 H 473.153 1.51194 3.49062 0
M  V30 4913 H 474.465 1.77929 4.65986 0
M  V30 4914 H 473.619 -0.110725 6.06599 0
M  V30 4915 H 472.358 -0.473547 4.85396 0
M  V30 4916 H 471.363 1.80627 5.19282 0
M  V30 4917 H 472.588 2.16037 6.4382 0
M  V30 4918 H 470.534 -0.0803667 6.55951 0
M  V30 4919 H 470.451 1.41848 7.42573 0
M  V30 4920 H 471.719 0.286391 7.78974 0
M  V30 4921 N 475.948 -1.35272 0.808662 0
M  V30 4922 C 476.896 -2.31663 0.208606 0
M  V30 4923 C 477.89 -1.56731 -0.642778 0
M  V30 4924 O 479.096 -1.71843 -0.53571 0
M  V30 4925 H 475.471 -0.750421 0.0486993 0
M  V30 4926 H 477.442 -2.79814 1.03666 0
M  V30 4927 C 476.191 -3.42008 -0.626573 0
M  V30 4928 H 475.514 -3.99795 0.0192103 0
M  V30 4929 H 476.954 -4.11727 -1.01278 0
M  V30 4930 C 475.413 -2.85226 -1.79298 0
M  V30 4931 O 475.943 -2.78945 -2.89055 0
M  V30 4932 N 474.149 -2.42245 -1.60516 0
M  V30 4933 H 473.696 -2.47554 -0.712375 0
M  V30 4934 H 473.654 -2.04603 -2.38715 0
M  V30 4935 N 477.426 -0.562348 -1.47226 0
M  V30 4936 C 478.674 -0.0401371 -2.0206 0
M  V30 4937 C 478.995 1.3165 -1.43852 0
M  V30 4938 O 478.265 1.85976 -0.615599 0
M  V30 4939 H 476.845 -0.0118479 -0.746906 0
M  V30 4940 H 479.507 -0.73352 -1.8057 0
M  V30 4941 H 478.603 0.0441254 -3.12069 0
M  V30 4942 N 478.904 1.54736 -0.299062 0
M  V30 4943 C 480.32 1.59507 0.0543849 0
M  V30 4944 C 480.52 1.31606 1.52585 0
M  V30 4945 O 479.576 1.08853 2.27832 0
M  V30 4946 C 480.889 2.98751 -0.34181 0
M  V30 4947 C 482.437 3.1165 -0.290414 0
M  V30 4948 C 482.912 4.53199 -0.661402 0
M  V30 4949 N 484.403 4.59114 -0.613863 0
M  V30 4950 C 485.138 5.66709 -0.873417 0
M  V30 4951 N 484.634 6.82349 -1.19884 0
M  V30 4952 N 486.427 5.56369 -0.800608 0
M  V30 4953 H 478.578 1.71133 -1.25806 0
M  V30 4954 H 480.841 0.799186 -0.509908 0
M  V30 4955 H 480.547 3.24085 -1.36608 0
M  V30 4956 H 480.421 3.75961 0.305508 0
M  V30 4957 H 482.808 2.86066 0.724605 0
M  V30 4958 H 482.889 2.366 -0.972327 0
M  V30 4959 H 482.533 4.79513 -1.67422 0
M  V30 4960 H 482.463 5.26583 0.0425612 0
M  V30 4961 H 484.954 3.76053 -0.3732 0
M  V30 4962 H 485.267 7.60326 -1.38291 0
M  V30 4963 H 483.612 6.83906 -1.23685 0
M  V30 4964 H 486.803 4.64904 -0.546045 0
M  V30 4965 H 486.976 6.40139 -1.00626 0
M  V30 4966 N 480.382 0.0267497 1.57577 0
M  V30 4967 C 481.628 -0.653371 1.91987 0
M  V30 4968 C 481.961 -1.71915 0.903263 0
M  V30 4969 O 481.236 -1.94358 -0.0743387 0
M  V30 4970 C 481.519 -1.272 3.36886 0
M  V30 4971 C 481.372 -0.215938 4.49281 0
M  V30 4972 C 482.691 -2.19069 3.81703 0
M  V30 4973 H 479.81 -0.236047 0.698177 0
M  V30 4974 H 482.452 0.0835236 1.89816 0
M  V30 4975 H 480.602 -1.90005 3.38866 0
M  V30 4976 H 482.274 0.41449 4.59434 0
M  V30 4977 H 480.517 0.458855 4.31366 0
M  V30 4978 H 481.188 -0.688347 5.47691 0
M  V30 4979 H 483.664 -1.66253 3.81444 0
M  V30 4980 H 482.54 -2.59307 4.83788 0
M  V30 4981 H 482.801 -3.08087 3.17072 0
M  V30 4982 N 481.861 -1.55662 -0.24637 0
M  V30 4983 C 482.791 -1.93377 -1.30873 0
M  V30 4984 C 483.772 -0.798773 -1.50179 0
M  V30 4985 O 484.957 -1.0591 -1.62778 0
M  V30 4986 C 482.087 -2.22893 -2.66338 0
M  V30 4987 C 481.041 -3.38649 -2.61727 0
M  V30 4988 C 480.367 -3.53708 -4.00992 0
M  V30 4989 C 481.667 -4.74323 -2.18666 0
M  V30 4990 H 483.361 -2.82363 -0.995552 0
M  V30 4991 H 480.907 -1.35854 -0.477464 0
M  V30 4992 H 482.86 -2.47866 -3.40794 0
M  V30 4993 H 481.584 -1.30733 -2.99293 0
M  V30 4994 H 480.243 -3.13685 -1.89729 0
M  V30 4995 H 479.891 -2.58967 -4.31214 0
M  V30 4996 H 479.591 -4.31551 -3.98795 0
M  V30 4997 H 481.115 -3.81003 -4.77147 0
M  V30 4998 H 482.529 -4.98665 -2.82854 0
M  V30 4999 H 480.926 -5.55273 -2.27579 0
M  V30 5000 H 481.996 -4.71349 -1.13834 0
M  V30 5001 N 483.339 0.512053 -1.4905 0
M  V30 5002 C 484.302 1.59704 -1.64399 0
M  V30 5003 C 485.302 1.52285 -0.516317 0
M  V30 5004 O 486.492 1.55635 -0.782527 0
M  V30 5005 C 483.624 2.9935 -1.63102 0
M  V30 5006 H 484.817 1.47428 -2.61161 0
M  V30 5007 H 482.37 0.735469 -1.37915 0
M  V30 5008 H 483.105 3.17116 -0.678836 0
M  V30 5009 H 482.89 3.06144 -2.44986 0
M  V30 5010 H 484.38 3.782 -1.77072 0
M  V30 5011 N 484.817 1.37938 0.762283 0
M  V30 5012 C 486.063 1.33866 1.52341 0
M  V30 5013 C 486.396 -0.0738961 1.94059 0
M  V30 5014 O 485.671 -1.03326 1.64785 0
M  V30 5015 C 485.954 2.28644 2.78197 0
M  V30 5016 C 485.807 3.78722 2.42672 0
M  V30 5017 C 487.126 2.21702 3.80179 0
M  V30 5018 H 484.245 0.487593 0.55265 0
M  V30 5019 H 486.887 1.68717 0.873767 0
M  V30 5020 H 485.037 1.99055 3.33631 0
M  V30 5021 H 486.709 4.18948 1.93081 0
M  V30 5022 H 484.952 3.96827 1.75244 0
M  V30 5023 H 485.623 4.40486 3.3268 0
M  V30 5024 H 488.099 2.47805 3.34263 0
M  V30 5025 H 486.975 2.90143 4.65949 0
M  V30 5026 H 487.236 1.21301 4.25133 0
M  V30 5027 N 486.295 -0.989507 1.22664 0
M  V30 5028 C 487.544 -1.72375 1.04737 0
M  V30 5029 C 487.857 -1.91096 -0.417316 0
M  V30 5030 O 489.063 -2.6188 -0.716334 0
M  V30 5031 C 487.519 -3.10161 1.82561 0
M  V30 5032 C 487.127 -2.99358 3.333 0
M  V30 5033 C 488.871 -3.87607 1.73093 0
M  V30 5034 C 486.778 -4.32319 4.03552 0
M  V30 5035 H 485.708 -0.646326 0.388302 0
M  V30 5036 H 488.359 -1.10437 1.46546 0
M  V30 5037 H 486.741 -3.728 1.33552 0
M  V30 5038 H 487.915 -2.45863 3.89728 0
M  V30 5039 H 486.23 -2.35392 3.43481 0
M  V30 5040 H 488.827 -4.86025 2.22899 0
M  V30 5041 H 489.17 -4.10509 0.691976 0
M  V30 5042 H 489.703 -3.31652 2.19663 0
M  V30 5043 H 486.442 -4.14616 5.07714 0
M  V30 5044 H 485.962 -4.85714 3.51911 0
M  V30 5045 H 487.641 -5.01051 4.09337 0
M  V30 5046 N 487.773 -1.03688 -1.18687 0
M  V30 5047 C 489.021 -0.736572 -1.88199 0
M  V30 5048 C 489.342 0.737665 -1.80509 0
M  V30 5049 O 488.612 1.53204 -1.22088 0
M  V30 5050 H 487.192 -0.269466 -0.696704 0
M  V30 5051 H 489.854 -1.31282 -1.44052 0
M  V30 5052 H 488.95 -1.03802 -2.94332 0
M  V30 5053 N 489.251 1.34841 -0.815825 0
M  V30 5054 C 490.184 2.27504 -0.178062 0
M  V30 5055 C 491.162 1.48542 0.661373 0
M  V30 5056 O 492.346 1.77779 0.626653 0
M  V30 5057 C 489.473 3.30246 0.752002 0
M  V30 5058 C 488.519 4.26499 -0.00899172 0
M  V30 5059 S 489.352 5.18169 -1.35134 0
M  V30 5060 C 490.508 6.24449 -0.42596 0
M  V30 5061 H 490.741 2.81248 -0.963684 0
M  V30 5062 H 488.274 1.41781 -0.611355 0
M  V30 5063 H 490.232 3.89933 1.28308 0
M  V30 5064 H 488.893 2.75363 1.51109 0
M  V30 5065 H 488.086 4.99146 0.697766 0
M  V30 5066 H 487.688 3.7103 -0.470396 0
M  V30 5067 H 489.98 6.76404 0.385234 0
M  V30 5068 H 490.923 6.99156 -1.1219 0
M  V30 5069 H 491.331 5.64497 -0.0175461 0
M  V30 5070 N 490.729 0.570148 1.46925 0
M  V30 5071 C 491.659 -0.158274 2.32963 0
M  V30 5072 C 492.64 -0.896093 1.44583 0
M  V30 5073 O 493.825 -0.874022 1.7342 0
M  V30 5074 C 490.955 -1.18055 3.26619 0
M  V30 5075 C 489.909 -0.558379 4.24342 0
M  V30 5076 C 489.235 -1.68623 5.07415 0
M  V30 5077 C 490.535 0.496295 5.19937 0
M  V30 5078 H 492.229 0.560046 2.94115 0
M  V30 5079 H 489.775 0.270775 1.41431 0
M  V30 5080 H 491.728 -1.69841 3.85658 0
M  V30 5081 H 490.452 -1.92899 2.63548 0
M  V30 5082 H 489.111 -0.0617157 3.66548 0
M  V30 5083 H 488.759 -2.42402 4.40738 0
M  V30 5084 H 488.459 -1.27564 5.73586 0
M  V30 5085 H 489.983 -2.20709 5.69315 0
M  V30 5086 H 491.397 0.0640052 5.73264 0
M  V30 5087 H 489.794 0.82649 5.94381 0
M  V30 5088 H 490.864 1.38735 4.6463 0
M  V30 5089 N 492.207 -1.54576 0.307264 0
M  V30 5090 C 493.157 -2.20467 -0.581249 0
M  V30 5091 C 494.141 -1.17972 -1.09414 0
M  V30 5092 O 495.333 -1.43667 -1.03387 0
M  V30 5093 C 492.462 -2.95369 -1.74963 0
M  V30 5094 C 491.548 -4.05186 -1.25241 0
M  V30 5095 N 491.939 -5.03577 -0.47364 0
M  V30 5096 C 490.237 -4.18841 -1.53259 0
M  V30 5097 C 490.938 -5.81328 -0.208083 0
M  V30 5098 N 489.914 -5.37834 -0.789651 0
M  V30 5099 H 493.716 -2.93892 0.0212221 0
M  V30 5100 H 491.23 -1.62011 0.112325 0
M  V30 5101 H 493.227 -3.41046 -2.39777 0
M  V30 5102 H 491.887 -2.23461 -2.35574 0
M  V30 5103 H 492.898 -5.17766 -0.117963 0
M  V30 5104 H 489.575 -3.58141 -2.14573 0
M  V30 5105 H 490.965 -6.706 0.417793 0
M  V30 5106 N 493.685 -0.035106 -1.57561 0
M  V30 5107 C 494.962 0.681212 -1.83354 0
M  V30 5108 C 495.342 1.89986 -0.920252 0
M  V30 5109 O 494.69 2.28489 0.0226815 0
M  V30 5110 C 494.9 1.05376 -3.32712 0
M  V30 5111 C 496.248 1.44286 -3.99333 0
M  V30 5112 O 497.272 1.14656 -3.37242 0
M  V30 5113 O 496.131 1.99518 -5.08778 0
M  V30 5114 H 493.225 0.334741 -0.756226 0
M  V30 5115 H 495.771 -0.0632448 -1.69582 0
M  V30 5116 H 494.543 0.186668 -3.90854 0
M  V30 5117 H 494.166 1.85619 -3.51613 0
M  V30 5118 N 495.163 1.55791 0.238111 0
M  V30 5119 C 496.11 1.9105 1.29493 0
M  V30 5120 C 497.08 0.765733 1.47397 0
M  V30 5121 O 498.265 1.02017 1.61236 0
M  V30 5122 C 495.405 2.21826 2.64362 0
M  V30 5123 C 494.518 3.49153 2.54394 0
M  V30 5124 C 493.653 3.69455 3.81676 0
M  V30 5125 C 492.692 4.90353 3.66361 0
M  V30 5126 N 491.829 5.07131 4.85554 0
M  V30 5127 H 496.669 2.81172 0.987233 0
M  V30 5128 H 494.206 1.39179 0.476203 0
M  V30 5129 H 496.164 2.37675 3.4288 0
M  V30 5130 H 494.794 1.34897 2.93262 0
M  V30 5131 H 493.846 3.41587 1.67399 0
M  V30 5132 H 495.158 4.37818 2.38991 0
M  V30 5133 H 494.312 3.85311 4.68636 0
M  V30 5134 H 493.051 2.7904 3.99985 0
M  V30 5135 H 492.056 4.74464 2.77784 0
M  V30 5136 H 493.281 5.82237 3.49538 0
M  V30 5137 H 491.227 4.19654 5.04209 0
M  V30 5138 H 491.144 5.89899 4.72816 0
M  V30 5139 H 492.412 5.27407 5.73988 0
M  V30 5140 N 496.642 -0.504142 1.49319 0
M  V30 5141 C 497.919 -1.26548 1.49147 0
M  V30 5142 C 498.299 -2.09977 0.21744 0
M  V30 5143 O 497.647 -2.14028 -0.800269 0
M  V30 5144 C 497.857 -2.12489 2.76857 0
M  V30 5145 C 499.205 -2.7178 3.26222 0
M  V30 5146 O 500.229 -2.22758 2.77952 0
M  V30 5147 O 499.088 -3.61015 4.10281 0
M  V30 5148 H 496.182 -0.572495 0.596806 0
M  V30 5149 H 498.728 -0.51867 1.61579 0
M  V30 5150 H 497.5 -1.50796 3.61077 0
M  V30 5151 H 497.123 -2.94368 2.6727 0
M  V30 5152 N 498.12 -1.38341 -0.754957 0
M  V30 5153 C 499.369 -1.33791 -1.5094 0
M  V30 5154 C 499.682 0.0699267 -1.95475 0
M  V30 5155 O 500.888 0.237956 -2.70455 0
M  V30 5156 C 499.344 -2.34934 -2.72643 0
M  V30 5157 C 498.952 -3.81332 -2.35138 0
M  V30 5158 C 500.696 -2.39425 -3.50536 0
M  V30 5159 C 498.603 -4.74164 -3.53444 0
M  V30 5160 H 497.533 -0.497314 -0.566741 0
M  V30 5161 H 500.184 -1.63888 -0.825403 0
M  V30 5162 H 498.566 -1.97878 -3.43017 0
M  V30 5163 H 499.74 -4.27319 -1.7244 0
M  V30 5164 H 498.055 -3.79946 -1.70382 0
M  V30 5165 H 500.652 -3.0598 -4.38498 0
M  V30 5166 H 500.995 -1.41278 -3.91594 0
M  V30 5167 H 501.528 -2.75274 -2.87174 0
M  V30 5168 H 498.267 -5.73501 -3.17453 0
M  V30 5169 H 497.787 -4.3287 -4.15191 0
M  V30 5170 H 499.466 -4.92111 -4.20043 0
M  V30 5171 N 499.598 0.982988 -1.23187 0
M  V30 5172 C 500.561 2.05649 -1.01198 0
M  V30 5173 C 501.561 1.6078 0.0252464 0
M  V30 5174 O 502.751 1.72878 -0.214243 0
M  V30 5175 C 499.883 3.36744 -0.530656 0
M  V30 5176 H 501.076 2.2659 -1.96461 0
M  V30 5177 H 498.629 1.15602 -1.05195 0
M  V30 5178 H 499.364 3.21492 0.425873 0
M  V30 5179 H 499.149 3.7065 -1.2791 0
M  V30 5180 H 500.639 4.15705 -0.397366 0
M  V30 5181 N 501.076 1.04316 1.18135 0
M  V30 5182 C 502.324 0.746542 1.87806 0
M  V30 5183 C 502.645 -0.728082 1.80898 0
M  V30 5184 O 501.915 -1.52554 1.22899 0
M  V30 5185 H 500.495 0.273157 0.695265 0
M  V30 5186 H 503.157 1.32044 1.43354 0
M  V30 5187 H 502.253 1.05362 2.93778 0
M  V30 5188 N 502.554 -1.34406 0.822964 0
M  V30 5189 C 503.782 -2.02508 0.424039 0
M  V30 5190 C 504.197 -1.61975 -0.970022 0
M  V30 5191 O 503.554 -0.825228 -1.62777 0
M  V30 5192 C 503.605 -3.57789 0.516657 0
M  V30 5193 O 503.326 -3.96853 1.85577 0
M  V30 5194 C 504.827 -4.43157 0.112637 0
M  V30 5195 H 502.047 -0.649063 0.170173 0
M  V30 5196 H 504.591 -1.7168 1.11113 0
M  V30 5197 H 502.746 -3.87207 -0.122353 0
M  V30 5198 H 503.16 -4.91538 1.83005 0
M  V30 5199 H 504.634 -5.51527 0.228526 0
M  V30 5200 H 505.111 -4.28939 -0.943837 0
M  V30 5201 H 505.717 -4.19067 0.725449 0
M  V30 5202 N 504.032 -0.577932 -1.46621 0
M  V30 5203 C 504.962 0.145917 -2.33044 0
M  V30 5204 C 505.943 0.888412 -1.45056 0
M  V30 5205 O 507.128 0.864812 -1.73881 0
M  V30 5206 C 504.258 1.16322 -3.27241 0
M  V30 5207 C 503.212 0.535868 -4.24632 0
M  V30 5208 C 502.538 1.65929 -5.08303 0
M  V30 5209 C 503.838 -0.523861 -5.19666 0
M  V30 5210 H 505.532 -0.575636 -2.93814 0
M  V30 5211 H 503.078 -0.278272 -1.41286 0
M  V30 5212 H 505.031 1.67793 -3.86553 0
M  V30 5213 H 503.755 1.91498 -2.64567 0
M  V30 5214 H 502.414 0.0422759 -3.66576 0
M  V30 5215 H 502.062 2.40061 -4.42018 0
M  V30 5216 H 501.762 1.2452 -5.74255 0
M  V30 5217 H 503.286 2.17686 -5.70478 0
M  V30 5218 H 504.7 -0.0944059 -5.73222 0
M  V30 5219 H 503.097 -0.858 -5.93935 0
M  V30 5220 H 504.167 -1.41197 -4.63887 0
M  V30 5221 N 505.51 1.54411 -0.315457 0
M  V30 5222 C 506.473 2.22713 0.54142 0
M  V30 5223 C 507.473 1.2179 1.04995 0
M  V30 5224 O 508.663 1.46426 0.943667 0
M  V30 5225 C 505.795 2.92485 1.75116 0
M  V30 5226 H 506.988 2.99849 -0.0555508 0
M  V30 5227 H 504.541 1.56159 -0.0664453 0
M  V30 5228 H 505.276 2.19466 2.38758 0
M  V30 5229 H 505.061 3.66483 1.39401 0
M  V30 5230 H 506.551 3.44548 2.35959 0
M  V30 5231 N 506.988 0.0434614 1.5754 0
M  V30 5232 C 508.234 -0.627109 1.93491 0
M  V30 5233 C 508.589 -1.68904 0.921362 0
M  V30 5234 O 507.882 -1.91504 -0.0605799 0
M  V30 5235 C 508.076 -1.2738 3.3393 0
M  V30 5236 C 507.905 -0.27603 4.48852 0
M  V30 5237 C 506.675 0.129244 5.05135 0
M  V30 5238 C 508.873 0.475462 5.12098 0
M  V30 5239 N 506.855 1.12068 6.03584 0
M  V30 5240 C 508.226 1.32021 6.05781 0
M  V30 5241 C 510.281 0.534611 4.95022 0
M  V30 5242 C 508.984 2.2188 6.84223 0
M  V30 5243 C 511.01 1.42059 5.74085 0
M  V30 5244 C 510.372 2.25309 6.67394 0
M  V30 5245 H 506.471 -0.201354 0.755633 0
M  V30 5246 H 509.055 0.113991 1.94366 0
M  V30 5247 H 507.226 -1.98496 3.33847 0
M  V30 5248 H 508.958 -1.90255 3.57191 0
M  V30 5249 H 505.713 -0.248145 4.72949 0
M  V30 5250 H 506.137 1.61306 6.57502 0
M  V30 5251 H 510.779 -0.0947817 4.22694 0
M  V30 5252 H 508.497 2.85868 7.55847 0
M  V30 5253 H 512.083 1.47083 5.62901 0
M  V30 5254 H 510.963 2.92754 7.27506 0
M  V30 5255 N 508.466 -1.55915 -0.229846 0
M  V30 5256 C 509.396 -1.94754 -1.28815 0
M  V30 5257 C 510.377 -0.814657 -1.49323 0
M  V30 5258 O 511.562 -1.07631 -1.61645 0
M  V30 5259 C 508.692 -2.25705 -2.63959 0
M  V30 5260 C 507.646 -3.41406 -2.5812 0
M  V30 5261 C 506.972 -3.57941 -3.97218 0
M  V30 5262 C 508.272 -4.76616 -2.13623 0
M  V30 5263 H 509.966 -2.83404 -0.965547 0
M  V30 5264 H 507.512 -1.36353 -0.463028 0
M  V30 5265 H 509.465 -2.51467 -3.38146 0
M  V30 5266 H 508.189 -1.339 -2.9789 0
M  V30 5267 H 506.848 -3.1568 -1.86391 0
M  V30 5268 H 506.496 -2.63526 -4.28443 0
M  V30 5269 H 506.196 -4.35757 -3.94195 0
M  V30 5270 H 507.72 -3.86042 -4.73079 0
M  V30 5271 H 509.134 -5.01637 -2.77549 0
M  V30 5272 H 507.531 -5.57655 -2.21677 0
M  V30 5273 H 508.601 -4.7253 -1.08829 0
M  V30 5274 N 509.944 0.496216 -1.49584 0
M  V30 5275 C 510.891 1.59722 -1.66606 0
M  V30 5276 C 511.861 1.58158 -0.507477 0
M  V30 5277 O 513.046 1.76072 -0.735076 0
M  V30 5278 C 510.186 2.97844 -1.74308 0
M  V30 5279 C 509.299 3.09388 -3.01502 0
M  V30 5280 C 508.434 4.38271 -3.00153 0
M  V30 5281 C 507.473 4.43466 -4.21906 0
M  V30 5282 N 506.61 5.63784 -4.1844 0
M  V30 5283 H 511.45 1.44515 -2.60613 0
M  V30 5284 H 508.987 0.703048 -1.29212 0
M  V30 5285 H 510.945 3.77907 -1.76754 0
M  V30 5286 H 509.575 3.11743 -0.837619 0
M  V30 5287 H 508.627 2.22357 -3.08645 0
M  V30 5288 H 509.939 3.09085 -3.91494 0
M  V30 5289 H 509.093 5.2666 -3.01188 0
M  V30 5290 H 507.832 4.41146 -2.07947 0
M  V30 5291 H 506.837 3.53478 -4.21109 0
M  V30 5292 H 508.062 4.42303 -5.1531 0
M  V30 5293 H 506.008 5.67491 -3.29074 0
M  V30 5294 H 505.925 5.65118 -5.02173 0
M  V30 5295 H 507.193 6.54367 -4.23585 0
M  V30 5296 N 511.423 1.38739 0.74761 0
M  V30 5297 C 512.648 1.38702 1.54197 0
M  V30 5298 C 513.073 -0.019664 1.8809 0
M  V30 5299 O 512.431 -1.00333 1.51006 0
M  V30 5300 C 512.479 2.25492 2.814 0
M  V30 5301 O 511.583 1.67613 3.76802 0
M  V30 5302 H 510.924 0.472863 0.466151 0
M  V30 5303 H 513.454 1.82577 0.923413 0
M  V30 5304 H 513.464 2.39561 3.30264 0
M  V30 5305 H 512.139 3.27727 2.56062 0
M  V30 5306 H 510.716 1.62718 3.35526 0
M  V30 5307 N 512.901 -0.976442 1.23707 0
M  V30 5308 C 514.147 -1.72081 1.07312 0
M  V30 5309 C 514.48 -1.90275 -0.388476 0
M  V30 5310 O 513.755 -1.4579 -1.28746 0
M  V30 5311 C 514.038 -3.11675 1.80363 0
M  V30 5312 C 513.891 -3.01027 3.3422 0
M  V30 5313 C 515.21 -4.1117 1.5693 0
M  V30 5314 H 512.329 -0.624583 0.391236 0
M  V30 5315 H 514.971 -1.13649 1.52263 0
M  V30 5316 H 513.121 -3.61559 1.42153 0
M  V30 5317 H 514.793 -2.58637 3.81975 0
M  V30 5318 H 513.036 -2.3744 3.63049 0
M  V30 5319 H 513.707 -3.9988 3.80525 0
M  V30 5320 H 516.183 -3.7011 1.90151 0
M  V30 5321 H 515.059 -5.06928 2.10513 0
M  V30 5322 H 515.32 -4.392 0.505548 0
M  V30 5323 N 514.379 -1.04941 -1.1758 0
M  V30 5324 C 515.625 -0.759112 -1.88057 0
M  V30 5325 C 515.958 0.711918 -1.8068 0
M  V30 5326 O 515.233 1.52035 -1.21308 0
M  V30 5327 C 515.516 -1.237 -3.38187 0
M  V30 5328 C 515.369 -2.77078 -3.54327 0
M  V30 5329 C 516.688 -0.834014 -4.32125 0
M  V30 5330 H 513.807 -0.277237 -0.682868 0
M  V30 5331 H 516.449 -1.30296 -1.38286 0
M  V30 5332 H 514.599 -0.774337 -3.80705 0
M  V30 5333 H 516.271 -3.31449 -3.20842 0
M  V30 5334 H 514.514 -3.16477 -2.96689 0
M  V30 5335 H 515.185 -3.05577 -4.59703 0
M  V30 5336 H 517.661 -1.23228 -3.97434 0
M  V30 5337 H 516.537 -1.19603 -5.35711 0
M  V30 5338 H 516.798 0.262195 -4.41322 0
M  V30 5339 N 515.857 1.33968 -0.830081 0
M  V30 5340 C 517.134 1.92554 -0.343858 0
M  V30 5341 C 517.514 1.7573 1.16971 0
M  V30 5342 O 516.862 1.14035 1.98011 0
M  V30 5343 C 517.072 3.40147 -0.781073 0
M  V30 5344 C 518.42 4.17299 -0.78402 0
M  V30 5345 O 519.444 3.48762 -0.724112 0
M  V30 5346 O 518.303 5.39631 -0.863739 0
M  V30 5347 H 515.397 0.821469 -0.0954827 0
M  V30 5348 H 517.943 1.42897 -0.915348 0
M  V30 5349 H 516.715 3.46225 -1.82329 0
M  V30 5350 H 516.338 3.97166 -0.18567 0
M  V30 5351 N 517.335 0.585699 1.46312 0
M  V30 5352 C 518.612 0.00542031 1.95599 0
M  V30 5353 C 518.992 -1.45619 1.52834 0
M  V30 5354 O 518.34 -2.14759 0.780446 0
M  V30 5355 C 518.55 0.180601 3.48532 0
M  V30 5356 C 519.898 0.049979 4.24571 0
M  V30 5357 O 520.922 0.109589 3.56031 0
M  V30 5358 O 519.781 -0.0832226 5.46437 0
M  V30 5359 H 516.875 -0.0481281 0.825598 0
M  V30 5360 H 519.421 0.654227 1.56582 0
M  V30 5361 H 518.193 1.19657 3.72556 0
M  V30 5362 H 517.816 -0.504498 3.94386 0
M  V30 5363 N 518.813 -1.54241 0.323641 0
M  V30 5364 C 520.059 -2.01572 -0.272089 0
M  V30 5365 C 520.414 -1.20774 -1.49771 0
M  V30 5366 O 519.707 -0.281821 -1.89516 0
M  V30 5367 C 519.901 -3.5129 -0.658031 0
M  V30 5368 C 519.73 -4.46582 0.528645 0
M  V30 5369 C 518.5 -4.94737 1.02777 0
M  V30 5370 C 520.698 -4.95416 1.38086 0
M  V30 5371 N 518.68 -5.73933 2.17885 0
M  V30 5372 C 520.051 -5.72537 2.3791 0
M  V30 5373 C 522.106 -4.77559 1.40861 0
M  V30 5374 C 520.809 -6.33702 3.40314 0
M  V30 5375 C 522.835 -5.39559 2.42136 0
M  V30 5376 C 522.197 -6.16532 3.40688 0
M  V30 5377 H 518.296 -0.779425 -0.0634072 0
M  V30 5378 H 520.88 -1.8922 0.458697 0
M  V30 5379 H 519.051 -3.63888 -1.35795 0
M  V30 5380 H 520.783 -3.85388 -1.23524 0
M  V30 5381 H 517.538 -4.69796 0.599046 0
M  V30 5382 H 517.962 -6.18209 2.75947 0
M  V30 5383 H 522.604 -4.17611 0.660352 0
M  V30 5384 H 520.322 -6.9277 4.16047 0
M  V30 5385 H 523.908 -5.27659 2.45086 0
M  V30 5386 H 522.788 -6.63655 4.1777 0
M  V30 5387 N 520.291 -0.0518155 -1.57515 0
M  V30 5388 C 521.521 0.63048 -1.96745 0
M  V30 5389 C 521.929 1.64875 -0.928054 0
M  V30 5390 O 521.272 1.83449 0.0960678 0
M  V30 5391 C 521.334 1.37381 -3.32215 0
M  V30 5392 C 520.998 0.511298 -4.54131 0
M  V30 5393 C 521.995 -0.222884 -5.19422 0
M  V30 5394 C 519.68 0.442035 -5.00351 0
M  V30 5395 C 521.674 -1.01476 -6.2927 0
M  V30 5396 C 519.361 -0.35353 -6.10077 0
M  V30 5397 C 520.359 -1.08062 -6.74397 0
M  V30 5398 O 520.047 -1.8631 -7.82013 0
M  V30 5399 H 519.779 0.177126 -0.652382 0
M  V30 5400 H 522.333 -0.114726 -2.05079 0
M  V30 5401 H 520.563 2.16466 -3.20436 0
M  V30 5402 H 522.252 1.9464 -3.56188 0
M  V30 5403 H 523.018 -0.178846 -4.8467 0
M  V30 5404 H 518.897 0.997562 -4.50077 0
M  V30 5405 H 522.441 -1.58279 -6.79407 0
M  V30 5406 H 518.338 -0.399205 -6.44264 0
M  V30 5407 H 519.106 -1.78528 -7.98793 0
M  V30 5408 N 521.769 1.56035 0.221574 0
M  V30 5409 C 523.009 1.80822 0.953038 0
M  V30 5410 C 523.373 0.625316 1.81532 0
M  V30 5411 O 524.574 0.752491 2.58052 0
M  V30 5412 C 522.845 3.10503 1.76983 0
M  V30 5413 S 524.404 3.56604 2.55693 0
M  V30 5414 H 521.222 0.634849 0.320137 0
M  V30 5415 H 523.824 1.94274 0.218619 0
M  V30 5416 H 522.528 3.94636 1.12651 0
M  V30 5417 H 522.059 2.99858 2.54655 0
M  V30 5418 H 524.074 3.1994 3.79279 0
M  V30 5419 N 523.247 -0.488276 1.49845 0
M  V30 5420 C 524.21 -1.57069 1.66919 0
M  V30 5421 C 525.21 -1.51445 0.540479 0
M  V30 5422 O 526.4 -1.5437 0.807188 0
M  V30 5423 C 523.532 -2.96718 1.67844 0
M  V30 5424 H 524.725 -1.43254 2.63474 0
M  V30 5425 H 522.278 -0.713435 1.39068 0
M  V30 5426 H 523.013 -3.15996 0.7292 0
M  V30 5427 H 522.798 -3.02208 2.49826 0
M  V30 5428 H 524.288 -3.75335 1.83066 0
M  V30 5429 N 524.725 -1.39134 -0.740242 0
M  V30 5430 C 526.136 -1.32208 -1.31825 0
M  V30 5431 C 526.487 0.0159919 -1.96193 0
M  V30 5432 O 525.612 0.918111 -1.95958 0
M  V30 5433 C 526.207 -2.39436 -2.39699 0
M  V30 5434 C 524.766 -2.36048 -2.93187 0
M  V30 5435 C 523.913 -2.21599 -1.66701 0
M  V30 5436 H 526.864 -1.49298 -0.538133 0
M  V30 5437 H 526.885 -2.05922 -3.19963 0
M  V30 5438 H 526.397 -3.36811 -1.92821 0
M  V30 5439 H 524.498 -1.42295 -3.44359 0
M  V30 5440 H 524.611 -3.30704 -3.46658 0
M  V30 5441 H 522.975 -1.68681 -1.90837 0
M  V30 5442 H 523.758 -3.20936 -1.21882 0
M  V30 5443 N 526.204 0.969867 -1.24223 0
M  V30 5444 C 527.134 2.08191 -1.05729 0
M  V30 5445 C 528.115 1.70075 0.0290765 0
M  V30 5446 O 529.3 1.93712 -0.137583 0
M  V30 5447 C 526.43 3.40991 -0.658995 0
M  V30 5448 C 525.384 3.93054 -1.69389 0
M  V30 5449 C 524.71 5.22171 -1.15072 0
M  V30 5450 C 526.01 4.21137 -3.08935 0
M  V30 5451 H 527.704 2.23921 -1.98746 0
M  V30 5452 H 525.25 1.07602 -0.956967 0
M  V30 5453 H 527.203 4.18221 -0.51662 0
M  V30 5454 H 525.927 3.25155 0.30686 0
M  V30 5455 H 524.586 3.17977 -1.82444 0
M  V30 5456 H 524.234 5.02694 -0.175539 0
M  V30 5457 H 523.934 5.57973 -1.84229 0
M  V30 5458 H 525.458 6.02013 -1.02042 0
M  V30 5459 H 526.872 4.8908 -2.99121 0
M  V30 5460 H 525.269 4.68163 -3.75425 0
M  V30 5461 H 526.339 3.27996 -3.57137 0
M  V30 5462 N 527.682 1.05563 1.17022 0
M  V30 5463 C 528.592 0.670758 2.24807 0
M  V30 5464 C 529.608 -0.309865 1.71219 0
M  V30 5465 O 530.784 -0.161025 2.00755 0
M  V30 5466 C 527.849 0.055337 3.46656 0
M  V30 5467 C 526.91 1.08688 4.15314 0
M  V30 5468 C 526.143 0.500736 5.31346 0
M  V30 5469 O 526.366 -0.688718 5.66227 0
M  V30 5470 O 525.3 1.23683 5.89055 0
M  V30 5471 H 529.126 1.56914 2.60023 0
M  V30 5472 H 526.711 0.827428 1.24395 0
M  V30 5473 H 528.593 -0.286492 4.20425 0
M  V30 5474 H 527.268 -0.816638 3.13229 0
M  V30 5475 H 526.175 1.48077 3.43546 0
M  V30 5476 H 527.508 1.93014 4.52777 0
M  V30 5477 N 529.16 -1.33526 0.837174 0
M  V30 5478 C 530.408 -1.97446 0.431211 0
M  V30 5479 C 530.729 -1.6665 -1.01255 0
M  V30 5480 O 529.999 -0.964559 -1.70508 0
M  V30 5481 H 528.579 -0.73043 0.156463 0
M  V30 5482 H 531.241 -1.62918 1.06976 0
M  V30 5483 H 530.337 -3.07001 0.561877 0
M  V30 5484 N 530.638 -0.59345 -1.46 0
M  V30 5485 C 532.049 -0.169801 -1.85926 0
M  V30 5486 C 532.4 1.26984 -1.49565 0
M  V30 5487 O 531.525 1.96076 -0.915602 0
M  V30 5488 C 532.12 -0.301385 -3.37457 0
M  V30 5489 C 530.679 0.0674684 -3.7634 0
M  V30 5490 C 529.826 -0.632383 -2.69993 0
M  V30 5491 H 532.777 -0.801014 -1.37002 0
M  V30 5492 H 532.798 0.470331 -3.77582 0
M  V30 5493 H 532.31 -1.34927 -3.63891 0
M  V30 5494 H 530.411 1.11507 -3.55523 0
M  V30 5495 H 530.524 -0.316332 -4.78055 0
M  V30 5496 H 528.888 -0.0714961 -2.546 0
M  V30 5497 H 529.671 -1.68212 -2.99265 0
M  V30 5498 N 532.116 1.54067 -0.331816 0
M  V30 5499 C 533.532 1.59587 0.0205388 0
M  V30 5500 C 533.732 1.34813 1.49759 0
M  V30 5501 O 532.788 1.13661 2.25471 0
M  V30 5502 C 534.101 2.97959 -0.405103 0
M  V30 5503 C 535.649 3.10964 -0.356454 0
M  V30 5504 C 536.124 4.51694 -0.757384 0
M  V30 5505 N 537.615 4.57709 -0.71111 0
M  V30 5506 C 538.35 5.64729 -0.993427 0
M  V30 5507 N 537.846 6.79652 -1.3433 0
M  V30 5508 N 539.639 5.54546 -0.918442 0
M  V30 5509 H 531.79 1.68426 -1.29407 0
M  V30 5510 H 534.053 0.78819 -0.526745 0
M  V30 5511 H 533.759 3.21115 -1.43451 0
M  V30 5512 H 533.633 3.76524 0.225692 0
M  V30 5513 H 536.02 2.87538 0.663763 0
M  V30 5514 H 536.101 2.34484 -1.02229 0
M  V30 5515 H 535.745 4.75853 -1.77555 0
M  V30 5516 H 535.675 5.26555 -0.0691444 0
M  V30 5517 H 538.166 3.75176 -0.452883 0
M  V30 5518 H 538.479 7.57221 -1.54388 0
M  V30 5519 H 536.824 6.81128 -1.38164 0
M  V30 5520 H 540.015 4.63641 -0.644536 0
M  V30 5521 H 540.188 6.37861 -1.14181 0
M  V30 5522 N 533.594 0.0601682 1.57485 0
M  V30 5523 C 534.842 -0.610386 1.92662 0
M  V30 5524 C 535.163 -1.70849 0.939981 0
M  V30 5525 O 534.433 -1.95895 -0.0137455 0
M  V30 5526 H 533.013 -0.228457 0.711208 0
M  V30 5527 H 535.675 0.115288 1.94559 0
M  V30 5528 H 534.771 -1.0432 2.94149 0
M  V30 5529 N 535.072 -1.5615 -0.213296 0
M  V30 5530 C 536.035 -1.92249 -1.24792 0
M  V30 5531 C 537.035 -0.801828 -1.39382 0
M  V30 5532 O 538.225 -1.06948 -1.37506 0
M  V30 5533 C 535.357 -2.18056 -2.62039 0
M  V30 5534 H 536.55 -2.84793 -0.939845 0
M  V30 5535 H 534.103 -1.49559 -0.454062 0
M  V30 5536 H 534.838 -1.2809 -2.97932 0
M  V30 5537 H 534.623 -2.99703 -2.52825 0
M  V30 5538 H 536.113 -2.47051 -3.36683 0
M  V30 5539 N 536.55 0.480323 -1.50102 0
M  V30 5540 C 537.778 1.25657 -1.64371 0
M  V30 5541 C 538.193 1.86011 -0.323316 0
M  V30 5542 O 537.55 1.68803 0.693682 0
M  V30 5543 C 537.601 2.37197 -2.728 0
M  V30 5544 O 537.322 1.7932 -3.9972 0
M  V30 5545 C 538.823 3.2823 -2.9796 0
M  V30 5546 H 536.043 0.380369 -0.552775 0
M  V30 5547 H 538.587 0.574379 -1.96268 0
M  V30 5548 H 536.742 3.01208 -2.43623 0
M  V30 5549 H 537.156 2.52701 -4.59611 0
M  V30 5550 H 538.63 4.02725 -3.77513 0
M  V30 5551 H 539.107 3.86462 -2.08671 0
M  V30 5552 H 539.713 2.69964 -3.28633 0
M  V30 5553 N 538.028 1.39524 0.732853 0
M  V30 5554 C 538.991 1.38189 1.82857 0
M  V30 5555 C 539.991 0.278624 1.58368 0
M  V30 5556 O 541.181 0.536639 1.65728 0
M  V30 5557 C 538.313 1.15661 3.2068 0
M  V30 5558 H 539.506 2.35692 1.85444 0
M  V30 5559 H 537.059 1.2512 0.936728 0
M  V30 5560 H 537.794 0.188482 3.23752 0
M  V30 5561 H 537.579 1.95559 3.39852 0
M  V30 5562 H 539.069 1.17472 4.00737 0
M  V30 5563 N 539.506 -0.963266 1.24736 0
M  V30 5564 C 540.416 -2.09246 1.06082 0
M  V30 5565 C 541.432 -1.74 0.000363101 0
M  V30 5566 O 542.608 -2.0041 0.199479 0
M  V30 5567 C 539.673 -3.40115 0.672498 0
M  V30 5568 C 538.734 -3.89282 1.80993 0
M  V30 5569 C 537.967 -5.13905 1.44004 0
M  V30 5570 O 538.19 -5.69434 0.331835 0
M  V30 5571 O 537.124 -5.57566 2.26723 0
M  V30 5572 H 540.95 -2.27881 2.00759 0
M  V30 5573 H 538.535 -1.07649 1.03595 0
M  V30 5574 H 540.417 -4.18797 0.467668 0
M  V30 5575 H 539.092 -3.22771 -0.245102 0
M  V30 5576 H 537.999 -3.11642 2.06955 0
M  V30 5577 H 539.332 -4.1111 2.70646 0
M  V30 5578 N 540.985 -1.06182 -1.16461 0
M  V30 5579 C 541.917 -0.629584 -2.20383 0
M  V30 5580 C 542.93 0.311834 -1.59786 0
M  V30 5581 O 544.119 0.103 -1.78203 0
M  V30 5582 C 541.219 0.0973695 -3.3876 0
M  V30 5583 C 540.392 -0.857252 -4.28917 0
M  V30 5584 C 539.451 -0.169749 -5.25926 0
M  V30 5585 O 538.477 -0.807044 -5.6345 0
M  V30 5586 N 539.679 1.08911 -5.70192 0
M  V30 5587 H 542.444 -1.52352 -2.58087 0
M  V30 5588 H 540.005 -0.944993 -1.31459 0
M  V30 5589 H 541.997 0.567676 -4.00699 0
M  V30 5590 H 540.567 0.893093 -2.99571 0
M  V30 5591 H 539.787 -1.50696 -3.64259 0
M  V30 5592 H 541.075 -1.50489 -4.86035 0
M  V30 5593 H 540.473 1.62703 -5.41797 0
M  V30 5594 H 539.03 1.50331 -6.34227 0
M  V30 5595 N 542.463 1.3308 -0.844243 0
M  V30 5596 C 543.393 2.3161 -0.296493 0
M  V30 5597 C 544.374 1.59215 0.598707 0
M  V30 5598 O 545.559 1.87077 0.521134 0
M  V30 5599 C 542.689 3.43313 0.524762 0
M  V30 5600 C 541.643 4.27115 -0.275106 0
M  V30 5601 C 540.969 5.30483 0.670236 0
M  V30 5602 C 542.269 5.00443 -1.49514 0
M  V30 5603 H 543.963 2.77672 -1.11976 0
M  V30 5604 H 541.509 1.33496 -0.539899 0
M  V30 5605 H 543.462 4.11273 0.918298 0
M  V30 5606 H 542.186 2.95952 1.3813 0
M  V30 5607 H 540.845 3.60787 -0.650267 0
M  V30 5608 H 540.493 4.79379 1.52332 0
M  V30 5609 H 540.193 5.87435 0.139123 0
M  V30 5610 H 541.717 6.01308 1.06117 0
M  V30 5611 H 543.131 5.61141 -1.17447 0
M  V30 5612 H 541.528 5.67071 -1.96343 0
M  V30 5613 H 542.598 4.28906 -2.26202 0
M  V30 5614 N 543.941 0.601185 1.45683 0
M  V30 5615 C 544.871 -0.108824 2.33246 0
M  V30 5616 C 545.852 -0.865223 1.46451 0
M  V30 5617 O 547.037 -0.83704 1.75235 0
M  V30 5618 C 544.167 -1.11101 3.2905 0
M  V30 5619 C 543.121 -0.468244 4.25431 0
M  V30 5620 C 542.447 -1.57822 5.10878 0
M  V30 5621 C 543.747 0.606469 5.18767 0
M  V30 5622 H 545.441 0.622306 2.92861 0
M  V30 5623 H 542.987 0.300714 1.40825 0
M  V30 5624 H 544.94 -1.61622 3.89174 0
M  V30 5625 H 543.664 -1.87265 2.67581 0
M  V30 5626 H 542.323 0.0160484 3.66596 0
M  V30 5627 H 541.971 -2.32998 4.45781 0
M  V30 5628 H 541.671 -1.15369 5.76163 0
M  V30 5629 H 543.195 -2.08583 5.73869 0
M  V30 5630 H 544.609 0.185589 5.73 0
M  V30 5631 H 543.006 0.952381 5.92494 0
M  V30 5632 H 544.076 1.48559 4.61582 0
M  V30 5633 N 545.419 -1.53889 0.339982 0
M  V30 5634 C 546.329 -2.28604 -0.526988 0
M  V30 5635 C 547.345 -1.33578 -1.11503 0
M  V30 5636 O 548.521 -1.66612 -1.13148 0
M  V30 5637 C 545.586 -3.04164 -1.66389 0
M  V30 5638 C 544.647 -4.14809 -1.10599 0
M  V30 5639 C 543.88 -4.86756 -2.18871 0
M  V30 5640 O 544.103 -4.58343 -3.39526 0
M  V30 5641 O 543.037 -5.73289 -1.83366 0
M  V30 5642 H 546.863 -3.03594 0.0802707 0
M  V30 5643 H 544.448 -1.4903 0.105141 0
M  V30 5644 H 546.33 -3.51427 -2.32544 0
M  V30 5645 H 545.005 -2.32035 -2.25703 0
M  V30 5646 H 543.912 -3.71857 -0.409067 0
M  V30 5647 H 545.245 -4.89029 -0.557771 0
M  V30 5648 N 546.897 -0.0685191 -1.57451 0
M  V30 5649 C 547.847 0.909895 -2.09057 0
M  V30 5650 C 548.831 1.26088 -0.999528 0
M  V30 5651 O 550.023 1.24041 -1.26265 0
M  V30 5652 C 547.152 2.17863 -2.65312 0
M  V30 5653 C 546.238 1.85427 -3.81415 0
M  V30 5654 N 546.629 1.23426 -4.9051 0
M  V30 5655 C 544.927 2.15196 -3.90649 0
M  V30 5656 C 545.628 1.09008 -5.71395 0
M  V30 5657 N 544.604 1.59871 -5.1956 0
M  V30 5658 H 548.406 0.426145 -2.90794 0
M  V30 5659 H 545.92 0.135462 -1.61834 0
M  V30 5660 H 547.917 2.88872 -3.00597 0
M  V30 5661 H 546.577 2.66829 -1.85021 0
M  V30 5662 H 547.588 0.904305 -5.09944 0
M  V30 5663 H 544.265 2.66562 -3.21327 0
M  V30 5664 H 545.655 0.607305 -6.6915 0
M  V30 5665 N 548.375 1.56261 0.205012 0
M  V30 5666 C 549.305 1.96779 1.257 0
M  V30 5667 C 550.286 0.838309 1.48008 0
M  V30 5668 O 551.471 1.10189 1.59913 0
M  V30 5669 C 548.601 2.29876 2.60335 0
M  V30 5670 C 547.555 3.45469 2.52656 0
M  V30 5671 C 546.881 3.64215 3.91473 0
M  V30 5672 C 548.181 4.79954 2.06014 0
M  V30 5673 H 549.875 2.84904 0.920338 0
M  V30 5674 H 547.421 1.37072 0.441277 0
M  V30 5675 H 549.374 2.56814 3.34102 0
M  V30 5676 H 548.098 1.38622 2.95722 0
M  V30 5677 H 546.757 3.18605 1.81345 0
M  V30 5678 H 546.405 2.70309 4.24196 0
M  V30 5679 H 546.105 4.41973 3.87213 0
M  V30 5680 H 547.629 3.93519 4.66878 0
M  V30 5681 H 549.043 5.05989 2.69533 0
M  V30 5682 H 547.44 5.61111 2.12777 0
M  V30 5683 H 548.51 4.74201 1.01297 0
M  V30 5684 N 549.853 -0.472356 1.50355 0
M  V30 5685 C 551.101 -1.22211 1.60962 0
M  V30 5686 C 551.422 -1.92497 0.311439 0
M  V30 5687 O 550.692 -1.8405 -0.671002 0
M  V30 5688 H 549.272 -0.454092 0.593135 0
M  V30 5689 H 551.934 -0.544977 1.87126 0
M  V30 5690 H 551.03 -1.9707 2.42012 0
M  V30 5691 N 551.331 -1.39911 -0.725443 0
M  V30 5692 C 552.279 -1.39552 -1.86086 0
M  V30 5693 C 553.273 -0.277334 -1.67114 0
M  V30 5694 O 554.479 -0.447865 -1.74339 0
M  V30 5695 H 550.854 -0.435993 -0.612711 0
M  V30 5696 H 552.825 -2.35305 -1.83505 0
M  V30 5697 C 551.574 -1.26529 -3.2386 0
M  V30 5698 H 550.897 -2.11845 -3.3906 0
M  V30 5699 H 552.337 -1.30336 -4.03471 0
M  V30 5700 C 550.796 0.0254168 -3.3689 0
M  V30 5701 O 551.326 0.992048 -3.89257 0
M  V30 5702 N 549.532 0.0916528 -2.90455 0
M  V30 5703 H 549.079 -0.695675 -2.48028 0
M  V30 5704 H 549.037 0.954745 -2.99553 0
M  V30 5705 N 552.809 0.956637 -1.25245 0
M  V30 5706 C 554.057 1.69764 -1.09657 0
M  V30 5707 C 554.378 1.91583 0.363464 0
M  V30 5708 O 553.648 1.50149 1.25825 0
M  V30 5709 H 552.228 0.629097 -0.402798 0
M  V30 5710 H 554.89 1.15026 -1.57337 0
M  V30 5711 H 553.986 2.67769 -1.60331 0
M  V30 5712 N 554.287 1.06798 1.15896 0
M  V30 5713 C 555.234 0.683314 2.20453 0
M  V30 5714 C 556.204 -0.32255 1.62938 0
M  V30 5715 O 557.389 -0.210276 1.89638 0
M  V30 5716 C 554.529 0.0813266 3.45004 0
M  V30 5717 C 553.642 1.13799 4.16742 0
M  V30 5718 C 552.777 0.501598 5.28826 0
M  V30 5719 C 551.816 1.54144 5.92373 0
M  V30 5720 N 550.953 0.928038 6.9594 0
M  V30 5721 H 555.793 1.57932 2.52708 0
M  V30 5722 H 553.33 0.789544 1.24115 0
M  V30 5723 H 555.288 -0.285274 4.16224 0
M  V30 5724 H 553.918 -0.77806 3.13283 0
M  V30 5725 H 552.97 1.62223 3.44075 0
M  V30 5726 H 554.282 1.92664 4.60089 0
M  V30 5727 H 553.436 0.0823162 6.06644 0
M  V30 5728 H 552.175 -0.318883 4.86656 0
M  V30 5729 H 551.18 1.97056 5.13273 0
M  V30 5730 H 552.405 2.3641 6.36621 0
M  V30 5731 H 550.351 0.12836 6.55874 0
M  V30 5732 H 550.268 1.65401 7.37685 0
M  V30 5733 H 551.536 0.534071 7.77668 0
M  V30 5734 N 555.766 -1.3263 0.851289 0
M  V30 5735 C 556.991 -2.02097 0.466006 0
M  V30 5736 C 557.416 -1.63574 -0.928709 0
M  V30 5737 O 556.774 -0.834665 -1.60944 0
M  V30 5738 C 556.822 -3.55425 0.608737 0
M  V30 5739 O 555.926 -4.10827 -0.359878 0
M  V30 5740 H 555.267 -0.636911 0.187724 0
M  V30 5741 H 557.797 -1.69253 1.14955 0
M  V30 5742 H 557.807 -4.04986 0.495006 0
M  V30 5743 H 556.482 -3.82806 1.62581 0
M  V30 5744 H 555.059 -3.72349 -0.202666 0
M  V30 5745 N 557.244 -0.608902 -1.45362 0
M  V30 5746 C 558.491 -0.104607 -2.0223 0
M  V30 5747 C 558.819 1.26534 -1.47714 0
M  V30 5748 O 558.074 1.84855 -0.642435 0
M  V30 5749 C 558.373 -0.0167296 -3.57396 0
M  V30 5750 C 558.039 -1.32251 -4.31069 0
M  V30 5751 C 556.701 -1.68019 -4.50914 0
M  V30 5752 C 559.053 -2.18542 -4.73169 0
M  V30 5753 C 556.381 -2.89828 -5.10114 0
M  V30 5754 C 558.733 -3.39602 -5.33717 0
M  V30 5755 C 557.397 -3.7562 -5.51784 0
M  V30 5756 H 556.667 -0.0382785 -0.740011 0
M  V30 5757 H 559.314 -0.790782 -1.7441 0
M  V30 5758 H 557.619 0.752715 -3.84502 0
M  V30 5759 H 559.316 0.389634 -3.99103 0
M  V30 5760 H 555.906 -1.03411 -4.15938 0
M  V30 5761 H 560.09 -1.92208 -4.5757 0
M  V30 5762 H 555.346 -3.17839 -5.22291 0
M  V30 5763 H 559.52 -4.06716 -5.65292 0
M  V30 5764 H 557.147 -4.70093 -5.97425 0
M  V30 5765 N 558.722 1.53707 -0.348139 0
M  V30 5766 C 559.999 1.93247 0.302475 0
M  V30 5767 C 560.379 1.28012 1.67857 0
M  V30 5768 O 559.727 0.43274 2.24365 0
M  V30 5769 C 559.937 3.47031 0.370159 0
M  V30 5770 C 561.285 4.20066 0.61882 0
M  V30 5771 O 562.309 3.53319 0.452087 0
M  V30 5772 O 561.168 5.38318 0.94215 0
M  V30 5773 H 558.262 0.807736 0.177458 0
M  V30 5774 H 560.808 1.64927 -0.399651 0
M  V30 5775 H 559.58 3.86745 -0.59534 0
M  V30 5776 H 559.203 3.81532 1.11888 0
M  V30 5777 N 560.2 0.0768682 1.57412 0
M  V30 5778 C 561.425 -0.603404 1.98428 0
M  V30 5779 C 561.85 -1.62047 0.955108 0
M  V30 5780 O 561.208 -1.81129 -0.0786778 0
M  V30 5781 C 561.256 -1.24396 3.38464 0
M  V30 5782 O 560.36 -2.35982 3.3821 0
M  V30 5783 H 559.701 -0.154741 0.645718 0
M  V30 5784 H 562.231 0.152885 2.04028 0
M  V30 5785 H 562.241 -1.5896 3.7576 0
M  V30 5786 H 560.916 -0.498735 4.12899 0
M  V30 5787 H 559.493 -2.03173 3.1269 0
M  V30 5788 N 561.678 -1.56367 -0.196722 0
M  V30 5789 C 562.924 -1.80796 -0.918725 0
M  V30 5790 C 563.257 -0.650645 -1.82976 0
M  V30 5791 O 562.532 0.348889 -1.91345 0
M  V30 5792 C 562.815 -3.15472 -1.73636 0
M  V30 5793 C 562.668 -4.41693 -0.85015 0
M  V30 5794 C 563.987 -3.46824 -2.70927 0
M  V30 5795 H 561.106 -0.657702 -0.332561 0
M  V30 5796 H 563.748 -1.89086 -0.186186 0
M  V30 5797 H 561.898 -3.08536 -2.36088 0
M  V30 5798 H 563.57 -4.60673 -0.240459 0
M  V30 5799 H 561.813 -4.33517 -0.156785 0
M  V30 5800 H 562.484 -5.32419 -1.45719 0
M  V30 5801 H 564.96 -3.54049 -2.18607 0
M  V30 5802 H 563.836 -4.4218 -3.25219 0
M  V30 5803 H 564.097 -2.70236 -3.49893 0
M  V30 5804 N 563.156 0.464375 -1.50603 0
M  V30 5805 C 564.119 1.54393 -1.69397 0
M  V30 5806 C 565.119 1.50566 -0.564504 0
M  V30 5807 O 566.309 1.53066 -0.831645 0
M  V30 5808 C 563.441 2.9401 -1.72543 0
M  V30 5809 H 564.634 1.39044 -2.65719 0
M  V30 5810 H 562.187 0.69122 -1.40185 0
M  V30 5811 H 562.922 3.14795 -0.77938 0
M  V30 5812 H 562.707 2.98195 -2.54602 0
M  V30 5813 H 564.197 3.72375 -1.89015 0
M  V30 5814 N 564.634 1.40294 0.718013 0
M  V30 5815 C 565.566 1.36281 1.84283 0
M  V30 5816 C 566.579 0.268621 1.60569 0
M  V30 5817 O 567.768 0.528798 1.70487 0
M  V30 5818 C 564.868 1.09741 3.2064 0
M  V30 5819 C 564.041 2.30767 3.71571 0
M  V30 5820 C 563.1 2.00424 4.86535 0
M  V30 5821 O 562.126 2.73268 4.99313 0
M  V30 5822 N 563.328 0.980724 5.72156 0
M  V30 5823 H 566.093 2.3322 1.88225 0
M  V30 5824 H 563.654 1.34616 0.899453 0
M  V30 5825 H 565.646 0.874322 3.95143 0
M  V30 5826 H 564.216 0.214771 3.11861 0
M  V30 5827 H 563.436 2.68921 2.88228 0
M  V30 5828 H 564.724 3.11455 4.02335 0
M  V30 5829 H 564.122 0.377375 5.6444 0
M  V30 5830 H 562.679 0.817538 6.46653 0
M  V30 5831 N 566.112 -0.949982 1.2575 0
M  V30 5832 C 567.075 -2.02894 1.06615 0
M  V30 5833 C 568.075 -1.60791 0.0173905 0
M  V30 5834 O 569.265 -1.72249 0.260003 0
M  V30 5835 C 566.397 -3.35219 0.619751 0
M  V30 5836 H 567.59 -2.21302 2.02399 0
M  V30 5837 H 565.143 -1.12772 1.08223 0
M  V30 5838 H 565.878 -3.22508 -0.340486 0
M  V30 5839 H 565.663 -3.67129 1.37692 0
M  V30 5840 H 567.153 -4.14505 0.507443 0
M  V30 5841 N 567.59 -1.07411 -1.15328 0
M  V30 5842 C 568.836 -0.808666 -1.86634 0
M  V30 5843 C 569.191 0.65816 -1.80793 0
M  V30 5844 O 568.484 1.47689 -1.22059 0
M  V30 5845 C 568.678 -1.25191 -3.34757 0
M  V30 5846 C 568.507 -2.76028 -3.55019 0
M  V30 5847 C 567.277 -3.43644 -3.70455 0
M  V30 5848 C 569.475 -3.74224 -3.5279 0
M  V30 5849 N 567.457 -4.83117 -3.78776 0
M  V30 5850 C 568.828 -4.9954 -3.67233 0
M  V30 5851 C 570.883 -3.67373 -3.36068 0
M  V30 5852 C 569.586 -6.18819 -3.66682 0
M  V30 5853 C 571.612 -4.86116 -3.36816 0
M  V30 5854 C 570.974 -6.10266 -3.51789 0
M  V30 5855 H 567.073 -0.348478 -0.700062 0
M  V30 5856 H 569.657 -1.37049 -1.38295 0
M  V30 5857 H 567.828 -0.717775 -3.8171 0
M  V30 5858 H 569.56 -0.933936 -3.93776 0
M  V30 5859 H 566.315 -2.94051 -3.71256 0
M  V30 5860 H 566.739 -5.55705 -3.86679 0
M  V30 5861 H 571.381 -2.72334 -3.2341 0
M  V30 5862 H 569.099 -7.14179 -3.78118 0
M  V30 5863 H 572.685 -4.82492 -3.25103 0
M  V30 5864 H 571.565 -7.00609 -3.52301 0
M  V30 5865 N 569.068 1.32177 -0.85831 0
M  V30 5866 C 570.345 1.91781 -0.384624 0
M  V30 5867 C 570.725 1.78171 1.13217 0
M  V30 5868 O 570.073 1.18209 1.95548 0
M  V30 5869 C 570.283 3.38414 -0.853047 0
M  V30 5870 C 571.631 4.15542 -0.872359 0
M  V30 5871 O 572.655 3.47148 -0.797926 0
M  V30 5872 O 571.514 5.37678 -0.978009 0
M  V30 5873 H 568.608 0.819259 -0.112886 0
M  V30 5874 H 571.154 1.40923 -0.945453 0
M  V30 5875 H 569.926 3.4228 -1.89632 0
M  V30 5876 H 569.549 3.96683 -0.269874 0
M  V30 5877 N 570.547 0.616602 1.45037 0
M  V30 5878 C 571.51 -0.0871112 2.29034 0
M  V30 5879 C 572.51 -0.786414 1.40258 0
M  V30 5880 O 573.7 -0.633207 1.62284 0
M  V30 5881 C 570.832 -1.13369 3.21497 0
M  V30 5882 H 572.025 0.651497 2.92738 0
M  V30 5883 H 569.578 0.376058 1.51709 0
M  V30 5884 H 570.313 -1.90277 2.62612 0
M  V30 5885 H 570.098 -0.636358 3.86902 0
M  V30 5886 H 571.588 -1.62627 3.84633 0
M  V30 5887 N 572.025 -1.5352 0.356285 0
M  V30 5888 C 572.988 -2.24071 -0.482182 0
M  V30 5889 C 573.988 -1.24531 -1.01729 0
M  V30 5890 O 575.178 -1.48876 -0.904513 0
M  V30 5891 C 572.31 -2.97025 -1.67299 0
M  V30 5892 H 573.503 -2.99596 0.135031 0
M  V30 5893 H 571.056 -1.55928 0.107825 0
M  V30 5894 H 571.791 -2.25719 -2.32855 0
M  V30 5895 H 571.576 -3.7005 -1.29636 0
M  V30 5896 H 573.066 -3.50683 -2.26741 0
M  V30 5897 N 573.503 -0.0852151 -1.57369 0
M  V30 5898 C 574.436 0.913608 -2.09113 0
M  V30 5899 C 575.414 1.28264 -0.999358 0
M  V30 5900 O 576.598 1.3896 -1.27367 0
M  V30 5901 C 573.725 2.21777 -2.55993 0
M  V30 5902 C 572.771 1.99932 -3.76735 0
M  V30 5903 S 573.604 1.24637 -5.20794 0
M  V30 5904 C 574.76 2.56304 -5.71016 0
M  V30 5905 H 574.993 0.473369 -2.93507 0
M  V30 5906 H 572.526 0.127856 -1.5387 0
M  V30 5907 H 574.484 2.96726 -2.83662 0
M  V30 5908 H 573.145 2.62923 -1.71843 0
M  V30 5909 H 572.338 2.96482 -4.07571 0
M  V30 5910 H 571.94 1.33116 -3.49509 0
M  V30 5911 H 574.232 3.5233 -5.78679 0
M  V30 5912 H 575.175 2.3006 -6.69685 0
M  V30 5913 H 575.583 2.64125 -4.98897 0
M  V30 5914 N 574.981 1.5647 0.188427 0
M  V30 5915 C 575.944 1.9421 1.21718 0
M  V30 5916 C 576.944 0.823901 1.38089 0
M  V30 5917 O 578.134 1.09122 1.35787 0
M  V30 5918 C 575.266 2.22197 2.58537 0
M  V30 5919 H 576.459 2.86252 0.894418 0
M  V30 5920 H 574.012 1.50263 0.430211 0
M  V30 5921 H 574.747 1.32814 2.95856 0
M  V30 5922 H 574.532 3.03688 2.48025 0
M  V30 5923 H 576.022 2.52376 3.3271 0
M  V30 5924 N 576.459 -0.456382 1.50847 0
M  V30 5925 C 577.736 -1.21739 1.53098 0
M  V30 5926 C 578.116 -2.09179 0.284132 0
M  V30 5927 O 577.464 -2.16466 -0.731773 0
M  V30 5928 C 577.674 -2.03573 2.83477 0
M  V30 5929 C 579.022 -2.61264 3.34703 0
M  V30 5930 O 580.046 -2.13802 2.84898 0
M  V30 5931 O 578.905 -3.47779 4.21559 0
M  V30 5932 H 575.999 -0.553219 0.614718 0
M  V30 5933 H 578.545 -0.467003 1.63148 0
M  V30 5934 H 577.317 -1.39232 3.65691 0
M  V30 5935 H 576.94 -2.85716 2.76499 0
M  V30 5936 N 577.937 -1.40673 -0.710563 0
M  V30 5937 C 578.9 -1.4108 -1.80635 0
M  V30 5938 C 579.9 -0.303783 -1.57904 0
M  V30 5939 O 581.09 -0.562937 -1.64853 0
M  V30 5940 C 578.222 -1.20748 -3.18799 0
M  V30 5941 H 579.415 -2.38612 -1.81671 0
M  V30 5942 H 576.968 -1.26595 -0.916704 0
M  V30 5943 H 577.703 -0.239964 -3.23411 0
M  V30 5944 H 577.488 -2.00941 -3.36698 0
M  V30 5945 H 578.978 -1.23833 -3.98817 0
M  V30 5946 N 579.415 0.9433 -1.26252 0
M  V30 5947 C 580.362 2.0417 -1.07625 0
M  V30 5948 C 581.332 1.6609 0.0180738 0
M  V30 5949 O 582.517 1.90276 -0.141289 0
M  V30 5950 C 579.657 3.37653 -0.713043 0
M  V30 5951 C 578.77 3.88783 -1.8834 0
M  V30 5952 C 577.905 5.10642 -1.4635 0
M  V30 5953 C 576.944 5.54028 -2.60229 0
M  V30 5954 N 576.081 6.67092 -2.18936 0
M  V30 5955 H 580.921 2.19436 -2.01623 0
M  V30 5956 H 578.458 1.07519 -1.00389 0
M  V30 5957 H 580.416 4.14391 -0.483358 0
M  V30 5958 H 579.046 3.22241 0.18996 0
M  V30 5959 H 578.098 3.08464 -2.22608 0
M  V30 5960 H 579.41 4.16922 -2.73821 0
M  V30 5961 H 578.564 5.94832 -1.19414 0
M  V30 5962 H 577.303 4.84244 -0.579568 0
M  V30 5963 H 576.308 4.68396 -2.87898 0
M  V30 5964 H 577.533 5.82429 -3.49219 0
M  V30 5965 H 575.479 6.42381 -1.32974 0
M  V30 5966 H 575.396 6.94806 -2.97961 0
M  V30 5967 H 576.664 7.54662 -1.95206 0
M  V30 5968 N 580.893 1.08022 1.14757 0
M  V30 5969 C 581.856 0.71048 2.1791 0
M  V30 5970 C 582.856 -0.252731 1.58801 0
M  V30 5971 O 584.046 -0.0327915 1.74169 0
M  V30 5972 C 581.178 0.0483203 3.40866 0
M  V30 5973 H 582.371 1.62384 2.52134 0
M  V30 5974 H 579.924 0.877595 1.29337 0
M  V30 5975 H 580.659 -0.876959 3.12218 0
M  V30 5976 H 580.444 0.741189 3.85031 0
M  V30 5977 H 581.934 -0.195471 4.17142 0
M  V30 5978 N 582.371 -1.3172 0.865308 0
M  V30 5979 C 583.281 -2.32394 0.320935 0
M  V30 5980 C 584.297 -1.64511 -0.566746 0
M  V30 5981 O 585.473 -1.95969 -0.464575 0
M  V30 5982 C 582.538 -3.43462 -0.472701 0
M  V30 5983 C 581.599 -4.27015 0.442385 0
M  V30 5984 C 580.832 -5.32779 -0.313469 0
M  V30 5985 O 581.055 -5.49158 -1.54214 0
M  V30 5986 O 579.989 -6.01015 0.326257 0
M  V30 5987 H 583.815 -2.80868 1.15528 0
M  V30 5988 H 581.4 -1.35535 0.628545 0
M  V30 5989 H 583.282 -4.11172 -0.922781 0
M  V30 5990 H 581.957 -2.97159 -1.28367 0
M  V30 5991 H 580.864 -3.62075 0.940866 0
M  V30 5992 H 582.197 -4.76871 1.21882 0
M  V30 5993 N 583.85 -0.624285 -1.44708 0
M  V30 5994 C 585.127 -0.0572781 -1.95516 0
M  V30 5995 C 585.507 1.41516 -1.56641 0
M  V30 5996 O 584.855 2.12614 -0.837111 0
M  V30 5997 C 585.065 -0.272944 -3.47931 0
M  V30 5998 C 586.413 -0.162529 -4.24289 0
M  V30 5999 O 587.437 -0.203946 -3.55616 0
M  V30 6000 O 586.296 -0.0616847 -5.46465 0
M  V30 6001 H 583.389 0.0262219 -0.826584 0
M  V30 6002 H 585.936 -0.695512 -1.54793 0
M  V30 6003 H 584.707 -1.29492 -3.69253 0
M  V30 6004 H 584.331 0.399756 -3.95585 0
M  V30 6005 N 585.328 1.53329 -0.364422 0
M  V30 6006 C 586.556 2.05657 0.226424 0
M  V30 6007 C 586.971 1.23801 1.42544 0
M  V30 6008 O 586.328 0.27839 1.80364 0
M  V30 6009 C 586.379 3.56125 0.621056 0
M  V30 6010 O 586.1 4.34879 -0.530304 0
M  V30 6011 C 587.601 4.24706 1.27041 0
M  V30 6012 H 584.821 0.669806 0.0400056 0
M  V30 6013 H 587.365 1.97714 -0.522456 0
M  V30 6014 H 585.52 3.64223 1.31985 0
M  V30 6015 H 585.934 5.24073 -0.211546 0
M  V30 6016 H 587.408 5.3131 1.49711 0
M  V30 6017 H 587.885 3.78354 2.23036 0
M  V30 6018 H 588.491 4.20858 0.613079 0
M  V30 6019 N 586.806 0.0935595 1.57322 0
M  V30 6020 C 588.052 -0.571355 1.94585 0
M  V30 6021 C 588.385 -1.67929 0.975366 0
M  V30 6022 O 587.66 -1.94498 0.00816206 0
M  V30 6023 C 587.943 -1.12797 3.41978 0
M  V30 6024 C 587.796 -0.0251881 4.49793 0
M  V30 6025 C 589.115 -2.02682 3.90651 0
M  V30 6026 H 586.234 -0.206223 0.70756 0
M  V30 6027 H 588.876 0.163956 1.89291 0
M  V30 6028 H 587.026 -1.75461 3.4662 0
M  V30 6029 H 588.698 0.608979 4.57263 0
M  V30 6030 H 586.941 0.641399 4.29032 0
M  V30 6031 H 587.612 -0.455433 5.50118 0
M  V30 6032 H 590.088 -1.49925 3.88152 0
M  V30 6033 H 588.964 -2.38555 4.94351 0
M  V30 6034 H 589.225 -2.94362 3.29854 0
M  V30 6035 N 588.284 -1.56567 -0.180126 0
M  V30 6036 C 589.214 -1.98753 -1.22553 0
M  V30 6037 C 590.195 -0.86175 -1.46656 0
M  V30 6038 O 591.38 -1.12719 -1.58139 0
M  V30 6039 C 588.51 -2.33988 -2.56645 0
M  V30 6040 C 587.464 -3.49445 -2.47128 0
M  V30 6041 C 586.79 -3.70397 -3.8563 0
M  V30 6042 C 588.09 -4.83171 -1.98352 0
M  V30 6043 H 589.784 -2.86332 -0.874896 0
M  V30 6044 H 587.33 -1.37757 -0.419414 0
M  V30 6045 H 589.283 -2.62097 -3.29974 0
M  V30 6046 H 588.007 -1.43309 -2.93479 0
M  V30 6047 H 586.666 -3.2145 -1.76254 0
M  V30 6048 H 586.314 -2.77023 -4.19842 0
M  V30 6049 H 586.014 -4.48077 -3.80132 0
M  V30 6050 H 587.538 -4.00897 -4.60558 0
M  V30 6051 H 588.952 -5.10213 -2.61449 0
M  V30 6052 H 587.349 -5.64425 -2.03823 0
M  V30 6053 H 588.419 -4.75753 -0.937402 0
M  V30 6054 N 589.762 0.448376 -1.51087 0
M  V30 6055 C 591.008 1.20049 -1.6345 0
M  V30 6056 C 591.341 1.91121 -0.344444 0
M  V30 6057 O 590.616 1.83125 0.655396 0
M  V30 6058 C 590.899 2.22624 -2.83038 0
M  V30 6059 C 590.752 1.55708 -4.21989 0
M  V30 6060 C 592.071 3.23718 -2.98152 0
M  V30 6061 H 589.19 0.435085 -0.59487 0
M  V30 6062 H 591.832 0.491183 -1.83541 0
M  V30 6063 H 589.982 2.83117 -2.66039 0
M  V30 6064 H 591.654 0.986367 -4.50631 0
M  V30 6065 H 589.897 0.859647 -4.25197 0
M  V30 6066 H 590.568 2.30357 -5.01637 0
M  V30 6067 H 593.044 2.73269 -3.13788 0
M  V30 6068 H 591.92 3.92795 -3.83411 0
M  V30 6069 H 592.181 3.89179 -2.09743 0
M  V30 6070 N 591.24 1.41047 0.703093 0
M  V30 6071 C 592.48 1.41461 1.4754 0
M  V30 6072 C 592.844 0.0199013 1.9199 0
M  V30 6073 O 594.045 -0.101138 2.6861 0
M  V30 6074 C 592.316 2.38703 2.66 0
M  V30 6075 S 593.875 2.57582 3.55242 0
M  V30 6076 H 590.693 0.501226 0.504275 0
M  V30 6077 H 593.295 1.77422 0.821074 0
M  V30 6078 H 591.999 3.3885 2.31536 0
M  V30 6079 H 591.53 2.04069 3.36333 0
M  V30 6080 H 593.545 1.83758 4.6092 0
M  V30 6081 N 592.718 -0.936591 1.26751 0
M  V30 6082 C 593.966 -1.67998 1.12343 0
M  V30 6083 C 594.287 -1.92137 -0.332938 0
M  V30 6084 O 593.557 -1.52132 -1.23421 0
M  V30 6085 H 592.137 -0.622609 0.412756 0
M  V30 6086 H 594.799 -1.12509 1.59147 0
M  V30 6087 H 593.895 -2.65185 1.64571 0
M  V30 6088 N 594.196 -1.08629 -1.14182 0
M  V30 6089 C 595.421 -0.83902 -1.89671 0
M  V30 6090 C 595.846 0.603332 -1.78161 0
M  V30 6091 O 595.204 1.42301 -1.12339 0
M  V30 6092 C 595.252 -1.26854 -3.37551 0
M  V30 6093 O 594.356 -0.42188 -4.10236 0
M  V30 6094 H 593.697 -0.304545 -0.590041 0
M  V30 6095 H 596.227 -1.4483 -1.44518 0
M  V30 6096 H 596.237 -1.25038 -3.88368 0
M  V30 6097 H 594.912 -2.31901 -3.45246 0
M  V30 6098 H 593.489 -0.503654 -3.69483 0
M  V30 6099 N 595.674 1.31259 -0.872281 0
M  V30 6100 C 596.921 1.96622 -0.484365 0
M  V30 6101 C 597.249 1.68939 0.963841 0
M  V30 6102 O 596.504 0.97974 1.6941 0
M  V30 6103 C 596.803 3.50659 -0.690889 0
M  V30 6104 C 596.469 3.98366 -2.11224 0
M  V30 6105 C 595.131 4.11104 -2.50094 0
M  V30 6106 C 597.483 4.23425 -3.0391 0
M  V30 6107 C 594.811 4.46254 -3.80887 0
M  V30 6108 C 597.163 4.60039 -4.3422 0
M  V30 6109 C 595.827 4.70984 -4.73001 0
M  V30 6110 H 595.097 0.71949 -0.177242 0
M  V30 6111 H 597.744 1.56353 -1.10571 0
M  V30 6112 H 596.049 3.91798 0.0135782 0
M  V30 6113 H 597.746 3.99284 -0.370534 0
M  V30 6114 H 594.336 3.88949 -1.80047 0
M  V30 6115 H 598.52 4.13075 -2.75104 0
M  V30 6116 H 593.776 4.52926 -4.10692 0
M  V30 6117 H 597.95 4.78381 -5.06088 0
M  V30 6118 H 595.577 4.97977 -5.7439 0
M  V30 6119 N 597.152 0.631951 1.44375 0
M  V30 6120 C 598.102 -0.0943862 2.27805 0
M  V30 6121 C 599.086 -0.815359 1.38711 0
M  V30 6122 O 600.278 -0.701331 1.62513 0
M  V30 6123 C 597.407 -1.07472 3.26044 0
M  V30 6124 C 596.493 -0.353329 4.22626 0
M  V30 6125 N 596.884 0.618512 5.02004 0
M  V30 6126 C 595.182 -0.597662 4.41977 0
M  V30 6127 C 595.883 1.0448 5.7224 0
M  V30 6128 N 594.859 0.383413 5.42246 0
M  V30 6129 H 598.661 0.651672 2.86584 0
M  V30 6130 H 596.175 0.45752 1.55822 0
M  V30 6131 H 598.172 -1.60969 3.84571 0
M  V30 6132 H 596.832 -1.82107 2.68825 0
M  V30 6133 H 597.843 0.996356 5.08226 0
M  V30 6134 H 594.52 -1.32682 3.95856 0
M  V30 6135 H 595.91 1.84773 6.45994 0
M  V30 6136 N 598.631 -1.53133 0.372548 0
M  V30 6137 C 599.859 -2.05774 -0.215515 0
M  V30 6138 C 600.274 -1.24555 -1.41886 0
M  V30 6139 O 599.631 -0.287951 -1.80214 0
M  V30 6140 C 599.682 -3.5645 -0.602161 0
M  V30 6141 O 599.403 -4.34591 0.553359 0
M  V30 6142 C 600.904 -4.25374 -1.24787 0
M  V30 6143 H 598.124 -0.670009 -0.0364529 0
M  V30 6144 H 600.668 -1.97434 0.532934 0
M  V30 6145 H 598.823 -3.64918 -1.30052 0
M  V30 6146 H 599.237 -5.23954 0.239336 0
M  V30 6147 H 600.711 -5.32097 -1.46891 0
M  V30 6148 H 601.188 -3.79531 -2.21026 0
M  V30 6149 H 601.794 -4.21177 -0.590752 0
M  V30 6150 N 600.109 -0.101901 -1.5727 0
M  V30 6151 C 601.355 0.561027 -1.94885 0
M  V30 6152 C 601.688 1.6741 -0.984258 0
M  V30 6153 O 600.963 1.94491 -0.0184767 0
M  V30 6154 C 601.246 1.10982 -3.42571 0
M  V30 6155 C 601.099 0.00133418 -4.498 0
M  V30 6156 C 602.418 2.00608 -3.9172 0
M  V30 6157 H 599.537 0.202467 -0.708644 0
M  V30 6158 H 602.179 -0.173992 -1.89202 0
M  V30 6159 H 600.329 1.73621 -3.47546 0
M  V30 6160 H 602.001 -0.63322 -4.56933 0
M  V30 6161 H 600.244 -0.664143 -4.28686 0
M  V30 6162 H 600.915 0.426253 -5.50352 0
M  V30 6163 H 603.391 1.47864 -3.88941 0
M  V30 6164 H 602.267 2.3593 -4.95609 0
M  V30 6165 H 602.528 2.92608 -3.3141 0
M  V30 6166 N 601.587 1.56661 0.17182 0
M  V30 6167 C 602.55 1.9549 1.19651 0
M  V30 6168 C 603.55 0.838501 1.37207 0
M  V30 6169 O 604.74 1.10556 1.34622 0
M  V30 6170 C 601.872 2.24927 2.56166 0
M  V30 6171 H 603.065 2.87184 0.864007 0
M  V30 6172 H 600.618 1.50711 0.41425 0
M  V30 6173 H 601.353 1.35944 2.94431 0
M  V30 6174 H 601.138 3.06301 2.4479 0
M  V30 6175 H 602.628 2.55891 3.30014 0
M  V30 6176 N 603.065 -0.440357 1.51323 0
M  V30 6177 C 604.015 -1.53263 1.68803 0
M  V30 6178 C 604.999 -1.51494 0.542057 0
M  V30 6179 O 606.191 -1.57999 0.797839 0
M  V30 6180 C 603.32 -2.91479 1.8137 0
M  V30 6181 C 602.406 -2.98015 3.01742 0
M  V30 6182 N 602.797 -2.743 4.24962 0
M  V30 6183 C 601.095 -3.29173 3.00934 0
M  V30 6184 C 601.796 -2.86601 5.06197 0
M  V30 6185 N 600.772 -3.1814 4.40781 0
M  V30 6186 H 604.574 -1.33675 2.61741 0
M  V30 6187 H 602.088 -0.647616 1.48929 0
M  V30 6188 H 604.085 -3.70055 1.92002 0
M  V30 6189 H 602.745 -3.12089 0.896117 0
M  V30 6190 H 603.756 -2.49287 4.53957 0
M  V30 6191 H 600.433 -3.55577 2.18796 0
M  V30 6192 H 601.823 -2.72246 6.14274 0
M  V30 6193 N 604.543 -1.41418 -0.695603 0
M  V30 6194 C 605.789 -1.40982 -1.4578 0
M  V30 6195 C 606.122 -0.0187763 -1.94191 0
M  V30 6196 O 605.397 0.95346 -1.69527 0
M  V30 6197 C 605.68 -2.41657 -2.66972 0
M  V30 6198 C 605.533 -3.89869 -2.24327 0
M  V30 6199 C 606.852 -2.39589 -3.69168 0
M  V30 6200 H 603.971 -0.513405 -0.528757 0
M  V30 6201 H 606.613 -1.72693 -0.792275 0
M  V30 6202 H 604.763 -2.14746 -3.23754 0
M  V30 6203 H 606.435 -4.27683 -1.72872 0
M  V30 6204 H 604.678 -4.04737 -1.56111 0
M  V30 6205 H 605.349 -4.55857 -3.11285 0
M  V30 6206 H 607.825 -2.63471 -3.2206 0
M  V30 6207 H 606.701 -3.12044 -4.51575 0
M  V30 6208 H 606.962 -1.41447 -4.18862 0
M  V30 6209 N 606.021 0.929856 -1.27246 0
M  V30 6210 C 606.954 2.03069 -1.04106 0
M  V30 6211 C 607.932 1.62556 0.0378417 0
M  V30 6212 O 609.116 1.88197 -0.106869 0
M  V30 6213 C 606.243 3.33718 -0.578778 0
M  V30 6214 C 605.289 3.93209 -1.65193 0
M  V30 6215 S 606.122 4.26068 -3.24386 0
M  V30 6216 C 607.278 5.598 -2.79954 0
M  V30 6217 H 607.511 2.22386 -1.97311 0
M  V30 6218 H 605.044 1.07269 -1.11053 0
M  V30 6219 H 607.002 4.09261 -0.31874 0
M  V30 6220 H 605.663 3.12328 0.333182 0
M  V30 6221 H 604.856 4.87482 -1.27973 0
M  V30 6222 H 604.458 3.24243 -1.86393 0
M  V30 6223 H 606.75 6.39004 -2.25123 0
M  V30 6224 H 607.693 6.01917 -3.72963 0
M  V30 6225 H 608.101 5.20219 -2.19164 0
M  V30 6226 N 607.499 1.09233 1.13605 0
M  V30 6227 C 608.409 0.741939 2.22559 0
M  V30 6228 C 609.425 -0.255236 1.72118 0
M  V30 6229 O 610.601 -0.0970747 2.01166 0
M  V30 6230 C 607.666 0.165595 3.46304 0
M  V30 6231 C 606.727 1.21846 4.11645 0
M  V30 6232 C 605.96 0.669526 5.29484 0
M  V30 6233 O 606.183 -0.508228 5.68131 0
M  V30 6234 O 605.117 1.42361 5.84822 0
M  V30 6235 H 608.943 1.65107 2.54899 0
M  V30 6236 H 606.528 0.866584 1.21699 0
M  V30 6237 H 608.41 -0.152592 4.21124 0
M  V30 6238 H 607.085 -0.716573 3.15669 0
M  V30 6239 H 605.992 1.58931 3.38662 0
M  V30 6240 H 607.325 2.07321 4.46407 0
M  V30 6241 N 608.977 -1.30795 0.87923 0
M  V30 6242 C 610.223 -1.96653 0.495519 0
M  V30 6243 C 610.556 -1.69282 -0.951703 0
M  V30 6244 O 609.831 -0.994374 -1.6716 0
M  V30 6245 C 610.114 -3.51898 0.764174 0
M  V30 6246 C 609.967 -3.88808 2.2616 0
M  V30 6247 C 611.286 -4.39462 0.236825 0
M  V30 6248 H 608.405 -0.7143 0.181507 0
M  V30 6249 H 611.047 -1.54765 1.10217 0
M  V30 6250 H 609.197 -3.87709 0.247841 0
M  V30 6251 H 610.869 -3.63051 2.8459 0
M  V30 6252 H 609.112 -3.37082 2.73053 0
M  V30 6253 H 609.783 -4.97086 2.4002 0
M  V30 6254 H 612.259 -4.10528 0.678683 0
M  V30 6255 H 611.135 -5.47018 0.454176 0
M  V30 6256 H 611.396 -4.33621 -0.861683 0
M  V30 6257 N 610.455 -0.639598 -1.44038 0
M  V30 6258 C 611.704 -0.144885 -2.01179 0
M  V30 6259 C 612.017 1.24372 -1.50967 0
M  V30 6260 O 613.223 1.83291 -2.00292 0
M  V30 6261 C 611.679 -0.208244 -3.59297 0
M  V30 6262 C 611.287 -1.59869 -4.18504 0
M  V30 6263 C 613.031 0.229568 -4.23879 0
M  V30 6264 C 610.938 -1.61671 -5.68873 0
M  V30 6265 H 609.868 -0.0504005 -0.752314 0
M  V30 6266 H 612.519 -0.799639 -1.65161 0
M  V30 6267 H 610.901 0.513767 -3.92653 0
M  V30 6268 H 612.075 -2.34496 -3.96671 0
M  V30 6269 H 610.39 -1.98131 -3.66242 0
M  V30 6270 H 612.987 0.235758 -5.3418 0
M  V30 6271 H 613.33 1.25848 -3.96822 0
M  V30 6272 H 613.863 -0.440233 -3.95357 0
M  V30 6273 H 610.602 -2.62427 -6.00677 0
M  V30 6274 H 610.122 -0.913489 -5.92803 0
M  V30 6275 H 611.801 -1.35439 -6.32665 0
M  V30 6276 N 611.933 1.52934 -0.380664 0
M  V30 6277 C 613.21 1.93845 0.261417 0
M  V30 6278 C 613.59 1.31544 1.65104 0
M  V30 6279 O 612.938 0.480234 2.23397 0
M  V30 6280 C 613.148 3.47739 0.296466 0
M  V30 6281 C 614.496 4.21284 0.529578 0
M  V30 6282 O 615.52 3.54199 0.377041 0
M  V30 6283 O 614.379 5.40195 0.827753 0
M  V30 6284 H 611.473 0.811318 0.160285 0
M  V30 6285 H 614.019 1.64042 -0.434544 0
M  V30 6286 H 612.791 3.85395 -0.67724 0
M  V30 6287 H 612.414 3.8382 1.0377 0
M  V30 6288 N 613.412 0.11024 1.57214 0
M  V30 6289 C 614.375 -0.828808 2.1369 0
M  V30 6290 C 615.375 -1.20059 1.06969 0
M  V30 6291 O 616.565 -1.12754 1.32786 0
M  V30 6292 C 613.697 -2.11959 2.66994 0
M  V30 6293 H 614.89 -0.338146 2.97988 0
M  V30 6294 H 612.443 -0.138913 1.55681 0
M  V30 6295 H 613.178 -2.65476 1.8626 0
M  V30 6296 H 612.963 -1.86258 3.45037 0
M  V30 6297 H 614.453 -2.79105 3.10629 0
M  V30 6298 N 614.89 -1.56749 -0.16351 0
M  V30 6299 C 616.306 -1.51043 -0.515567 0
M  V30 6300 C 616.506 -0.815855 -1.84245 0
M  V30 6301 O 615.562 -0.379477 -2.49632 0
M  V30 6302 C 616.875 -2.95791 -0.541114 0
M  V30 6303 C 618.423 -3.0664 -0.627776 0
M  V30 6304 C 618.898 -4.52861 -0.684141 0
M  V30 6305 N 620.389 -4.5714 -0.746818 0
M  V30 6306 C 621.124 -5.67634 -0.811137 0
M  V30 6307 N 620.62 -6.8774 -0.835811 0
M  V30 6308 N 622.413 -5.55624 -0.850756 0
M  V30 6309 H 614.564 -2.00307 0.70645 0
M  V30 6310 H 616.827 -0.912876 0.255659 0
M  V30 6311 H 616.533 -3.49797 0.365329 0
M  V30 6312 H 616.407 -3.50858 -1.38487 0
M  V30 6313 H 618.794 -2.52663 -1.52464 0
M  V30 6314 H 618.875 -2.54645 0.242805 0
M  V30 6315 H 618.519 -5.07472 0.2085 0
M  V30 6316 H 618.449 -5.02621 -1.57098 0
M  V30 6317 H 620.94 -3.70669 -0.735717 0
M  V30 6318 H 621.253 -7.67701 -0.886279 0
M  V30 6319 H 619.598 -6.90334 -0.803958 0
M  V30 6320 H 622.789 -4.60709 -0.828535 0
M  V30 6321 H 622.962 -6.41756 -0.897418 0
M  V30 6322 N 616.368 0.432326 -1.51554 0
M  V30 6323 C 617.784 0.769195 -1.39841 0
M  V30 6324 C 617.984 1.95584 -0.484675 0
M  V30 6325 O 617.04 2.52433 0.0582829 0
M  V30 6326 C 618.353 1.04487 -2.81963 0
M  V30 6327 C 619.901 1.149 -2.91148 0
M  V30 6328 C 620.376 1.45758 -4.34187 0
M  V30 6329 N 621.867 1.52671 -4.37317 0
M  V30 6330 C 622.602 1.78129 -5.4503 0
M  V30 6331 N 622.098 2.01345 -6.62897 0
M  V30 6332 N 623.891 1.79953 -5.32516 0
M  V30 6333 H 616.042 -0.349122 -2.09511 0
M  V30 6334 H 618.305 -0.0938113 -0.943347 0
M  V30 6335 H 618.011 0.24557 -3.50842 0
M  V30 6336 H 617.885 1.97119 -3.21596 0
M  V30 6337 H 620.272 1.93891 -2.22464 0
M  V30 6338 H 620.353 0.201568 -2.55005 0
M  V30 6339 H 619.997 0.672917 -5.03423 0
M  V30 6340 H 619.927 2.41715 -4.67848 0
M  V30 6341 H 622.418 1.36612 -3.52343 0
M  V30 6342 H 622.731 2.20155 -7.40778 0
M  V30 6343 H 621.076 1.98657 -6.66003 0
M  V30 6344 H 624.267 1.61337 -4.39418 0
M  V30 6345 H 624.44 1.99455 -6.1654 0
M  V30 6346 N 617.846 1.41785 0.688094 0
M  V30 6347 C 619.071 1.45117 1.48175 0
M  V30 6348 C 619.496 0.060129 1.88004 0
M  V30 6349 O 618.854 -0.938385 1.55126 0
M  V30 6350 C 618.902 2.37224 2.71583 0
M  V30 6351 O 618.006 1.83443 3.69354 0
M  V30 6352 H 617.347 0.492208 0.445676 0
M  V30 6353 H 619.877 1.86329 0.845145 0
M  V30 6354 H 619.887 2.53353 3.19806 0
M  V30 6355 H 618.562 3.38293 2.41931 0
M  V30 6356 H 617.139 1.76802 3.28322 0
M  V30 6357 N 619.324 -0.923095 1.27737 0
M  V30 6358 C 620.572 -1.66797 1.14119 0
M  V30 6359 C 620.893 -1.92479 -0.312541 0
M  V30 6360 O 620.163 -1.53432 -1.218 0
M  V30 6361 H 618.743 -0.618196 0.419336 0
M  V30 6362 H 621.405 -1.10815 1.60331 0
M  V30 6363 H 620.501 -2.63424 1.67374 0
M  V30 6364 N 620.802 -1.09834 -1.13024 0
M  V30 6365 C 622.05 -0.835297 -1.8403 0
M  V30 6366 C 622.371 0.640944 -1.84165 0
M  V30 6367 O 621.641 1.46517 -1.30037 0
M  V30 6368 H 620.221 -0.306018 -0.681441 0
M  V30 6369 H 622.883 -1.38734 -1.36891 0
M  V30 6370 H 621.979 -1.19258 -2.88416 0
M  V30 6371 N 622.28 1.30327 -0.886154 0
M  V30 6372 C 623.227 2.28099 -0.352069 0
M  V30 6373 C 624.197 1.56433 0.558397 0
M  V30 6374 O 625.382 1.84492 0.486561 0
M  V30 6375 C 622.522 3.42456 0.426346 0
M  V30 6376 C 621.635 4.28938 -0.513472 0
M  V30 6377 C 620.77 5.30458 0.280657 0
M  V30 6378 C 619.809 6.0859 -0.654556 0
M  V30 6379 N 618.946 7.02022 0.104322 0
M  V30 6380 H 623.786 2.73166 -1.19097 0
M  V30 6381 H 621.323 1.34367 -0.598662 0
M  V30 6382 H 623.281 4.07518 0.893587 0
M  V30 6383 H 621.911 2.98455 1.22981 0
M  V30 6384 H 620.963 3.64173 -1.09921 0
M  V30 6385 H 622.275 4.83399 -1.2299 0
M  V30 6386 H 621.429 6.01273 0.8097 0
M  V30 6387 H 620.168 4.76693 1.03029 0
M  V30 6388 H 619.173 5.36651 -1.19522 0
M  V30 6389 H 620.398 6.64443 -1.4033 0
M  V30 6390 H 618.344 6.50645 0.836472 0
M  V30 6391 H 618.261 7.53979 -0.552453 0
M  V30 6392 H 619.529 7.77077 0.614069 0
M  V30 6393 O 623.797 0.786908 1.41032 0
M  V30 6394 H 624.488 0.356185 1.90397 0
M  V30 END ATOM
M  V30 BEGIN BOND
M  V30 END BOND
M  V30 END CTAB
M  END
$$$$
