drugbank_target|Q27655 Enolase (DB12245)
 OpenBabel12092121193D

  0  0  0     0  0            999 V3000
M  V30 BEGIN CTAB
M  V30 COUNTS 6480 6534 0 0 0
M  V30 BEGIN ATOM
M  V30 1 H -0.908 1.98254 -0.117106 0
M  V30 2 N 0 1.576 0 0
M  V30 3 C 0.933 2.03868 1.02534 0
M  V30 4 C 1.911 0.928543 1.3348 0
M  V30 5 O 3.095 1.19667 1.45644 0
M  V30 6 C 0.222 2.43627 2.35294 0
M  V30 7 C -0.732 3.65373 2.2001 0
M  V30 8 S 0.101 5.13292 1.52614 0
M  V30 9 C 1.257 5.56322 2.86805 0
M  V30 10 H 1.49 2.90518 0.631377 0
M  V30 11 H -0.977 1.52953 0.210867 0
M  V30 12 H 0.981 2.67203 3.11629 0
M  V30 13 H -0.358 1.57376 2.7183 0
M  V30 14 H -1.165 3.90944 3.18086 0
M  V30 15 H -1.563 3.418 1.51819 0
M  V30 16 H 0.729 5.58782 3.83104 0
M  V30 17 H 1.672 6.56266 2.65933 0
M  V30 18 H 2.08 4.83886 2.90714 0
M  V30 19 N 1.4781 -0.272755 1.55222 0
M  V30 20 C 2.4411 -1.32041 1.87344 0
M  V30 21 C 3.4411 -1.42342 0.74803 0
M  V30 22 O 4.6311 -1.41488 1.0162 0
M  V30 23 C 1.7631 -2.70173 2.07893 0
M  V30 24 H 2.9561 -1.04789 2.80997 0
M  V30 25 H 0.5091 -0.51083 1.47717 0
M  V30 26 H 1.2441 -3.02605 1.16622 0
M  V30 27 H 1.0291 -2.64082 2.89833 0
M  V30 28 H 2.5191 -3.45869 2.34017 0
M  V30 29 N 2.9562 -1.48159 -0.537278 0
M  V30 30 C 4.2052 -1.5506 -1.28993 0
M  V30 31 C 4.5182 -0.226211 -1.94288 0
M  V30 32 O 5.7242 -0.173395 -2.70946 0
M  V30 33 C 4.1802 -2.73429 -2.34018 0
M  V30 34 C 3.7882 -4.1248 -1.74825 0
M  V30 35 C 5.5322 -2.89638 -3.10339 0
M  V30 36 C 3.4392 -5.22121 -2.77747 0
M  V30 37 H 2.3692 -0.577231 -0.485098 0
M  V30 38 H 5.0202 -1.74478 -0.568317 0
M  V30 39 H 3.4022 -2.47431 -3.09182 0
M  V30 40 H 4.5762 -4.48466 -1.05899 0
M  V30 41 H 2.8912 -4.01327 -1.11022 0
M  V30 42 H 5.4882 -3.68718 -3.87235 0
M  V30 43 H 5.8312 -1.9882 -3.65754 0
M  V30 44 H 6.3642 -3.15502 -2.42288 0
M  V30 45 H 3.1032 -6.1488 -2.27161 0
M  V30 46 H 2.6232 -4.90631 -3.45024 0
M  V30 47 H 4.3022 -5.49924 -3.4087 0
M  V30 48 N 4.4343 0.785586 -1.36625 0
M  V30 49 C 5.3813 1.89838 -1.31264 0
M  V30 50 C 6.3513 1.65115 -0.180633 0
M  V30 51 O 7.5363 1.87222 -0.36777 0
M  V30 52 C 4.6763 3.26706 -1.11163 0
M  V30 53 C 3.7893 3.63476 -2.33472 0
M  V30 54 C 2.9243 4.89481 -2.06353 0
M  V30 55 C 1.9633 5.18941 -3.24602 0
M  V30 56 N 1.1003 6.36131 -2.97123 0
M  V30 57 H 5.9403 1.93756 -2.26413 0
M  V30 58 H 3.4773 0.947454 -1.12524 0
M  V30 59 H 5.4353 4.05639 -0.975337 0
M  V30 60 H 4.0653 3.222 -0.196674 0
M  V30 61 H 3.1173 2.79636 -2.57891 0
M  V30 62 H 4.4293 3.81193 -3.21704 0
M  V30 63 H 3.5833 5.76288 -1.89675 0
M  V30 64 H 2.3223 4.73841 -1.15437 0
M  V30 65 H 1.3273 4.30615 -3.41834 0
M  V30 66 H 2.5523 5.36498 -4.16349 0
M  V30 67 H 0.4983 6.21875 -2.08823 0
M  V30 68 H 0.4153 6.54198 -3.78894 0
M  V30 69 H 1.6833 7.2591 -2.84033 0
M  V30 70 N 5.9124 1.20967 1.01018 0
M  V30 71 C 6.8754 0.965918 2.07853 0
M  V30 72 C 7.8754 -0.0610545 1.60684 0
M  V30 73 O 9.0654 0.175681 1.73312 0
M  V30 74 C 6.1974 0.455513 3.37843 0
M  V30 75 H 7.3904 1.91365 2.3091 0
M  V30 76 H 4.9434 1.02594 1.17916 0
M  V30 77 H 5.6784 -0.497381 3.20463 0
M  V30 78 H 5.4634 1.19622 3.73407 0
M  V30 79 H 6.9534 0.304667 4.16487 0
M  V30 80 N 7.3905 -1.2043 1.01659 0
M  V30 81 C 8.6395 -1.89118 0.701237 0
M  V30 82 C 8.9525 -1.79705 -0.772358 0
M  V30 83 O 10.1585 -2.43528 -1.20026 0
M  V30 84 C 8.6145 -3.39168 1.20388 0
M  V30 85 C 8.2225 -3.57166 2.70438 0
M  V30 86 C 9.9665 -4.1341 0.963953 0
M  V30 87 C 7.8735 -5.01042 3.14183 0
M  V30 88 H 6.8035 -0.708267 0.2586 0
M  V30 89 H 9.4545 -1.36239 1.22927 0
M  V30 90 H 7.8365 -3.91369 0.603824 0
M  V30 91 H 9.0105 -3.15351 3.35992 0
M  V30 92 H 7.3255 -2.96294 2.92572 0
M  V30 93 H 9.9225 -5.19491 1.26621 0
M  V30 94 H 10.2655 -4.16181 -0.099578 0
M  V30 95 H 10.7985 -3.67309 1.52738 0
M  V30 96 H 7.5375 -5.03426 4.19812 0
M  V30 97 H 7.0575 -5.43668 2.53348 0
M  V30 98 H 8.7365 -5.69623 3.0682 0
M  V30 99 N 8.8686 -0.792821 -1.36206 0
M  V30 100 C 9.8186 -0.166598 -2.27391 0
M  V30 101 C 10.8026 0.651479 -1.47121 0
M  V30 102 O 11.9946 0.510994 -1.69463 0
M  V30 103 C 9.1236 0.695033 -3.36191 0
M  V30 104 C 8.2096 -0.132019 -4.23894 0
M  V30 105 N 8.6006 -1.18822 -4.91645 0
M  V30 106 C 6.8986 0.0885952 -4.45912 0
M  V30 107 C 7.5996 -1.69198 -5.56549 0
M  V30 108 N 6.5756 -1.00065 -5.34311 0
M  V30 109 H 10.3776 -0.974947 -2.77258 0
M  V30 110 H 7.8916 -0.632616 -1.49572 0
M  V30 111 H 9.8886 1.1596 -4.00448 0
M  V30 112 H 8.5486 1.50189 -2.87877 0
M  V30 113 H 9.5596 -1.57069 -4.93507 0
M  V30 114 H 6.2366 0.865688 -4.08426 0
M  V30 115 H 7.6266 -2.57395 -6.20643 0
M  V30 116 N 10.3467 1.47872 -0.545128 0
M  V30 117 C 11.3097 2.28337 0.198717 0
M  V30 118 C 12.3097 1.36255 0.853888 0
M  V30 119 O 13.4997 1.59003 0.711606 0
M  V30 120 C 10.6317 3.15585 1.28915 0
M  V30 121 H 11.8247 2.95567 -0.507941 0
M  V30 122 H 9.3777 1.53362 -0.301616 0
M  V30 123 H 10.1127 2.53019 2.02859 0
M  V30 124 H 9.8977 3.83337 0.824309 0
M  V30 125 H 11.3877 3.76243 1.81194 0
M  V30 126 N 11.8248 0.280983 1.55075 0
M  V30 127 C 13.2408 -0.0729964 1.59433 0
M  V30 128 C 13.4408 -1.5411 1.29817 0
M  V30 129 O 12.4968 -2.29086 1.06187 0
M  V30 130 C 13.8098 0.306921 2.9913 0
M  V30 131 C 15.3578 0.254023 3.11968 0
M  V30 132 C 15.8328 0.608467 4.5394 0
M  V30 133 N 17.3238 0.560241 4.59799 0
M  V30 134 C 18.0588 0.80722 5.6769 0
M  V30 135 N 17.5548 1.11912 6.83701 0
M  V30 136 N 19.3478 0.735623 5.57266 0
M  V30 137 H 11.4988 1.238 1.7259 0
M  V30 138 H 13.7618 0.500547 0.805082 0
M  V30 139 H 13.4678 1.32816 3.25657 0
M  V30 140 H 13.3418 -0.349363 3.75579 0
M  V30 141 H 15.7288 -0.75794 2.852 0
M  V30 142 H 15.8098 0.944649 2.37718 0
M  V30 143 H 15.4538 1.61814 4.81434 0
M  V30 144 H 15.3838 -0.104013 5.26497 0
M  V30 145 H 17.8748 0.329288 3.76463 0
M  V30 146 H 18.1878 1.29409 7.61888 0
M  V30 147 H 16.5328 1.15695 6.85303 0
M  V30 148 H 19.7238 0.491752 4.6551 0
M  V30 149 H 19.8968 0.931482 6.4127 0
M  V30 150 N 13.3029 -1.57598 0.00835791 0
M  V30 151 C 14.2349 -2.05811 -1.00868 0
M  V30 152 C 15.2479 -0.977579 -1.30182 0
M  V30 153 O 16.4369 -1.25421 -1.27011 0
M  V30 154 C 13.5369 -2.45016 -2.34137 0
M  V30 155 C 12.7099 -3.75903 -2.23643 0
M  V30 156 C 11.7689 -4.01884 -3.3967 0
M  V30 157 O 10.7949 -4.72433 -3.17483 0
M  V30 158 N 11.9969 -3.50432 -4.62793 0
M  V30 159 H 14.7619 -2.93684 -0.597458 0
M  V30 160 H 12.3229 -1.60909 -0.178852 0
M  V30 161 H 14.3149 -2.59506 -3.10546 0
M  V30 162 H 12.8849 -1.62618 -2.66972 0
M  V30 163 H 12.1049 -3.7141 -1.32091 0
M  V30 164 H 13.3929 -4.61695 -2.13812 0
M  V30 165 H 12.7909 -2.93317 -4.83716 0
M  V30 166 H 11.3479 -3.70236 -5.3644 0
M  V30 167 N 14.781 0.264519 -1.55364 0
M  V30 168 C 16.03 0.992812 -1.75574 0
M  V30 169 C 16.343 1.87142 -0.568979 0
M  V30 170 O 17.549 2.63513 -0.653682 0
M  V30 171 C 16.005 1.81519 -3.10771 0
M  V30 172 C 15.613 0.984839 -4.37041 0
M  V30 173 C 17.357 2.53727 -3.40327 0
M  V30 174 C 15.264 1.80209 -5.63275 0
M  V30 175 H 14.194 0.374412 -0.65447 0
M  V30 176 H 16.845 0.248138 -1.81815 0
M  V30 177 H 15.227 2.60115 -2.98591 0
M  V30 178 H 16.401 0.242455 -4.60162 0
M  V30 179 H 14.716 0.37691 -4.14691 0
M  V30 180 H 17.313 3.15292 -4.3185 0
M  V30 181 H 17.656 3.24447 -2.60845 0
M  V30 182 H 18.189 1.82156 -3.53644 0
M  V30 183 H 14.928 1.13896 -6.45529 0
M  V30 184 H 14.448 2.52022 -5.44284 0
M  V30 185 H 16.127 2.37364 -6.01887 0
M  V30 186 N 16.2591 1.48442 0.529413 0
M  V30 187 C 17.5061 1.56488 1.28521 0
M  V30 188 C 17.8341 0.239042 1.93025 0
M  V30 189 O 17.0891 -0.770713 1.79885 0
M  V30 190 C 17.3881 2.6523 2.39558 0
M  V30 191 C 17.0541 4.07648 1.92702 0
M  V30 192 C 15.7161 4.46411 1.79641 0
M  V30 193 C 18.0681 4.96896 1.573 0
M  V30 194 C 15.3961 5.72226 1.29514 0
M  V30 195 C 17.7481 6.23202 1.08636 0
M  V30 196 C 16.4121 6.60821 0.941919 0
M  V30 197 H 15.6821 0.572631 0.470292 0
M  V30 198 H 18.3291 1.82161 0.59072 0
M  V30 199 H 16.6341 2.33419 3.14679 0
M  V30 200 H 18.3311 2.68671 2.97686 0
M  V30 201 H 14.9211 3.77036 2.03819 0
M  V30 202 H 19.1051 4.67626 1.66251 0
M  V30 203 H 14.3611 6.00097 1.17019 0
M  V30 204 H 18.5351 6.91753 0.803136 0
M  V30 205 H 16.1621 7.58198 0.5513 0
M  V30 206 N 17.7372 -0.778329 1.37039 0
M  V30 207 C 19.0142 -1.52551 1.22424 0
M  V30 208 C 19.3942 -2.10288 -0.184964 0
M  V30 209 O 18.7422 -1.94953 -1.19187 0
M  V30 210 C 18.9522 -2.61164 2.31504 0
M  V30 211 C 20.3002 -3.28746 2.68721 0
M  V30 212 O 21.3242 -2.71455 2.30631 0
M  V30 213 O 20.1832 -4.3231 3.3432 0
M  V30 214 H 17.2772 -0.675343 0.477326 0
M  V30 215 H 19.8232 -0.815859 1.48801 0
M  V30 216 H 18.5952 -2.16574 3.25901 0
M  V30 217 H 18.2182 -3.39737 2.06554 0
M  V30 218 N 19.2153 -1.21501 -1.00376 0
M  V30 219 C 20.4403 -1.05977 -1.78279 0
M  V30 220 C 20.8653 0.385994 -1.84097 0
M  V30 221 O 20.2233 1.27849 -1.28547 0
M  V30 222 C 20.2713 -1.66302 -3.19963 0
M  V30 223 O 19.3753 -0.909333 -4.0225 0
M  V30 224 H 18.7163 -0.372906 -0.549397 0
M  V30 225 H 21.2463 -1.6107 -1.26165 0
M  V30 226 H 21.2563 -1.70574 -3.70632 0
M  V30 227 H 19.9313 -2.71515 -3.15043 0
M  V30 228 H 18.5083 -0.941795 -3.60811 0
M  V30 229 N 20.6934 1.19889 -1.02296 0
M  V30 230 C 22.1094 1.41462 -0.738954 0
M  V30 231 C 22.3094 1.89721 0.678846 0
M  V30 232 O 21.3654 2.07016 1.4457 0
M  V30 233 C 22.6784 2.43083 -1.77005 0
M  V30 234 C 24.2264 2.5684 -1.78892 0
M  V30 235 C 24.7014 3.61709 -2.80945 0
M  V30 236 N 26.1924 3.69199 -2.79725 0
M  V30 237 C 26.9274 4.50019 -3.55345 0
M  V30 238 N 26.4234 5.34592 -4.40662 0
M  V30 239 N 28.2164 4.44612 -3.43914 0
M  V30 240 H 20.3674 0.868827 -1.93817 0
M  V30 241 H 22.6304 0.44399 -0.837602 0
M  V30 242 H 22.3364 2.14636 -2.78612 0
M  V30 243 H 22.2104 3.4217 -1.58744 0
M  V30 244 H 24.5974 2.84614 -0.779674 0
M  V30 245 H 24.6784 1.57927 -2.01228 0
M  V30 246 H 24.3224 3.34678 -3.82038 0
M  V30 247 H 24.2524 4.60259 -2.5587 0
M  V30 248 H 26.7434 3.08794 -2.17842 0
M  V30 249 H 27.0564 5.93363 -4.95116 0
M  V30 250 H 25.4014 5.34073 -4.44737 0
M  V30 251 H 28.5924 3.7758 -2.76679 0
M  V30 252 H 28.7654 5.0736 -4.031 0
M  V30 253 N 22.1715 0.800033 1.35784 0
M  V30 254 C 23.4195 0.376597 1.9856 0
M  V30 255 C 23.7405 -1.05812 1.63795 0
M  V30 256 O 23.0105 -1.73103 0.917171 0
M  V30 257 H 21.5905 0.136261 0.734467 0
M  V30 258 H 24.2525 1.02442 1.65806 0
M  V30 259 H 23.3485 0.477002 3.08433 0
M  V30 260 N 23.6496 -1.47581 0.552962 0
M  V30 261 C 24.5976 -2.31648 -0.21023 0
M  V30 262 C 25.5916 -1.42663 -0.913432 0
M  V30 263 O 26.7976 -1.5945 -0.835201 0
M  V30 264 H 23.1726 -0.746989 -0.0866676 0
M  V30 265 H 25.1436 -2.93869 0.518051 0
M  V30 266 C 23.8926 -3.25226 -1.22976 0
M  V30 267 H 23.2156 -3.93658 -0.698077 0
M  V30 268 H 24.6556 -3.86889 -1.73473 0
M  V30 269 C 23.1146 -2.48448 -2.27542 0
M  V30 270 O 23.6446 -2.22585 -3.34393 0
M  V30 271 N 21.8506 -2.09532 -2.01357 0
M  V30 272 H 21.3976 -2.30765 -1.14478 0
M  V30 273 H 21.3556 -1.58476 -2.71538 0
M  V30 274 N 25.1277 -0.289203 -1.54924 0
M  V30 275 C 26.5387 0.205791 -1.85562 0
M  V30 276 C 26.8897 1.54351 -1.2112 0
M  V30 277 O 26.0147 2.10435 -0.504601 0
M  V30 278 C 26.6097 0.380177 -3.3666 0
M  V30 279 C 25.1687 0.819395 -3.67373 0
M  V30 280 C 24.3157 -0.079159 -2.77187 0
M  V30 281 H 27.2667 -0.510577 -1.50262 0
M  V30 282 H 27.2877 1.21659 -3.60526 0
M  V30 283 H 26.7997 -0.593589 -3.83534 0
M  V30 284 H 24.9007 1.80413 -3.26009 0
M  V30 285 H 25.0137 0.646957 -4.74712 0
M  V30 286 H 23.3777 0.439565 -2.50878 0
M  V30 287 H 24.1607 -1.04906 -3.26878 0
M  V30 288 N 26.6058 1.57591 -0.0167156 0
M  V30 289 C 27.8338 1.95575 0.675128 0
M  V30 290 C 28.2488 0.892542 1.6637 0
M  V30 291 O 27.6058 -0.126912 1.82058 0
M  V30 292 C 27.6568 3.33608 1.39239 0
M  V30 293 O 27.3778 4.3585 0.443444 0
M  V30 294 C 28.8788 3.86151 2.17721 0
M  V30 295 H 26.0988 0.644423 0.186978 0
M  V30 296 H 28.6428 2.0437 -0.0728 0
M  V30 297 H 26.7978 3.2607 2.09182 0
M  V30 298 H 27.2118 5.158 0.951358 0
M  V30 299 H 28.6858 4.85114 2.63379 0
M  V30 300 H 29.1628 3.19738 3.01105 0
M  V30 301 H 29.7688 3.96918 1.52761 0
M  V30 302 N 28.0839 -0.256276 1.55502 0
M  V30 303 C 29.3299 -0.987079 1.77157 0
M  V30 304 C 29.6629 -1.85327 0.580315 0
M  V30 305 O 28.9379 -1.89874 -0.421686 0
M  V30 306 C 29.2209 -1.85553 3.08613 0
M  V30 307 C 29.0739 -1.01816 4.38125 0
M  V30 308 C 30.3929 -2.8397 3.36228 0
M  V30 309 H 27.5119 -0.357428 0.644526 0
M  V30 310 H 30.1539 -0.258239 1.88237 0
M  V30 311 H 28.3039 -2.47695 2.99298 0
M  V30 312 H 29.9759 -0.416159 4.59419 0
M  V30 313 H 28.2189 -0.322178 4.32602 0
M  V30 314 H 28.8899 -1.65939 5.26468 0
M  V30 315 H 31.3659 -2.31964 3.45445 0
M  V30 316 H 30.2419 -3.41864 4.29442 0
M  V30 317 H 30.5029 -3.59955 2.56681 0
M  V30 318 N 29.562 -1.4872 -0.521534 0
M  V30 319 C 30.472 -1.66569 -1.65203 0
M  V30 320 C 31.488 -0.548197 -1.65139 0
M  V30 321 O 32.664 -0.820339 -1.83936 0
M  V30 322 C 29.729 -1.70917 -3.01642 0
M  V30 323 C 28.79 -2.94356 -3.12495 0
M  V30 324 C 28.023 -2.98487 -4.42426 0
M  V30 325 O 28.246 -2.10786 -5.30024 0
M  V30 326 O 27.18 -3.90746 -4.57822 0
M  V30 327 H 31.006 -2.62298 -1.5308 0
M  V30 328 H 28.591 -1.3222 -0.695565 0
M  V30 329 H 30.473 -1.7625 -3.82771 0
M  V30 330 H 29.148 -0.783633 -3.14071 0
M  V30 331 H 28.055 -2.94552 -2.3063 0
M  V30 332 H 29.388 -3.86322 -3.04986 0
M  V30 333 N 31.0401 0.771051 -1.3745 0
M  V30 334 C 32.2861 1.5319 -1.32894 0
M  V30 335 C 32.6191 1.94008 0.0862511 0
M  V30 336 O 31.8941 1.64124 1.04373 0
M  V30 337 C 32.1771 2.79648 -2.26868 0
M  V30 338 C 32.0301 2.45079 -3.77169 0
M  V30 339 C 33.3491 3.81583 -2.19277 0
M  V30 340 H 30.4681 0.555744 -0.484064 0
M  V30 341 H 33.1101 0.884492 -1.68157 0
M  V30 342 H 31.2601 3.34891 -1.96926 0
M  V30 343 H 32.9321 1.95745 -4.1771 0
M  V30 344 H 31.1751 1.77767 -3.95704 0
M  V30 345 H 31.8461 3.35478 -4.38359 0
M  V30 346 H 34.3221 3.35835 -2.45671 0
M  V30 347 H 33.1981 4.67787 -2.87171 0
M  V30 348 H 33.4591 4.25897 -1.18592 0
M  V30 349 N 32.5182 1.22032 0.997298 0
M  V30 350 C 33.7952 0.950823 1.70935 0
M  V30 351 C 34.1752 -0.535292 2.042 0
M  V30 352 O 33.5232 -1.50217 1.72183 0
M  V30 353 C 33.7332 1.84386 2.96315 0
M  V30 354 C 35.0812 2.09732 3.69185 0
M  V30 355 O 36.1052 1.81798 3.06314 0
M  V30 356 O 34.9642 2.57018 4.82291 0
M  V30 357 H 32.0582 0.357204 0.745878 0
M  V30 358 H 34.6042 1.32997 1.05404 0
M  V30 359 H 33.3762 2.84928 2.68201 0
M  V30 360 H 32.9992 1.46602 3.69586 0
M  V30 361 N 33.9963 -1.19345 1.0293 0
M  V30 362 C 35.2423 -1.89318 0.727083 0
M  V30 363 C 35.5753 -1.79446 -0.742483 0
M  V30 364 O 34.8503 -1.1871 -1.54072 0
M  V30 365 C 35.1333 -3.40238 1.17942 0
M  V30 366 C 34.9863 -3.58979 2.71024 0
M  V30 367 C 36.3053 -4.33479 0.760548 0
M  V30 368 H 33.4243 -0.687475 0.265606 0
M  V30 369 H 36.0663 -1.40477 1.2793 0
M  V30 370 H 34.2163 -3.81964 0.709608 0
M  V30 371 H 35.8883 -3.26421 3.25955 0
M  V30 372 H 34.1313 -3.02018 3.11396 0
M  V30 373 H 34.8023 -4.64823 2.9773 0
M  V30 374 H 37.2783 -3.99469 1.16464 0
M  V30 375 H 36.1543 -5.37664 1.10493 0
M  V30 376 H 36.4153 -4.40813 -0.337063 0
M  V30 377 N 35.4744 -0.807222 -1.35358 0
M  V30 378 C 36.7024 -0.400377 -2.02989 0
M  V30 379 C 37.1174 0.988859 -1.60832 0
M  V30 380 O 36.4744 1.63729 -0.806175 0
M  V30 381 C 36.5254 -0.474867 -3.58368 0
M  V30 382 O 36.2464 -1.80933 -3.98992 0
M  V30 383 C 37.7474 -0.0609112 -4.43258 0
M  V30 384 H 34.9674 -0.162587 -0.651004 0
M  V30 385 H 37.5114 -1.09102 -1.72965 0
M  V30 386 H 35.6664 0.167534 -3.87038 0
M  V30 387 H 36.0804 -1.77256 -4.9364 0
M  V30 388 H 37.5544 -0.164145 -5.51756 0
M  V30 389 H 38.0314 0.993831 -4.27808 0
M  V30 390 H 38.6374 -0.676492 -4.19885 0
M  V30 391 N 36.9525 1.47285 -0.560781 0
M  V30 392 C 38.1805 2.06855 -0.0430262 0
M  V30 393 C 38.5955 1.41291 1.25229 0
M  V30 394 O 37.9525 0.510648 1.7521 0
M  V30 395 C 38.0035 3.61178 0.152518 0
M  V30 396 O 37.7245 4.24285 -1.0915 0
M  V30 397 C 39.2255 4.37624 0.707145 0
M  V30 398 H 36.4455 0.669319 -0.0474652 0
M  V30 399 H 38.9895 1.89237 -0.77521 0
M  V30 400 H 37.1445 3.78298 0.834843 0
M  V30 401 H 37.5585 5.16868 -0.891482 0
M  V30 402 H 39.0325 5.46271 0.793244 0
M  V30 403 H 39.5095 4.04152 1.71923 0
M  V30 404 H 40.1155 4.25257 0.0604027 0
M  V30 405 N 38.4306 0.297415 1.54768 0
M  V30 406 C 39.3936 -0.567375 2.22066 0
M  V30 407 C 40.3936 -1.06409 1.20556 0
M  V30 408 O 41.5836 -0.960691 1.45315 0
M  V30 409 C 38.7156 -1.78517 2.90421 0
M  V30 410 H 39.9086 0.0205534 2.99893 0
M  V30 411 H 37.4616 0.0482163 1.56226 0
M  V30 412 H 38.1966 -2.41303 2.16664 0
M  V30 413 H 37.9816 -1.43669 3.64831 0
M  V30 414 H 39.4716 -2.39964 3.41771 0
M  V30 415 N 39.9087 -1.5758 0.0250728 0
M  V30 416 C 40.8557 -2.09973 -0.958129 0
M  V30 417 C 41.8257 -1.00085 -1.3256 0
M  V30 418 O 43.0107 -1.27481 -1.41962 0
M  V30 419 C 40.1507 -2.62812 -2.2366 0
M  V30 420 C 39.2637 -3.86693 -1.92594 0
M  V30 421 C 38.3987 -4.27941 -3.14707 0
M  V30 422 C 37.4377 -5.44591 -2.79442 0
M  V30 423 N 36.5747 -5.81014 -3.94167 0
M  V30 424 H 41.4147 -2.937 -0.504428 0
M  V30 425 H 38.9517 -1.45172 -0.237392 0
M  V30 426 H 40.9097 -2.91536 -2.98434 0
M  V30 427 H 39.5397 -1.81922 -2.66654 0
M  V30 428 H 38.5917 -3.64723 -1.0808 0
M  V30 429 H 39.9037 -4.71547 -1.62619 0
M  V30 430 H 39.0577 -4.58079 -3.97804 0
M  V30 431 H 37.7967 -3.41845 -3.4784 0
M  V30 432 H 36.8017 -5.1415 -1.94755 0
M  V30 433 H 38.0267 -6.32382 -2.47528 0
M  V30 434 H 35.9727 -4.97874 -4.2715 0
M  V30 435 H 35.8897 -6.60498 -3.67801 0
M  V30 436 H 37.1577 -6.15756 -4.7798 0
M  V30 437 N 41.3868 0.248026 -1.55636 0
M  V30 438 C 42.6348 0.974295 -1.77065 0
M  V30 439 C 42.9558 1.85897 -0.588849 0
M  V30 440 O 42.2258 1.91868 0.395407 0
M  V30 441 H 40.8058 0.362733 -0.653019 0
M  V30 442 H 43.4678 0.266244 -1.93073 0
M  V30 443 H 42.5638 1.59667 -2.68166 0
M  V30 444 N 42.8649 1.48995 0.513639 0
M  V30 445 C 43.7949 1.67636 1.62544 0
M  V30 446 C 44.7759 0.525087 1.61793 0
M  V30 447 O 45.9609 0.759502 1.78732 0
M  V30 448 C 43.0909 1.73114 3.01079 0
M  V30 449 C 42.0449 2.87905 3.16693 0
M  V30 450 C 41.3709 2.78486 4.56453 0
M  V30 451 C 42.6709 4.29005 2.97913 0
M  V30 452 H 44.3649 2.60716 1.47198 0
M  V30 453 H 41.9109 1.25465 0.706714 0
M  V30 454 H 43.8639 1.84742 3.78746 0
M  V30 455 H 42.5879 0.766241 3.17484 0
M  V30 456 H 41.2469 2.75859 2.41448 0
M  V30 457 H 40.8949 1.7993 4.69717 0
M  V30 458 H 40.5949 3.55523 4.67843 0
M  V30 459 H 42.1189 2.92104 5.36197 0
M  V30 460 H 43.5329 4.41798 3.65359 0
M  V30 461 H 41.9299 5.07166 3.20785 0
M  V30 462 H 42.9999 4.44329 1.94165 0
M  V30 463 N 44.343 -0.763751 1.37857 0
M  V30 464 C 45.59 -1.52257 1.33506 0
M  V30 465 C 45.918 -1.94343 -0.078022 0
M  V30 466 O 45.173 -1.64958 -1.05297 0
M  V30 467 C 45.472 -2.79499 2.22745 0
M  V30 468 C 45.138 -2.56426 3.70886 0
M  V30 469 C 43.8 -2.49842 4.11257 0
M  V30 470 C 46.152 -2.36008 4.64704 0
M  V30 471 C 43.48 -2.20841 5.43549 0
M  V30 472 C 45.832 -2.0853 5.97242 0
M  V30 473 C 44.496 -2.00396 6.36709 0
M  V30 474 H 43.766 -0.557149 0.488534 0
M  V30 475 H 46.413 -0.879073 1.70131 0
M  V30 476 H 44.718 -3.48447 1.79142 0
M  V30 477 H 46.415 -3.37413 2.16688 0
M  V30 478 H 43.005 -2.62416 3.38874 0
M  V30 479 H 47.189 -2.40079 4.34368 0
M  V30 480 H 42.445 -2.13045 5.73081 0
M  V30 481 H 46.619 -1.91732 6.69486 0
M  V30 482 H 44.246 -1.77688 7.39142 0
M  V30 483 N 45.8211 -1.22559 -0.990812 0
M  V30 484 C 47.2371 -0.985996 -1.255 0
M  V30 485 C 47.4371 0.319173 -1.98956 0
M  V30 486 O 46.4931 1.04127 -2.3003 0
M  V30 487 C 47.8061 -2.18607 -2.06474 0
M  V30 488 C 49.3541 -2.22985 -2.19651 0
M  V30 489 C 49.8291 -3.4255 -3.04012 0
M  V30 490 N 51.3201 -3.42725 -3.11599 0
M  V30 491 C 52.0551 -4.31892 -3.7717 0
M  V30 492 N 51.5511 -5.31279 -4.44651 0
M  V30 493 N 53.3441 -4.19662 -3.73952 0
M  V30 494 H 45.4951 -2.06469 -0.49841 0
M  V30 495 H 47.7581 -0.904853 -0.282747 0
M  V30 496 H 47.4641 -3.13267 -1.59865 0
M  V30 497 H 47.3381 -2.18838 -3.07229 0
M  V30 498 H 49.7251 -1.28871 -2.65474 0
M  V30 499 H 49.8061 -2.26791 -1.18319 0
M  V30 500 H 49.4501 -4.36965 -2.58889 0
M  V30 501 H 49.3801 -3.35984 -4.0549 0
M  V30 502 H 51.8711 -2.70807 -2.63575 0
M  V30 503 H 52.1841 -5.95593 -4.92431 0
M  V30 504 H 50.5291 -5.3519 -4.43392 0
M  V30 505 H 53.7201 -3.41268 -3.20396 0
M  V30 506 H 53.8931 -4.89358 -4.24774 0
M  V30 507 N 47.2992 1.18797 -1.03562 0
M  V30 508 C 48.2622 2.20464 -0.626769 0
M  V30 509 C 49.2622 1.57721 0.313173 0
M  V30 510 O 50.4522 1.73917 0.0992615 0
M  V30 511 C 47.5842 3.40802 0.0818498 0
M  V30 512 H 48.7772 2.58149 -1.5264 0
M  V30 513 H 46.3302 1.32593 -0.827578 0
M  V30 514 H 47.0652 3.08642 0.995518 0
M  V30 515 H 46.8502 3.8758 -0.593652 0
M  V30 516 H 48.3402 4.16092 0.354584 0
M  V30 517 N 48.7773 0.814389 1.34928 0
M  V30 518 C 49.7403 0.235759 2.27984 0
M  V30 519 C 50.7403 -0.581412 1.49921 0
M  V30 520 O 51.9303 -0.398758 1.69575 0
M  V30 521 C 49.0623 -0.670433 3.34242 0
M  V30 522 H 50.2553 1.05659 2.80671 0
M  V30 523 H 47.8083 0.585614 1.44915 0
M  V30 524 H 48.5433 -1.51466 2.86755 0
M  V30 525 H 48.3283 -0.0860822 3.92005 0
M  V30 526 H 49.8183 -1.06935 4.03676 0
M  V30 527 N 50.2554 -1.46986 0.568584 0
M  V30 528 C 51.5014 -2.02741 0.0488709 0
M  V30 529 C 51.8344 -1.44077 -1.30214 0
M  V30 530 O 51.1094 -0.600552 -1.84996 0
M  V30 531 C 51.3924 -3.60086 -0.032047 0
M  V30 532 C 51.2454 -4.29162 1.34686 0
M  V30 533 C 52.5644 -4.33838 -0.739798 0
M  V30 534 H 49.6834 -0.736749 0.0192338 0
M  V30 535 H 52.3254 -1.75289 0.733065 0
M  V30 536 H 50.4754 -3.83606 -0.61473 0
M  V30 537 H 52.1474 -4.16948 1.97362 0
M  V30 538 H 50.3904 -3.89073 1.91846 0
M  V30 539 H 51.0614 -5.37826 1.24285 0
M  V30 540 H 53.5374 -4.15378 -0.244939 0
M  V30 541 H 52.4134 -5.43537 -0.765406 0
M  V30 542 H 52.6744 -4.03875 -1.79827 0
M  V30 543 N 51.7335 -0.305618 -1.54608 0
M  V30 544 C 53.1445 0.186098 -1.8577 0
M  V30 545 C 53.4955 1.53058 -1.22751 0
M  V30 546 O 52.6205 2.09888 -0.526893 0
M  V30 547 C 53.2155 0.344449 -3.37044 0
M  V30 548 C 51.7745 0.780384 -3.68221 0
M  V30 549 C 50.9215 -0.108554 -2.77087 0
M  V30 550 H 53.8725 -0.526485 -1.49712 0
M  V30 551 H 53.8935 1.17828 -3.61796 0
M  V30 552 H 53.4055 -0.634235 -3.82883 0
M  V30 553 H 51.5065 1.76945 -3.27904 0
M  V30 554 H 51.6195 0.596572 -4.75371 0
M  V30 555 H 49.9835 0.412931 -2.5133 0
M  V30 556 H 50.7665 -1.08368 -3.25747 0
M  V30 557 N 53.2116 1.57565 -0.0334293 0
M  V30 558 C 54.4366 1.96689 0.657895 0
M  V30 559 C 54.8616 0.910057 1.64619 0
M  V30 560 O 54.2196 -0.128598 1.80843 0
M  V30 561 C 54.2676 3.34905 1.33683 0
M  V30 562 O 53.3716 3.31574 2.45219 0
M  V30 563 H 52.7126 0.641205 0.172489 0
M  V30 564 H 55.2426 2.04372 -0.0965621 0
M  V30 565 H 55.2526 3.71234 1.69262 0
M  V30 566 H 53.9276 4.11366 0.612411 0
M  V30 567 H 52.5046 3.06968 2.11719 0
M  V30 568 N 54.6897 -0.239769 1.55765 0
M  V30 569 C 55.9377 -0.964892 1.77579 0
M  V30 570 C 56.2587 -1.85582 0.598699 0
M  V30 571 O 55.5287 -1.92075 -0.385226 0
M  V30 572 H 54.1087 -0.359265 0.654933 0
M  V30 573 H 56.7707 -0.256001 1.93211 0
M  V30 574 H 55.8667 -1.58243 2.69009 0
M  V30 575 N 56.1678 -1.49265 -0.50573 0
M  V30 576 C 57.1308 -1.65075 -1.59006 0
M  V30 577 C 58.1308 -0.522768 -1.52065 0
M  V30 578 O 59.3208 -0.789117 -1.55302 0
M  V30 579 C 56.4528 -1.64369 -2.98656 0
M  V30 580 H 57.6458 -2.61784 -1.46319 0
M  V30 581 H 55.1988 -1.38226 -0.729616 0
M  V30 582 H 55.9338 -0.692272 -3.16825 0
M  V30 583 H 55.7188 -2.46282 -3.05103 0
M  V30 584 H 57.2088 -1.78674 -3.77446 0
M  V30 585 N 57.6459 0.756429 -1.3826 0
M  V30 586 C 58.8709 1.55077 -1.37717 0
M  V30 587 C 59.2959 1.88073 0.03164 0
M  V30 588 O 58.6539 1.50364 1.01293 0
M  V30 589 C 58.7019 2.8283 -2.23695 0
M  V30 590 O 57.8059 3.77862 -1.6521 0
M  V30 591 H 57.1469 0.469152 -0.469885 0
M  V30 592 H 59.6769 0.935019 -1.81985 0
M  V30 593 H 59.6869 3.31783 -2.37453 0
M  V30 594 H 58.3619 2.58144 -3.2609 0
M  V30 595 H 56.9389 3.36555 -1.60578 0
M  V30 596 N 59.124 1.23083 0.984299 0
M  V30 597 C 60.352 1.08714 1.76037 0
M  V30 598 C 60.767 -0.361691 1.85303 0
M  V30 599 O 60.124 -1.25034 1.32939 0
M  V30 600 C 60.175 1.70206 3.18923 0
M  V30 601 O 59.896 3.09423 3.10144 0
M  V30 602 C 61.397 1.61227 4.12941 0
M  V30 603 H 58.617 0.380664 0.552572 0
M  V30 604 H 61.161 1.62853 1.23689 0
M  V30 605 H 59.316 1.20109 3.6831 0
M  V30 606 H 59.73 3.39188 4.00065 0
M  V30 607 H 61.204 2.08962 5.10919 0
M  V30 608 H 61.681 0.570375 4.35481 0
M  V30 609 H 62.287 2.10671 3.69456 0
M  V30 610 N 60.6021 -1.18246 1.0419 0
M  V30 611 C 61.8501 -1.87886 0.744543 0
M  V30 612 C 62.1711 -1.8082 -0.730006 0
M  V30 613 O 61.4411 -1.22736 -1.52685 0
M  V30 614 H 60.0211 -0.695556 0.272417 0
M  V30 615 H 62.6831 -1.43494 1.31892 0
M  V30 616 H 61.7791 -2.9389 1.05049 0
M  V30 617 N 62.0802 -0.821533 -1.34494 0
M  V30 618 C 63.3262 -0.409552 -1.98622 0
M  V30 619 C 63.6592 1.0244 -1.64984 0
M  V30 620 O 62.9342 1.71325 -0.920758 0
M  V30 621 C 63.2172 -0.610458 -3.54888 0
M  V30 622 C 63.0702 -2.09043 -3.98273 0
M  V30 623 C 64.3892 -0.0455379 -4.40076 0
M  V30 624 H 61.5082 -0.15028 -0.721516 0
M  V30 625 H 64.1502 -1.03384 -1.59411 0
M  V30 626 H 62.3002 -0.079044 -3.8842 0
M  V30 627 H 63.9722 -2.68537 -3.75081 0
M  V30 628 H 62.2152 -2.58139 -3.48635 0
M  V30 629 H 62.8862 -2.18182 -5.07051 0
M  V30 630 H 65.3622 -0.499557 -4.1309 0
M  V30 631 H 64.2382 -0.215922 -5.48475 0
M  V30 632 H 64.4992 1.04939 -4.29465 0
M  V30 633 N 63.5583 1.46682 -0.576371 0
M  V30 634 C 64.5083 2.27278 0.181288 0
M  V30 635 C 65.4923 1.35497 0.867721 0
M  V30 636 O 66.6843 1.59717 0.762863 0
M  V30 637 C 63.8133 3.21703 1.19841 0
M  V30 638 C 62.8993 4.20969 0.51442 0
M  V30 639 N 63.2903 5.03999 -0.426407 0
M  V30 640 C 61.5883 4.39373 0.765963 0
M  V30 641 C 62.2893 5.75812 -0.825565 0
M  V30 642 N 61.2653 5.43315 -0.176116 0
M  V30 643 H 65.0673 2.88863 -0.541785 0
M  V30 644 H 62.5813 1.57455 -0.397697 0
M  V30 645 H 64.5783 3.78145 1.75533 0
M  V30 646 H 63.2383 2.61677 1.92238 0
M  V30 647 H 64.2493 5.11659 -0.8016 0
M  V30 648 H 60.9263 3.90502 1.47698 0
M  V30 649 H 62.3163 6.52577 -1.59976 0
M  V30 650 N 65.0364 0.313813 1.54444 0
M  V30 651 C 65.9464 -0.565714 2.27677 0
M  V30 652 C 66.9624 -1.13754 1.31666 0
M  V30 653 O 68.1384 -1.15959 1.64668 0
M  V30 654 C 65.2034 -1.71528 3.01296 0
M  V30 655 C 64.2644 -1.17624 4.12872 0
M  V30 656 C 63.4974 -2.27102 4.8297 0
M  V30 657 O 63.7204 -3.47256 4.52514 0
M  V30 658 O 62.6544 -1.9307 5.70094 0
M  V30 659 H 66.4804 0.0287296 3.03686 0
M  V30 660 H 64.0654 0.0798312 1.49187 0
M  V30 661 H 65.9474 -2.38476 3.4743 0
M  V30 662 H 64.6224 -2.29608 2.2817 0
M  V30 663 H 63.5294 -0.472124 3.71109 0
M  V30 664 H 64.8624 -0.640695 4.88012 0
M  V30 665 N 66.5145 -1.57545 0.0417849 0
M  V30 666 C 67.4775 -2.09885 -0.92093 0
M  V30 667 C 68.4775 -1.01648 -1.24596 0
M  V30 668 O 69.6675 -1.27759 -1.1842 0
M  V30 669 C 66.7995 -2.57527 -2.23367 0
M  V30 670 H 67.9925 -2.96236 -0.467382 0
M  V30 671 H 65.5455 -1.5493 -0.206467 0
M  V30 672 H 66.2805 -1.74542 -2.73323 0
M  V30 673 H 66.0655 -3.36613 -2.01083 0
M  V30 674 H 67.5555 -2.98201 -2.92346 0
M  V30 675 N 67.9926 0.231505 -1.5589 0
M  V30 676 C 68.9226 1.29022 -1.94617 0
M  V30 677 C 69.9036 1.4941 -0.813067 0
M  V30 678 O 71.0886 1.6176 -1.07459 0
M  V30 679 C 68.2186 2.64199 -2.25424 0
M  V30 680 C 67.1726 2.58484 -3.41131 0
M  V30 681 C 66.4986 3.97599 -3.57518 0
M  V30 682 C 67.7986 2.1413 -4.76388 0
M  V30 683 H 69.4926 0.968563 -2.83301 0
M  V30 684 H 67.0386 0.464479 -1.36303 0
M  V30 685 H 68.9916 3.38413 -2.51107 0
M  V30 686 H 67.7156 2.98032 -1.33583 0
M  V30 687 H 66.3746 1.86727 -3.15481 0
M  V30 688 H 66.0226 4.28723 -2.6307 0
M  V30 689 H 65.7226 3.94659 -4.35337 0
M  V30 690 H 67.2466 4.7349 -3.85538 0
M  V30 691 H 68.6606 2.78083 -5.01341 0
M  V30 692 H 67.0576 2.2227 -5.57419 0
M  V30 693 H 68.1276 1.09331 -4.72414 0
M  V30 694 N 69.4707 1.49531 0.497807 0
M  V30 695 C 70.3807 1.69176 1.62532 0
M  V30 696 C 71.3967 0.5744 1.64246 0
M  V30 697 O 72.5727 0.849497 1.82608 0
M  V30 698 C 69.6377 1.75695 2.98885 0
M  V30 699 C 68.6987 2.9929 3.07773 0
M  V30 700 C 67.9317 3.05488 4.37622 0
M  V30 701 O 68.1547 2.19192 5.26603 0
M  V30 702 O 67.0887 3.9798 4.51548 0
M  V30 703 H 70.9147 2.647 1.48887 0
M  V30 704 H 68.4997 1.3331 0.674441 0
M  V30 705 H 70.3817 1.82317 3.79919 0
M  V30 706 H 69.0567 0.8335 3.12785 0
M  V30 707 H 67.9637 2.98183 2.25915 0
M  V30 708 H 69.2967 3.91125 2.98801 0
M  V30 709 N 70.9488 -0.749086 1.3866 0
M  V30 710 C 71.8788 -1.8764 1.38973 0
M  V30 711 C 72.8598 -1.68178 0.255004 0
M  V30 712 O 74.0448 -1.88704 0.458754 0
M  V30 713 C 71.1748 -3.25222 1.21851 0
M  V30 714 C 70.1288 -3.59295 2.32575 0
M  V30 715 C 69.4548 -4.95663 2.00555 0
M  V30 716 C 70.7548 -3.63709 3.7485 0
M  V30 717 H 72.4488 -1.87635 2.3331 0
M  V30 718 H 69.9948 -0.901329 1.12303 0
M  V30 719 H 71.9478 -4.03746 1.20695 0
M  V30 720 H 70.6718 -3.25719 0.239775 0
M  V30 721 H 69.3308 -2.83093 2.32925 0
M  V30 722 H 68.9788 -4.92724 1.01154 0
M  V30 723 H 68.6788 -5.19429 2.74714 0
M  V30 724 H 70.2028 -5.7656 2.01024 0
M  V30 725 H 71.6168 -4.32338 3.76506 0
M  V30 726 H 70.0138 -3.98986 4.48252 0
M  V30 727 H 71.0838 -2.63834 4.06841 0
M  V30 728 N 72.4269 -1.23603 -0.977757 0
M  V30 729 C 73.8429 -0.999251 -1.24447 0
M  V30 730 C 74.0429 0.298053 -1.99283 0
M  V30 731 O 73.0989 1.01681 -2.31122 0
M  V30 732 C 74.4119 -2.20784 -2.04144 0
M  V30 733 C 75.9599 -2.25303 -2.17273 0
M  V30 734 C 76.4349 -3.45755 -3.00362 0
M  V30 735 N 77.9259 -3.4601 -3.07947 0
M  V30 736 C 78.6609 -4.35868 -3.72568 0
M  V30 737 N 78.1569 -5.35966 -4.38991 0
M  V30 738 N 79.9499 -4.23605 -3.6948 0
M  V30 739 H 72.1009 -2.06986 -0.476483 0
M  V30 740 H 74.3639 -0.907801 -0.273134 0
M  V30 741 H 74.0699 -3.14945 -1.56533 0
M  V30 742 H 73.9439 -2.22085 -3.04891 0
M  V30 743 H 76.3309 -1.3168 -2.64092 0
M  V30 744 H 76.4119 -2.28033 -1.15907 0
M  V30 745 H 76.0559 -4.39687 -2.5424 0
M  V30 746 H 75.9859 -3.40266 -4.01904 0
M  V30 747 H 78.4769 -2.73588 -2.60688 0
M  V30 748 H 78.7899 -6.00783 -4.86086 0
M  V30 749 H 77.1349 -5.39863 -4.37691 0
M  V30 750 H 80.3259 -3.44647 -3.16759 0
M  V30 751 H 80.4989 -4.93836 -4.1956 0
M  V30 752 N 73.905 1.17692 -1.04816 0
M  V30 753 C 75.182 1.83768 -0.669963 0
M  V30 754 C 75.562 1.93232 0.849986 0
M  V30 755 O 74.91 1.46397 1.75443 0
M  V30 756 C 75.12 3.21641 -1.35455 0
M  V30 757 C 76.468 3.97592 -1.49017 0
M  V30 758 O 77.492 3.31107 -1.31326 0
M  V30 759 O 76.351 5.16729 -1.77914 0
M  V30 760 H 73.445 0.792799 -0.235368 0
M  V30 761 H 75.991 1.25021 -1.14751 0
M  V30 762 H 74.763 3.097 -2.39168 0
M  V30 763 H 74.386 3.88052 -0.866107 0
M  V30 764 N 75.3831 0.828654 1.34056 0
M  V30 765 C 76.6311 0.41863 1.97717 0
M  V30 766 C 76.9521 -1.02314 1.66002 0
M  V30 767 O 76.2221 -1.71119 0.953683 0
M  V30 768 H 74.8021 0.151809 0.731412 0
M  V30 769 H 77.4641 1.05936 1.63596 0
M  V30 770 H 76.5601 0.542318 3.07352 0
M  V30 771 N 76.8612 -1.46375 0.584142 0
M  V30 772 C 78.2722 -1.86031 0.157959 0
M  V30 773 C 78.6232 -1.48753 -1.27933 0
M  V30 774 O 77.7482 -0.903098 -1.96655 0
M  V30 775 C 78.3432 -3.37642 0.279892 0
M  V30 776 C 76.9022 -3.76289 -0.09143 0
M  V30 777 C 76.0492 -2.7039 0.615178 0
M  V30 778 H 79.0002 -1.37509 0.792274 0
M  V30 779 H 79.0212 -3.77275 -0.494364 0
M  V30 780 H 78.5332 -3.64742 1.32607 0
M  V30 781 H 76.6342 -3.54806 -1.13769 0
M  V30 782 H 76.7472 -4.78246 0.285886 0
M  V30 783 H 75.1112 -2.5464 0.0552833 0
M  V30 784 H 75.8942 -3.0033 1.66303 0
M  V30 785 N 78.3393 -0.321999 -1.54275 0
M  V30 786 C 79.7503 0.166384 -1.85957 0
M  V30 787 C 80.1013 1.51747 -1.24367 0
M  V30 788 O 79.2263 2.09317 -0.549124 0
M  V30 789 C 79.8213 0.308681 -3.37391 0
M  V30 790 C 78.3803 0.741286 -3.69028 0
M  V30 791 C 77.5273 -0.137937 -2.76957 0
M  V30 792 H 80.4783 -0.542335 -1.49146 0
M  V30 793 H 80.4993 1.13984 -3.63026 0
M  V30 794 H 80.0113 -0.674809 -3.82188 0
M  V30 795 H 78.1123 1.73458 -3.29762 0
M  V30 796 H 78.2253 0.546118 -4.75977 0
M  V30 797 H 76.5893 0.386251 -2.51754 0
M  V30 798 H 77.3723 -1.11816 -3.2458 0
M  V30 799 N 79.8174 1.5752 -0.0501392 0
M  V30 800 C 81.0654 1.9227 0.622642 0
M  V30 801 C 81.3864 0.929083 1.71444 0
M  V30 802 O 80.6564 -0.0262186 1.95882 0
M  V30 803 H 79.2364 0.709739 0.232981 0
M  V30 804 H 81.8984 1.94628 -0.102898 0
M  V30 805 H 80.9944 2.93479 1.06191 0
M  V30 806 N 81.2955 -0.223234 1.56011 0
M  V30 807 C 82.5255 -0.963413 1.82762 0
M  V30 808 C 82.9335 -1.78516 0.626804 0
M  V30 809 O 82.2765 -1.78974 -0.414014 0
M  V30 810 C 82.3385 -1.93126 3.0322 0
M  V30 811 C 82.0025 -1.2942 4.38291 0
M  V30 812 C 82.9995 -0.684916 5.15369 0
M  V30 813 C 80.6845 -1.30647 4.85012 0
M  V30 814 C 82.6785 -0.0963971 6.37327 0
M  V30 815 C 80.3655 -0.71411 6.06913 0
M  V30 816 C 81.3635 -0.110123 6.82911 0
M  V30 817 O 81.0515 0.47303 8.02507 0
M  V30 818 H 80.7835 -0.288011 0.611576 0
M  V30 819 H 83.3375 -0.244103 2.03944 0
M  V30 820 H 81.5675 -2.68952 2.77852 0
M  V30 821 H 83.2565 -2.53685 3.16857 0
M  V30 822 H 84.0225 -0.667774 4.80381 0
M  V30 823 H 79.9015 -1.76598 4.25833 0
M  V30 824 H 83.4455 0.375657 6.96588 0
M  V30 825 H 79.3425 -0.728659 6.41374 0
M  V30 826 H 80.1105 0.367186 8.17676 0
M  V30 827 N 82.7736 -1.49793 -0.48987 0
M  V30 828 C 83.7066 -1.61898 -1.60823 0
M  V30 829 C 84.6846 -0.467651 -1.5573 0
M  V30 830 O 85.8686 -0.684682 -1.75626 0
M  V30 831 C 82.9956 -1.58422 -2.99366 0
M  V30 832 C 82.0416 -2.78889 -3.22682 0
M  V30 833 S 82.8746 -4.40429 -3.04602 0
M  V30 834 C 84.0306 -4.39617 -4.4552 0
M  V30 835 H 84.2636 -2.56502 -1.50312 0
M  V30 836 H 81.7966 -1.38822 -0.675849 0
M  V30 837 H 83.7546 -1.57103 -3.79248 0
M  V30 838 H 82.4156 -0.650866 -3.07283 0
M  V30 839 H 81.6086 -2.72708 -4.23847 0
M  V30 840 H 81.2106 -2.77678 -2.50541 0
M  V30 841 H 83.5026 -4.12022 -5.37814 0
M  V30 842 H 84.4456 -5.41097 -4.56749 0
M  V30 843 H 84.8536 -3.69554 -4.2672 0
M  V30 844 N 84.2517 0.741722 -1.39055 0
M  V30 845 C 85.4997 1.49818 -1.35643 0
M  V30 846 C 85.8207 1.94938 0.0491642 0
M  V30 847 O 85.0907 1.68505 0.999141 0
M  V30 848 H 83.6707 0.555755 -0.499144 0
M  V30 849 H 86.3327 0.880957 -1.73854 0
M  V30 850 H 85.4287 2.38348 -2.01486 0
M  V30 851 N 85.7298 1.2412 0.971189 0
M  V30 852 C 86.6768 1.0305 2.06517 0
M  V30 853 C 87.6468 -0.0550666 1.66009 0
M  V30 854 O 88.8318 0.0988688 1.90544 0
M  V30 855 C 85.9718 0.637653 3.39158 0
M  V30 856 C 85.0848 1.79633 3.92882 0
M  V30 857 C 84.2198 1.34939 5.13775 0
M  V30 858 C 83.2588 2.47823 5.59687 0
M  V30 859 N 82.3958 2.04022 6.71803 0
M  V30 860 H 87.2358 1.96685 2.23873 0
M  V30 861 H 84.7728 0.979694 1.09729 0
M  V30 862 H 86.7308 0.390931 4.15364 0
M  V30 863 H 85.3608 -0.261693 3.21737 0
M  V30 864 H 84.4128 2.15681 3.13346 0
M  V30 865 H 85.7248 2.64466 4.22918 0
M  V30 866 H 84.8788 1.06134 5.97345 0
M  V30 867 H 83.6178 0.471557 4.85415 0
M  V30 868 H 82.6228 2.77392 4.74693 0
M  V30 869 H 83.8478 3.36158 5.90063 0
M  V30 870 H 81.7938 1.18632 6.45184 0
M  V30 871 H 81.7108 2.82409 7.01271 0
M  V30 872 H 82.9788 1.78347 7.58823 0
M  V30 873 N 87.2079 -1.17134 1.05439 0
M  V30 874 C 88.4559 -1.87085 0.764429 0
M  V30 875 C 88.7769 -1.81584 -0.710787 0
M  V30 876 O 88.0469 -1.24349 -1.51374 0
M  V30 877 H 86.6269 -0.692627 0.279779 0
M  V30 878 H 89.2889 -1.42087 1.33406 0
M  V30 879 H 88.3849 -2.92759 1.0816 0
M  V30 880 N 88.686 -0.835752 -1.33615 0
M  V30 881 C 89.932 -0.430596 -1.98176 0
M  V30 882 C 90.265 1.00684 -1.66061 0
M  V30 883 O 89.54 1.70339 -0.938877 0
M  V30 884 C 89.823 -0.648065 -3.5422 0
M  V30 885 C 89.676 -2.13255 -3.96033 0
M  V30 886 C 90.995 -0.0922113 -4.40003 0
M  V30 887 H 88.114 -0.157924 -0.719881 0
M  V30 888 H 90.756 -1.05069 -1.58305 0
M  V30 889 H 88.906 -0.120237 -3.88314 0
M  V30 890 H 90.578 -2.725 -3.72211 0
M  V30 891 H 88.821 -2.61823 -3.45878 0
M  V30 892 H 89.492 -2.23547 -5.04708 0
M  V30 893 H 91.968 -0.543343 -4.12537 0
M  V30 894 H 90.844 -0.274083 -5.48215 0
M  V30 895 H 91.105 1.00378 -4.30554 0
M  V30 896 N 90.1641 1.46063 -0.591896 0
M  V30 897 C 91.0941 2.33172 0.123673 0
M  V30 898 C 92.0751 1.45897 0.87453 0
M  V30 899 O 93.2601 1.74698 0.848181 0
M  V30 900 C 90.3901 3.28336 1.13194 0
M  V30 901 C 89.3441 4.25124 0.495324 0
M  V30 902 C 88.6701 5.09863 1.61071 0
M  V30 903 C 89.9701 5.19143 -0.573425 0
M  V30 904 H 91.6641 2.93252 -0.603646 0
M  V30 905 H 89.2101 1.41014 -0.291741 0
M  V30 906 H 91.1631 3.88137 1.64097 0
M  V30 907 H 89.8871 2.66383 1.88965 0
M  V30 908 H 88.5461 3.66599 0.00729452 0
M  V30 909 H 88.1941 4.44288 2.35832 0
M  V30 910 H 87.8941 5.75417 1.19035 0
M  V30 911 H 89.4181 5.72529 2.12233 0
M  V30 912 H 90.8321 5.73106 -0.1491 0
M  V30 913 H 89.2291 5.93089 -0.914636 0
M  V30 914 H 90.2991 4.62519 -1.45617 0
M  V30 915 N 91.6422 0.330177 1.54103 0
M  V30 916 C 92.5892 -0.532762 2.24567 0
M  V30 917 C 93.5592 -1.10635 1.23892 0
M  V30 918 O 94.7442 -1.14546 1.5259 0
M  V30 919 C 91.8842 -1.6845 3.01195 0
M  V30 920 C 90.9972 -1.13951 4.167 0
M  V30 921 C 90.1322 -2.25746 4.80845 0
M  V30 922 C 89.1712 -1.6853 5.88442 0
M  V30 923 N 88.3082 -2.74014 6.46421 0
M  V30 924 H 93.1482 0.0746905 2.97906 0
M  V30 925 H 90.6852 0.048632 1.4702 0
M  V30 926 H 92.6432 -2.36234 3.43874 0
M  V30 927 H 91.2732 -2.26314 2.30178 0
M  V30 928 H 90.3252 -0.35301 3.78758 0
M  V30 929 H 91.6372 -0.680892 4.94131 0
M  V30 930 H 90.7912 -3.01422 5.26526 0
M  V30 931 H 89.5302 -2.74947 4.0281 0
M  V30 932 H 88.5352 -0.913543 5.42157 0
M  V30 933 H 89.7602 -1.20198 6.68378 0
M  V30 934 H 87.7062 -3.22494 5.71256 0
M  V30 935 H 87.6232 -2.32735 7.19285 0
M  V30 936 H 88.8912 -3.49499 6.96757 0
M  V30 937 N 93.1203 -1.57491 0.0584922 0
M  V30 938 C 94.0833 -2.1085 -0.898617 0
M  V30 939 C 95.0833 -1.02964 -1.23511 0
M  V30 940 O 96.2733 -1.29007 -1.17059 0
M  V30 941 C 93.4053 -2.59881 -2.20623 0
M  V30 942 H 94.5983 -2.96715 -0.435936 0
M  V30 943 H 92.1513 -1.55141 -0.190023 0
M  V30 944 H 92.8863 -1.77431 -2.71457 0
M  V30 945 H 92.6713 -3.38727 -1.97501 0
M  V30 946 H 94.1613 -3.01285 -2.89166 0
M  V30 947 N 94.5984 0.214957 -1.56127 0
M  V30 948 C 95.8444 0.939762 -1.79712 0
M  V30 949 C 96.1774 1.83723 -0.629247 0
M  V30 950 O 95.4524 1.90925 0.371197 0
M  V30 951 C 95.7354 1.77306 -3.13424 0
M  V30 952 C 95.5884 0.90164 -4.40671 0
M  V30 953 C 96.9074 2.74956 -3.43638 0
M  V30 954 H 94.0264 0.340214 -0.653776 0
M  V30 955 H 96.6684 0.20824 -1.88855 0
M  V30 956 H 94.8184 2.39673 -3.0576 0
M  V30 957 H 96.4904 0.294206 -4.60361 0
M  V30 958 H 94.7334 0.207368 -4.33304 0
M  V30 959 H 95.4044 1.51923 -5.30682 0
M  V30 960 H 97.8804 2.22724 -3.51473 0
M  V30 961 H 96.7564 3.30358 -4.38355 0
M  V30 962 H 97.0174 3.53023 -2.66134 0
M  V30 963 N 96.0765 1.50051 0.48192 0
M  V30 964 C 97.0395 1.67584 1.5636 0
M  V30 965 C 98.0395 0.546894 1.51214 0
M  V30 966 O 99.2295 0.813725 1.54026 0
M  V30 967 C 96.3615 1.691 2.96003 0
M  V30 968 H 97.5545 2.64078 1.42136 0
M  V30 969 H 95.1075 1.39369 0.707533 0
M  V30 970 H 95.8425 0.742589 3.15684 0
M  V30 971 H 95.6275 2.51105 3.01146 0
M  V30 972 H 97.1175 1.84656 3.74556 0
M  V30 973 N 97.5546 -0.734337 1.39446 0
M  V30 974 C 98.5026 -1.86971 1.38364 0
M  V30 975 C 99.4966 -1.67288 0.266687 0
M  V30 976 O 100.703 -1.74621 0.436755 0
M  V30 977 H 97.0776 -0.615474 0.432082 0
M  V30 978 H 99.0486 -1.85 2.34132 0
M  V30 979 C 97.7976 -3.2466 1.24465 0
M  V30 980 H 97.1206 -3.40402 2.09682 0
M  V30 981 H 98.5606 -4.04292 1.27764 0
M  V30 982 C 97.0196 -3.36867 -0.0468674 0
M  V30 983 O 97.5496 -3.88618 -1.01681 0
M  V30 984 N 95.7556 -2.90391 -0.110145 0
M  V30 985 H 95.3026 -2.48466 0.679868 0
M  V30 986 H 95.2606 -2.98939 -0.973799 0
M  V30 987 N 99.0327 -1.24633 -0.964593 0
M  V30 988 C 100.279 -1.08949 -1.71049 0
M  V30 989 C 100.612 0.370302 -1.90637 0
M  V30 990 O 99.8867 1.27349 -1.47011 0
M  V30 991 C 100.17 -1.83329 -3.0994 0
M  V30 992 C 100.023 -3.37077 -2.97824 0
M  V30 993 C 101.342 -1.60846 -4.09654 0
M  V30 994 H 98.4607 -0.397178 -0.620821 0
M  V30 995 H 101.103 -1.5334 -1.12191 0
M  V30 996 H 99.2527 -1.45597 -3.60186 0
M  V30 997 H 100.925 -3.84425 -2.5498 0
M  V30 998 H 99.1677 -3.65298 -2.33965 0
M  V30 999 H 99.8387 -3.84324 -3.96231 0
M  V30 1000 H 102.315 -1.93674 -3.68279 0
M  V30 1001 H 101.191 -2.1534 -5.04896 0
M  V30 1002 H 101.452 -0.547434 -4.38698 0
M  V30 1003 N 100.511 1.16574 -1.06058 0
M  V30 1004 C 101.459 2.22941 -0.663343 0
M  V30 1005 C 102.453 1.66358 0.319593 0
M  V30 1006 O 103.659 1.7905 0.184713 0
M  V30 1007 H 100.034 0.725907 -0.196376 0
M  V30 1008 H 102.005 2.53736 -1.57037 0
M  V30 1009 C 100.754 3.47642 -0.0632808 0
M  V30 1010 H 100.077 3.91493 -0.810733 0
M  V30 1011 H 101.517 4.2363 0.177177 0
M  V30 1012 C 99.9758 3.1509 1.19248 0
M  V30 1013 O 100.506 3.30673 2.28075 0
M  V30 1014 N 98.7118 2.6924 1.09353 0
M  V30 1015 H 98.2588 2.5676 0.207912 0
M  V30 1016 H 98.2168 2.47833 1.93458 0
M  V30 1017 N 101.989 0.842826 1.3317 0
M  V30 1018 C 103.214 0.453129 2.02389 0
M  V30 1019 C 103.639 -0.939105 1.6298 0
M  V30 1020 O 102.997 -1.61472 0.8244 0
M  V30 1021 C 103.045 0.586094 3.55805 0
M  V30 1022 O 102.149 -0.386029 4.10589 0
M  V30 1023 H 101.49 0.183664 0.638094 0
M  V30 1024 H 104.02 1.13875 1.69981 0
M  V30 1025 H 104.03 0.469209 4.05293 0
M  V30 1026 H 102.705 1.6014 3.83833 0
M  V30 1027 H 101.282 -0.226371 3.72212 0
M  V30 1028 N 103.467 -1.45747 0.599634 0
M  V30 1029 C 104.399 -2.28628 -0.161879 0
M  V30 1030 C 105.412 -1.39494 -0.839367 0
M  V30 1031 O 106.601 -1.63941 -0.706089 0
M  V30 1032 C 103.701 -3.15014 -1.24976 0
M  V30 1033 C 102.874 -4.32378 -0.660935 0
M  V30 1034 C 101.933 -5.00033 -1.63869 0
M  V30 1035 O 100.959 -5.57085 -1.1681 0
M  V30 1036 N 102.161 -4.98589 -2.97303 0
M  V30 1037 H 104.926 -2.94624 0.549265 0
M  V30 1038 H 102.487 -1.55847 0.438565 0
M  V30 1039 H 104.479 -3.5714 -1.9035 0
M  V30 1040 H 103.049 -2.5098 -1.86354 0
M  V30 1041 H 102.269 -3.9383 0.170688 0
M  V30 1042 H 103.557 -5.08197 -0.247619 0
M  V30 1043 H 102.955 -4.53514 -3.38145 0
M  V30 1044 H 101.512 -5.44603 -3.58121 0
M  V30 1045 N 104.945 -0.338344 -1.53925 0
M  V30 1046 C 106.194 0.260732 -2.00008 0
M  V30 1047 C 106.507 1.52073 -1.23017 0
M  V30 1048 O 107.713 2.19672 -1.5955 0
M  V30 1049 C 106.169 0.51515 -3.56194 0
M  V30 1050 C 105.777 -0.728645 -4.42035 0
M  V30 1051 C 107.521 1.07337 -4.10706 0
M  V30 1052 C 105.428 -0.445315 -5.89721 0
M  V30 1053 H 104.358 0.101205 -0.747177 0
M  V30 1054 H 107.009 -0.452866 -1.77824 0
M  V30 1055 H 105.391 1.28932 -3.74423 0
M  V30 1056 H 106.565 -1.50352 -4.35581 0
M  V30 1057 H 104.88 -1.20813 -3.98489 0
M  V30 1058 H 107.477 1.30022 -5.18651 0
M  V30 1059 H 107.82 2.0273 -3.63602 0
M  V30 1060 H 108.353 0.360034 -3.96167 0
M  V30 1061 H 105.092 -1.36883 -6.41049 0
M  V30 1062 H 104.612 0.291569 -5.99091 0
M  V30 1063 H 106.291 -0.0606218 -6.46972 0
M  V30 1064 N 106.423 1.57458 -0.0668435 0
M  V30 1065 C 107.386 2.11323 0.887422 0
M  V30 1066 C 108.386 1.03618 1.22964 0
M  V30 1067 O 109.576 1.29626 1.16373 0
M  V30 1068 C 106.708 2.61048 2.19242 0
M  V30 1069 H 107.901 2.96942 0.420194 0
M  V30 1070 H 105.454 1.55239 0.181793 0
M  V30 1071 H 106.189 1.78868 2.70512 0
M  V30 1072 H 105.974 3.39769 1.95702 0
M  V30 1073 H 107.464 3.02814 2.87565 0
M  V30 1074 N 107.901 -0.206675 1.56239 0
M  V30 1075 C 109.312 -0.772383 1.69974 0
M  V30 1076 C 109.663 -1.84353 0.671436 0
M  V30 1077 O 108.788 -2.15695 -0.174491 0
M  V30 1078 C 109.383 -1.40779 3.08167 0
M  V30 1079 C 107.942 -1.92072 3.23706 0
M  V30 1080 C 107.089 -0.786347 2.65917 0
M  V30 1081 H 110.04 0.0182223 1.5869 0
M  V30 1082 H 110.061 -2.27696 3.04852 0
M  V30 1083 H 109.573 -0.627958 3.82986 0
M  V30 1084 H 107.674 -2.7281 2.53782 0
M  V30 1085 H 107.787 -2.09046 4.31087 0
M  V30 1086 H 106.151 -1.1976 2.24788 0
M  V30 1087 H 106.934 -0.0189416 3.43295 0
M  V30 1088 N 109.379 -1.50304 -0.473955 0
M  V30 1089 C 110.327 -1.69482 -1.59307 0
M  V30 1090 C 111.321 -0.560669 -1.59853 0
M  V30 1091 O 112.527 -0.741087 -1.64036 0
M  V30 1092 H 108.902 -0.534892 -0.528578 0
M  V30 1093 H 110.873 -2.63364 -1.40293 0
M  V30 1094 C 109.622 -1.80354 -2.97267 0
M  V30 1095 H 108.945 -2.67012 -2.97564 0
M  V30 1096 H 110.385 -1.97798 -3.75036 0
M  V30 1097 C 108.844 -0.55448 -3.32306 0
M  V30 1098 O 109.374 0.307661 -4.0052 0
M  V30 1099 N 107.58 -0.409354 -2.87702 0
M  V30 1100 H 107.127 -1.11196 -2.32364 0
M  V30 1101 H 107.085 0.425223 -3.11511 0
M  V30 1102 N 110.857 0.726932 -1.39834 0
M  V30 1103 C 111.787 1.85405 -1.41941 0
M  V30 1104 C 112.768 1.67751 -0.281728 0
M  V30 1105 O 113.953 1.8795 -0.488717 0
M  V30 1106 C 111.083 3.23243 -1.2701 0
M  V30 1107 C 110.037 3.55549 -2.38262 0
M  V30 1108 C 109.363 4.9241 -2.08415 0
M  V30 1109 C 110.663 3.577 -3.80589 0
M  V30 1110 H 112.357 1.83899 -2.36266 0
M  V30 1111 H 109.903 0.883349 -1.13723 0
M  V30 1112 H 111.856 4.01775 -1.27103 0
M  V30 1113 H 110.58 3.25296 -0.291564 0
M  V30 1114 H 109.239 2.79351 -2.37399 0
M  V30 1115 H 108.887 4.91052 -1.0898 0
M  V30 1116 H 108.587 5.14992 -2.82943 0
M  V30 1117 H 110.111 5.73289 -2.10171 0
M  V30 1118 H 111.525 4.26293 -3.83337 0
M  V30 1119 H 109.922 3.91804 -4.54543 0
M  V30 1120 H 110.992 2.57328 -4.10987 0
M  V30 1121 N 112.336 1.25143 0.95797 0
M  V30 1122 C 113.585 1.0909 1.69654 0
M  V30 1123 C 113.898 -0.368548 1.92097 0
M  V30 1124 O 115.104 -0.649455 2.63618 0
M  V30 1125 C 113.56 1.90395 3.05414 0
M  V30 1126 C 113.168 3.4081 2.90779 0
M  V30 1127 C 114.912 1.82901 3.83076 0
M  V30 1128 C 112.819 4.14423 4.21909 0
M  V30 1129 H 111.749 0.404625 0.636235 0
M  V30 1130 H 114.4 1.4931 1.06672 0
M  V30 1131 H 112.782 1.42996 3.69281 0
M  V30 1132 H 113.956 3.95859 2.35865 0
M  V30 1133 H 112.271 3.49361 2.26575 0
M  V30 1134 H 114.868 2.35196 4.80195 0
M  V30 1135 H 115.211 0.796224 4.08615 0
M  V30 1136 H 115.744 2.28033 3.25954 0
M  V30 1137 H 112.483 5.18102 4.01561 0
M  V30 1138 H 112.003 3.64159 4.76601 0
M  V30 1139 H 113.682 4.21956 4.90471 0
M  V30 1140 N 113.814 -1.1601 1.06675 0
M  V30 1141 C 114.761 -2.20525 0.680967 0
M  V30 1142 C 115.731 -1.62904 -0.324283 0
M  V30 1143 O 116.916 -1.89615 -0.212294 0
M  V30 1144 C 114.056 -3.45013 0.0776551 0
M  V30 1145 C 113.169 -4.16863 1.13355 0
M  V30 1146 C 112.304 -5.2888 0.49597 0
M  V30 1147 C 111.343 -5.92537 1.53513 0
M  V30 1148 N 110.48 -6.96038 0.920631 0
M  V30 1149 H 115.32 -2.52876 1.57663 0
M  V30 1150 H 112.857 -1.24199 0.788223 0
M  V30 1151 H 114.815 -4.16193 -0.289704 0
M  V30 1152 H 113.445 -3.132 -0.781393 0
M  V30 1153 H 112.497 -3.44248 1.61857 0
M  V30 1154 H 113.809 -4.60294 1.92174 0
M  V30 1155 H 112.963 -6.06653 0.0758604 0
M  V30 1156 H 111.702 -4.86622 -0.324062 0
M  V30 1157 H 110.707 -5.13482 1.9651 0
M  V30 1158 H 111.932 -6.36873 2.35733 0
M  V30 1159 H 109.878 -6.55888 0.12138 0
M  V30 1160 H 109.795 -7.3786 1.64616 0
M  V30 1161 H 111.063 -7.77725 0.525795 0
M  V30 1162 N 115.292 -0.849877 -1.32721 0
M  V30 1163 C 116.517 -0.463856 -2.02146 0
M  V30 1164 C 116.942 0.930449 -1.63476 0
M  V30 1165 O 116.3 1.61033 -0.832952 0
M  V30 1166 C 116.348 -0.604955 -3.55489 0
M  V30 1167 O 115.452 0.36425 -4.10788 0
M  V30 1168 H 114.793 -0.187046 -0.637111 0
M  V30 1169 H 117.323 -1.14775 -1.69375 0
M  V30 1170 H 117.333 -0.490696 -4.05038 0
M  V30 1171 H 116.008 -1.62174 -3.82978 0
M  V30 1172 H 114.585 0.206628 -3.72327 0
M  V30 1173 N 116.77 1.45427 -0.607355 0
M  V30 1174 C 118.018 2.01841 -0.102253 0
M  V30 1175 C 118.339 1.47832 1.27164 0
M  V30 1176 O 117.609 0.672497 1.83995 0
M  V30 1177 H 116.189 0.746188 -0.0348101 0
M  V30 1178 H 118.851 1.78229 -0.7887 0
M  V30 1179 H 117.947 3.12057 -0.0518585 0
M  V30 1180 N 118.248 0.346503 1.53744 0
M  V30 1181 C 119.497 -0.250122 2.00143 0
M  V30 1182 C 119.81 -1.51418 1.23822 0
M  V30 1183 O 121.016 -2.18823 1.60713 0
M  V30 1184 C 119.472 -0.496252 3.56462 0
M  V30 1185 C 119.08 0.752077 4.41642 0
M  V30 1186 C 120.824 -1.05157 4.11269 0
M  V30 1187 C 118.731 0.476583 5.89477 0
M  V30 1188 H 117.661 -0.0972409 0.747703 0
M  V30 1189 H 120.312 0.46229 1.77581 0
M  V30 1190 H 118.694 -1.26944 3.75102 0
M  V30 1191 H 119.868 1.5266 4.34778 0
M  V30 1192 H 118.183 1.22925 3.97842 0
M  V30 1193 H 120.78 -1.27269 5.19333 0
M  V30 1194 H 121.123 -2.00799 3.64672 0
M  V30 1195 H 121.656 -0.339019 3.96353 0
M  V30 1196 H 118.395 1.4028 6.40314 0
M  V30 1197 H 117.915 -0.259794 5.99237 0
M  V30 1198 H 119.594 0.0949315 6.4693 0
M  V30 1199 N 119.726 -1.57421 0.075193 0
M  V30 1200 C 120.674 -2.14124 -0.908508 0
M  V30 1201 C 121.668 -1.07898 -1.30592 0
M  V30 1202 O 122.874 -1.26273 -1.28277 0
M  V30 1203 H 119.249 -0.684707 -0.310935 0
M  V30 1204 H 121.22 -2.95634 -0.405374 0
M  V30 1205 C 119.969 -2.72044 -2.16535 0
M  V30 1206 H 119.292 -3.53456 -1.86839 0
M  V30 1207 H 120.732 -3.15311 -2.83469 0
M  V30 1208 C 119.191 -1.66968 -2.92615 0
M  V30 1209 O 119.721 -1.0967 -3.86439 0
M  V30 1210 N 117.927 -1.37923 -2.55784 0
M  V30 1211 H 117.474 -1.84706 -1.79559 0
M  V30 1212 H 117.432 -0.67852 -3.06991 0
M  V30 1213 N 121.204 0.198386 -1.56346 0
M  V30 1214 C 122.45 0.920648 -1.80698 0
M  V30 1215 C 122.783 1.83045 -0.648697 0
M  V30 1216 O 122.058 1.91308 0.350925 0
M  V30 1217 C 122.341 1.73971 -3.15287 0
M  V30 1218 C 122.194 0.85485 -4.41602 0
M  V30 1219 C 123.513 2.71296 -3.46535 0
M  V30 1220 H 120.632 0.333261 -0.657348 0
M  V30 1221 H 123.274 0.188198 -1.89066 0
M  V30 1222 H 121.424 2.36416 -3.08285 0
M  V30 1223 H 123.096 0.245362 -4.60647 0
M  V30 1224 H 121.339 0.161398 -4.335 0
M  V30 1225 H 122.01 1.46286 -5.32264 0
M  V30 1226 H 124.486 2.18983 -3.53816 0
M  V30 1227 H 123.362 3.2569 -4.41834 0
M  V30 1228 H 123.623 3.5018 -2.69864 0
M  V30 1229 N 122.682 1.50554 0.465978 0
M  V30 1230 C 123.91 1.65563 1.24083 0
M  V30 1231 C 124.325 0.341051 1.85694 0
M  V30 1232 O 123.682 -0.677543 1.69457 0
M  V30 1233 C 123.733 2.75051 2.34583 0
M  V30 1234 O 123.454 4.01413 1.75497 0
M  V30 1235 C 124.955 3.01078 3.25372 0
M  V30 1236 H 122.175 0.55638 0.375077 0
M  V30 1237 H 124.719 1.96807 0.555624 0
M  V30 1238 H 122.874 2.46486 2.9887 0
M  V30 1239 H 123.288 4.62002 2.48303 0
M  V30 1240 H 124.762 3.81339 3.99105 0
M  V30 1241 H 125.239 2.12349 3.84453 0
M  V30 1242 H 125.845 3.31194 2.66816 0
M  V30 1243 N 124.16 -0.719506 1.40217 0
M  V30 1244 C 125.437 -1.47221 1.28784 0
M  V30 1245 C 125.817 -2.10883 -0.0956067 0
M  V30 1246 O 125.165 -1.99833 -1.10811 0
M  V30 1247 C 125.375 -2.5111 2.42373 0
M  V30 1248 C 126.723 -3.17053 2.82423 0
M  V30 1249 O 127.747 -2.61429 2.41937 0
M  V30 1250 O 126.606 -4.17742 3.52355 0
M  V30 1251 H 123.7 -0.654491 0.50554 0
M  V30 1252 H 126.246 -0.752014 1.52128 0
M  V30 1253 H 125.018 -2.02556 3.34793 0
M  V30 1254 H 124.641 -3.3067 2.20778 0
M  V30 1255 N 125.638 -1.25649 -0.95132 0
M  V30 1256 C 126.57 -1.02112 -2.05197 0
M  V30 1257 C 127.583 0.0150571 -1.62793 0
M  V30 1258 O 128.772 -0.223874 -1.77091 0
M  V30 1259 C 125.872 -0.522361 -3.3485 0
M  V30 1260 C 125.045 -1.62546 -4.06076 0
M  V30 1261 C 124.104 -1.12649 -5.14001 0
M  V30 1262 O 123.13 -1.82156 -5.39266 0
M  V30 1263 N 124.332 0.03047 -5.80492 0
M  V30 1264 H 127.097 -1.96885 -2.25957 0
M  V30 1265 H 124.658 -1.16899 -1.1201 0
M  V30 1266 H 126.65 -0.172961 -4.0433 0
M  V30 1267 H 125.22 0.33151 -3.10837 0
M  V30 1268 H 124.44 -2.14628 -3.30649 0
M  V30 1269 H 125.728 -2.36644 -4.50419 0
M  V30 1270 H 125.126 0.611169 -5.62389 0
M  V30 1271 H 123.683 0.320875 -6.5101 0
M  V30 1272 N 127.117 1.15442 -1.07289 0
M  V30 1273 C 128.08 2.18358 -0.696591 0
M  V30 1274 C 129.08 1.58637 0.262837 0
M  V30 1275 O 130.27 1.74145 0.0438809 0
M  V30 1276 C 127.402 3.4089 -0.0266151 0
M  V30 1277 H 128.595 2.53162 -1.60776 0
M  V30 1278 H 126.148 1.29893 -0.869342 0
M  V30 1279 H 126.883 3.11653 0.896822 0
M  V30 1280 H 126.668 3.85495 -0.716657 0
M  V30 1281 H 128.158 4.17009 0.222028 0
M  V30 1282 N 128.595 0.856903 1.32268 0
M  V30 1283 C 129.558 0.308171 2.27119 0
M  V30 1284 C 130.558 -0.533421 1.51695 0
M  V30 1285 O 131.748 -0.344607 1.70757 0
M  V30 1286 C 128.88 -0.563757 3.36206 0
M  V30 1287 H 130.073 1.14535 2.77167 0
M  V30 1288 H 127.626 0.631421 1.42978 0
M  V30 1289 H 128.361 -1.42266 2.91429 0
M  V30 1290 H 128.146 0.0386749 3.92081 0
M  V30 1291 H 129.636 -0.940386 4.06874 0
M  V30 1292 N 130.073 -1.45103 0.615059 0
M  V30 1293 C 131.319 -2.02483 0.113347 0
M  V30 1294 C 131.652 -1.48146 -1.25564 0
M  V30 1295 O 130.927 -0.659104 -1.82992 0
M  V30 1296 C 131.21 -3.60005 0.0825278 0
M  V30 1297 C 131.063 -4.2466 1.48271 0
M  V30 1298 C 132.382 -4.35972 -0.601401 0
M  V30 1299 H 129.501 -0.735764 0.0426632 0
M  V30 1300 H 132.143 -1.72868 0.788461 0
M  V30 1301 H 130.293 -3.85367 -0.492378 0
M  V30 1302 H 131.965 -4.10458 2.10527 0
M  V30 1303 H 130.208 -3.82772 2.04127 0
M  V30 1304 H 130.879 -5.336 1.41332 0
M  V30 1305 H 133.355 -4.15947 -0.112666 0
M  V30 1306 H 132.231 -5.45697 -0.592097 0
M  V30 1307 H 132.492 -4.09391 -1.66887 0
M  V30 1308 N 131.551 -0.354651 -1.53558 0
M  V30 1309 C 132.828 0.294281 -1.93374 0
M  V30 1310 C 133.208 1.67313 -1.28723 0
M  V30 1311 O 132.556 2.24179 -0.442247 0
M  V30 1312 C 132.766 0.355445 -3.47185 0
M  V30 1313 C 134.114 0.601007 -4.20325 0
M  V30 1314 O 135.138 0.437106 -3.53508 0
M  V30 1315 O 133.997 0.919322 -5.38712 0
M  V30 1316 H 131.091 0.174033 -0.808481 0
M  V30 1317 H 133.637 -0.406638 -1.64756 0
M  V30 1318 H 132.409 -0.611729 -3.86489 0
M  V30 1319 H 132.032 1.1027 -3.82003 0
M  V30 1320 N 133.029 1.57378 -0.0835403 0
M  V30 1321 C 133.976 2.13384 0.879539 0
M  V30 1322 C 134.946 1.04936 1.28754 0
M  V30 1323 O 136.131 1.32662 1.37133 0
M  V30 1324 C 133.271 2.70932 2.13752 0
M  V30 1325 C 132.384 3.93575 1.7811 0
M  V30 1326 C 131.519 4.39326 2.98607 0
M  V30 1327 C 130.558 5.54587 2.59037 0
M  V30 1328 N 129.695 5.95243 3.72331 0
M  V30 1329 H 134.535 2.9537 0.395076 0
M  V30 1330 H 132.072 1.45953 0.183349 0
M  V30 1331 H 134.03 3.02411 2.87408 0
M  V30 1332 H 132.66 1.91693 2.59718 0
M  V30 1333 H 131.712 3.68483 0.94469 0
M  V30 1334 H 133.024 4.77258 1.45005 0
M  V30 1335 H 132.178 4.72528 3.80529 0
M  V30 1336 H 130.917 3.5452 3.34913 0
M  V30 1337 H 129.922 5.21024 1.75539 0
M  V30 1338 H 131.147 6.41133 2.23887 0
M  V30 1339 H 129.093 5.13385 4.08378 0
M  V30 1340 H 129.01 6.73694 3.43034 0
M  V30 1341 H 130.278 6.33072 4.54797 0
M  V30 1342 N 134.507 -0.190092 1.56449 0
M  V30 1343 C 135.754 -0.909705 1.80916 0
M  V30 1344 C 136.082 -1.83047 0.657583 0
M  V30 1345 O 135.337 -1.92428 -0.356356 0
M  V30 1346 C 135.636 -1.75382 3.1141 0
M  V30 1347 C 135.302 -0.983606 4.40041 0
M  V30 1348 C 133.964 -0.770967 4.74984 0
M  V30 1349 C 136.316 -0.442024 5.19322 0
M  V30 1350 C 133.644 -0.0053448 5.867 0
M  V30 1351 C 135.996 0.310412 6.31838 0
M  V30 1352 C 134.66 0.534023 6.6536 0
M  V30 1353 H 133.93 -0.332885 0.662019 0
M  V30 1354 H 136.577 -0.175762 1.90692 0
M  V30 1355 H 134.882 -2.55659 2.96893 0
M  V30 1356 H 136.579 -2.31331 3.27547 0
M  V30 1357 H 133.169 -1.15936 4.12622 0
M  V30 1358 H 137.353 -0.593693 4.92736 0
M  V30 1359 H 132.609 0.177825 6.11141 0
M  V30 1360 H 136.783 0.737419 6.92485 0
M  V30 1361 H 134.41 1.12918 7.51767 0
M  V30 1362 N 135.985 -1.50799 -0.457987 0
M  V30 1363 C 136.918 -1.65273 -1.57353 0
M  V30 1364 C 137.896 -0.500578 -1.54703 0
M  V30 1365 O 139.08 -0.721781 -1.74134 0
M  V30 1366 C 136.207 -1.64737 -2.95938 0
M  V30 1367 C 135.253 -2.8567 -3.16693 0
M  V30 1368 S 136.086 -4.46791 -2.95191 0
M  V30 1369 C 137.242 -4.48968 -4.36095 0
M  V30 1370 H 137.475 -2.59633 -1.44838 0
M  V30 1371 H 135.008 -1.40225 -0.64625 0
M  V30 1372 H 136.966 -1.65112 -3.7583 0
M  V30 1373 H 135.627 -0.715899 -3.05833 0
M  V30 1374 H 134.82 -2.81637 -4.17967 0
M  V30 1375 H 134.422 -2.8293 -2.44594 0
M  V30 1376 H 136.714 -4.23337 -5.28954 0
M  V30 1377 H 137.657 -5.50664 -4.45168 0
M  V30 1378 H 138.065 -3.78522 -4.18786 0
M  V30 1379 N 137.463 0.71206 -1.40597 0
M  V30 1380 C 138.393 1.83889 -1.43899 0
M  V30 1381 C 139.374 1.67442 -0.299504 0
M  V30 1382 O 140.559 1.87421 -0.508624 0
M  V30 1383 C 137.689 3.21877 -1.30431 0
M  V30 1384 C 136.643 3.53002 -2.42019 0
M  V30 1385 C 135.969 4.90172 -2.13626 0
M  V30 1386 C 137.269 3.53643 -3.84362 0
M  V30 1387 H 138.963 1.81383 -2.38203 0
M  V30 1388 H 136.509 0.871237 -1.14654 0
M  V30 1389 H 138.462 4.00404 -1.31357 0
M  V30 1390 H 137.186 3.24968 -0.326049 0
M  V30 1391 H 135.845 2.76818 -2.40349 0
M  V30 1392 H 135.493 4.89869 -1.14182 0
M  V30 1393 H 135.193 5.11962 -2.88389 0
M  V30 1394 H 136.717 5.71028 -2.1624 0
M  V30 1395 H 138.131 4.22203 -3.87837 0
M  V30 1396 H 136.528 3.86961 -4.58673 0
M  V30 1397 H 137.598 2.52954 -4.13693 0
M  V30 1398 N 138.941 1.26152 0.944643 0
M  V30 1399 C 140.218 1.02247 1.66748 0
M  V30 1400 C 140.598 -0.448202 2.06287 0
M  V30 1401 O 139.946 -1.42779 1.78399 0
M  V30 1402 C 140.156 1.96788 2.88228 0
M  V30 1403 C 141.504 2.25201 3.59958 0
M  V30 1404 O 142.528 1.94626 2.98327 0
M  V30 1405 O 141.387 2.77242 4.70956 0
M  V30 1406 H 138.481 0.388517 0.730057 0
M  V30 1407 H 141.027 1.37348 0.99668 0
M  V30 1408 H 139.799 2.96047 2.55875 0
M  V30 1409 H 139.422 1.62145 3.63035 0
M  V30 1410 N 140.419 -1.14872 1.07899 0
M  V30 1411 C 141.349 -2.2193 0.725887 0
M  V30 1412 C 142.33 -1.67622 -0.28927 0
M  V30 1413 O 143.515 -1.93533 -0.160787 0
M  V30 1414 C 140.645 -3.47061 0.128856 0
M  V30 1415 C 139.599 -4.14363 1.07178 0
M  V30 1416 C 138.925 -5.33636 0.337229 0
M  V30 1417 C 140.225 -4.63492 2.40775 0
M  V30 1418 H 141.919 -2.51724 1.62097 0
M  V30 1419 H 139.465 -1.20991 0.780838 0
M  V30 1420 H 141.418 -4.21199 -0.130147 0
M  V30 1421 H 140.142 -3.16617 -0.80134 0
M  V30 1422 H 138.801 -3.42173 1.3158 0
M  V30 1423 H 138.449 -4.99449 -0.596606 0
M  V30 1424 H 138.149 -5.79609 0.965788 0
M  V30 1425 H 139.673 -6.10539 0.0861567 0
M  V30 1426 H 141.087 -5.2913 2.20669 0
M  V30 1427 H 139.484 -5.20148 2.99276 0
M  V30 1428 H 140.554 -3.78834 3.02676 0
M  V30 1429 N 141.898 -0.863906 -1.31812 0
M  V30 1430 C 143.175 -0.39275 -1.91616 0
M  V30 1431 C 143.555 1.12461 -1.7865 0
M  V30 1432 O 142.903 1.95045 -1.19037 0
M  V30 1433 C 143.113 -0.867385 -3.38049 0
M  V30 1434 C 144.461 -0.889966 -4.15168 0
M  V30 1435 O 145.485 -0.812635 -3.46806 0
M  V30 1436 O 144.344 -1.00079 -5.37258 0
M  V30 1437 H 141.438 -0.116358 -0.818773 0
M  V30 1438 H 143.984 -0.951418 -1.40521 0
M  V30 1439 H 142.756 -1.91081 -3.41473 0
M  V30 1440 H 142.379 -0.286687 -3.96565 0
M  V30 1441 N 143.376 1.44774 -0.622745 0
M  V30 1442 C 144.624 2.01721 -0.123655 0
M  V30 1443 C 144.945 1.49172 1.25589 0
M  V30 1444 O 144.215 0.691974 1.83272 0
M  V30 1445 H 142.795 0.745777 -0.0427225 0
M  V30 1446 H 145.457 1.77382 -0.807559 0
M  V30 1447 H 144.553 3.11984 -0.0849534 0
M  V30 1448 N 144.854 0.36279 1.53368 0
M  V30 1449 C 146.082 -0.228613 2.05633 0
M  V30 1450 C 146.497 -1.42676 1.23649 0
M  V30 1451 O 145.854 -1.80394 0.27647 0
M  V30 1452 C 145.905 -0.624845 3.56059 0
M  V30 1453 O 145.626 0.525675 4.34935 0
M  V30 1454 C 147.127 -1.27493 4.24571 0
M  V30 1455 H 144.347 -0.0407183 0.669763 0
M  V30 1456 H 146.891 0.520352 1.97769 0
M  V30 1457 H 145.046 -1.32373 3.64083 0
M  V30 1458 H 145.46 0.205969 5.24095 0
M  V30 1459 H 146.934 -1.50277 5.31151 0
M  V30 1460 H 147.411 -2.23439 3.78116 0
M  V30 1461 H 148.017 -0.617558 4.20792 0
M  V30 1462 N 146.332 -1.57332 0.0918853 0
M  V30 1463 C 147.743 -1.81496 -0.437739 0
M  V30 1464 C 148.094 -1.00727 -1.6837 0
M  V30 1465 O 147.219 -0.235694 -2.15113 0
M  V30 1466 C 147.814 -3.29197 -0.800939 0
M  V30 1467 C 146.373 -3.54136 -1.27532 0
M  V30 1468 C 145.52 -2.75979 -0.270392 0
M  V30 1469 H 148.471 -1.55494 0.317366 0
M  V30 1470 H 148.492 -3.42344 -1.66074 0
M  V30 1471 H 148.004 -3.87955 0.106078 0
M  V30 1472 H 146.105 -3.00705 -2.20016 0
M  V30 1473 H 146.218 -4.62792 -1.23938 0
M  V30 1474 H 144.582 -2.43349 -0.751872 0
M  V30 1475 H 145.365 -3.37484 0.629248 0
M  V30 1476 N 147.81 0.181792 -1.56548 0
M  V30 1477 C 148.758 1.24461 -1.965 0
M  V30 1478 C 149.752 1.464 -0.852261 0
M  V30 1479 O 150.958 1.47103 -1.03733 0
M  V30 1480 H 147.333 0.418138 -0.625031 0
M  V30 1481 H 149.304 0.880714 -2.85107 0
M  V30 1482 C 148.053 2.57891 -2.33212 0
M  V30 1483 H 147.376 2.41829 -3.18369 0
M  V30 1484 H 148.816 3.3097 -2.65019 0
M  V30 1485 C 147.275 3.15871 -1.17163 0
M  V30 1486 O 147.805 3.9913 -0.453708 0
M  V30 1487 N 146.011 2.74808 -0.944936 0
M  V30 1488 H 145.558 2.07205 -1.53049 0
M  V30 1489 H 145.516 3.13939 -0.170286 0
M  V30 1490 N 149.288 1.51039 0.449983 0
M  V30 1491 C 150.235 1.71439 1.54523 0
M  V30 1492 C 151.205 0.555871 1.56522 0
M  V30 1493 O 152.39 0.788871 1.73728 0
M  V30 1494 C 149.53 1.83384 2.92343 0
M  V30 1495 C 148.643 3.10873 2.9997 0
M  V30 1496 C 147.778 3.13488 4.28834 0
M  V30 1497 C 146.817 4.35343 4.30282 0
M  V30 1498 N 145.954 4.35579 5.5065 0
M  V30 1499 H 150.794 2.64934 1.36433 0
M  V30 1500 H 148.331 1.31312 0.662982 0
M  V30 1501 H 150.289 1.88291 3.72293 0
M  V30 1502 H 148.919 0.933086 3.0902 0
M  V30 1503 H 147.971 3.15336 2.12761 0
M  V30 1504 H 149.283 4.00814 2.96901 0
M  V30 1505 H 148.437 3.17241 5.17149 0
M  V30 1506 H 147.176 2.21414 4.34543 0
M  V30 1507 H 146.181 4.3178 3.40362 0
M  V30 1508 H 147.406 5.28668 4.26248 0
M  V30 1509 H 145.352 3.46369 5.57104 0
M  V30 1510 H 145.269 5.19313 5.49409 0
M  V30 1511 H 146.537 4.43507 6.41032 0
M  V30 1512 N 150.766 -0.704594 1.40972 0
M  V30 1513 C 151.676 -1.84856 1.44448 0
M  V30 1514 C 152.692 -1.70726 0.335961 0
M  V30 1515 O 153.868 -1.92799 0.582276 0
M  V30 1516 C 150.933 -3.20758 1.31587 0
M  V30 1517 C 149.994 -3.47063 2.52677 0
M  V30 1518 C 149.227 -4.76481 2.4042 0
M  V30 1519 O 149.45 -5.52341 1.42391 0
M  V30 1520 O 148.384 -5.03367 3.30007 0
M  V30 1521 H 152.21 -1.8488 2.40942 0
M  V30 1522 H 149.795 -0.85647 1.22413 0
M  V30 1523 H 151.677 -4.01913 1.26665 0
M  V30 1524 H 150.352 -3.21438 0.382049 0
M  V30 1525 H 149.259 -2.65873 2.63177 0
M  V30 1526 H 150.592 -3.5119 3.44858 0
M  V30 1527 N 152.244 -1.26651 -0.937939 0
M  V30 1528 C 153.191 -1.0849 -2.03712 0
M  V30 1529 C 154.161 0.011033 -1.66096 0
M  V30 1530 O 155.346 -0.149353 -1.90215 0
M  V30 1531 C 152.486 -0.72735 -3.37348 0
M  V30 1532 C 151.599 -1.89986 -3.87981 0
M  V30 1533 C 150.734 -1.48513 -5.10017 0
M  V30 1534 C 149.773 -2.62575 -5.5292 0
M  V30 1535 N 148.91 -2.21762 -6.66158 0
M  V30 1536 H 153.75 -2.02551 -2.18579 0
M  V30 1537 H 151.287 -1.00844 -1.07093 0
M  V30 1538 H 153.245 -0.50092 -4.14182 0
M  V30 1539 H 151.875 0.176298 -3.22318 0
M  V30 1540 H 150.927 -2.23913 -3.07518 0
M  V30 1541 H 152.239 -2.75586 -4.15757 0
M  V30 1542 H 151.393 -1.21934 -5.94321 0
M  V30 1543 H 150.132 -0.60009 -4.83994 0
M  V30 1544 H 149.137 -2.8988 -4.67172 0
M  V30 1545 H 150.362 -3.51685 -5.80943 0
M  V30 1546 H 148.308 -1.35696 -6.41812 0
M  V30 1547 H 148.225 -3.00903 -6.93537 0
M  V30 1548 H 149.493 -1.98403 -7.53828 0
M  V30 1549 N 153.722 1.14298 -1.08507 0
M  V30 1550 C 154.652 2.21542 -0.737646 0
M  V30 1551 C 155.633 1.67773 0.280377 0
M  V30 1552 O 156.818 1.93616 0.150521 0
M  V30 1553 C 153.948 3.46988 -0.147259 0
M  V30 1554 C 152.902 4.13789 -1.09374 0
M  V30 1555 C 152.228 5.33449 -0.365524 0
M  V30 1556 C 153.528 4.62208 -2.4323 0
M  V30 1557 H 155.222 2.5086 -1.6343 0
M  V30 1558 H 152.768 1.20576 -0.787243 0
M  V30 1559 H 154.721 4.21262 0.107808 0
M  V30 1560 H 153.445 3.17037 0.784538 0
M  V30 1561 H 152.104 3.4147 -1.33393 0
M  V30 1562 H 151.752 4.99759 0.57011 0
M  V30 1563 H 151.452 5.79088 -0.996512 0
M  V30 1564 H 152.976 6.10485 -0.118534 0
M  V30 1565 H 154.39 5.27952 -2.23472 0
M  V30 1566 H 152.787 5.18553 -3.02031 0
M  V30 1567 H 153.857 3.77224 -3.04681 0
M  V30 1568 N 155.201 0.870884 1.31352 0
M  V30 1569 C 156.449 0.48132 1.96285 0
M  V30 1570 C 156.77 -0.969813 1.69173 0
M  V30 1571 O 156.04 -1.67998 1.00764 0
M  V30 1572 H 154.62 0.175002 0.726212 0
M  V30 1573 H 157.282 1.11087 1.60143 0
M  V30 1574 H 156.378 0.639825 3.05471 0
M  V30 1575 N 156.679 -1.44442 0.630414 0
M  V30 1576 C 157.642 -2.29107 -0.0652523 0
M  V30 1577 C 158.642 -1.41002 -0.772995 0
M  V30 1578 O 159.832 -1.62881 -0.617692 0
M  V30 1579 C 156.964 -3.22564 -1.10296 0
M  V30 1580 H 158.157 -2.92103 0.679401 0
M  V30 1581 H 155.71 -1.51343 0.390517 0
M  V30 1582 H 156.445 -2.64416 -1.87762 0
M  V30 1583 H 156.23 -3.87491 -0.59941 0
M  V30 1584 H 157.72 -3.86167 -1.5895 0
M  V30 1585 N 158.157 -0.370918 -1.53173 0
M  V30 1586 C 159.105 0.488101 -2.27421 0
M  V30 1587 C 160.099 1.07884 -1.30604 0
M  V30 1588 O 161.305 1.02143 -1.48212 0
M  V30 1589 H 157.68 0.176134 -0.731082 0
M  V30 1590 H 159.651 -0.159815 -2.97972 0
M  V30 1591 C 158.4 1.61306 -3.08019 0
M  V30 1592 H 157.723 1.1678 -3.82364 0
M  V30 1593 H 159.163 2.18872 -3.63141 0
M  V30 1594 C 157.622 2.55848 -2.19188 0
M  V30 1595 O 158.152 3.58799 -1.80626 0
M  V30 1596 N 156.358 2.2516 -1.83715 0
M  V30 1597 H 155.905 1.41476 -2.15273 0
M  V30 1598 H 155.863 2.8867 -1.24567 0
M  V30 1599 N 159.635 1.57281 -0.100228 0
M  V30 1600 C 160.598 2.13158 0.842398 0
M  V30 1601 C 161.598 1.06202 1.20738 0
M  V30 1602 O 162.788 1.32066 1.13597 0
M  V30 1603 C 159.92 2.65639 2.13655 0
M  V30 1604 H 161.113 2.97766 0.357114 0
M  V30 1605 H 158.666 1.5559 0.148823 0
M  V30 1606 H 159.401 1.84566 2.66657 0
M  V30 1607 H 159.186 3.43844 1.88451 0
M  V30 1608 H 160.676 3.08846 2.81077 0
M  V30 1609 N 161.113 -0.173488 1.56642 0
M  V30 1610 C 162.362 -0.888758 1.81063 0
M  V30 1611 C 162.675 -1.83506 0.67712 0
M  V30 1612 O 163.881 -2.59254 0.806206 0
M  V30 1613 C 162.337 -1.63091 3.20826 0
M  V30 1614 C 161.945 -0.728357 4.4204 0
M  V30 1615 C 163.689 -2.33454 3.54541 0
M  V30 1616 C 161.596 -1.47062 5.72823 0
M  V30 1617 H 160.526 -0.335618 0.675186 0
M  V30 1618 H 163.177 -0.141712 1.82952 0
M  V30 1619 H 161.559 -2.42263 3.13248 0
M  V30 1620 H 162.733 0.0262449 4.60793 0
M  V30 1621 H 161.048 -0.134492 4.16183 0
M  V30 1622 H 163.645 -2.89578 4.49498 0
M  V30 1623 H 163.988 -3.08687 2.79317 0
M  V30 1624 H 164.521 -1.61227 3.63663 0
M  V30 1625 H 161.26 -0.760658 6.51072 0
M  V30 1626 H 160.78 -2.1986 5.58052 0
M  V30 1627 H 162.459 -2.01868 6.14702 0
M  V30 1628 N 162.591 -1.51276 -0.441967 0
M  V30 1629 C 163.521 -1.752 -1.54361 0
M  V30 1630 C 164.502 -0.601682 -1.59103 0
M  V30 1631 O 165.687 -0.843913 -1.74905 0
M  V30 1632 C 162.817 -1.87282 -2.92477 0
M  V30 1633 C 161.771 -3.02687 -3.02596 0
M  V30 1634 C 161.097 -2.99947 -4.42647 0
M  V30 1635 C 162.397 -4.4273 -2.77106 0
M  V30 1636 H 164.091 -2.67442 -1.34592 0
M  V30 1637 H 161.637 -1.28694 -0.646048 0
M  V30 1638 H 163.59 -2.02602 -3.695 0
M  V30 1639 H 162.314 -0.916844 -3.13467 0
M  V30 1640 H 160.973 -2.87065 -2.28012 0
M  V30 1641 H 160.621 -2.02136 -4.60597 0
M  V30 1642 H 160.321 -3.77439 -4.50348 0
M  V30 1643 H 161.845 -3.17354 -5.2165 0
M  V30 1644 H 163.259 -4.58727 -3.43864 0
M  V30 1645 H 161.656 -5.21893 -2.96222 0
M  V30 1646 H 162.726 -4.53087 -1.72744 0
M  V30 1647 N 164.069 0.697108 -1.41344 0
M  V30 1648 C 165.317 1.45426 -1.40341 0
M  V30 1649 C 165.638 1.94996 -0.0128787 0
M  V30 1650 O 164.908 1.71599 0.945027 0
M  V30 1651 H 163.488 0.539594 -0.516573 0
M  V30 1652 H 166.15 0.825201 -1.76569 0
M  V30 1653 H 165.246 2.31817 -2.08967 0
M  V30 1654 N 165.547 1.27147 0.931209 0
M  V30 1655 C 166.793 1.13446 1.68101 0
M  V30 1656 C 167.126 -0.319628 1.91552 0
M  V30 1657 O 166.401 -1.23407 1.50336 0
M  V30 1658 C 166.684 1.91482 3.0497 0
M  V30 1659 C 166.537 3.44855 2.88782 0
M  V30 1660 C 167.856 1.71651 4.05246 0
M  V30 1661 H 164.975 0.413498 0.610072 0
M  V30 1662 H 167.617 1.56261 1.08086 0
M  V30 1663 H 165.767 1.55095 3.56199 0
M  V30 1664 H 167.439 3.9105 2.44698 0
M  V30 1665 H 165.682 3.71373 2.24198 0
M  V30 1666 H 166.353 3.94694 3.85902 0
M  V30 1667 H 168.829 2.0337 3.63015 0
M  V30 1668 H 167.705 2.28651 4.99009 0
M  V30 1669 H 167.966 0.663555 4.37092 0
M  V30 1670 N 167.025 -1.13721 1.09112 0
M  V30 1671 C 168.25 -1.89314 0.847053 0
M  V30 1672 C 168.675 -1.78416 -0.595774 0
M  V30 1673 O 168.033 -1.12942 -1.41823 0
M  V30 1674 C 168.081 -3.3701 1.28284 0
M  V30 1675 O 167.185 -4.10054 0.439267 0
M  V30 1676 H 166.526 -0.588745 0.307044 0
M  V30 1677 H 169.056 -1.43902 1.45442 0
M  V30 1678 H 169.066 -3.87834 1.26683 0
M  V30 1679 H 167.741 -3.4426 2.33363 0
M  V30 1680 H 166.318 -3.69266 0.519312 0
M  V30 1681 N 168.503 -0.877838 -1.30888 0
M  V30 1682 C 169.433 -0.35534 -2.3078 0
M  V30 1683 C 170.414 0.557994 -1.60687 0
M  V30 1684 O 171.599 0.473355 -1.88343 0
M  V30 1685 C 168.729 0.437221 -3.44537 0
M  V30 1686 C 167.683 -0.383715 -4.26276 0
M  V30 1687 C 167.009 0.535014 -5.32017 0
M  V30 1688 C 168.309 -1.62201 -4.96476 0
M  V30 1689 H 170.003 -1.19007 -2.74732 0
M  V30 1690 H 167.549 -0.573698 -1.32078 0
M  V30 1691 H 169.502 0.813334 -4.13477 0
M  V30 1692 H 168.226 1.30553 -2.99372 0
M  V30 1693 H 166.885 -0.741874 -3.59015 0
M  V30 1694 H 166.533 1.40083 -4.831 0
M  V30 1695 H 166.233 -0.0104211 -5.87599 0
M  V30 1696 H 167.757 0.907799 -6.03814 0
M  V30 1697 H 169.171 -1.31689 -5.5797 0
M  V30 1698 H 167.568 -2.10711 -5.61891 0
M  V30 1699 H 168.638 -2.37044 -4.23011 0
M  V30 1700 N 169.982 1.44106 -0.638065 0
M  V30 1701 C 170.945 2.29138 0.0531013 0
M  V30 1702 C 171.945 1.41409 0.765506 0
M  V30 1703 O 173.135 1.63206 0.609046 0
M  V30 1704 C 170.267 3.23144 1.08584 0
M  V30 1705 H 171.46 2.91739 -0.694883 0
M  V30 1706 H 169.013 1.51134 -0.398538 0
M  V30 1707 H 169.748 2.65408 1.86357 0
M  V30 1708 H 169.533 3.87804 0.578852 0
M  V30 1709 H 171.023 3.87004 1.56899 0
M  V30 1710 N 171.46 0.379036 1.52974 0
M  V30 1711 C 172.423 -0.448865 2.24762 0
M  V30 1712 C 173.423 -0.998689 1.26027 0
M  V30 1713 O 174.613 -0.882313 1.50203 0
M  V30 1714 N 172.938 -1.57226 0.108567 0
M  V30 1715 C 174.178 -1.96717 -0.555155 0
M  V30 1716 C 174.542 -0.990003 -1.64508 0
M  V30 1717 O 175.743 -1.2739 -2.36696 0
M  V30 1718 C 174.014 -3.40575 -1.08367 0
M  V30 1719 S 175.573 -4.02072 -1.75737 0
M  V30 1720 H 172.391 -0.687638 -0.180762 0
M  V30 1721 H 174.993 -1.94563 0.191172 0
M  V30 1722 H 173.697 -4.0945 -0.279092 0
M  V30 1723 H 173.228 -3.46356 -1.86551 0
M  V30 1724 H 175.243 -3.91977 -3.04251 0
M  V30 1725 N 174.416 0.165178 -1.56732 0
M  V30 1726 C 175.363 1.2044 -1.96883 0
M  V30 1727 C 176.333 1.43664 -0.833657 0
M  V30 1728 O 177.518 1.56302 -1.09427 0
M  V30 1729 C 174.658 2.53727 -2.33916 0
M  V30 1730 C 173.771 2.3783 -3.6064 0
M  V30 1731 C 172.906 3.64026 -3.86857 0
M  V30 1732 C 171.945 3.43088 -5.06909 0
M  V30 1733 N 171.082 4.61369 -5.29229 0
M  V30 1734 H 175.922 0.854996 -2.85471 0
M  V30 1735 H 173.459 0.41076 -1.41249 0
M  V30 1736 H 175.417 3.31419 -2.53411 0
M  V30 1737 H 174.047 2.8665 -1.48431 0
M  V30 1738 H 173.099 1.51282 -3.49024 0
M  V30 1739 H 174.411 2.18308 -4.4849 0
M  V30 1740 H 173.565 4.50152 -4.06753 0
M  V30 1741 H 172.304 3.86533 -2.97394 0
M  V30 1742 H 171.309 2.55349 -4.86906 0
M  V30 1743 H 172.534 3.21997 -5.97909 0
M  V30 1744 H 170.48 4.84084 -4.42718 0
M  V30 1745 H 170.397 4.44783 -6.11313 0
M  V30 1746 H 171.665 5.48761 -5.53608 0
M  V30 1747 N 175.894 1.51508 0.433938 0
M  V30 1748 C 176.857 1.72473 1.50949 0
M  V30 1749 C 177.857 0.594725 1.49398 0
M  V30 1750 O 179.047 0.862315 1.5136 0
M  V30 1751 C 176.179 1.78431 2.90474 0
M  V30 1752 H 177.372 2.68467 1.33662 0
M  V30 1753 H 174.925 1.41549 0.662836 0
M  V30 1754 H 175.66 0.842645 3.13161 0
M  V30 1755 H 175.445 2.60558 2.93005 0
M  V30 1756 H 176.935 1.96479 3.68491 0
M  V30 1757 N 177.372 -0.689602 1.41712 0
M  V30 1758 C 178.62 -1.4468 1.4111 0
M  V30 1759 C 178.941 -1.94986 0.0232196 0
M  V30 1760 O 178.211 -1.72097 -0.935913 0
M  V30 1761 H 176.791 -0.536847 0.519427 0
M  V30 1762 H 179.453 -0.815825 1.77004 0
M  V30 1763 H 178.549 -2.30706 2.10193 0
M  V30 1764 N 178.85 -1.27639 -0.924453 0
M  V30 1765 C 179.813 -1.10681 -2.00705 0
M  V30 1766 C 180.813 -0.0497823 -1.60723 0
M  V30 1767 O 182.003 -0.294654 -1.7169 0
M  V30 1768 C 179.135 -0.687164 -3.33902 0
M  V30 1769 H 180.328 -2.06817 -2.17179 0
M  V30 1770 H 177.881 -1.10473 -1.10569 0
M  V30 1771 H 178.616 0.275439 -3.23128 0
M  V30 1772 H 178.401 -1.45061 -3.6428 0
M  V30 1773 H 179.891 -0.590853 -4.13399 0
M  V30 1774 N 180.328 1.1314 -1.09713 0
M  V30 1775 C 181.291 2.16831 -0.742751 0
M  V30 1776 C 182.291 1.59159 0.229129 0
M  V30 1777 O 183.481 1.74199 0.00693237 0
M  V30 1778 C 180.613 3.40756 -0.0989168 0
M  V30 1779 H 181.806 2.49695 -1.66109 0
M  V30 1780 H 179.359 1.2802 -0.896699 0
M  V30 1781 H 180.094 3.13485 0.830514 0
M  V30 1782 H 179.879 3.83888 -0.798265 0
M  V30 1783 H 181.369 4.17386 0.133524 0
M  V30 1784 N 181.806 0.884767 1.30421 0
M  V30 1785 C 182.716 0.355398 2.31892 0
M  V30 1786 C 183.732 -0.542261 1.65335 0
M  V30 1787 O 184.908 -0.435432 1.96637 0
M  V30 1788 C 181.973 -0.421661 3.44126 0
M  V30 1789 C 181.034 0.505727 4.26311 0
M  V30 1790 C 180.267 -0.234343 5.33185 0
M  V30 1791 O 180.49 -1.46045 5.51386 0
M  V30 1792 O 179.424 0.415443 6.00465 0
M  V30 1793 H 183.25 1.19685 2.79122 0
M  V30 1794 H 180.835 0.648596 1.34587 0
M  V30 1795 H 182.717 -0.861641 4.12497 0
M  V30 1796 H 181.392 -1.23942 2.99032 0
M  V30 1797 H 180.299 0.994513 3.60639 0
M  V30 1798 H 181.632 1.28948 4.75009 0
M  V30 1799 N 183.284 -1.43765 0.645699 0
M  V30 1800 C 184.231 -2.30745 -0.0504648 0
M  V30 1801 C 185.201 -1.4432 -0.822241 0
M  V30 1802 O 186.386 -1.73202 -0.800358 0
M  V30 1803 C 183.526 -3.29802 -1.0161 0
M  V30 1804 C 182.639 -4.31326 -0.241219 0
M  V30 1805 C 181.774 -5.17469 -1.19998 0
M  V30 1806 C 180.813 -6.10691 -0.415094 0
M  V30 1807 N 179.95 -6.89483 -1.32506 0
M  V30 1808 H 184.79 -2.8973 0.697155 0
M  V30 1809 H 182.327 -1.42738 0.355563 0
M  V30 1810 H 184.285 -3.85734 -1.58949 0
M  V30 1811 H 182.915 -2.72483 -1.73069 0
M  V30 1812 H 181.967 -3.77749 0.448334 0
M  V30 1813 H 183.279 -4.9743 0.369437 0
M  V30 1814 H 182.433 -5.7799 -1.84424 0
M  V30 1815 H 181.172 -4.51473 -1.84455 0
M  V30 1816 H 180.177 -5.49265 0.242565 0
M  V30 1817 H 181.402 -6.78727 0.224966 0
M  V30 1818 H 179.348 -6.26142 -1.95657 0
M  V30 1819 H 179.265 -7.52081 -0.768783 0
M  V30 1820 H 180.533 -7.54516 -1.9577 0
M  V30 1821 N 184.763 -0.387143 -1.52771 0
M  V30 1822 C 186.011 0.195349 -2.01154 0
M  V30 1823 C 186.332 1.475 -1.27549 0
M  V30 1824 O 185.602 1.91878 -0.394924 0
M  V30 1825 H 184.182 0.075178 -0.743207 0
M  V30 1826 H 186.844 -0.518337 -1.87881 0
M  V30 1827 H 185.94 0.407096 -3.09434 0
M  V30 1828 N 186.241 1.57166 -0.116904 0
M  V30 1829 C 187.171 2.18222 0.830759 0
M  V30 1830 C 188.152 1.12167 1.27877 0
M  V30 1831 O 189.337 1.40394 1.34176 0
M  V30 1832 C 186.467 2.77996 2.08172 0
M  V30 1833 C 185.421 3.89614 1.77157 0
M  V30 1834 C 184.747 4.36187 3.09265 0
M  V30 1835 C 186.047 5.1181 1.04151 0
M  V30 1836 H 187.741 2.97664 0.321992 0
M  V30 1837 H 185.287 1.4318 0.153434 0
M  V30 1838 H 187.24 3.19366 2.74924 0
M  V30 1839 H 185.964 1.9584 2.6137 0
M  V30 1840 H 184.623 3.48816 1.12796 0
M  V30 1841 H 184.271 3.50893 3.60393 0
M  V30 1842 H 183.971 5.11455 2.89288 0
M  V30 1843 H 185.495 4.80207 3.77139 0
M  V30 1844 H 186.909 5.50214 1.61052 0
M  V30 1845 H 185.306 5.92648 0.942762 0
M  V30 1846 H 186.376 4.84892 0.0279022 0
M  V30 1847 N 187.719 -0.156864 1.56817 0
M  V30 1848 C 189.13 -0.717916 1.72345 0
M  V30 1849 C 189.481 -1.82124 0.729747 0
M  V30 1850 O 188.606 -2.16141 -0.105781 0
M  V30 1851 C 189.201 -1.30904 3.12489 0
M  V30 1852 C 187.76 -1.81676 3.29653 0
M  V30 1853 C 186.907 -0.701349 2.68284 0
M  V30 1854 H 189.858 0.0686989 1.58551 0
M  V30 1855 H 189.879 -2.17882 3.11942 0
M  V30 1856 H 189.391 -0.505796 3.8479 0
M  V30 1857 H 187.492 -2.64598 2.62333 0
M  V30 1858 H 187.605 -1.95226 4.3752 0
M  V30 1859 H 185.969 -1.12548 2.28484 0
M  V30 1860 H 186.752 0.0902846 3.43181 0
M  V30 1861 N 189.197 -1.51736 -0.425897 0
M  V30 1862 C 190.127 -1.76827 -1.52494 0
M  V30 1863 C 191.108 -0.618524 -1.58456 0
M  V30 1864 O 192.293 -0.862416 -1.74 0
M  V30 1865 C 189.423 -1.90374 -2.90474 0
M  V30 1866 C 188.377 -3.0588 -2.99369 0
M  V30 1867 C 187.703 -3.04625 -4.3944 0
M  V30 1868 C 189.003 -4.45644 -2.72394 0
M  V30 1869 H 190.697 -2.68855 -1.31748 0
M  V30 1870 H 188.243 -1.29372 -0.632362 0
M  V30 1871 H 190.196 -2.0651 -3.6733 0
M  V30 1872 H 188.92 -0.95004 -3.12477 0
M  V30 1873 H 187.579 -2.89467 -2.24954 0
M  V30 1874 H 187.227 -2.0701 -4.58428 0
M  V30 1875 H 186.927 -3.82195 -4.46319 0
M  V30 1876 H 188.451 -3.22869 -5.18255 0
M  V30 1877 H 189.865 -4.62348 -3.38979 0
M  V30 1878 H 188.262 -5.25006 -2.9067 0
M  V30 1879 H 189.332 -4.54893 -1.67929 0
M  V30 1880 N 190.675 0.682077 -1.42076 0
M  V30 1881 C 191.905 1.46844 -1.45329 0
M  V30 1882 C 192.313 1.89102 -0.0609328 0
M  V30 1883 O 191.656 1.58238 0.933082 0
M  V30 1884 C 191.718 2.75375 -2.31104 0
M  V30 1885 C 191.382 2.55238 -3.79081 0
M  V30 1886 C 192.379 2.20309 -4.70914 0
M  V30 1887 C 190.064 2.70459 -4.2327 0
M  V30 1888 C 192.058 2.00859 -6.04925 0
M  V30 1889 C 189.745 2.50624 -5.57343 0
M  V30 1890 C 190.743 2.15876 -6.47986 0
M  V30 1891 O 190.431 1.96227 -7.79583 0
M  V30 1892 H 190.163 0.4586 -0.496651 0
M  V30 1893 H 192.717 0.846131 -1.87162 0
M  V30 1894 H 190.947 3.40061 -1.84107 0
M  V30 1895 H 192.636 3.37231 -2.25898 0
M  V30 1896 H 193.402 2.08153 -4.38061 0
M  V30 1897 H 189.281 2.96485 -3.53012 0
M  V30 1898 H 192.825 1.7366 -6.75639 0
M  V30 1899 H 188.722 2.62375 -5.89771 0
M  V30 1900 H 189.49 2.10883 -7.90867 0
M  V30 1901 N 192.153 1.28127 0.917671 0
M  V30 1902 C 193.1 1.11717 2.0196 0
M  V30 1903 C 194.07 0.0153929 1.66093 0
M  V30 1904 O 195.255 0.179596 1.89953 0
M  V30 1905 C 192.395 0.780927 3.36148 0
M  V30 1906 C 191.508 1.96135 3.84909 0
M  V30 1907 C 190.643 1.56609 5.0759 0
M  V30 1908 C 189.682 2.71339 5.48673 0
M  V30 1909 N 188.819 2.32332 6.62545 0
M  V30 1910 H 193.659 2.06003 2.15329 0
M  V30 1911 H 191.196 1.02535 1.05475 0
M  V30 1912 H 193.154 0.56675 4.13333 0
M  V30 1913 H 191.784 -0.124998 3.22558 0
M  V30 1914 H 190.836 2.28777 3.03916 0
M  V30 1915 H 192.148 2.82165 4.1132 0
M  V30 1916 H 191.302 1.31374 5.92305 0
M  V30 1917 H 190.041 0.677014 4.82978 0
M  V30 1918 H 189.046 2.97276 4.62501 0
M  V30 1919 H 190.271 3.60882 5.75274 0
M  V30 1920 H 188.217 1.45889 6.39572 0
M  V30 1921 H 188.134 3.11899 6.88662 0
M  V30 1922 H 189.402 2.10371 7.50576 0
M  V30 1923 N 193.631 -1.12557 1.10312 0
M  V30 1924 C 194.861 -1.87592 0.865617 0
M  V30 1925 C 195.269 -1.79851 -0.587389 0
M  V30 1926 O 194.612 -1.16949 -1.41664 0
M  V30 1927 C 194.674 -3.37665 1.23381 0
M  V30 1928 C 194.338 -3.69181 2.69359 0
M  V30 1929 C 195.335 -3.67652 3.67597 0
M  V30 1930 C 193.02 -3.98555 3.05711 0
M  V30 1931 C 195.014 -3.95053 5.00212 0
M  V30 1932 C 192.701 -4.25616 4.38514 0
M  V30 1933 C 193.699 -4.23851 5.35574 0
M  V30 1934 O 193.387 -4.50242 6.65986 0
M  V30 1935 H 193.119 -0.600442 0.310557 0
M  V30 1936 H 195.673 -1.4335 1.47105 0
M  V30 1937 H 193.903 -3.82454 0.571467 0
M  V30 1938 H 195.592 -3.94041 0.973994 0
M  V30 1939 H 196.358 -3.45024 3.40857 0
M  V30 1940 H 192.237 -3.99071 2.30789 0
M  V30 1941 H 195.781 -3.93591 5.75962 0
M  V30 1942 H 191.678 -4.47718 4.64994 0
M  V30 1943 H 192.446 -4.67867 6.71597 0
M  V30 1944 N 195.109 -0.891671 -1.2995 0
M  V30 1945 C 196.358 -0.509521 -1.95158 0
M  V30 1946 C 196.671 0.947388 -1.71125 0
M  V30 1947 O 197.877 1.43669 -2.30372 0
M  V30 1948 C 196.333 -0.860315 -3.49466 0
M  V30 1949 C 195.941 -2.33545 -3.8231 0
M  V30 1950 C 197.685 -0.547687 -4.20952 0
M  V30 1951 C 195.592 -2.62752 -5.29826 0
M  V30 1952 H 194.522 -0.18682 -0.730489 0
M  V30 1953 H 197.173 -1.08756 -1.47798 0
M  V30 1954 H 195.555 -0.211285 -3.95436 0
M  V30 1955 H 196.729 -3.02936 -3.47227 0
M  V30 1956 H 195.044 -2.61629 -3.23944 0
M  V30 1957 H 197.641 -0.742854 -5.29515 0
M  V30 1958 H 197.984 0.51332 -4.13123 0
M  V30 1959 H 198.517 -1.1542 -3.80688 0
M  V30 1960 H 195.256 -3.6762 -5.42712 0
M  V30 1961 H 194.776 -1.97977 -5.66185 0
M  V30 1962 H 196.455 -2.48601 -5.97333 0
M  V30 1963 N 196.587 1.43421 -0.653314 0
M  V30 1964 C 197.55 2.29182 0.0287951 0
M  V30 1965 C 198.55 1.42213 0.750465 0
M  V30 1966 O 199.74 1.63843 0.591701 0
M  V30 1967 C 196.872 3.24278 1.05151 0
M  V30 1968 H 198.065 2.90985 -0.725786 0
M  V30 1969 H 195.618 1.50702 -0.414545 0
M  V30 1970 H 196.353 2.6737 1.83532 0
M  V30 1971 H 196.138 3.88396 0.537687 0
M  V30 1972 H 197.628 3.88647 1.52786 0
M  V30 1973 N 198.065 0.39524 1.52563 0
M  V30 1974 C 199.293 -0.184943 2.06072 0
M  V30 1975 C 199.708 -1.40021 1.26647 0
M  V30 1976 O 199.065 -1.79767 0.314672 0
M  V30 1977 C 199.116 -0.549179 3.57304 0
M  V30 1978 O 198.837 0.617813 4.33722 0
M  V30 1979 C 200.338 -1.18459 4.2718 0
M  V30 1980 H 197.558 -0.0265025 0.670476 0
M  V30 1981 H 200.102 0.562184 1.96621 0
M  V30 1982 H 198.257 -1.2462 3.66809 0
M  V30 1983 H 198.671 0.317091 5.23541 0
M  V30 1984 H 200.145 -1.38976 5.34219 0
M  V30 1985 H 200.622 -2.15368 3.82771 0
M  V30 1986 H 201.228 -0.528163 4.22008 0
M  V30 1987 N 199.544 -1.57102 0.125237 0
M  V30 1988 C 200.474 -2.18659 -0.819174 0
M  V30 1989 C 201.455 -1.12843 -1.27281 0
M  V30 1990 O 202.64 -1.41104 -1.33429 0
M  V30 1991 C 199.77 -2.79096 -2.06695 0
M  V30 1992 C 198.724 -3.90548 -1.75088 0
M  V30 1993 C 198.05 -4.37821 -3.06948 0
M  V30 1994 C 199.35 -5.12356 -1.01435 0
M  V30 1995 H 201.044 -2.9783 -0.306202 0
M  V30 1996 H 198.59 -1.4326 -0.145839 0
M  V30 1997 H 200.543 -3.2082 -2.73226 0
M  V30 1998 H 199.267 -1.97223 -2.60328 0
M  V30 1999 H 197.926 -3.49409 -1.10944 0
M  V30 2000 H 197.574 -3.52799 -3.58527 0
M  V30 2001 H 197.274 -5.12982 -2.86571 0
M  V30 2002 H 198.798 -4.822 -3.74587 0
M  V30 2003 H 200.212 -5.5106 -1.58132 0
M  V30 2004 H 198.609 -5.9314 -0.911319 0
M  V30 2005 H 199.679 -4.849 -0.00218681 0
M  V30 2006 N 201.022 0.148545 -1.56898 0
M  V30 2007 C 201.985 1.16736 -1.97244 0
M  V30 2008 C 202.985 1.35947 -0.858777 0
M  V30 2009 O 204.175 1.32966 -1.12542 0
M  V30 2010 C 201.307 2.52798 -2.28705 0
M  V30 2011 H 202.5 0.821279 -2.88435 0
M  V30 2012 H 200.053 0.391831 -1.51309 0
M  V30 2013 H 200.788 2.92381 -1.403 0
M  V30 2014 H 200.573 2.40216 -3.09901 0
M  V30 2015 H 202.063 3.26179 -2.60762 0
M  V30 2016 N 202.5 1.5196 0.417844 0
M  V30 2017 C 203.748 1.65263 1.16329 0
M  V30 2018 C 204.069 0.380634 1.91249 0
M  V30 2019 O 203.339 -0.604214 1.86349 0
M  V30 2020 H 201.919 0.60912 0.432414 0
M  V30 2021 H 204.581 1.88969 0.477162 0
M  V30 2022 H 203.677 2.4896 1.88217 0
M  V30 2023 N 203.978 -0.674533 1.42435 0
M  V30 2024 C 204.926 -1.80934 1.46169 0
M  V30 2025 C 205.92 -1.66006 0.3374 0
M  V30 2026 O 207.126 -1.72611 0.510425 0
M  V30 2027 H 203.501 -0.596594 0.457798 0
M  V30 2028 H 205.472 -1.74903 2.41767 0
M  V30 2029 C 204.221 -3.19088 1.38123 0
M  V30 2030 H 203.544 -3.31203 2.23931 0
M  V30 2031 H 204.984 -3.9851 1.44797 0
M  V30 2032 C 203.443 -3.36763 0.0960517 0
M  V30 2033 O 203.973 -3.92581 -0.851073 0
M  V30 2034 N 202.179 -2.90597 0.0131186 0
M  V30 2035 H 201.726 -2.45359 0.784639 0
M  V30 2036 H 201.684 -3.028 -0.846133 0
M  V30 2037 N 205.456 -1.28612 -0.910864 0
M  V30 2038 C 206.403 -1.12786 -2.01365 0
M  V30 2039 C 207.373 -0.024201 -1.66082 0
M  V30 2040 O 208.558 -0.189667 -1.89855 0
M  V30 2041 C 205.698 -0.798743 -3.35729 0
M  V30 2042 C 204.811 -1.98173 -3.83864 0
M  V30 2043 C 203.946 -1.59298 -5.06752 0
M  V30 2044 C 202.985 -2.74245 -5.47226 0
M  V30 2045 N 202.122 -2.35842 -6.61304 0
M  V30 2046 H 206.962 -2.07142 -2.14234 0
M  V30 2047 H 204.499 -1.03093 -1.0493 0
M  V30 2048 H 206.457 -0.588662 -4.13026 0
M  V30 2049 H 205.087 0.10789 -3.2262 0
M  V30 2050 H 204.139 -2.30386 -3.02699 0
M  V30 2051 H 205.451 -2.84343 -4.09818 0
M  V30 2052 H 204.605 -1.34513 -5.916 0
M  V30 2053 H 203.344 -0.702618 -4.82612 0
M  V30 2054 H 202.349 -2.99725 -4.60918 0
M  V30 2055 H 203.574 -3.63928 -5.73353 0
M  V30 2056 H 201.52 -1.49279 -6.38789 0
M  V30 2057 H 201.437 -3.15546 -6.86998 0
M  V30 2058 H 202.705 -2.14348 -7.4945 0
M  V30 2059 N 206.934 1.1197 -1.10907 0
M  V30 2060 C 207.844 2.21433 -0.774896 0
M  V30 2061 C 208.86 1.72478 0.229657 0
M  V30 2062 O 210.036 2.01288 0.0672008 0
M  V30 2063 C 207.101 3.4602 -0.216986 0
M  V30 2064 C 206.162 4.09791 -1.27944 0
M  V30 2065 C 205.395 5.28431 -0.748055 0
M  V30 2066 O 205.618 5.68823 0.423833 0
M  V30 2067 O 204.552 5.82644 -1.51027 0
M  V30 2068 H 208.378 2.5242 -1.68873 0
M  V30 2069 H 205.963 1.20399 -0.884555 0
M  V30 2070 H 207.845 4.21304 0.090059 0
M  V30 2071 H 206.52 3.16698 0.669633 0
M  V30 2072 H 205.427 3.36265 -1.63941 0
M  V30 2073 H 206.76 4.4328 -2.13925 0
M  V30 2074 N 208.412 0.89855 1.29475 0
M  V30 2075 C 209.658 0.524658 1.95896 0
M  V30 2076 C 209.991 -0.926468 1.70676 0
M  V30 2077 O 209.266 -1.65665 1.01908 0
M  V30 2078 C 209.549 0.81633 3.50725 0
M  V30 2079 C 209.402 2.31907 3.85408 0
M  V30 2080 C 210.721 0.302038 4.39062 0
M  V30 2081 H 207.84 0.19209 0.711527 0
M  V30 2082 H 210.482 1.12502 1.53112 0
M  V30 2083 H 208.632 0.305369 3.87298 0
M  V30 2084 H 210.304 2.89949 3.58786 0
M  V30 2085 H 208.547 2.78027 3.32992 0
M  V30 2086 H 209.218 2.47373 4.93468 0
M  V30 2087 H 211.694 0.739551 4.09475 0
M  V30 2088 H 210.57 0.535331 5.46283 0
M  V30 2089 H 210.831 -0.797216 4.34853 0
M  V30 2090 N 209.89 -1.43072 0.660911 0
M  V30 2091 C 211.139 -2.00942 0.174735 0
M  V30 2092 C 211.452 -1.52797 -1.22117 0
M  V30 2093 O 212.658 -2.02991 -1.80297 0
M  V30 2094 C 211.114 -3.58948 0.261559 0
M  V30 2095 C 210.722 -4.16085 1.66064 0
M  V30 2096 C 212.466 -4.24173 -0.166617 0
M  V30 2097 C 210.373 -5.6641 1.70098 0
M  V30 2098 H 209.303 -0.751483 0.0615631 0
M  V30 2099 H 211.954 -1.63955 0.824069 0
M  V30 2100 H 210.336 -3.93372 -0.455421 0
M  V30 2101 H 211.51 -3.93147 2.40359 0
M  V30 2102 H 209.825 -3.6326 2.03546 0
M  V30 2103 H 212.422 -5.34471 -0.156433 0
M  V30 2104 H 212.765 -3.98647 -1.19943 0
M  V30 2105 H 213.298 -3.94659 0.498875 0
M  V30 2106 H 210.037 -5.96715 2.71315 0
M  V30 2107 H 209.557 -5.91382 1.00139 0
M  V30 2108 H 211.236 -6.30585 1.44816 0
M  V30 2109 N 211.368 -0.403325 -1.52352 0
M  V30 2110 C 212.301 0.469463 -2.23319 0
M  V30 2111 C 213.279 1.05272 -1.23922 0
M  V30 2112 O 214.463 1.10169 -1.52954 0
M  V30 2113 C 211.59 1.6511 -2.9573 0
M  V30 2114 C 210.636 1.19178 -4.0951 0
M  V30 2115 S 211.469 0.161718 -5.35256 0
M  V30 2116 C 212.625 1.34882 -6.11194 0
M  V30 2117 H 212.858 -0.133134 -2.97002 0
M  V30 2118 H 210.391 -0.187588 -1.53256 0
M  V30 2119 H 212.349 2.3287 -3.38056 0
M  V30 2120 H 211.01 2.22503 -2.21701 0
M  V30 2121 H 210.203 2.07444 -4.59329 0
M  V30 2122 H 209.805 0.592911 -3.6927 0
M  V30 2123 H 212.097 2.27345 -6.38217 0
M  V30 2124 H 213.04 0.89128 -7.02468 0
M  V30 2125 H 213.448 1.57198 -5.42171 0
M  V30 2126 N 212.846 1.57033 -0.133567 0
M  V30 2127 C 214.257 1.82593 0.389464 0
M  V30 2128 C 214.608 1.05156 1.6564 0
M  V30 2129 O 213.733 0.292644 2.14412 0
M  V30 2130 C 214.328 3.31204 0.713377 0
M  V30 2131 C 212.887 3.57393 1.18098 0
M  V30 2132 C 212.034 2.76598 0.197126 0
M  V30 2133 H 214.985 1.54598 -0.358481 0
M  V30 2134 H 215.006 3.46627 1.56939 0
M  V30 2135 H 214.518 3.87537 -0.2089 0
M  V30 2136 H 212.619 3.06433 2.11966 0
M  V30 2137 H 212.732 4.65915 1.11624 0
M  V30 2138 H 211.096 2.45257 0.687088 0
M  V30 2139 H 211.879 3.35697 -0.718504 0
M  V30 2140 N 214.325 -0.140222 1.56975 0
M  V30 2141 C 215.571 -0.852949 1.83991 0
M  V30 2142 C 215.904 -1.80512 0.716187 0
M  V30 2143 O 215.179 -1.92479 -0.279681 0
M  V30 2144 C 215.462 -1.6215 3.21527 0
M  V30 2145 C 215.315 -0.690363 4.4447 0
M  V30 2146 C 216.634 -2.58247 3.56366 0
M  V30 2147 H 213.753 -0.308634 0.669264 0
M  V30 2148 H 216.395 -0.117898 1.89634 0
M  V30 2149 H 214.545 -2.24812 3.16847 0
M  V30 2150 H 216.217 -0.0742264 4.6124 0
M  V30 2151 H 214.46 -0.000396433 4.338 0
M  V30 2152 H 215.131 -1.2643 5.37326 0
M  V30 2153 H 217.607 -2.05701 3.61699 0
M  V30 2154 H 216.483 -3.09067 4.53617 0
M  V30 2155 H 216.744 -3.39923 2.82674 0
M  V30 2156 N 215.803 -1.52179 -0.40978 0
M  V30 2157 C 217.214 -1.58377 -0.988615 0
M  V30 2158 C 217.565 -0.423879 -1.91566 0
M  V30 2159 O 216.69 0.455844 -2.11544 0
M  V30 2160 C 217.285 -2.87044 -1.79976 0
M  V30 2161 C 215.844 -2.95722 -2.32863 0
M  V30 2162 C 214.991 -2.53309 -1.12828 0
M  V30 2163 H 217.942 -1.57558 -0.190039 0
M  V30 2164 H 217.963 -2.7236 -2.65707 0
M  V30 2165 H 217.475 -3.71444 -1.12478 0
M  V30 2166 H 215.576 -2.15814 -3.03735 0
M  V30 2167 H 215.689 -3.99951 -2.63773 0
M  V30 2168 H 214.053 -2.07142 -1.48204 0
M  V30 2169 H 214.836 -3.40082 -0.46897 0
M  V30 2170 N 217.281 0.66697 -1.42791 0
M  V30 2171 C 218.506 1.46004 -1.47301 0
M  V30 2172 C 218.931 1.87894 -0.0880317 0
M  V30 2173 O 218.289 1.56502 0.915253 0
M  V30 2174 C 218.337 2.68031 -2.41229 0
M  V30 2175 O 217.441 3.6659 -1.88906 0
M  V30 2176 H 216.782 0.43832 -0.49877 0
M  V30 2177 H 219.312 0.817391 -1.87563 0
M  V30 2178 H 219.322 3.1601 -2.58073 0
M  V30 2179 H 217.997 2.36883 -3.41847 0
M  V30 2180 H 216.574 3.25661 -1.81656 0
M  V30 2181 N 218.759 1.29093 0.90403 0
M  V30 2182 C 220.006 1.16813 1.65411 0
M  V30 2183 C 220.334 -0.28128 1.92455 0
M  V30 2184 O 219.589 -1.22006 1.53013 0
M  V30 2185 C 219.888 1.92224 3.01305 0
M  V30 2186 C 219.554 3.41968 2.93885 0
M  V30 2187 C 218.216 3.82807 2.91569 0
M  V30 2188 C 220.568 4.37409 2.83413 0
M  V30 2189 C 217.896 5.1741 2.76594 0
M  V30 2190 C 220.248 5.72097 2.69977 0
M  V30 2191 C 218.912 6.12199 2.66024 0
M  V30 2192 H 218.182 0.42745 0.605283 0
M  V30 2193 H 220.829 1.59981 1.05254 0
M  V30 2194 H 219.134 1.41635 3.65304 0
M  V30 2195 H 220.831 1.80131 3.58265 0
M  V30 2196 H 217.421 3.09504 2.96488 0
M  V30 2197 H 221.605 4.06813 2.84283 0
M  V30 2198 H 216.861 5.47596 2.71935 0
M  V30 2199 H 221.035 6.45704 2.60844 0
M  V30 2200 H 218.662 7.16448 2.54178 0
M  V30 2201 N 220.237 -1.11381 1.11499 0
M  V30 2202 C 221.185 -2.19522 0.768956 0
M  V30 2203 C 222.179 -1.67693 -0.239857 0
M  V30 2204 O 223.385 -1.79727 -0.0990755 0
M  V30 2205 H 219.76 -0.715711 0.230786 0
M  V30 2206 H 221.731 -2.45954 1.68964 0
M  V30 2207 C 220.48 -3.46945 0.229073 0
M  V30 2208 H 219.803 -3.8718 0.996596 0
M  V30 2209 H 221.243 -4.23993 0.0251441 0
M  V30 2210 C 219.702 -3.2042 -1.04079 0
M  V30 2211 O 220.232 -3.41178 -2.12038 0
M  V30 2212 N 218.438 -2.74151 -0.963823 0
M  V30 2213 H 217.985 -2.57459 -0.0851722 0
M  V30 2214 H 217.943 -2.56781 -1.81414 0
M  V30 2215 N 221.715 -0.905404 -1.28997 0
M  V30 2216 C 222.961 -0.535039 -1.95615 0
M  V30 2217 C 223.294 0.917404 -1.71165 0
M  V30 2218 O 222.569 1.65123 -1.02785 0
M  V30 2219 C 222.852 -0.834918 -3.50287 0
M  V30 2220 C 222.705 -2.33948 -3.84172 0
M  V30 2221 C 224.024 -0.325318 -4.38896 0
M  V30 2222 H 221.143 -0.195861 -0.710498 0
M  V30 2223 H 223.785 -1.13313 -1.52513 0
M  V30 2224 H 221.935 -0.325904 -3.87131 0
M  V30 2225 H 223.607 -2.91847 -3.57243 0
M  V30 2226 H 221.85 -2.79789 -3.31513 0
M  V30 2227 H 222.521 -2.49987 -4.92149 0
M  V30 2228 H 224.997 -0.761256 -4.09077 0
M  V30 2229 H 223.873 -0.564295 -5.45992 0
M  V30 2230 H 224.134 0.774144 -4.35269 0
M  V30 2231 N 223.193 1.4272 -0.668489 0
M  V30 2232 C 224.442 2.00846 -0.185389 0
M  V30 2233 C 224.755 1.53442 1.21305 0
M  V30 2234 O 225.961 2.03944 1.79218 0
M  V30 2235 C 224.417 3.58805 -0.280591 0
M  V30 2236 C 224.025 4.15198 -1.68268 0
M  V30 2237 C 225.769 4.24255 0.14412 0
M  V30 2238 C 223.676 5.655 -1.73099 0
M  V30 2239 H 222.606 0.751145 -0.0655475 0
M  V30 2240 H 225.257 1.63516 -0.832752 0
M  V30 2241 H 223.639 3.93608 0.434553 0
M  V30 2242 H 224.813 3.91866 -2.42441 0
M  V30 2243 H 223.128 3.62176 -2.05469 0
M  V30 2244 H 225.725 5.34547 0.128086 0
M  V30 2245 H 226.068 3.99277 1.17827 0
M  V30 2246 H 226.601 3.94389 -0.519798 0
M  V30 2247 H 223.34 5.95268 -2.74475 0
M  V30 2248 H 222.86 5.90842 -1.03274 0
M  V30 2249 H 224.539 6.29808 -1.48158 0
M  V30 2250 N 224.671 0.411399 1.52136 0
M  V30 2251 C 225.619 -0.427633 2.28635 0
M  V30 2252 C 226.613 -1.04383 1.33419 0
M  V30 2253 O 227.819 -0.981772 1.50868 0
M  V30 2254 H 224.194 -0.156689 0.735495 0
M  V30 2255 H 226.165 0.238761 2.97443 0
M  V30 2256 C 224.914 -1.53082 3.12188 0
M  V30 2257 H 224.237 -1.06601 3.85326 0
M  V30 2258 H 225.677 -2.09167 3.68816 0
M  V30 2259 C 224.136 -2.49946 2.25895 0
M  V30 2260 O 224.666 -3.53884 1.90076 0
M  V30 2261 N 222.872 -2.2021 1.8962 0
M  V30 2262 H 222.419 -1.35719 2.18948 0
M  V30 2263 H 222.377 -2.85266 1.32176 0
M  V30 2264 N 226.149 -1.5696 0.141893 0
M  V30 2265 C 227.397 -1.95573 -0.509484 0
M  V30 2266 C 227.718 -1.02746 -1.65736 0
M  V30 2267 O 226.988 -0.0880311 -1.95702 0
M  V30 2268 H 225.568 -0.722115 -0.191205 0
M  V30 2269 H 228.23 -1.93697 0.216196 0
M  V30 2270 H 227.326 -2.99171 -0.889 0
M  V30 2271 N 227.627 0.131896 -1.57047 0
M  V30 2272 C 228.875 0.840269 -1.83804 0
M  V30 2273 C 229.196 1.81017 -0.72512 0
M  V30 2274 O 228.466 1.94272 0.251995 0
M  V30 2275 H 227.046 0.313294 -0.678127 0
M  V30 2276 H 229.708 0.122294 -1.94516 0
M  V30 2277 H 228.804 1.39335 -2.79271 0
M  V30 2278 N 229.106 1.52395 0.401703 0
M  V30 2279 C 230.331 1.70972 1.17403 0
M  V30 2280 C 230.756 0.421615 1.83314 0
M  V30 2281 O 230.114 -0.621564 1.70312 0
M  V30 2282 C 230.162 2.85151 2.20728 0
M  V30 2283 O 229.266 2.51238 3.27037 0
M  V30 2284 H 228.607 0.568927 0.342372 0
M  V30 2285 H 231.137 1.99131 0.469891 0
M  V30 2286 H 231.147 3.10279 2.64936 0
M  V30 2287 H 229.822 3.78603 1.7214 0
M  V30 2288 H 228.399 2.36808 2.88057 0
M  V30 2289 N 230.584 -0.659388 1.43143 0
M  V30 2290 C 231.534 -1.7655 1.44271 0
M  V30 2291 C 232.518 -1.57847 0.311961 0
M  V30 2292 O 233.71 -1.68064 0.555306 0
M  V30 2293 C 230.839 -3.15104 1.36251 0
M  V30 2294 C 229.925 -3.39377 2.54331 0
M  V30 2295 N 230.316 -3.34153 3.79704 0
M  V30 2296 C 228.614 -3.70072 2.48922 0
M  V30 2297 C 229.315 -3.58337 4.58225 0
M  V30 2298 N 228.291 -3.79851 3.88863 0
M  V30 2299 H 232.093 -1.70928 2.39083 0
M  V30 2300 H 229.607 -0.860823 1.37708 0
M  V30 2301 H 231.604 -3.94389 1.35141 0
M  V30 2302 H 230.264 -3.21913 0.424531 0
M  V30 2303 H 231.275 -3.13704 4.1208 0
M  V30 2304 H 227.952 -3.84034 1.63781 0
M  V30 2305 H 229.342 -3.60129 5.67236 0
M  V30 2306 N 232.062 -1.29571 -0.897171 0
M  V30 2307 C 233.025 -1.14913 -1.98312 0
M  V30 2308 C 234.025 -0.0838629 -1.60581 0
M  V30 2309 O 235.215 -0.331006 -1.71026 0
M  V30 2310 C 232.347 -0.757835 -3.3237 0
M  V30 2311 H 233.54 -2.11377 -2.12743 0
M  V30 2312 H 231.093 -1.12793 -1.08201 0
M  V30 2313 H 231.828 0.206837 -3.2364 0
M  V30 2314 H 231.613 -1.52755 -3.61121 0
M  V30 2315 H 233.103 -0.678408 -4.12053 0
M  V30 2316 N 233.54 1.10788 -1.12088 0
M  V30 2317 C 234.788 1.8231 -0.872205 0
M  V30 2318 C 235.109 1.85419 0.603709 0
M  V30 2319 O 234.379 1.32963 1.43867 0
M  V30 2320 H 232.959 0.675137 -0.319686 0
M  V30 2321 H 235.621 1.34068 -1.41463 0
M  V30 2322 H 234.717 2.85955 -1.25045 0
M  V30 2323 N 235.018 0.912232 1.28515 0
M  V30 2324 C 235.966 0.389597 2.29314 0
M  V30 2325 C 236.96 -0.517915 1.61289 0
M  V30 2326 O 238.166 -0.399328 1.75515 0
M  V30 2327 H 234.541 0.107386 0.744293 0
M  V30 2328 H 236.512 1.25286 2.70825 0
M  V30 2329 C 235.261 -0.356496 3.45868 0
M  V30 2330 H 234.584 0.332608 3.98414 0
M  V30 2331 H 236.024 -0.686851 4.184 0
M  V30 2332 C 234.483 -1.56383 2.98406 0
M  V30 2333 O 235.013 -2.66294 3.00749 0
M  V30 2334 N 233.219 -1.41029 2.54085 0
M  V30 2335 H 232.766 -0.516089 2.52377 0
M  V30 2336 H 232.724 -2.21939 2.22689 0
M  V30 2337 N 236.496 -1.42363 0.676048 0
M  V30 2338 C 237.443 -2.308 -0.00150904 0
M  V30 2339 C 238.413 -1.46032 -0.791444 0
M  V30 2340 O 239.598 -1.74861 -0.76344 0
M  V30 2341 C 236.738 -3.31883 -0.945919 0
M  V30 2342 C 235.851 -4.31741 -0.149675 0
M  V30 2343 C 234.986 -5.19898 -1.08995 0
M  V30 2344 C 234.025 -6.11434 -0.285465 0
M  V30 2345 N 233.162 -6.92138 -1.17851 0
M  V30 2346 H 238.002 -2.88187 0.758455 0
M  V30 2347 H 235.539 -1.41952 0.38576 0
M  V30 2348 H 237.497 -3.89019 -1.50731 0
M  V30 2349 H 236.127 -2.76093 -1.6725 0
M  V30 2350 H 235.179 -3.76713 0.528359 0
M  V30 2351 H 236.491 -4.96534 0.474866 0
M  V30 2352 H 235.645 -5.81772 -1.72123 0
M  V30 2353 H 234.384 -4.55284 -1.74837 0
M  V30 2354 H 233.389 -5.48627 0.359018 0
M  V30 2355 H 234.614 -6.78097 0.368883 0
M  V30 2356 H 232.56 -6.30152 -1.82332 0
M  V30 2357 H 232.477 -7.53542 -0.609082 0
M  V30 2358 H 233.745 -7.58499 -1.79722 0
M  V30 2359 N 237.974 -0.419461 -1.51915 0
M  V30 2360 C 238.904 0.391813 -2.30189 0
M  V30 2361 C 239.885 1.03699 -1.34836 0
M  V30 2362 O 241.07 1.04403 -1.63748 0
M  V30 2363 C 238.2 1.50312 -3.13087 0
M  V30 2364 C 237.154 0.9824 -4.16573 0
M  V30 2365 C 236.48 2.18809 -4.8788 0
M  V30 2366 C 237.78 0.0292356 -5.22292 0
M  V30 2367 H 239.474 -0.26135 -2.98257 0
M  V30 2368 H 237.02 -0.127134 -1.43438 0
M  V30 2369 H 238.973 2.07773 -3.66617 0
M  V30 2370 H 237.697 2.18431 -2.42807 0
M  V30 2371 H 236.356 0.430119 -3.64068 0
M  V30 2372 H 236.004 2.85507 -4.14119 0
M  V30 2373 H 235.704 1.84615 -5.57845 0
M  V30 2374 H 237.228 2.76858 -5.44226 0
M  V30 2375 H 238.642 0.512976 -5.71 0
M  V30 2376 H 237.039 -0.2244 -5.9968 0
M  V30 2377 H 238.109 -0.912931 -4.76228 0
M  V30 2378 N 239.452 1.56882 -0.150215 0
M  V30 2379 C 240.415 2.1573 0.774157 0
M  V30 2380 C 241.415 1.0999 1.17298 0
M  V30 2381 O 242.605 1.35613 1.09338 0
M  V30 2382 C 239.737 2.72302 2.05096 0
M  V30 2383 H 240.93 2.98752 0.262201 0
M  V30 2384 H 238.483 1.55985 0.099248 0
M  V30 2385 H 239.218 1.92956 2.6065 0
M  V30 2386 H 239.003 3.49665 1.77416 0
M  V30 2387 H 240.493 3.17632 2.71109 0
M  V30 2388 N 240.93 -0.123565 1.57115 0
M  V30 2389 C 241.863 -1.18202 1.95201 0
M  V30 2390 C 242.841 -1.40349 0.821031 0
M  V30 2391 O 244.025 -1.54578 1.07879 0
M  V30 2392 C 241.152 -2.53671 2.24429 0
M  V30 2393 C 240.198 -2.4798 3.46999 0
M  V30 2394 S 241.031 -1.92389 4.99747 0
M  V30 2395 C 242.187 -3.2954 5.32123 0
M  V30 2396 H 242.42 -0.857212 2.84674 0
M  V30 2397 H 239.953 -0.33014 1.50829 0
M  V30 2398 H 241.911 -3.3162 2.41947 0
M  V30 2399 H 240.572 -2.83332 1.35579 0
M  V30 2400 H 239.765 -3.47758 3.64801 0
M  V30 2401 H 239.367 -1.7815 3.28844 0
M  V30 2402 H 241.659 -4.25736 5.27025 0
M  V30 2403 H 242.602 -3.16569 6.33395 0
M  V30 2404 H 243.01 -3.27758 4.59603 0
M  V30 2405 N 242.408 -1.52605 -0.393616 0
M  V30 2406 C 243.34 -1.73303 -1.49995 0
M  V30 2407 C 244.353 -0.613473 -1.50799 0
M  V30 2408 O 245.542 -0.889049 -1.54784 0
M  V30 2409 C 242.642 -1.77245 -2.88855 0
M  V30 2410 C 241.815 -3.06483 -3.12069 0
M  V30 2411 C 240.874 -3.02033 -4.30886 0
M  V30 2412 O 239.9 -3.75907 -4.27414 0
M  V30 2413 N 241.102 -2.20897 -5.36828 0
M  V30 2414 H 243.867 -2.68756 -1.32629 0
M  V30 2415 H 241.428 -1.51036 -0.583083 0
M  V30 2416 H 243.42 -1.7178 -3.66434 0
M  V30 2417 H 241.99 -0.891993 -2.99603 0
M  V30 2418 H 241.21 -3.25474 -2.22396 0
M  V30 2419 H 242.498 -3.91947 -3.2443 0
M  V30 2420 H 241.896 -1.60336 -5.42502 0
M  V30 2421 H 240.453 -2.21275 -6.13091 0
M  V30 2422 N 243.887 0.651787 -1.4349 0
M  V30 2423 C 244.797 1.79368 -1.5121 0
M  V30 2424 C 245.813 1.69361 -0.399093 0
M  V30 2425 O 246.989 1.90505 -0.653431 0
M  V30 2426 C 244.054 3.15653 -1.43401 0
M  V30 2427 C 243.115 3.37446 -2.65384 0
M  V30 2428 C 242.348 4.67229 -2.57939 0
M  V30 2429 O 242.571 5.46676 -1.62792 0
M  V30 2430 O 241.505 4.90773 -3.48462 0
M  V30 2431 H 245.331 1.7581 -2.47638 0
M  V30 2432 H 242.916 0.810447 -1.25507 0
M  V30 2433 H 244.798 3.96935 -1.41494 0
M  V30 2434 H 243.473 3.19798 -0.501085 0
M  V30 2435 H 242.38 2.55923 -2.72863 0
M  V30 2436 H 243.713 3.38148 -3.57654 0
M  V30 2437 N 245.365 1.30045 0.890287 0
M  V30 2438 C 246.612 1.18561 1.64163 0
M  V30 2439 C 246.94 -0.260852 1.92743 0
M  V30 2440 O 246.195 -1.20376 1.54299 0
M  V30 2441 C 246.494 1.95409 2.99249 0
M  V30 2442 C 246.16 3.45066 2.90242 0
M  V30 2443 C 244.822 3.85878 2.87492 0
M  V30 2444 C 247.174 4.4039 2.78758 0
M  V30 2445 C 244.502 5.20314 2.7109 0
M  V30 2446 C 246.854 5.74928 2.63894 0
M  V30 2447 C 245.518 6.14986 2.59516 0
M  V30 2448 H 244.788 0.433846 0.600715 0
M  V30 2449 H 247.435 1.61088 1.03552 0
M  V30 2450 H 245.74 1.45501 3.63781 0
M  V30 2451 H 247.437 1.8392 3.56334 0
M  V30 2452 H 244.027 3.12631 2.93189 0
M  V30 2453 H 248.211 4.09806 2.79952 0
M  V30 2454 H 243.467 5.50449 2.66112 0
M  V30 2455 H 247.641 6.48434 2.53981 0
M  V30 2456 H 245.268 7.19104 2.46565 0
M  V30 2457 N 246.843 -1.10192 1.12674 0
M  V30 2458 C 247.776 -2.15847 0.740625 0
M  V30 2459 C 248.754 -1.60352 -0.269421 0
M  V30 2460 O 249.938 -1.87796 -0.16278 0
M  V30 2461 C 247.065 -3.38562 0.096641 0
M  V30 2462 C 246.111 -4.12758 1.07391 0
M  V30 2463 S 246.944 -4.67997 2.60267 0
M  V30 2464 C 248.1 -5.94021 1.97206 0
M  V30 2465 H 248.333 -2.48266 1.63558 0
M  V30 2466 H 245.866 -1.22019 0.946087 0
M  V30 2467 H 247.824 -4.09621 -0.268535 0
M  V30 2468 H 246.485 -3.04377 -0.775462 0
M  V30 2469 H 245.678 -5.00755 0.570997 0
M  V30 2470 H 245.28 -3.47523 1.38216 0
M  V30 2471 H 247.572 -6.64589 1.31634 0
M  V30 2472 H 248.515 -6.48979 2.83253 0
M  V30 2473 H 248.923 -5.46169 1.42686 0
M  V30 2474 N 248.321 -0.919034 -1.28029 0
M  V30 2475 C 249.57 -0.550802 -1.94034 0
M  V30 2476 C 249.883 0.910877 -1.73096 0
M  V30 2477 O 251.089 1.3875 -2.33368 0
M  V30 2478 C 249.545 -0.934249 -3.47563 0
M  V30 2479 C 249.153 -2.41602 -3.7727 0
M  V30 2480 C 250.897 -0.636854 -4.19696 0
M  V30 2481 C 248.804 -2.73932 -5.24133 0
M  V30 2482 H 247.734 -0.202273 -0.726362 0
M  V30 2483 H 250.385 -1.11867 -1.45458 0
M  V30 2484 H 248.767 -0.295115 -3.94899 0
M  V30 2485 H 249.941 -3.10233 -3.40723 0
M  V30 2486 H 248.256 -2.68441 -3.18321 0
M  V30 2487 H 250.853 -0.855005 -5.2782 0
M  V30 2488 H 251.196 0.425575 -4.14119 0
M  V30 2489 H 251.729 -1.23469 -3.78154 0
M  V30 2490 H 248.468 -3.79049 -5.34792 0
M  V30 2491 H 247.988 -2.09942 -5.61858 0
M  V30 2492 H 249.667 -2.61215 -5.91925 0
M  V30 2493 N 249.799 1.42003 -0.683588 0
M  V30 2494 C 250.732 2.28166 0.039592 0
M  V30 2495 C 251.71 1.41562 0.799942 0
M  V30 2496 O 252.894 1.70997 0.793248 0
M  V30 2497 C 250.021 3.21575 1.06335 0
M  V30 2498 C 249.067 4.24643 0.397562 0
M  V30 2499 S 249.9 5.2869 -0.851296 0
M  V30 2500 C 251.056 6.25666 0.171166 0
M  V30 2501 H 251.289 2.89153 -0.691229 0
M  V30 2502 H 248.822 1.46962 -0.473435 0
M  V30 2503 H 250.78 3.75928 1.6489 0
M  V30 2504 H 249.441 2.59707 1.76667 0
M  V30 2505 H 248.634 4.90223 1.17035 0
M  V30 2506 H 248.236 3.73824 -0.114611 0
M  V30 2507 H 250.528 6.69653 1.02819 0
M  V30 2508 H 251.471 7.06666 -0.450397 0
M  V30 2509 H 251.879 5.62095 0.520578 0
M  V30 2510 N 251.277 0.427512 1.51691 0
M  V30 2511 C 252.688 -0.0378867 1.86662 0
M  V30 2512 C 253.039 -1.42819 1.34525 0
M  V30 2513 O 252.164 -2.05037 0.692014 0
M  V30 2514 C 252.759 -0.0755266 3.38716 0
M  V30 2515 C 251.318 -0.485309 3.73258 0
M  V30 2516 C 250.465 0.328399 2.75349 0
M  V30 2517 H 253.416 0.64379 1.45055 0
M  V30 2518 H 253.437 -0.887056 3.70016 0
M  V30 2519 H 252.949 0.936487 3.76632 0
M  V30 2520 H 251.05 -1.50329 3.40928 0
M  V30 2521 H 251.163 -0.21693 4.78609 0
M  V30 2522 H 249.527 -0.211905 2.53817 0
M  V30 2523 H 250.31 1.3391 3.16106 0
M  V30 2524 N 252.755 -1.56801 0.158532 0
M  V30 2525 C 253.983 -2.00859 -0.496303 0
M  V30 2526 C 254.398 -1.03871 -1.57659 0
M  V30 2527 O 253.755 -0.0375165 -1.82461 0
M  V30 2528 C 253.806 -3.4479 -1.08638 0
M  V30 2529 O 253.527 -4.38072 -0.0492322 0
M  V30 2530 C 255.028 -4.04185 -1.8207 0
M  V30 2531 H 252.248 -0.65864 -0.128199 0
M  V30 2532 H 254.792 -2.02885 0.256506 0
M  V30 2533 H 252.947 -3.43579 -1.78975 0
M  V30 2534 H 253.361 -5.2227 -0.483102 0
M  V30 2535 H 254.835 -5.06857 -2.18633 0
M  V30 2536 H 255.312 -3.45549 -2.71095 0
M  V30 2537 H 255.918 -4.0906 -1.16405 0
M  V30 2538 N 254.233 0.115231 -1.57178 0
M  V30 2539 C 255.481 0.820727 -1.84685 0
M  V30 2540 C 255.802 1.80237 -0.744279 0
M  V30 2541 O 255.072 1.94529 0.231375 0
M  V30 2542 H 253.652 0.306084 -0.681411 0
M  V30 2543 H 256.314 0.101656 -1.94635 0
M  V30 2544 H 255.41 1.36366 -2.80733 0
M  V30 2545 N 255.711 1.52812 0.385517 0
M  V30 2546 C 256.674 1.77188 1.45386 0
M  V30 2547 C 257.674 0.641953 1.4743 0
M  V30 2548 O 258.864 0.910033 1.4854 0
M  V30 2549 C 255.996 1.87582 2.8465 0
M  V30 2550 H 257.189 2.72583 1.25054 0
M  V30 2551 H 254.742 1.43586 0.617467 0
M  V30 2552 H 255.477 0.941849 3.10322 0
M  V30 2553 H 255.262 2.69748 2.84567 0
M  V30 2554 H 256.752 2.08102 3.62054 0
M  V30 2555 N 257.189 -0.644168 1.43834 0
M  V30 2556 C 258.414 -1.43642 1.49605 0
M  V30 2557 C 258.839 -1.8773 0.117913 0
M  V30 2558 O 258.197 -1.57938 -0.890239 0
M  V30 2559 C 258.245 -2.6416 2.45463 0
M  V30 2560 O 257.349 -3.63538 1.94714 0
M  V30 2561 H 256.69 -0.430329 0.50568 0
M  V30 2562 H 259.22 -0.787448 1.8884 0
M  V30 2563 H 259.23 -3.11864 2.63068 0
M  V30 2564 H 257.905 -2.31414 3.45572 0
M  V30 2565 H 256.482 -3.2273 1.86814 0
M  V30 2566 N 258.668 -1.30515 -0.883378 0
M  V30 2567 C 259.893 -1.22487 -1.67367 0
M  V30 2568 C 260.318 0.208767 -1.86938 0
M  V30 2569 O 259.676 1.15015 -1.40148 0
M  V30 2570 C 259.724 -1.96041 -3.02655 0
M  V30 2571 O 258.828 -1.28859 -3.91751 0
M  V30 2572 H 258.169 -0.423573 -0.511353 0
M  V30 2573 H 260.699 -1.72362 -1.10239 0
M  V30 2574 H 260.709 -2.05124 -3.52687 0
M  V30 2575 H 259.384 -3.00307 -2.8773 0
M  V30 2576 H 257.961 -1.28141 -3.50192 0
M  V30 2577 N 260.146 1.09593 -1.13257 0
M  V30 2578 C 261.393 1.81734 -0.893257 0
M  V30 2579 C 261.721 1.8563 0.580656 0
M  V30 2580 O 260.976 1.31906 1.44566 0
M  V30 2581 C 261.275 3.27802 -1.42411 0
M  V30 2582 C 260.941 3.44041 -2.91456 0
M  V30 2583 C 259.603 3.48181 -3.3215 0
M  V30 2584 C 261.955 3.48719 -3.87356 0
M  V30 2585 C 259.283 3.54575 -4.67433 0
M  V30 2586 C 261.635 3.56648 -5.2248 0
M  V30 2587 C 260.299 3.59055 -5.62704 0
M  V30 2588 H 259.569 0.665011 -0.326866 0
M  V30 2589 H 262.216 1.2912 -1.41422 0
M  V30 2590 H 260.521 3.83042 -0.823795 0
M  V30 2591 H 262.218 3.82149 -1.21503 0
M  V30 2592 H 258.808 3.41502 -2.58987 0
M  V30 2593 H 262.992 3.44763 -3.57004 0
M  V30 2594 H 258.248 3.54725 -4.97976 0
M  V30 2595 H 262.422 3.59212 -5.96607 0
M  V30 2596 H 260.049 3.63763 -6.67518 0
M  V30 2597 N 261.624 0.925811 1.2754 0
M  V30 2598 C 262.852 0.581509 1.9856 0
M  V30 2599 C 263.267 -0.840041 1.69082 0
M  V30 2600 O 262.624 -1.55805 0.950312 0
M  V30 2601 C 262.675 0.795589 3.52637 0
M  V30 2602 O 262.396 2.16121 3.81082 0
M  V30 2603 C 263.897 0.459744 4.4091 0
M  V30 2604 H 261.117 0.220538 0.633722 0
M  V30 2605 H 263.661 1.24232 1.6244 0
M  V30 2606 H 261.816 0.18161 3.86974 0
M  V30 2607 H 262.23 2.2098 4.75676 0
M  V30 2608 H 263.704 0.660244 5.48037 0
M  V30 2609 H 264.181 -0.604625 4.35018 0
M  V30 2610 H 264.787 1.05178 4.12089 0
M  V30 2611 N 263.102 -1.41638 0.69111 0
M  V30 2612 C 264.012 -2.34588 0.0233487 0
M  V30 2613 C 265.028 -1.55987 -0.770984 0
M  V30 2614 O 266.204 -1.88486 -0.709569 0
M  V30 2615 C 263.269 -3.34684 -0.904851 0
M  V30 2616 C 262.33 -4.29176 -0.103225 0
M  V30 2617 C 261.563 -5.2449 -0.987216 0
M  V30 2618 O 261.786 -5.2514 -2.22674 0
M  V30 2619 O 260.72 -6.00295 -0.439281 0
M  V30 2620 H 264.546 -2.93261 0.789416 0
M  V30 2621 H 262.131 -1.42417 0.45142 0
M  V30 2622 H 264.013 -3.96133 -1.43724 0
M  V30 2623 H 262.688 -2.78461 -1.65049 0
M  V30 2624 H 261.595 -3.71089 0.473655 0
M  V30 2625 H 262.928 -4.88484 0.60365 0
M  V30 2626 N 264.58 -0.43555 -1.51462 0
M  V30 2627 C 265.543 0.365137 -2.26273 0
M  V30 2628 C 266.543 0.951227 -1.29647 0
M  V30 2629 O 267.733 0.825958 -1.53374 0
M  V30 2630 C 264.865 1.51645 -3.05314 0
M  V30 2631 H 266.058 -0.290474 -2.9849 0
M  V30 2632 H 263.611 -0.188676 -1.55157 0
M  V30 2633 H 264.346 2.20816 -2.3751 0
M  V30 2634 H 264.131 1.10238 -3.76284 0
M  V30 2635 H 265.621 2.08218 -3.61987 0
M  V30 2636 N 266.058 1.56714 -0.166846 0
M  V30 2637 C 266.991 2.13577 0.80375 0
M  V30 2638 C 267.969 1.06464 1.22899 0
M  V30 2639 O 269.153 1.34413 1.32157 0
M  V30 2640 C 266.28 2.67168 2.0818 0
M  V30 2641 C 265.326 3.86612 1.80093 0
M  V30 2642 S 266.159 5.26565 0.97416 0
M  V30 2643 C 267.315 5.83558 2.26297 0
M  V30 2644 H 267.548 2.9557 0.320267 0
M  V30 2645 H 265.081 1.54326 0.0477555 0
M  V30 2646 H 267.039 2.98692 2.8159 0
M  V30 2647 H 265.7 1.85269 2.53642 0
M  V30 2648 H 264.893 4.22422 2.7491 0
M  V30 2649 H 264.495 3.55951 1.14781 0
M  V30 2650 H 266.787 5.962 3.21795 0
M  V30 2651 H 267.73 6.80731 1.94962 0
M  V30 2652 H 268.138 5.11944 2.37853 0
M  V30 2653 N 267.536 -0.106894 1.57237 0
M  V30 2654 C 268.483 -1.13049 2.01217 0
M  V30 2655 C 269.453 -1.40471 0.886403 0
M  V30 2656 O 270.638 -1.52133 1.15153 0
M  V30 2657 C 267.778 -2.4487 2.43172 0
M  V30 2658 C 266.891 -2.24281 3.69218 0
M  V30 2659 C 266.026 -3.49417 4.00101 0
M  V30 2660 C 265.065 -3.24038 5.19294 0
M  V30 2661 N 264.202 -4.41409 5.45988 0
M  V30 2662 H 269.042 -0.748456 2.88448 0
M  V30 2663 H 266.579 -0.358054 1.42676 0
M  V30 2664 H 268.537 -3.21786 2.65537 0
M  V30 2665 H 267.167 -2.80944 1.58967 0
M  V30 2666 H 266.219 -1.38224 3.54398 0
M  V30 2667 H 267.531 -2.01512 4.56283 0
M  V30 2668 H 266.685 -4.34746 4.2318 0
M  V30 2669 H 265.424 -3.75229 3.11535 0
M  V30 2670 H 264.429 -2.37102 4.96047 0
M  V30 2671 H 265.654 -2.99584 6.09447 0
M  V30 2672 H 263.6 -4.67319 4.60379 0
M  V30 2673 H 263.517 -4.21788 6.274 0
M  V30 2674 H 264.785 -5.27836 5.73593 0
M  V30 2675 N 269.014 -1.53014 -0.377408 0
M  V30 2676 C 270.263 -1.67845 -1.11853 0
M  V30 2677 C 270.576 -0.430625 -1.90801 0
M  V30 2678 O 271.782 -0.459261 -2.67587 0
M  V30 2679 C 270.238 -2.96668 -2.03756 0
M  V30 2680 C 269.846 -4.28671 -1.30175 0
M  V30 2681 C 271.59 -3.20865 -2.77932 0
M  V30 2682 C 269.497 -5.48591 -2.20911 0
M  V30 2683 H 268.427 -0.625343 -0.421263 0
M  V30 2684 H 271.078 -1.79514 -0.380409 0
M  V30 2685 H 269.46 -2.78773 -2.8125 0
M  V30 2686 H 270.634 -4.57157 -0.578259 0
M  V30 2687 H 268.949 -4.10825 -0.679108 0
M  V30 2688 H 271.546 -4.07642 -3.46024 0
M  V30 2689 H 271.889 -2.36424 -3.4265 0
M  V30 2690 H 272.422 -3.39379 -2.07525 0
M  V30 2691 H 269.161 -6.35474 -1.6079 0
M  V30 2692 H 268.681 -5.244 -2.91144 0
M  V30 2693 H 270.36 -5.8292 -2.80736 0
M  V30 2694 N 270.492 0.636531 -1.44174 0
M  V30 2695 C 271.74 1.39343 -1.46383 0
M  V30 2696 C 272.061 1.94766 -0.0955715 0
M  V30 2697 O 271.331 1.75452 0.871395 0
M  V30 2698 H 269.911 0.517199 -0.538994 0
M  V30 2699 H 272.573 0.74957 -1.7991 0
M  V30 2700 H 271.669 2.22746 -2.18611 0
M  V30 2701 N 271.97 1.30982 0.876444 0
M  V30 2702 C 273.195 1.23373 1.66715 0
M  V30 2703 C 273.62 -0.19885 1.87046 0
M  V30 2704 O 272.978 -1.1427 1.40756 0
M  V30 2705 C 273.026 1.97644 3.01611 0
M  V30 2706 O 272.13 1.30935 3.91062 0
M  V30 2707 H 271.471 0.426279 0.509099 0
M  V30 2708 H 274.001 1.72944 1.09323 0
M  V30 2709 H 274.011 2.06992 3.51594 0
M  V30 2710 H 272.686 3.01829 2.86133 0
M  V30 2711 H 271.263 1.29996 3.49507 0
M  V30 2712 N 273.449 -1.08991 1.13837 0
M  V30 2713 C 274.359 -2.19301 0.833333 0
M  V30 2714 C 275.375 -1.73026 -0.183847 0
M  V30 2715 O 276.551 -2.01395 -0.0138092 0
M  V30 2716 C 273.616 -3.45323 0.308651 0
M  V30 2717 C 272.677 -4.06255 1.38764 0
M  V30 2718 C 271.91 -5.26262 0.887896 0
M  V30 2719 O 272.133 -5.69747 -0.27287 0
M  V30 2720 O 271.067 -5.78435 1.66421 0
M  V30 2721 H 274.893 -2.47854 1.75506 0
M  V30 2722 H 272.478 -1.18012 0.916166 0
M  V30 2723 H 274.36 -4.21394 0.0216739 0
M  V30 2724 H 273.035 -3.18362 -0.585431 0
M  V30 2725 H 271.942 -3.318 1.72799 0
M  V30 2726 H 273.275 -4.37452 2.25602 0
M  V30 2727 N 274.927 -0.932562 -1.27047 0
M  V30 2728 C 276.173 -0.576412 -1.94436 0
M  V30 2729 C 276.506 0.880891 -1.73072 0
M  V30 2730 O 275.781 1.62905 -1.06264 0
M  V30 2731 C 276.064 -0.909031 -3.48437 0
M  V30 2732 C 275.917 -2.42044 -3.79123 0
M  V30 2733 C 277.236 -0.418341 -4.38107 0
M  V30 2734 H 274.355 -0.210888 -0.706184 0
M  V30 2735 H 276.997 -1.16522 -1.50075 0
M  V30 2736 H 275.147 -0.407947 -3.86352 0
M  V30 2737 H 276.819 -2.99359 -3.50973 0
M  V30 2738 H 275.062 -2.86758 -3.25503 0
M  V30 2739 H 275.733 -2.6037 -4.86736 0
M  V30 2740 H 278.209 -0.847856 -4.0737 0
M  V30 2741 H 277.085 -0.679981 -5.44672 0
M  V30 2742 H 277.346 0.681642 -4.36814 0
M  V30 2743 N 276.405 1.4127 -0.698611 0
M  V30 2744 C 277.635 2.05205 -0.239644 0
M  V30 2745 C 278.043 1.52684 1.11733 0
M  V30 2746 O 277.386 0.671222 1.70998 0
M  V30 2747 C 277.448 3.59289 -0.123126 0
M  V30 2748 C 277.112 4.34619 -1.41263 0
M  V30 2749 C 278.109 4.63701 -2.35111 0
M  V30 2750 C 275.794 4.73837 -1.66684 0
M  V30 2751 C 277.788 5.30966 -3.52639 0
M  V30 2752 C 275.475 5.40837 -2.84498 0
M  V30 2753 C 276.473 5.69329 -3.77298 0
M  V30 2754 O 276.161 6.34949 -4.93047 0
M  V30 2755 H 275.893 0.66723 -0.108537 0
M  V30 2756 H 278.447 1.81974 -0.952602 0
M  V30 2757 H 276.677 3.81272 0.645628 0
M  V30 2758 H 278.366 4.04797 0.299056 0
M  V30 2759 H 279.132 4.33882 -2.16729 0
M  V30 2760 H 275.011 4.51039 -0.953135 0
M  V30 2761 H 278.555 5.53121 -4.25091 0
M  V30 2762 H 274.452 5.70075 -3.02795 0
M  V30 2763 H 275.22 6.53445 -4.92902 0
M  V30 2764 N 277.883 0.443576 1.51229 0
M  V30 2765 C 278.833 -0.382787 2.24764 0
M  V30 2766 C 279.817 -0.984836 1.27239 0
M  V30 2767 O 281.009 -0.901943 1.52296 0
M  V30 2768 C 278.138 -1.47989 3.09765 0
M  V30 2769 C 277.224 -0.886931 4.14722 0
M  V30 2770 N 277.615 -0.0237103 5.05794 0
M  V30 2771 C 275.913 -1.15385 4.30816 0
M  V30 2772 C 276.614 0.309971 5.80874 0
M  V30 2773 N 275.59 -0.307989 5.42727 0
M  V30 2774 H 279.392 0.282624 2.92538 0
M  V30 2775 H 276.906 0.256027 1.60369 0
M  V30 2776 H 278.903 -2.08482 3.61027 0
M  V30 2777 H 277.563 -2.14758 2.43535 0
M  V30 2778 H 278.574 0.34318 5.16762 0
M  V30 2779 H 275.251 -1.81857 3.75812 0
M  V30 2780 H 276.641 1.01279 6.64223 0
M  V30 2781 N 279.361 -1.56624 0.175154 0
M  V30 2782 C 280.309 -2.19468 -0.770495 0
M  V30 2783 C 281.303 -1.15985 -1.23466 0
M  V30 2784 O 282.509 -1.34176 -1.19987 0
M  V30 2785 H 278.884 -0.703095 -0.266761 0
M  V30 2786 H 280.855 -2.97613 -0.216542 0
M  V30 2787 C 279.604 -2.85264 -1.98796 0
M  V30 2788 H 278.927 -3.64623 -1.63983 0
M  V30 2789 H 280.367 -3.327 -2.62843 0
M  V30 2790 C 278.826 -1.85239 -2.81404 0
M  V30 2791 O 279.356 -1.34024 -3.78682 0
M  V30 2792 N 277.562 -1.53911 -2.46495 0
M  V30 2793 H 277.109 -1.95751 -1.67449 0
M  V30 2794 H 277.067 -0.872382 -3.02054 0
M  V30 2795 N 280.839 0.0985539 -1.57292 0
M  V30 2796 C 281.769 1.12064 -2.04851 0
M  V30 2797 C 282.75 1.41981 -0.936767 0
M  V30 2798 O 283.935 1.52071 -1.20781 0
M  V30 2799 C 281.065 2.44144 -2.47004 0
M  V30 2800 C 280.019 2.28643 -3.6181 0
M  V30 2801 C 279.345 3.65869 -3.89929 0
M  V30 2802 C 280.645 1.72986 -4.92822 0
M  V30 2803 H 282.339 0.724979 -2.9049 0
M  V30 2804 H 279.885 0.34729 -1.39749 0
M  V30 2805 H 281.838 3.15914 -2.78884 0
M  V30 2806 H 280.562 2.85639 -1.5836 0
M  V30 2807 H 279.221 1.59318 -3.30172 0
M  V30 2808 H 278.869 4.04885 -2.98458 0
M  V30 2809 H 278.569 3.56344 -4.67218 0
M  V30 2810 H 280.093 4.39112 -4.2428 0
M  V30 2811 H 281.507 2.34593 -5.23105 0
M  V30 2812 H 279.904 1.74229 -5.74251 0
M  V30 2813 H 280.974 0.689007 -4.7998 0
M  V30 2814 N 282.317 1.53212 0.369288 0
M  V30 2815 C 283.733 1.42902 0.710712 0
M  V30 2816 C 283.933 0.565135 1.93413 0
M  V30 2817 O 282.989 0.0461484 2.52458 0
M  V30 2818 C 284.302 2.86042 0.927382 0
M  V30 2819 C 285.85 2.9565 1.02762 0
M  V30 2820 C 286.325 4.39843 1.27679 0
M  V30 2821 N 287.816 4.43256 1.34457 0
M  V30 2822 C 288.551 5.51929 1.55439 0
M  V30 2823 N 288.047 6.70655 1.73762 0
M  V30 2824 N 289.84 5.39502 1.57779 0
M  V30 2825 H 281.991 2.07888 -0.435457 0
M  V30 2826 H 284.254 0.938661 -0.132739 0
M  V30 2827 H 283.96 3.51557 0.100287 0
M  V30 2828 H 283.834 3.29472 1.83653 0
M  V30 2829 H 286.221 2.30291 1.84527 0
M  V30 2830 H 286.302 2.5562 0.0959504 0
M  V30 2831 H 285.946 5.05774 0.464175 0
M  V30 2832 H 285.876 4.77443 2.22162 0
M  V30 2833 H 288.367 3.5769 1.21926 0
M  V30 2834 H 288.68 7.49248 1.89335 0
M  V30 2835 H 287.025 6.73648 1.70948 0
M  V30 2836 H 290.216 4.45713 1.43029 0
M  V30 2837 H 290.389 6.2426 1.7379 0
M  V30 2838 N 283.795 -0.628877 1.44509 0
M  V30 2839 C 284.758 -1.72263 1.51188 0
M  V30 2840 C 285.758 -1.55907 0.39367 0
M  V30 2841 O 286.948 -1.61361 0.656377 0
M  V30 2842 C 284.08 -3.11365 1.38798 0
M  V30 2843 H 285.273 -1.67714 2.4862 0
M  V30 2844 H 282.826 -0.842737 1.31634 0
M  V30 2845 H 283.561 -3.21507 0.424693 0
M  V30 2846 H 283.346 -3.24644 2.19884 0
M  V30 2847 H 284.836 -3.91075 1.46458 0
M  V30 2848 N 285.273 -1.31445 -0.869486 0
M  V30 2849 C 286.519 -1.21337 -1.62496 0
M  V30 2850 C 286.852 0.227872 -1.92858 0
M  V30 2851 O 286.127 1.16094 -1.56053 0
M  V30 2852 C 286.41 -2.05814 -2.95487 0
M  V30 2853 C 286.263 -3.5824 -2.72 0
M  V30 2854 C 287.582 -1.9079 -3.96594 0
M  V30 2855 H 284.701 -0.442135 -0.589649 0
M  V30 2856 H 287.343 -1.6124 -1.00507 0
M  V30 2857 H 285.493 -1.71913 -3.48394 0
M  V30 2858 H 287.165 -4.0228 -2.25762 0
M  V30 2859 H 285.408 -3.81647 -2.06224 0
M  V30 2860 H 286.079 -4.12657 -3.66631 0
M  V30 2861 H 288.555 -2.20459 -3.52898 0
M  V30 2862 H 287.431 -2.52199 -4.87531 0
M  V30 2863 H 287.692 -0.871341 -4.33428 0
M  V30 2864 N 286.751 1.08385 -1.14413 0
M  V30 2865 C 288 1.80153 -0.907076 0
M  V30 2866 C 288.313 1.87176 0.567851 0
M  V30 2867 O 289.519 2.55359 0.922172 0
M  V30 2868 C 287.975 3.23687 -1.57336 0
M  V30 2869 C 287.583 3.24897 -3.08457 0
M  V30 2870 C 289.327 4.00136 -1.41744 0
M  V30 2871 C 287.234 4.6302 -3.67921 0
M  V30 2872 H 286.164 0.675139 -0.335714 0
M  V30 2873 H 288.815 1.21733 -1.37307 0
M  V30 2874 H 287.197 3.82234 -1.03505 0
M  V30 2875 H 288.371 2.76055 -3.68958 0
M  V30 2876 H 286.686 2.61943 -3.2369 0
M  V30 2877 H 289.283 5.02201 -1.83572 0
M  V30 2878 H 289.626 4.14709 -0.363576 0
M  V30 2879 H 290.159 3.48058 -1.92614 0
M  V30 2880 H 286.898 4.5365 -4.73161 0
M  V30 2881 H 286.418 5.12143 -3.12201 0
M  V30 2882 H 288.097 5.31994 -3.68227 0
M  V30 2883 N 288.23 0.939286 1.26551 0
M  V30 2884 C 289.177 0.446088 2.26448 0
M  V30 2885 C 290.147 -0.493234 1.58608 0
M  V30 2886 O 291.332 -0.409857 1.86346 0
M  V30 2887 C 288.472 -0.284375 3.43926 0
M  V30 2888 C 287.585 0.690399 4.26448 0
M  V30 2889 C 286.72 -0.0610712 5.31165 0
M  V30 2890 C 285.759 0.905649 6.05363 0
M  V30 2891 N 284.896 0.186055 7.01853 0
M  V30 2892 H 289.736 1.30291 2.68008 0
M  V30 2893 H 287.273 0.65371 1.31776 0
M  V30 2894 H 289.231 -0.724313 4.10864 0
M  V30 2895 H 287.861 -1.10535 3.03285 0
M  V30 2896 H 286.913 1.24885 3.59316 0
M  V30 2897 H 288.225 1.42873 4.779 0
M  V30 2898 H 287.379 -0.56038 6.04106 0
M  V30 2899 H 286.118 -0.832297 4.80546 0
M  V30 2900 H 285.123 1.4161 5.3125 0
M  V30 2901 H 286.348 1.67685 6.58072 0
M  V30 2902 H 284.294 -0.566714 6.53548 0
M  V30 2903 H 284.211 0.863752 7.51049 0
M  V30 2904 H 285.479 -0.292221 7.78952 0
M  V30 2905 N 289.708 -1.40897 0.706093 0
M  V30 2906 C 290.933 -2.05895 0.249435 0
M  V30 2907 C 291.358 -1.52823 -1.09666 0
M  V30 2908 O 290.716 -0.659589 -1.68876 0
M  V30 2909 C 290.764 -3.59872 0.22904 0
M  V30 2910 O 289.868 -4.04708 -0.792784 0
M  V30 2911 H 289.209 -0.653206 0.119241 0
M  V30 2912 H 291.739 -1.80471 0.96391 0
M  V30 2913 H 291.749 -4.07951 0.0634791 0
M  V30 2914 H 290.424 -3.97866 1.21141 0
M  V30 2915 H 289.001 -3.68111 -0.59572 0
M  V30 2916 N 291.186 -0.45159 -1.50991 0
M  V30 2917 C 292.133 0.352625 -2.2809 0
M  V30 2918 C 293.103 1.0044 -1.32291 0
M  V30 2919 O 294.288 1.02058 -1.6121 0
M  V30 2920 C 291.428 1.43983 -3.13629 0
M  V30 2921 C 290.541 0.804772 -4.24438 0
M  V30 2922 C 289.676 1.86822 -4.97263 0
M  V30 2923 C 288.715 1.21236 -5.99973 0
M  V30 2924 N 287.852 2.2178 -6.66152 0
M  V30 2925 H 292.692 -0.311186 -2.96371 0
M  V30 2926 H 290.229 -0.165308 -1.46168 0
M  V30 2927 H 292.187 2.08161 -3.61559 0
M  V30 2928 H 290.817 2.07307 -2.47434 0
M  V30 2929 H 289.869 0.0509129 -3.80366 0
M  V30 2930 H 291.181 0.286076 -4.97979 0
M  V30 2931 H 290.335 2.58628 -5.48813 0
M  V30 2932 H 289.074 2.42068 -4.23385 0
M  V30 2933 H 288.079 0.479828 -5.47702 0
M  V30 2934 H 289.304 0.667051 -6.75816 0
M  V30 2935 H 287.25 2.76079 -5.95077 0
M  V30 2936 H 287.167 1.74841 -7.35504 0
M  V30 2937 H 288.435 2.93026 -7.22327 0
M  V30 2938 N 292.664 1.56529 -0.183458 0
M  V30 2939 C 293.894 2.01331 0.463612 0
M  V30 2940 C 294.302 1.06278 1.5653 0
M  V30 2941 O 293.645 0.0577976 1.83609 0
M  V30 2942 C 293.707 3.42547 1.09096 0
M  V30 2943 C 293.371 4.56817 0.129442 0
M  V30 2944 C 294.368 5.15734 -0.656807 0
M  V30 2945 C 292.053 5.02295 0.02174 0
M  V30 2946 C 294.047 6.1857 -1.53784 0
M  V30 2947 C 291.734 6.04978 -0.862864 0
M  V30 2948 C 292.732 6.62988 -1.64123 0
M  V30 2949 O 292.42 7.63677 -2.51103 0
M  V30 2950 H 292.152 0.664917 0.121907 0
M  V30 2951 H 294.706 2.034 -0.285954 0
M  V30 2952 H 292.936 3.37428 1.88889 0
M  V30 2953 H 294.625 3.71228 1.64148 0
M  V30 2954 H 295.391 4.81473 -0.583839 0
M  V30 2955 H 291.27 4.56847 0.617392 0
M  V30 2956 H 294.814 6.63777 -2.14583 0
M  V30 2957 H 290.711 6.38663 -0.93699 0
M  V30 2958 H 291.479 7.81049 -2.44753 0
M  V30 2959 N 294.142 -0.090211 1.57342 0
M  V30 2960 C 295.39 -0.791241 1.85967 0
M  V30 2961 C 295.711 -1.7903 0.772859 0
M  V30 2962 O 294.981 -1.94872 -0.200398 0
M  V30 2963 H 293.561 -0.295205 0.686195 0
M  V30 2964 H 296.223 -0.0706782 1.94772 0
M  V30 2965 H 295.319 -1.31882 2.82867 0
M  V30 2966 N 295.62 -1.53406 -0.361157 0
M  V30 2967 C 296.55 -1.83136 -1.44857 0
M  V30 2968 C 297.531 -0.685174 -1.5569 0
M  V30 2969 O 298.716 -0.93544 -1.70186 0
M  V30 2970 C 295.846 -2.02522 -2.82138 0
M  V30 2971 C 294.8 -3.18302 -2.86126 0
M  V30 2972 C 294.126 -3.22989 -4.26125 0
M  V30 2973 C 295.426 -4.56796 -2.53248 0
M  V30 2974 H 297.12 -2.74201 -1.20226 0
M  V30 2975 H 294.666 -1.31938 -0.576922 0
M  V30 2976 H 296.619 -2.21904 -3.58241 0
M  V30 2977 H 295.343 -1.08172 -3.08166 0
M  V30 2978 H 294.002 -2.98747 -2.12475 0
M  V30 2979 H 293.65 -2.26267 -4.49235 0
M  V30 2980 H 293.35 -4.00781 -4.29708 0
M  V30 2981 H 294.874 -3.44559 -5.04094 0
M  V30 2982 H 296.288 -4.7631 -3.19064 0
M  V30 2983 H 294.685 -5.36862 -2.68141 0
M  V30 2984 H 295.755 -4.61606 -1.48484 0
M  V30 2985 N 297.098 0.621204 -1.44841 0
M  V30 2986 C 298.375 1.38 -1.38619 0
M  V30 2987 C 298.755 2.11041 -0.0498935 0
M  V30 2988 O 298.103 2.06992 0.967816 0
M  V30 2989 C 298.313 2.33817 -2.59096 0
M  V30 2990 C 299.661 2.96844 -3.03593 0
M  V30 2991 O 300.685 2.44141 -2.59371 0
M  V30 2992 O 299.544 3.92476 -3.80296 0
M  V30 2993 H 296.638 0.61811 -0.549426 0
M  V30 2994 H 299.184 0.645429 -1.56947 0
M  V30 2995 H 297.956 1.79012 -3.47952 0
M  V30 2996 H 297.579 3.14676 -2.43032 0
M  V30 2997 N 298.576 1.31904 0.862503 0
M  V30 2998 C 299.539 1.20131 1.95195 0
M  V30 2999 C 300.539 0.126409 1.60302 0
M  V30 3000 O 301.729 0.376234 1.70089 0
M  V30 3001 C 298.861 0.845691 3.30244 0
M  V30 3002 H 300.054 2.16943 2.07064 0
M  V30 3003 H 297.607 1.15622 1.05172 0
M  V30 3004 H 298.342 -0.120957 3.24074 0
M  V30 3005 H 298.127 1.62276 3.56944 0
M  V30 3006 H 299.617 0.787418 4.10109 0
M  V30 3007 N 300.054 -1.07777 1.14986 0
M  V30 3008 C 301.294 -1.81888 0.932527 0
M  V30 3009 C 301.658 -1.84509 -0.531064 0
M  V30 3010 O 302.859 -2.54448 -0.866577 0
M  V30 3011 C 301.13 -3.23244 1.52473 0
M  V30 3012 S 302.689 -4.14154 1.44989 0
M  V30 3013 H 299.507 -0.626752 0.335712 0
M  V30 3014 H 302.109 -1.29503 1.46455 0
M  V30 3015 H 300.813 -3.18922 2.58296 0
M  V30 3016 H 300.344 -3.80704 0.991381 0
M  V30 3017 H 302.359 -4.94247 0.439799 0
M  V30 3018 N 301.532 -0.945985 -1.26051 0
M  V30 3019 C 302.48 -0.450259 -2.282 0
M  V30 3020 C 303.474 0.47497 -1.62605 0
M  V30 3021 O 304.68 0.352653 -1.76512 0
M  V30 3022 H 301.055 -0.127081 -0.741184 0
M  V30 3023 H 303.026 -1.32422 -2.67408 0
M  V30 3024 C 301.775 0.26467 -3.46691 0
M  V30 3025 H 301.098 -0.438123 -3.97392 0
M  V30 3026 H 302.538 0.575678 -4.20074 0
M  V30 3027 C 300.997 1.48416 -3.02447 0
M  V30 3028 O 301.527 2.58227 -3.07704 0
M  V30 3029 N 299.733 1.34243 -2.57735 0
M  V30 3030 H 299.28 0.448994 -2.53657 0
M  V30 3031 H 299.238 2.15957 -2.28495 0
M  V30 3032 N 303.011 1.40521 -0.713556 0
M  V30 3033 C 304.257 2.01221 -0.252564 0
M  V30 3034 C 304.59 1.56444 1.1506 0
M  V30 3035 O 303.865 0.783597 1.78017 0
M  V30 3036 C 304.148 3.58582 -0.330332 0
M  V30 3037 C 304.001 4.13437 -1.77173 0
M  V30 3038 C 305.32 4.39079 0.299641 0
M  V30 3039 H 302.439 0.731077 -0.0932471 0
M  V30 3040 H 305.081 1.67026 -0.905673 0
M  V30 3041 H 303.231 3.87844 0.225737 0
M  V30 3042 H 304.903 3.9498 -2.38303 0
M  V30 3043 H 303.146 3.67801 -2.3001 0
M  V30 3044 H 303.817 5.22597 -1.77755 0
M  V30 3045 H 306.293 4.15735 -0.174139 0
M  V30 3046 H 305.169 5.4848 0.214771 0
M  V30 3047 H 305.43 4.19915 1.38288 0
M  V30 3048 N 304.489 0.459591 1.5075 0
M  V30 3049 C 305.737 -0.0991532 2.01857 0
M  V30 3050 C 306.058 -1.41247 1.34441 0
M  V30 3051 O 305.328 -1.89775 0.486022 0
M  V30 3052 H 303.908 -0.039633 0.745948 0
M  V30 3053 H 306.57 0.607387 1.85194 0
M  V30 3054 H 305.666 -0.258998 3.11023 0
M  V30 3055 N 305.967 -1.56429 0.191757 0
M  V30 3056 C 307.244 -1.89224 -0.495332 0
M  V30 3057 C 307.624 -1.10478 -1.79883 0
M  V30 3058 O 306.972 -0.204852 -2.2758 0
M  V30 3059 C 307.182 -3.41548 -0.717367 0
M  V30 3060 C 308.53 -4.11711 -1.03823 0
M  V30 3061 O 309.554 -3.4698 -0.805204 0
M  V30 3062 O 308.413 -5.2611 -1.47887 0
M  V30 3063 H 305.507 -0.785788 -0.25781 0
M  V30 3064 H 308.053 -1.68111 0.231721 0
M  V30 3065 H 306.825 -3.90772 0.203287 0
M  V30 3066 H 306.448 -3.68342 -1.497 0
M  V30 3067 N 307.445 0.0818655 -1.57387 0
M  V30 3068 C 308.355 1.11642 -2.06333 0
M  V30 3069 C 309.371 1.43033 -0.99083 0
M  V30 3070 O 310.547 1.53411 -1.30488 0
M  V30 3071 C 307.612 2.41342 -2.48907 0
M  V30 3072 C 306.673 2.17014 -3.7041 0
M  V30 3073 C 305.906 3.4053 -4.10944 0
M  V30 3074 O 306.129 4.4927 -3.51444 0
M  V30 3075 O 305.063 3.29336 -5.03807 0
M  V30 3076 H 308.889 0.730657 -2.9478 0
M  V30 3077 H 306.474 0.295301 -1.46452 0
M  V30 3078 H 308.356 3.17691 -2.76858 0
M  V30 3079 H 307.031 2.79319 -1.63593 0
M  V30 3080 H 305.938 1.38403 -3.47556 0
M  V30 3081 H 307.271 1.83923 -4.56545 0
M  V30 3082 N 308.923 1.53595 0.353017 0
M  V30 3083 C 310.171 1.70049 1.09215 0
M  V30 3084 C 310.492 0.461406 1.89463 0
M  V30 3085 O 309.762 -0.524633 1.88744 0
M  V30 3086 H 308.342 0.626912 0.40619 0
M  V30 3087 H 311.004 1.90822 0.396585 0
M  V30 3088 H 310.1 2.56718 1.77488 0
M  V30 3089 N 310.401 -0.613514 1.45168 0
M  V30 3090 C 311.649 -1.36997 1.48581 0
M  V30 3091 C 311.97 -1.94589 0.126545 0
M  V30 3092 O 311.24 -1.76816 -0.843372 0
M  V30 3093 H 309.82 -0.508558 0.547154 0
M  V30 3094 H 312.482 -0.720853 1.81079 0
M  V30 3095 H 311.578 -2.1924 2.22127 0
M  V30 3096 N 311.879 -1.3236 -0.855495 0
M  V30 3097 C 313.126 -1.22872 -1.60962 0
M  V30 3098 C 313.454 0.209658 -1.93367 0
M  V30 3099 O 312.709 1.16243 -1.57436 0
M  V30 3100 C 313.008 -2.03275 -2.93963 0
M  V30 3101 C 312.674 -3.5264 -2.80991 0
M  V30 3102 C 311.336 -3.93364 -2.7716 0
M  V30 3103 C 313.688 -4.47626 -2.66983 0
M  V30 3104 C 311.016 -5.27319 -2.572 0
M  V30 3105 C 313.368 -5.81723 -2.48558 0
M  V30 3106 C 312.032 -6.2165 -2.4312 0
M  V30 3107 H 311.302 -0.44962 -0.589001 0
M  V30 3108 H 313.949 -1.63777 -0.992442 0
M  V30 3109 H 312.254 -1.55095 -3.59795 0
M  V30 3110 H 313.951 -1.93303 -3.51333 0
M  V30 3111 H 310.541 -3.20295 -2.84797 0
M  V30 3112 H 314.725 -4.17084 -2.68988 0
M  V30 3113 H 309.981 -5.57311 -2.51424 0
M  V30 3114 H 314.155 -6.5494 -2.36699 0
M  V30 3115 H 311.782 -7.25388 -2.27412 0
M  V30 3116 N 313.357 1.07166 -1.15556 0
M  V30 3117 C 314.32 2.12589 -0.856644 0
M  V30 3118 C 315.32 1.6015 0.14444 0
M  V30 3119 O 316.51 1.7399 -0.0854163 0
M  V30 3120 C 313.642 3.39753 -0.279405 0
M  V30 3121 H 314.835 2.40539 -1.79112 0
M  V30 3122 H 312.388 1.23086 -0.963298 0
M  V30 3123 H 313.123 3.17447 0.663174 0
M  V30 3124 H 312.908 3.79117 -1.00063 0
M  V30 3125 H 314.398 4.17507 -0.0879113 0
M  V30 3126 N 314.835 0.952656 1.25548 0
M  V30 3127 C 316.246 0.647392 1.75116 0
M  V30 3128 C 316.597 -0.837274 1.77438 0
M  V30 3129 O 315.722 -1.65525 1.39393 0
M  V30 3130 C 316.317 1.16845 3.18014 0
M  V30 3131 C 314.876 0.913382 3.6515 0
M  V30 3132 C 314.023 1.31265 2.44264 0
M  V30 3133 H 316.974 1.12968 1.11462 0
M  V30 3134 H 316.995 0.527606 3.76824 0
M  V30 3135 H 316.507 2.24902 3.16292 0
M  V30 3136 H 314.608 -0.152316 3.72289 0
M  V30 3137 H 314.721 1.54845 4.53387 0
M  V30 3138 H 313.085 0.731028 2.43984 0
M  V30 3139 H 313.868 2.40239 2.45234 0
M  V30 3140 N 316.313 -1.40141 0.720998 0
M  V30 3141 C 317.538 -2.05618 0.271258 0
M  V30 3142 C 317.963 -1.53978 -1.08039 0
M  V30 3143 O 317.321 -0.677463 -1.68167 0
M  V30 3144 C 317.369 -3.59609 0.267197 0
M  V30 3145 O 316.473 -4.05526 -0.749814 0
M  V30 3146 H 315.814 -0.651904 0.126162 0
M  V30 3147 H 318.344 -1.79439 0.982997 0
M  V30 3148 H 318.354 -4.0786 0.106744 0
M  V30 3149 H 317.029 -3.96559 1.25354 0
M  V30 3150 H 315.606 -3.68722 -0.556644 0
M  V30 3151 N 317.792 -0.46758 -1.50504 0
M  V30 3152 C 319.041 0.0902868 -2.01498 0
M  V30 3153 C 319.354 1.411 -1.35463 0
M  V30 3154 O 320.56 2.0536 -1.77594 0
M  V30 3155 C 319.016 0.21142 -3.59278 0
M  V30 3156 C 318.624 -1.10065 -4.34269 0
M  V30 3157 C 320.368 0.721433 -4.18325 0
M  V30 3158 C 318.275 -0.943505 -5.83825 0
M  V30 3159 H 317.205 0.037517 -0.753066 0
M  V30 3160 H 319.856 -0.601943 -1.73346 0
M  V30 3161 H 318.238 0.967352 -3.84003 0
M  V30 3162 H 319.412 -1.86726 -4.21272 0
M  V30 3163 H 317.727 -1.5415 -3.86816 0
M  V30 3164 H 320.324 0.85598 -5.27804 0
M  V30 3165 H 320.667 1.71186 -3.79475 0
M  V30 3166 H 321.2 0.0229843 -3.97793 0
M  V30 3167 H 317.939 -1.90719 -6.27141 0
M  V30 3168 H 317.459 -0.217213 -5.99407 0
M  V30 3169 H 319.138 -0.608715 -6.4413 0
M  V30 3170 N 319.27 1.56325 -0.20005 0
M  V30 3171 C 320.202 2.16555 0.750771 0
M  V30 3172 C 321.215 1.12871 1.1732 0
M  V30 3173 O 322.404 1.39943 1.10807 0
M  V30 3174 C 319.504 2.71684 2.02586 0
M  V30 3175 C 318.677 4.00321 1.76244 0
M  V30 3176 C 317.736 4.40227 2.88248 0
M  V30 3177 O 316.762 5.07552 2.57642 0
M  V30 3178 N 317.964 4.04138 4.16717 0
M  V30 3179 H 320.729 2.98772 0.235685 0
M  V30 3180 H 318.29 1.6189 -0.0182594 0
M  V30 3181 H 320.282 2.95363 2.76664 0
M  V30 3182 H 318.852 1.93893 2.45202 0
M  V30 3183 H 318.072 3.84723 0.85919 0
M  V30 3184 H 319.36 4.84279 1.56048 0
M  V30 3185 H 318.758 3.49993 4.44434 0
M  V30 3186 H 317.315 4.32756 4.87407 0
M  V30 3187 N 320.748 -0.0735177 1.57428 0
M  V30 3188 C 322.025 -0.805903 1.78226 0
M  V30 3189 C 322.405 -1.95874 0.787189 0
M  V30 3190 O 321.753 -2.2779 -0.180029 0
M  V30 3191 C 321.963 -1.28045 3.24662 0
M  V30 3192 C 323.311 -1.71453 3.88444 0
M  V30 3193 O 324.335 -1.37616 3.28543 0
M  V30 3194 O 323.194 -2.34093 4.93825 0
M  V30 3195 H 320.288 -0.386041 0.73137 0
M  V30 3196 H 322.834 -0.0537269 1.69615 0
M  V30 3197 H 321.606 -0.455476 3.8864 0
M  V30 3198 H 321.229 -2.094 3.37991 0
M  V30 3199 N 322.226 -1.5378 -0.344866 0
M  V30 3200 C 323.174 -1.82373 -1.4437 0
M  V30 3201 C 324.168 -0.694128 -1.54526 0
M  V30 3202 O 325.374 -0.877442 -1.57165 0
M  V30 3203 H 321.749 -0.577765 -0.481344 0
M  V30 3204 H 323.72 -2.74306 -1.17468 0
M  V30 3205 C 322.469 -2.04898 -2.80913 0
M  V30 3206 H 321.792 -2.9127 -2.73865 0
M  V30 3207 H 323.232 -2.28871 -3.56923 0
M  V30 3208 C 321.691 -0.834116 -3.26411 0
M  V30 3209 O 322.221 -0.0328885 -4.01687 0
M  V30 3210 N 320.427 -0.65171 -2.83198 0
M  V30 3211 H 319.974 -1.30489 -2.22104 0
M  V30 3212 H 319.932 0.159686 -3.13994 0
M  V30 3213 N 323.704 0.605807 -1.45491 0
M  V30 3214 C 324.634 1.72709 -1.57143 0
M  V30 3215 C 325.615 1.6476 -0.422884 0
M  V30 3216 O 326.8 1.83132 -0.646247 0
M  V30 3217 C 323.93 3.11316 -1.53948 0
M  V30 3218 C 322.884 3.34077 -2.67537 0
M  V30 3219 C 322.21 4.72975 -2.49397 0
M  V30 3220 C 323.51 3.24158 -4.09535 0
M  V30 3221 H 325.204 1.63214 -2.51001 0
M  V30 3222 H 322.75 0.78379 -1.208 0
M  V30 3223 H 324.703 3.89557 -1.60696 0
M  V30 3224 H 323.427 3.21655 -0.566205 0
M  V30 3225 H 322.086 2.58227 -2.6022 0
M  V30 3226 H 321.734 4.8005 -1.50205 0
M  V30 3227 H 321.434 4.8916 -3.25571 0
M  V30 3228 H 322.958 5.53414 -2.58002 0
M  V30 3229 H 324.372 3.92271 -4.18086 0
M  V30 3230 H 322.769 3.51872 -4.86113 0
M  V30 3231 H 323.839 2.2157 -4.31317 0
M  V30 3232 N 325.182 1.32811 0.848464 0
M  V30 3233 C 326.092 1.24278 1.98978 0
M  V30 3234 C 327.108 0.155176 1.73307 0
M  V30 3235 O 328.284 0.376999 1.9784 0
M  V30 3236 C 325.349 0.972444 3.32783 0
M  V30 3237 C 324.41 2.14911 3.71634 0
M  V30 3238 C 323.643 1.89157 4.99054 0
M  V30 3239 O 323.866 0.837165 5.64223 0
M  V30 3240 O 322.8 2.75433 5.35183 0
M  V30 3241 H 326.626 2.20238 2.09115 0
M  V30 3242 H 324.211 1.12762 0.980052 0
M  V30 3243 H 326.093 0.838432 4.12975 0
M  V30 3244 H 324.768 0.043051 3.23671 0
M  V30 3245 H 323.675 2.33862 2.91992 0
M  V30 3246 H 325.008 3.06151 3.85399 0
M  V30 3247 N 326.66 -1.06551 1.16123 0
M  V30 3248 C 327.908 -1.78947 0.939267 0
M  V30 3249 C 328.229 -1.87532 -0.534476 0
M  V30 3250 O 327.499 -1.38211 -1.38833 0
M  V30 3251 H 326.079 -0.662807 0.344523 0
M  V30 3252 H 328.741 -1.28725 1.46342 0
M  V30 3253 H 327.837 -2.81117 1.35572 0
M  V30 3254 N 328.138 -0.959301 -1.25041 0
M  V30 3255 C 329.068 -0.501388 -2.28053 0
M  V30 3256 C 330.049 0.454673 -1.63911 0
M  V30 3257 O 331.234 0.352618 -1.90972 0
M  V30 3258 C 328.364 0.217224 -3.4662 0
M  V30 3259 C 327.318 -0.654034 -4.22973 0
M  V30 3260 C 326.644 0.195589 -5.34342 0
M  V30 3261 C 327.944 -1.93447 -4.85155 0
M  V30 3262 H 329.638 -1.36238 -2.66608 0
M  V30 3263 H 327.184 -0.656534 -1.28163 0
M  V30 3264 H 329.137 0.548732 -4.17812 0
M  V30 3265 H 327.861 1.1125 -3.07068 0
M  V30 3266 H 326.52 -0.968693 -3.5357 0
M  V30 3267 H 326.168 1.09076 -4.91031 0
M  V30 3268 H 325.868 -0.384091 -5.86343 0
M  V30 3269 H 327.392 0.521958 -6.08365 0
M  V30 3270 H 328.806 -1.66908 -5.48466 0
M  V30 3271 H 327.203 -2.46018 -5.47353 0
M  V30 3272 H 328.273 -2.63466 -4.07079 0
M  V30 3273 N 329.616 1.39756 -0.72842 0
M  V30 3274 C 330.526 2.34444 -0.0855374 0
M  V30 3275 C 331.542 1.57976 0.729356 0
M  V30 3276 O 332.718 1.90301 0.659346 0
M  V30 3277 C 329.783 3.36965 0.815798 0
M  V30 3278 C 328.844 4.29299 -0.0105996 0
M  V30 3279 C 328.077 5.26923 0.84781 0
M  V30 3280 O 328.3 5.30859 2.08673 0
M  V30 3281 O 327.234 6.01249 0.279969 0
M  V30 3282 H 331.06 2.91065 -0.866892 0
M  V30 3283 H 328.645 1.4117 -0.48902 0
M  V30 3284 H 330.527 3.99804 1.33171 0
M  V30 3285 H 329.202 2.82739 1.57608 0
M  V30 3286 H 328.109 3.69703 -0.571877 0
M  V30 3287 H 329.442 4.86712 -0.73295 0
M  V30 3288 N 331.094 0.475555 1.50254 0
M  V30 3289 C 332.024 -0.30611 2.31485 0
M  V30 3290 C 333.005 -0.986228 1.38591 0
M  V30 3291 O 334.19 -0.982541 1.67511 0
M  V30 3292 C 331.32 -1.38588 3.1845 0
M  V30 3293 C 330.274 -0.827115 4.19932 0
M  V30 3294 C 329.6 -2.00551 4.95665 0
M  V30 3295 C 330.9 0.16463 5.2204 0
M  V30 3296 H 332.594 0.371866 2.97082 0
M  V30 3297 H 330.14 0.180282 1.42867 0
M  V30 3298 H 332.093 -1.94023 3.74076 0
M  V30 3299 H 330.817 -2.09269 2.50747 0
M  V30 3300 H 329.476 -0.294702 3.65414 0
M  V30 3301 H 329.124 -2.6994 4.2443 0
M  V30 3302 H 328.824 -1.63784 5.64313 0
M  V30 3303 H 330.348 -2.56468 5.54127 0
M  V30 3304 H 331.762 -0.300699 5.72511 0
M  V30 3305 H 330.159 0.446813 5.98434 0
M  V30 3306 H 331.229 1.08905 4.72512 0
M  V30 3307 N 332.573 -1.56217 0.208337 0
M  V30 3308 C 333.503 -2.22694 -0.702116 0
M  V30 3309 C 334.484 -1.19432 -1.2112 0
M  V30 3310 O 335.669 -1.47978 -1.25762 0
M  V30 3311 C 332.799 -2.8966 -1.9161 0
M  V30 3312 C 331.753 -3.9928 -1.5414 0
M  V30 3313 C 331.079 -4.53476 -2.83308 0
M  V30 3314 C 332.379 -5.17012 -0.741339 0
M  V30 3315 H 334.073 -2.99034 -0.147898 0
M  V30 3316 H 331.619 -1.43831 -0.0696951 0
M  V30 3317 H 333.572 -3.34852 -2.55836 0
M  V30 3318 H 332.296 -2.10746 -2.49507 0
M  V30 3319 H 330.955 -3.54799 -0.922668 0
M  V30 3320 H 330.603 -3.71308 -3.39322 0
M  V30 3321 H 330.303 -5.27451 -2.58976 0
M  V30 3322 H 331.827 -5.01378 -3.485 0
M  V30 3323 H 333.241 -5.58667 -1.28699 0
M  V30 3324 H 331.638 -5.97137 -0.595627 0
M  V30 3325 H 332.708 -4.8423 0.254851 0
M  V30 3326 N 334.051 0.0651679 -1.57465 0
M  V30 3327 C 335.467 0.420105 -1.53972 0
M  V30 3328 C 335.667 1.78782 -0.929474 0
M  V30 3329 O 334.723 2.46771 -0.534839 0
M  V30 3330 C 336.036 0.355084 -2.98596 0
M  V30 3331 C 337.584 0.434792 -3.09965 0
M  V30 3332 C 338.059 0.399609 -4.56253 0
M  V30 3333 N 339.55 0.459488 -4.60915 0
M  V30 3334 C 340.285 0.454584 -5.71595 0
M  V30 3335 N 339.781 0.404102 -6.9162 0
M  V30 3336 N 341.574 0.501635 -5.59857 0
M  V30 3337 H 333.725 -0.830328 -1.95498 0
M  V30 3338 H 335.988 -0.312244 -0.895102 0
M  V30 3339 H 335.694 -0.583357 -3.46828 0
M  V30 3340 H 335.568 1.16275 -3.58831 0
M  V30 3341 H 337.955 1.36366 -2.61703 0
M  V30 3342 H 338.036 -0.40157 -2.52628 0
M  V30 3343 H 337.68 -0.525436 -5.05175 0
M  V30 3344 H 337.61 1.25359 -5.11461 0
M  V30 3345 H 340.101 0.502482 -3.74544 0
M  V30 3346 H 340.414 0.404468 -7.71741 0
M  V30 3347 H 338.759 0.37069 -6.94011 0
M  V30 3348 H 341.95 0.538812 -4.64989 0
M  V30 3349 H 342.123 0.494345 -6.46112 0
M  V30 3350 N 335.529 1.53961 0.336706 0
M  V30 3351 C 336.757 1.75483 1.09605 0
M  V30 3352 C 337.172 0.4972 1.82136 0
M  V30 3353 O 336.529 -0.53149 1.74589 0
M  V30 3354 C 336.58 2.93943 2.10428 0
M  V30 3355 O 336.301 4.14842 1.40846 0
M  V30 3356 C 337.802 3.27571 2.98684 0
M  V30 3357 H 335.022 0.586166 0.326574 0
M  V30 3358 H 337.566 2.00808 0.38683 0
M  V30 3359 H 335.721 2.70929 2.76905 0
M  V30 3360 H 336.135 4.81383 2.08255 0
M  V30 3361 H 337.609 4.13791 3.6535 0
M  V30 3362 H 338.086 2.44168 3.65074 0
M  V30 3363 H 338.692 3.52615 2.37787 0
M  V30 3364 N 337.007 -0.598083 1.45811 0
M  V30 3365 C 337.97 -1.69018 1.54808 0
M  V30 3366 C 338.97 -1.55037 0.426652 0
M  V30 3367 O 340.16 -1.59932 0.690456 0
M  V30 3368 C 337.292 -3.0835 1.45371 0
M  V30 3369 H 338.485 -1.62403 2.52121 0
M  V30 3370 H 336.038 -0.814626 1.33392 0
M  V30 3371 H 336.773 -3.20534 0.492793 0
M  V30 3372 H 336.558 -3.19907 2.26721 0
M  V30 3373 H 338.048 -3.8788 1.54721 0
M  V30 3374 N 338.485 -1.33259 -0.841409 0
M  V30 3375 C 339.734 -1.23921 -1.59143 0
M  V30 3376 C 340.047 0.1941 -1.94635 0
M  V30 3377 O 341.253 0.409474 -2.68394 0
M  V30 3378 C 339.709 -2.17119 -2.87032 0
M  V30 3379 C 339.317 -3.65606 -2.58914 0
M  V30 3380 C 341.061 -2.16648 -3.65053 0
M  V30 3381 C 338.968 -4.50726 -3.82884 0
M  V30 3382 H 337.898 -0.460264 -0.597221 0
M  V30 3383 H 340.549 -1.58307 -0.927959 0
M  V30 3384 H 338.931 -1.75663 -3.54906 0
M  V30 3385 H 340.105 -4.15487 -1.99267 0
M  V30 3386 H 338.42 -3.68341 -1.942 0
M  V30 3387 H 341.017 -2.77474 -4.57069 0
M  V30 3388 H 341.36 -1.16088 -3.99787 0
M  V30 3389 H 341.893 -2.56453 -3.041 0
M  V30 3390 H 338.632 -5.52151 -3.53283 0
M  V30 3391 H 338.152 -4.0559 -4.41879 0
M  V30 3392 H 339.831 -4.64401 -4.50489 0
M  V30 3393 N 339.963 1.05934 -1.16686 0
M  V30 3394 C 341.24 1.75643 -0.860747 0
M  V30 3395 C 341.62 2.01144 0.640641 0
M  V30 3396 O 340.968 1.64147 1.58959 0
M  V30 3397 C 341.178 3.05493 -1.68745 0
M  V30 3398 C 342.526 3.79581 -1.90271 0
M  V30 3399 O 343.55 3.15344 -1.65641 0
M  V30 3400 O 342.409 4.9499 -2.31618 0
M  V30 3401 H 339.503 0.763426 -0.317977 0
M  V30 3402 H 342.049 1.1217 -1.27342 0
M  V30 3403 H 340.821 2.8264 -2.70611 0
M  V30 3404 H 340.444 3.76702 -1.27206 0
M  V30 3405 N 341.441 0.965919 1.2453 0
M  V30 3406 C 342.388 0.49402 2.25451 0
M  V30 3407 C 343.358 -0.45948 1.59618 0
M  V30 3408 O 344.543 -0.370238 1.87173 0
M  V30 3409 C 341.683 -0.211359 3.44452 0
M  V30 3410 C 340.796 0.7807 4.24887 0
M  V30 3411 C 339.931 0.0516105 5.31175 0
M  V30 3412 C 338.97 1.03385 6.03306 0
M  V30 3413 N 338.107 0.334887 7.01301 0
M  V30 3414 H 342.947 1.35946 2.65184 0
M  V30 3415 H 340.484 0.681515 1.3036 0
M  V30 3416 H 342.442 -0.637 4.12308 0
M  V30 3417 H 341.072 -1.04077 3.05562 0
M  V30 3418 H 340.124 1.32479 3.56586 0
M  V30 3419 H 341.436 1.52978 4.74762 0
M  V30 3420 H 340.59 -0.432114 6.05159 0
M  V30 3421 H 339.329 -0.730179 4.82203 0
M  V30 3422 H 338.334 1.52847 5.28127 0
M  V30 3423 H 339.559 1.81606 6.54367 0
M  V30 3424 H 337.505 -0.427959 6.54603 0
M  V30 3425 H 337.422 1.02287 7.49048 0
M  V30 3426 H 338.69 -0.126928 7.79397 0
M  V30 3427 N 342.919 -1.39368 0.735821 0
M  V30 3428 C 343.882 -2.2896 0.104874 0
M  V30 3429 C 344.882 -1.46347 -0.666274 0
M  V30 3430 O 346.072 -1.67014 -0.49517 0
M  V30 3431 C 343.204 -3.29857 -0.860656 0
M  V30 3432 H 344.397 -2.86259 0.894205 0
M  V30 3433 H 341.95 -1.48029 0.501704 0
M  V30 3434 H 342.685 -2.77615 -1.67631 0
M  V30 3435 H 342.47 -3.9087 -0.310327 0
M  V30 3436 H 343.96 -3.96893 -1.29867 0
M  V30 3437 N 344.397 -0.483516 -1.5 0
M  V30 3438 C 345.645 0.067027 -2.01989 0
M  V30 3439 C 345.966 1.3909 -1.36671 0
M  V30 3440 O 345.236 1.88978 -0.516152 0
M  V30 3441 H 343.816 0.0277606 -0.746484 0
M  V30 3442 H 346.478 -0.636773 -1.84204 0
M  V30 3443 H 345.574 0.209484 -3.11396 0
M  V30 3444 N 345.875 1.56104 -0.216619 0
M  V30 3445 C 347.105 2.02269 0.420802 0
M  V30 3446 C 347.513 1.09575 1.5424 0
M  V30 3447 O 346.856 0.0967308 1.83445 0
M  V30 3448 C 346.918 3.44784 1.01806 0
M  V30 3449 C 346.582 4.56988 0.0325154 0
M  V30 3450 C 347.579 5.14225 -0.766055 0
M  V30 3451 C 345.264 5.02228 -0.0848092 0
M  V30 3452 C 347.258 6.15169 -1.6687 0
M  V30 3453 C 344.945 6.03011 -0.990994 0
M  V30 3454 C 345.943 6.59357 -1.78149 0
M  V30 3455 O 345.631 7.58179 -2.67245 0
M  V30 3456 H 345.363 0.667353 0.107776 0
M  V30 3457 H 347.917 2.02747 -0.329034 0
M  V30 3458 H 346.147 3.41359 1.81689 0
M  V30 3459 H 347.836 3.74626 1.56237 0
M  V30 3460 H 348.602 4.80126 -0.685836 0
M  V30 3461 H 344.481 4.58054 0.520349 0
M  V30 3462 H 348.025 6.59076 -2.28615 0
M  V30 3463 H 343.922 6.36532 -1.07225 0
M  V30 3464 H 344.69 7.75682 -2.61265 0
M  V30 3465 N 347.353 -0.0568162 1.57498 0
M  V30 3466 C 348.581 -0.765626 1.92213 0
M  V30 3467 C 348.996 -1.70353 0.813961 0
M  V30 3468 O 348.353 -1.81268 -0.211701 0
M  V30 3469 C 348.404 -1.5465 3.2675 0
M  V30 3470 O 348.125 -0.646278 4.33307 0
M  V30 3471 C 349.626 -2.35497 3.75574 0
M  V30 3472 H 346.846 -0.216835 0.634999 0
M  V30 3473 H 349.39 -0.0226146 2.04487 0
M  V30 3474 H 347.545 -2.24165 3.15957 0
M  V30 3475 H 347.959 -1.19093 5.108 0
M  V30 3476 H 349.433 -2.85722 4.72299 0
M  V30 3477 H 349.91 -3.15692 3.05344 0
M  V30 3478 H 350.516 -1.7111 3.8936 0
M  V30 3479 N 348.832 -1.54138 -0.328536 0
M  V30 3480 C 350.08 -1.71765 -1.06496 0
M  V30 3481 C 350.401 -0.49149 -1.88704 0
M  V30 3482 O 349.671 0.494539 -1.89555 0
M  V30 3483 H 348.251 -0.633295 -0.396164 0
M  V30 3484 H 350.913 -1.91429 -0.366176 0
M  V30 3485 H 350.009 -2.5951 -1.73381 0
M  V30 3486 N 350.31 0.590341 -1.46126 0
M  V30 3487 C 351.257 1.69994 -1.56111 0
M  V30 3488 C 352.227 1.61065 -0.405867 0
M  V30 3489 O 353.412 1.8039 -0.621613 0
M  V30 3490 C 350.552 3.08326 -1.55013 0
M  V30 3491 C 349.665 3.27936 -2.81215 0
M  V30 3492 C 348.8 4.56473 -2.71673 0
M  V30 3493 C 347.839 4.694 -3.92849 0
M  V30 3494 N 346.976 5.89254 -3.81738 0
M  V30 3495 H 351.816 1.60797 -2.50895 0
M  V30 3496 H 349.353 0.783799 -1.24479 0
M  V30 3497 H 351.311 3.88383 -1.52362 0
M  V30 3498 H 349.941 3.16439 -0.637667 0
M  V30 3499 H 348.993 2.41536 -2.93879 0
M  V30 3500 H 350.305 3.33357 -3.71045 0
M  V30 3501 H 349.459 5.44748 -2.67085 0
M  V30 3502 H 348.198 4.53477 -1.7947 0
M  V30 3503 H 347.203 3.79544 -3.97777 0
M  V30 3504 H 348.428 4.7418 -4.86138 0
M  V30 3505 H 346.374 5.87271 -2.92317 0
M  V30 3506 H 346.291 5.95911 -4.65217 0
M  V30 3507 H 347.559 6.79981 -3.81112 0
M  V30 3508 N 351.788 1.33704 0.83433 0
M  V30 3509 C 353.034 1.25603 1.59222 0
M  V30 3510 C 353.367 -0.176659 1.93395 0
M  V30 3511 O 352.642 -1.11915 1.59076 0
M  V30 3512 C 352.925 2.13576 2.89926 0
M  V30 3513 C 352.778 3.65326 2.62406 0
M  V30 3514 C 354.097 2.01238 3.91397 0
M  V30 3515 H 351.216 0.457613 0.577719 0
M  V30 3516 H 353.858 1.63848 0.961972 0
M  V30 3517 H 352.008 1.8109 3.43713 0
M  V30 3518 H 353.68 4.08124 2.15017 0
M  V30 3519 H 351.923 3.8698 1.96033 0
M  V30 3520 H 352.594 4.22232 3.55562 0
M  V30 3521 H 355.07 2.29738 3.46929 0
M  V30 3522 H 353.946 2.65036 4.80673 0
M  V30 3523 H 354.207 0.985951 4.30966 0
M  V30 3524 N 353.266 -1.05314 1.17247 0
M  V30 3525 C 354.229 -2.112 0.890357 0
M  V30 3526 C 355.229 -1.60359 -0.118943 0
M  V30 3527 O 356.419 -1.73833 0.113086 0
M  V30 3528 N 354.744 -0.972509 -1.24016 0
M  V30 3529 C 355.993 -0.632603 -1.91523 0
M  V30 3530 C 356.306 0.836641 -1.76804 0
M  V30 3531 O 357.512 1.28728 -2.39043 0
M  V30 3532 C 355.968 -1.08082 -3.43287 0
M  V30 3533 C 355.576 -2.57386 -3.66683 0
M  V30 3534 C 357.32 -0.814288 -4.16617 0
M  V30 3535 C 355.227 -2.95915 -5.12043 0
M  V30 3536 H 354.157 -0.232898 -0.717129 0
M  V30 3537 H 356.808 -1.17936 -1.40582 0
M  V30 3538 H 355.19 -0.462339 -3.93292 0
M  V30 3539 H 356.364 -3.24405 -3.27258 0
M  V30 3540 H 354.679 -2.81701 -3.06649 0
M  V30 3541 H 357.276 -1.0781 -5.23718 0
M  V30 3542 H 357.619 0.24955 -4.15551 0
M  V30 3543 H 358.152 -1.39397 -3.72577 0
M  V30 3544 H 354.891 -4.0139 -5.18234 0
M  V30 3545 H 354.411 -2.33584 -5.52448 0
M  V30 3546 H 356.09 -2.86086 -5.80314 0
M  V30 3547 N 356.222 1.38976 -0.743202 0
M  V30 3548 C 357.185 2.28901 -0.117014 0
M  V30 3549 C 358.185 1.46698 0.658503 0
M  V30 3550 O 359.375 1.67274 0.486305 0
M  V30 3551 C 356.507 3.30309 0.84315 0
M  V30 3552 H 357.7 2.8578 -0.909373 0
M  V30 3553 H 355.253 1.47761 -0.509547 0
M  V30 3554 H 355.988 2.785 1.66157 0
M  V30 3555 H 355.773 3.91029 0.289594 0
M  V30 3556 H 357.263 3.97577 1.2776 0
M  V30 3557 N 357.7 0.491464 1.49741 0
M  V30 3558 C 358.633 -0.338464 2.25676 0
M  V30 3559 C 359.611 -0.978676 1.29849 0
M  V30 3560 O 360.795 -1.01064 1.59117 0
M  V30 3561 C 357.922 -1.47588 3.04853 0
M  V30 3562 C 356.968 -0.951 4.15762 0
M  V30 3563 S 357.801 0.150626 5.35288 0
M  V30 3564 C 358.957 -0.990178 6.18018 0
M  V30 3565 H 359.19 0.306068 2.9572 0
M  V30 3566 H 356.723 0.276622 1.51902 0
M  V30 3567 H 358.681 -2.12764 3.51058 0
M  V30 3568 H 357.342 -2.09199 2.34296 0
M  V30 3569 H 356.535 -1.80311 4.70642 0
M  V30 3570 H 356.137 -0.376607 3.72099 0
M  V30 3571 H 358.429 -1.89748 6.50386 0
M  V30 3572 H 359.372 -0.480205 7.0647 0
M  V30 3573 H 359.78 -1.25321 5.50413 0
M  V30 3574 N 359.178 -1.55987 0.224894 0
M  V30 3575 C 360.455 -1.90232 -0.455083 0
M  V30 3576 C 360.835 -1.14269 -1.77499 0
M  V30 3577 O 360.183 -0.253079 -2.27094 0
M  V30 3578 C 360.393 -3.42993 -0.644758 0
M  V30 3579 C 361.741 -4.13821 -0.950669 0
M  V30 3580 O 362.765 -3.4861 -0.731423 0
M  V30 3581 O 361.624 -5.29128 -1.36695 0
M  V30 3582 H 358.718 -0.79108 -0.241084 0
M  V30 3583 H 361.264 -1.67581 0.267327 0
M  V30 3584 H 360.036 -3.90252 0.28613 0
M  V30 3585 H 359.659 -3.71434 -1.41853 0
M  V30 3586 N 360.656 0.0484629 -1.57525 0
M  V30 3587 C 361.896 0.748196 -1.90214 0
M  V30 3588 C 362.26 1.73545 -0.821347 0
M  V30 3589 O 363.461 2.48201 -1.03198 0
M  V30 3590 C 361.732 1.41727 -3.28098 0
M  V30 3591 S 363.291 2.14884 -3.82584 0
M  V30 3592 H 360.109 0.248307 -0.666232 0
M  V30 3593 H 362.711 0.00343188 -1.955 0
M  V30 3594 H 361.415 0.685244 -4.04639 0
M  V30 3595 H 360.946 2.20099 -3.26068 0
M  V30 3596 H 362.961 3.41755 -3.59747 0
M  V30 3597 N 362.134 1.5431 0.320358 0
M  V30 3598 C 363.097 1.83195 1.3774 0
M  V30 3599 C 364.097 0.703906 1.44575 0
M  V30 3600 O 365.287 0.972214 1.44546 0
M  V30 3601 C 362.419 1.99487 2.76438 0
M  V30 3602 H 363.612 2.77642 1.1338 0
M  V30 3603 H 361.165 1.46076 0.556012 0
M  V30 3604 H 361.9 1.07262 3.06048 0
M  V30 3605 H 361.685 2.81575 2.7287 0
M  V30 3606 H 363.175 2.23271 3.52902 0
M  V30 3607 N 363.613 -0.582584 1.46437 0
M  V30 3608 C 364.576 -1.67366 1.56592 0
M  V30 3609 C 365.576 -1.54575 0.443072 0
M  V30 3610 O 366.766 -1.59191 0.707381 0
M  V30 3611 C 363.898 -3.06791 1.48634 0
M  V30 3612 H 365.091 -1.5972 2.5383 0
M  V30 3613 H 362.644 -0.800432 1.34249 0
M  V30 3614 H 363.379 -3.19993 0.526763 0
M  V30 3615 H 363.164 -3.17484 2.30101 0
M  V30 3616 H 364.654 -3.86218 1.58826 0
M  V30 3617 N 365.091 -1.34144 -0.827227 0
M  V30 3618 C 366.316 -1.29476 -1.62021 0
M  V30 3619 C 366.741 0.129292 -1.87655 0
M  V30 3620 O 366.099 1.08967 -1.449 0
M  V30 3621 C 366.147 -2.08702 -2.94068 0
M  V30 3622 O 365.251 -1.45359 -3.85933 0
M  V30 3623 H 364.592 -0.444881 -0.492927 0
M  V30 3624 H 367.122 -1.76882 -1.02829 0
M  V30 3625 H 367.132 -2.19898 -3.43669 0
M  V30 3626 H 365.807 -3.12241 -2.74734 0
M  V30 3627 H 364.384 -1.42879 -3.44442 0
M  V30 3628 N 366.569 1.04691 -1.17803 0
M  V30 3629 C 367.479 2.16057 -0.914151 0
M  V30 3630 C 368.495 1.73589 0.119503 0
M  V30 3631 O 369.671 2.01308 -0.0609468 0
M  V30 3632 C 366.736 3.4394 -0.436603 0
M  V30 3633 C 365.797 4.00825 -1.53746 0
M  V30 3634 C 365.03 5.22604 -1.0826 0
M  V30 3635 O 365.253 5.70367 0.0612244 0
M  V30 3636 O 364.187 5.7186 -1.87775 0
M  V30 3637 H 368.013 2.41169 -1.84584 0
M  V30 3638 H 365.598 1.1453 -0.959334 0
M  V30 3639 H 367.48 4.21024 -0.178057 0
M  V30 3640 H 366.155 3.20316 0.466869 0
M  V30 3641 H 365.062 3.25158 -1.84995 0
M  V30 3642 H 366.395 4.28778 -2.41683 0
M  V30 3643 N 368.047 0.979072 1.23499 0
M  V30 3644 C 369.294 0.647219 1.91878 0
M  V30 3645 C 369.622 -0.819074 1.76413 0
M  V30 3646 O 368.877 -1.60616 1.11808 0
M  V30 3647 C 369.176 0.981932 3.43646 0
M  V30 3648 C 368.842 2.43822 3.79291 0
M  V30 3649 C 367.504 2.83622 3.88731 0
M  V30 3650 C 369.856 3.3828 3.96505 0
M  V30 3651 C 367.184 4.16897 4.12812 0
M  V30 3652 C 369.536 4.71197 4.22085 0
M  V30 3653 C 368.2 5.10758 4.29747 0
M  V30 3654 H 367.47 0.236834 0.702133 0
M  V30 3655 H 370.117 1.23268 1.46551 0
M  V30 3656 H 368.422 0.314365 3.90537 0
M  V30 3657 H 370.119 0.703395 3.94783 0
M  V30 3658 H 366.709 2.11966 3.72516 0
M  V30 3659 H 370.893 3.0871 3.88603 0
M  V30 3660 H 366.149 4.47157 4.16966 0
M  V30 3661 H 370.323 5.44348 4.34348 0
M  V30 3662 H 367.95 6.1405 4.48159 0
M  V30 3663 N 369.525 -1.3858 0.750561 0
M  V30 3664 C 370.755 -2.04175 0.31564 0
M  V30 3665 C 371.163 -1.56726 -1.05989 0
M  V30 3666 O 370.506 -0.734225 -1.68389 0
M  V30 3667 C 370.568 -3.58585 0.256389 0
M  V30 3668 C 370.232 -4.29077 1.57296 0
M  V30 3669 C 371.229 -4.54656 2.52159 0
M  V30 3670 C 368.914 -4.67324 1.84156 0
M  V30 3671 C 370.908 -5.17512 3.72103 0
M  V30 3672 C 368.595 -5.29905 3.04374 0
M  V30 3673 C 369.593 -5.54933 3.98168 0
M  V30 3674 O 369.281 -6.16212 5.16273 0
M  V30 3675 H 369.013 -0.662742 0.133226 0
M  V30 3676 H 371.567 -1.78313 1.01948 0
M  V30 3677 H 369.797 -3.83406 -0.503677 0
M  V30 3678 H 371.486 -4.05628 -0.148612 0
M  V30 3679 H 372.252 -4.25539 2.32683 0
M  V30 3680 H 368.131 -4.47191 1.11988 0
M  V30 3681 H 371.675 -5.36963 4.45327 0
M  V30 3682 H 367.572 -5.58444 3.23745 0
M  V30 3683 H 368.34 -6.34701 5.16815 0
M  V30 3684 N 371.003 -0.499398 -1.49478 0
M  V30 3685 C 371.95 0.279881 -2.29097 0
M  V30 3686 C 372.92 0.961805 -1.3542 0
M  V30 3687 O 374.105 0.968777 -1.64376 0
M  V30 3688 C 371.245 1.33932 -3.18051 0
M  V30 3689 C 370.358 0.669333 -4.26783 0
M  V30 3690 C 369.493 1.70907 -5.02955 0
M  V30 3691 C 368.532 1.02087 -6.03527 0
M  V30 3692 N 367.669 2.00474 -6.7287 0
M  V30 3693 H 372.509 -0.405317 -2.95231 0
M  V30 3694 H 370.046 -0.211726 -1.45568 0
M  V30 3695 H 372.004 1.96553 -3.67998 0
M  V30 3696 H 370.634 1.9933 -2.53904 0
M  V30 3697 H 369.686 -0.0701234 -3.80335 0
M  V30 3698 H 370.998 0.127503 -4.98637 0
M  V30 3699 H 370.152 2.41037 -5.56764 0
M  V30 3700 H 368.891 2.28476 -4.30871 0
M  V30 3701 H 367.896 0.305338 -5.48951 0
M  V30 3702 H 369.121 0.451708 -6.77596 0
M  V30 3703 H 367.067 2.57007 -6.03559 0
M  V30 3704 H 366.984 1.51353 -7.40694 0
M  V30 3705 H 368.252 2.69897 -7.31284 0
M  V30 3706 N 372.481 1.55866 -0.233164 0
M  V30 3707 C 373.391 2.24431 0.683217 0
M  V30 3708 C 374.407 1.2558 1.2044 0
M  V30 3709 O 375.583 1.58422 1.24356 0
M  V30 3710 C 372.648 2.91979 1.86947 0
M  V30 3711 C 371.709 4.06204 1.38912 0
M  V30 3712 C 370.942 4.70522 2.51883 0
M  V30 3713 O 371.165 4.33865 3.70293 0
M  V30 3714 O 370.099 5.59296 2.22423 0
M  V30 3715 H 373.925 3.03426 0.129059 0
M  V30 3716 H 371.51 1.494 -0.0022283 0
M  V30 3717 H 373.392 3.34573 2.56201 0
M  V30 3718 H 372.067 2.15935 2.41151 0
M  V30 3719 H 370.974 3.68155 0.664259 0
M  V30 3720 H 372.307 4.84025 0.893328 0
M  V30 3721 N 373.959 -0.0401083 1.57549 0
M  V30 3722 C 375.207 -0.731677 1.8839 0
M  V30 3723 C 375.528 -1.76481 0.829425 0
M  V30 3724 O 374.798 -1.95411 -0.1383 0
M  V30 3725 H 373.378 -0.273225 0.695239 0
M  V30 3726 H 376.04 -0.00867725 1.94898 0
M  V30 3727 H 375.136 -1.22816 2.86919 0
M  V30 3728 N 375.437 -1.54477 -0.31217 0
M  V30 3729 C 376.384 -1.84655 -1.38461 0
M  V30 3730 C 377.354 -0.694536 -1.50882 0
M  V30 3731 O 378.539 -0.942081 -1.6592 0
M  V30 3732 C 375.679 -2.0896 -2.74645 0
M  V30 3733 C 374.792 -3.36618 -2.70763 0
M  V30 3734 C 373.927 -3.50824 -3.98868 0
M  V30 3735 C 372.966 -4.72315 -3.89339 0
M  V30 3736 N 372.103 -4.83387 -5.09197 0
M  V30 3737 H 376.943 -2.76142 -1.12026 0
M  V30 3738 H 374.48 -1.36748 -0.542065 0
M  V30 3739 H 376.438 -2.21045 -3.53829 0
M  V30 3740 H 375.068 -1.20752 -2.99364 0
M  V30 3741 H 374.12 -3.33211 -1.83506 0
M  V30 3742 H 375.432 -4.25917 -2.59608 0
M  V30 3743 H 374.586 -3.62513 -4.86486 0
M  V30 3744 H 373.325 -2.59638 -4.12843 0
M  V30 3745 H 372.33 -4.6067 -3.00105 0
M  V30 3746 H 373.555 -5.64897 -3.76919 0
M  V30 3747 H 371.501 -3.9512 -5.23657 0
M  V30 3748 H 371.418 -5.66669 -5.00422 0
M  V30 3749 H 372.686 -4.9942 -5.98498 0
M  V30 3750 N 376.915 0.57481 -1.46744 0
M  V30 3751 C 378.145 1.35659 -1.55821 0
M  V30 3752 C 378.553 1.88129 -0.201036 0
M  V30 3753 O 377.896 1.64723 0.813134 0
M  V30 3754 C 377.958 2.57473 -2.50894 0
M  V30 3755 C 377.622 2.26415 -3.9697 0
M  V30 3756 C 378.619 1.84771 -4.85958 0
M  V30 3757 C 376.304 2.38316 -4.42166 0
M  V30 3758 C 378.298 1.55434 -6.18158 0
M  V30 3759 C 375.985 2.08591 -5.74398 0
M  V30 3760 C 376.983 1.67216 -6.62214 0
M  V30 3761 O 376.671 1.37859 -7.91991 0
M  V30 3762 H 376.403 0.420496 -0.529301 0
M  V30 3763 H 378.957 0.704967 -1.92923 0
M  V30 3764 H 377.187 3.25468 -2.08824 0
M  V30 3765 H 378.876 3.19546 -2.50291 0
M  V30 3766 H 379.642 1.75085 -4.52295 0
M  V30 3767 H 375.521 2.69483 -3.74032 0
M  V30 3768 H 379.065 1.23065 -6.86659 0
M  V30 3769 H 374.962 2.17905 -6.07608 0
M  V30 3770 H 375.73 1.51638 -8.04331 0
M  V30 3771 N 378.394 1.34581 0.820102 0
M  V30 3772 C 379.671 1.17675 1.56244 0
M  V30 3773 C 380.051 -0.249541 2.0962 0
M  V30 3774 O 379.399 -1.25125 1.91196 0
M  V30 3775 C 379.609 2.23364 2.6816 0
M  V30 3776 C 380.957 2.58485 3.36854 0
M  V30 3777 O 381.981 2.22175 2.78418 0
M  V30 3778 O 380.84 3.20868 4.42386 0
M  V30 3779 H 377.934 0.456333 0.689702 0
M  V30 3780 H 380.48 1.46222 0.861231 0
M  V30 3781 H 379.252 3.19087 2.26493 0
M  V30 3782 H 378.875 1.96009 3.45928 0
M  V30 3783 N 379.872 -1.04064 1.18357 0
M  V30 3784 C 380.802 -2.14001 0.934113 0
M  V30 3785 C 381.783 -1.69616 -0.128186 0
M  V30 3786 O 382.968 -1.94185 0.0244093 0
M  V30 3787 C 380.098 -3.44253 0.459066 0
M  V30 3788 C 379.052 -4.02261 1.46185 0
M  V30 3789 C 378.378 -5.27992 0.844322 0
M  V30 3790 C 379.678 -4.38432 2.83856 0
M  V30 3791 H 381.372 -2.35127 1.85352 0
M  V30 3792 H 378.918 -1.12998 0.892604 0
M  V30 3793 H 380.871 -4.20522 0.271907 0
M  V30 3794 H 379.595 -3.22813 -0.495912 0
M  V30 3795 H 378.254 -3.28074 1.63595 0
M  V30 3796 H 377.902 -5.02862 -0.117845 0
M  V30 3797 H 377.602 -5.67765 1.51384 0
M  V30 3798 H 379.126 -6.06938 0.667693 0
M  V30 3799 H 380.54 -5.05688 2.70098 0
M  V30 3800 H 378.937 -4.89254 3.47491 0
M  V30 3801 H 380.007 -3.4826 3.37406 0
M  V30 3802 N 381.35 -0.985608 -1.22978 0
M  V30 3803 C 382.627 -0.573599 -1.87001 0
M  V30 3804 C 383.007 0.949213 -1.88555 0
M  V30 3805 O 382.355 1.82811 -1.37086 0
M  V30 3806 C 382.565 -1.18564 -3.28243 0
M  V30 3807 C 383.913 -1.28163 -4.04796 0
M  V30 3808 O 384.937 -1.13949 -3.37482 0
M  V30 3809 O 383.796 -1.50832 -5.25273 0
M  V30 3810 H 380.89 -0.193868 -0.803955 0
M  V30 3811 H 383.436 -1.08102 -1.30813 0
M  V30 3812 H 382.208 -2.22758 -3.21706 0
M  V30 3813 H 381.831 -0.663363 -3.92027 0
M  V30 3814 N 382.828 1.3818 -0.7579 0
M  V30 3815 C 384.075 2.00019 -0.315985 0
M  V30 3816 C 384.403 1.60163 1.10355 0
M  V30 3817 O 383.658 0.83264 1.77103 0
M  V30 3818 C 383.957 3.55252 -0.391218 0
M  V30 3819 C 383.623 4.14834 -1.76702 0
M  V30 3820 C 382.285 4.30821 -2.14353 0
M  V30 3821 C 384.637 4.47658 -2.66931 0
M  V30 3822 C 381.965 4.76928 -3.41696 0
M  V30 3823 C 384.317 4.95184 -3.93669 0
M  V30 3824 C 382.981 5.09377 -4.31383 0
M  V30 3825 H 382.251 0.731923 -0.115627 0
M  V30 3826 H 384.898 1.65161 -0.969223 0
M  V30 3827 H 383.203 3.90273 0.34558 0
M  V30 3828 H 384.9 4.00988 -0.030805 0
M  V30 3829 H 381.49 4.02808 -1.46435 0
M  V30 3830 H 385.674 4.34904 -2.39106 0
M  V30 3831 H 380.93 4.86103 -3.70829 0
M  V30 3832 H 385.104 5.19551 -4.63724 0
M  V30 3833 H 382.731 5.44865 -5.30119 0
M  V30 3834 N 384.306 0.507319 1.49211 0
M  V30 3835 C 385.253 -0.267728 2.29242 0
M  V30 3836 C 386.223 -0.954609 1.35928 0
M  V30 3837 O 387.408 -0.960046 1.64887 0
M  V30 3838 C 384.548 -1.32243 3.18756 0
M  V30 3839 C 383.661 -0.64669 4.27132 0
M  V30 3840 C 382.796 -1.68238 5.03855 0
M  V30 3841 C 381.835 -0.98885 6.0406 0
M  V30 3842 N 380.972 -1.96903 6.73924 0
M  V30 3843 H 385.812 0.420968 2.95012 0
M  V30 3844 H 383.349 0.219443 1.45454 0
M  V30 3845 H 385.307 -1.94599 3.69036 0
M  V30 3846 H 383.937 -1.97981 2.54958 0
M  V30 3847 H 382.989 0.0902926 3.80293 0
M  V30 3848 H 384.301 -0.101058 4.98698 0
M  V30 3849 H 383.455 -2.38081 5.58034 0
M  V30 3850 H 382.194 -2.26187 4.32077 0
M  V30 3851 H 381.199 -0.276222 5.49106 0
M  V30 3852 H 382.424 -0.415767 6.77826 0
M  V30 3853 H 380.37 -2.53803 6.04913 0
M  V30 3854 H 380.287 -1.47423 7.41487 0
M  V30 3855 H 381.555 -2.66015 7.32705 0
M  V30 3856 N 385.784 -1.5574 0.241426 0
M  V30 3857 C 386.732 -2.22538 -0.676718 0
M  V30 3858 C 387.726 -1.21117 -1.18436 0
M  V30 3859 O 388.932 -1.39144 -1.14188 0
M  V30 3860 H 385.307 -0.713776 -0.236701 0
M  V30 3861 H 387.278 -2.98264 -0.0901187 0
M  V30 3862 C 386.027 -2.93439 -1.86518 0
M  V30 3863 H 385.35 -3.7125 -1.4837 0
M  V30 3864 H 386.79 -3.43549 -2.48495 0
M  V30 3865 C 385.249 -1.97008 -2.73294 0
M  V30 3866 O 385.779 -1.49965 -3.72657 0
M  V30 3867 N 383.985 -1.64227 -2.39745 0
M  V30 3868 H 383.532 -2.02677 -1.58996 0
M  V30 3869 H 383.49 -0.999708 -2.98083 0
M  V30 3870 N 387.262 0.0317525 -1.57568 0
M  V30 3871 C 388.673 0.578692 -1.77505 0
M  V30 3872 C 389.024 1.75749 -0.872164 0
M  V30 3873 O 388.149 2.16298 -0.0663106 0
M  V30 3874 C 388.744 1.05658 -3.21904 0
M  V30 3875 C 387.303 1.54906 -3.43047 0
M  V30 3876 C 386.45 0.485939 -2.73009 0
M  V30 3877 H 389.401 -0.194475 -1.57504 0
M  V30 3878 H 389.422 1.92404 -3.28269 0
M  V30 3879 H 388.934 0.198422 -3.87592 0
M  V30 3880 H 387.035 2.42915 -2.82529 0
M  V30 3881 H 387.148 1.59841 -4.5165 0
M  V30 3882 H 385.512 0.940354 -2.36705 0
M  V30 3883 H 386.295 -0.362709 -3.41379 0
M  V30 3884 N 388.74 1.54641 0.303973 0
M  V30 3885 C 389.687 1.85386 1.37479 0
M  V30 3886 C 390.657 0.702528 1.50512 0
M  V30 3887 O 391.842 0.950867 1.65418 0
M  V30 3888 C 388.982 2.10413 2.73533 0
M  V30 3889 C 388.095 3.38049 2.68974 0
M  V30 3890 C 387.23 3.52934 3.97002 0
M  V30 3891 C 386.269 4.74373 3.86829 0
M  V30 3892 N 385.406 4.8608 5.06627 0
M  V30 3893 H 390.246 2.76732 1.1056 0
M  V30 3894 H 387.783 1.37034 0.534805 0
M  V30 3895 H 389.741 2.22919 3.52652 0
M  V30 3896 H 388.371 1.22338 2.98719 0
M  V30 3897 H 387.423 3.3418 1.81736 0
M  V30 3898 H 388.735 4.27288 2.57346 0
M  V30 3899 H 387.889 3.65088 4.84557 0
M  V30 3900 H 386.628 2.61824 4.1146 0
M  V30 3901 H 385.633 4.62255 2.97658 0
M  V30 3902 H 386.858 5.66888 3.73918 0
M  V30 3903 H 384.804 3.97891 5.21554 0
M  V30 3904 H 384.721 5.69315 4.9741 0
M  V30 3905 H 385.989 5.02587 5.95841 0
M  V30 3906 N 390.218 -0.567019 1.47046 0
M  V30 3907 C 391.443 -1.3551 1.57009 0
M  V30 3908 C 391.868 -1.86841 0.217259 0
M  V30 3909 O 391.226 -1.62435 -0.805268 0
M  V30 3910 C 391.274 -2.50777 2.5912 0
M  V30 3911 O 390.378 -3.52706 2.13711 0
M  V30 3912 H 389.719 -0.402919 0.52778 0
M  V30 3913 H 392.249 -0.686241 1.92748 0
M  V30 3914 H 392.259 -2.97481 2.79229 0
M  V30 3915 H 390.934 -2.12771 3.57353 0
M  V30 3916 H 389.511 -3.12374 2.03659 0
M  V30 3917 N 391.696 -1.35014 -0.812953 0
M  V30 3918 C 392.628 -1.23262 -1.93233 0
M  V30 3919 C 393.641 -0.157371 -1.62038 0
M  V30 3920 O 394.83 -0.410096 -1.73725 0
M  V30 3921 C 391.93 -0.87392 -3.27438 0
M  V30 3922 C 391.103 -2.04622 -3.86586 0
M  V30 3923 C 390.162 -1.66432 -4.99186 0
M  V30 3924 O 389.188 -2.38222 -5.16951 0
M  V30 3925 N 390.39 -0.584248 -5.77552 0
M  V30 3926 H 393.155 -2.19699 -2.03844 0
M  V30 3927 H 390.716 -1.281 -0.99005 0
M  V30 3928 H 392.708 -0.600039 -4.00227 0
M  V30 3929 H 391.278 0.00057392 -3.126 0
M  V30 3930 H 390.498 -2.48427 -3.06068 0
M  V30 3931 H 391.786 -2.82999 -4.22835 0
M  V30 3932 H 391.184 0.0123526 -5.65699 0
M  V30 3933 H 389.741 -0.37013 -6.50748 0
M  V30 3934 N 393.175 1.03435 -1.18907 0
M  V30 3935 C 394.138 2.09756 -0.923844 0
M  V30 3936 C 395.138 1.60528 0.093416 0
M  V30 3937 O 396.328 1.73631 -0.140727 0
M  V30 3938 C 393.46 3.38692 -0.387354 0
M  V30 3939 H 394.653 2.34719 -1.86674 0
M  V30 3940 H 392.206 1.19959 -1.00197 0
M  V30 3941 H 392.941 3.19396 0.561845 0
M  V30 3942 H 392.726 3.75742 -1.12074 0
M  V30 3943 H 394.216 4.17016 -0.220694 0
M  V30 3944 N 394.653 0.992116 1.22453 0
M  V30 3945 C 395.878 0.685644 1.95739 0
M  V30 3946 C 396.303 -0.743 1.72804 0
M  V30 3947 O 395.661 -1.50778 1.00676 0
M  V30 3948 C 395.709 0.996293 3.46564 0
M  V30 3949 O 394.813 0.0945512 4.12292 0
M  V30 3950 H 394.154 0.256694 0.612376 0
M  V30 3951 H 396.684 1.32888 1.5557 0
M  V30 3952 H 396.694 0.93781 3.97076 0
M  V30 3953 H 395.369 2.03733 3.62582 0
M  V30 3954 H 393.946 0.208451 3.72317 0
M  V30 3955 N 396.131 -1.37776 0.765217 0
M  V30 3956 C 397.356 -2.04651 0.336537 0
M  V30 3957 C 397.781 -1.57337 -1.03086 0
M  V30 3958 O 397.139 -0.730621 -1.65927 0
M  V30 3959 C 397.187 -3.58577 0.381468 0
M  V30 3960 O 396.291 -4.07706 -0.62042 0
M  V30 3961 H 395.632 -0.64756 0.146838 0
M  V30 3962 H 398.162 -1.76221 1.03959 0
M  V30 3963 H 398.172 -4.07314 0.236448 0
M  V30 3964 H 396.847 -3.9237 1.37907 0
M  V30 3965 H 395.424 -3.70306 -0.439056 0
M  V30 3966 N 397.609 -0.515225 -1.4894 0
M  V30 3967 C 398.855 0.016187 -2.03394 0
M  V30 3968 C 399.21 1.33377 -1.38666 0
M  V30 3969 O 398.503 1.84461 -0.518141 0
M  V30 3970 C 398.697 0.210595 -3.56779 0
M  V30 3971 C 398.526 -1.08659 -4.36375 0
M  V30 3972 C 397.296 -1.64237 -4.77864 0
M  V30 3973 C 399.494 -1.9935 -4.74093 0
M  V30 3974 N 397.476 -2.88398 -5.41941 0
M  V30 3975 C 398.847 -3.08088 -5.38035 0
M  V30 3976 C 400.902 -1.99856 -4.56029 0
M  V30 3977 C 399.605 -4.17377 -5.85823 0
M  V30 3978 C 401.631 -3.08129 -5.04787 0
M  V30 3979 C 400.993 -4.15586 -5.68742 0
M  V30 3980 H 397.092 -0.0352107 -0.781207 0
M  V30 3981 H 399.676 -0.693237 -1.8194 0
M  V30 3982 H 397.847 0.889088 -3.78087 0
M  V30 3983 H 399.579 0.740287 -3.97872 0
M  V30 3984 H 396.334 -1.18566 -4.58518 0
M  V30 3985 H 396.758 -3.51572 -5.78555 0
M  V30 3986 H 401.4 -1.18079 -4.05977 0
M  V30 3987 H 399.118 -4.99943 -6.34888 0
M  V30 3988 H 402.704 -3.09557 -4.92611 0
M  V30 3989 H 401.584 -4.97987 -6.05787 0
M  V30 3990 N 399.087 1.5561 -0.249682 0
M  V30 3991 C 400.336 1.98187 0.37479 0
M  V30 3992 C 400.649 1.14111 1.58865 0
M  V30 3993 O 401.855 1.46714 2.28445 0
M  V30 3994 C 400.311 3.52661 0.718192 0
M  V30 3995 C 399.919 4.45481 -0.474428 0
M  V30 3996 C 401.663 4.03888 1.3067 0
M  V30 3997 C 399.57 5.91303 -0.107026 0
M  V30 3998 H 398.5 0.740159 0.143808 0
M  V30 3999 H 401.151 1.80125 -0.350336 0
M  V30 4000 H 399.533 3.66429 1.50152 0
M  V30 4001 H 400.707 4.43473 -1.25172 0
M  V30 4002 H 399.022 4.04751 -0.978052 0
M  V30 4003 H 401.619 5.10358 1.59496 0
M  V30 4004 H 401.962 3.51401 2.23211 0
M  V30 4005 H 402.495 3.93457 0.586211 0
M  V30 4006 H 399.234 6.47833 -0.999642 0
M  V30 4007 H 398.754 5.9644 0.634013 0
M  V30 4008 H 400.433 6.46258 0.309807 0
M  V30 4009 N 400.565 -0.0233959 1.57583 0
M  V30 4010 C 401.793 -0.724682 1.93794 0
M  V30 4011 C 402.208 -1.68588 0.849912 0
M  V30 4012 O 401.565 -1.81676 -0.173204 0
M  V30 4013 C 401.616 -1.47684 3.29957 0
M  V30 4014 O 401.337 -0.554222 4.3458 0
M  V30 4015 C 402.838 -2.27477 3.80485 0
M  V30 4016 H 400.058 -0.203317 0.639455 0
M  V30 4017 H 402.602 0.0207653 2.04489 0
M  V30 4018 H 400.757 -2.17412 3.20641 0
M  V30 4019 H 401.171 -1.08232 5.13212 0
M  V30 4020 H 402.645 -2.7564 4.78254 0
M  V30 4021 H 403.122 -3.09144 3.11972 0
M  V30 4022 H 403.728 -1.62813 3.92902 0
M  V30 4023 N 402.043 -1.548 -0.295768 0
M  V30 4024 C 403.268 -1.78653 -1.05346 0
M  V30 4025 C 403.693 -0.546894 -1.79974 0
M  V30 4026 O 403.051 0.502763 -1.7419 0
M  V30 4027 C 403.099 -2.99679 -2.00561 0
M  V30 4028 O 402.203 -2.7317 -3.08953 0
M  V30 4029 H 401.544 -0.59116 -0.302367 0
M  V30 4030 H 404.074 -2.01895 -0.331598 0
M  V30 4031 H 404.084 -3.27793 -2.42932 0
M  V30 4032 H 402.759 -3.89562 -1.4565 0
M  V30 4033 H 401.336 -2.56089 -2.71059 0
M  V30 4034 N 403.521 0.559213 -1.47345 0
M  V30 4035 C 404.798 1.31997 -1.44348 0
M  V30 4036 C 405.178 2.1064 -0.139358 0
M  V30 4037 O 404.526 2.1091 0.879153 0
M  V30 4038 C 404.736 2.22618 -2.68779 0
M  V30 4039 C 406.084 2.83701 -3.1591 0
M  V30 4040 O 407.108 2.32921 -2.69493 0
M  V30 4041 O 405.967 3.75993 -3.966 0
M  V30 4042 H 403.061 0.594251 -0.575147 0
M  V30 4043 H 405.607 0.578282 -1.59543 0
M  V30 4044 H 404.379 1.64093 -3.55231 0
M  V30 4045 H 404.002 3.04085 -2.5616 0
M  V30 4046 N 404.999 1.35443 0.805782 0
M  V30 4047 C 405.962 1.28301 1.89925 0
M  V30 4048 C 406.962 0.194285 1.59622 0
M  V30 4049 O 408.152 0.448036 1.6834 0
M  V30 4050 C 405.284 0.984997 3.2636 0
M  V30 4051 H 406.477 2.2553 1.97677 0
M  V30 4052 H 404.03 1.19979 1.00173 0
M  V30 4053 H 404.765 0.016603 3.24296 0
M  V30 4054 H 404.55 1.77269 3.4974 0
M  V30 4055 H 406.04 0.960651 4.064 0
M  V30 4056 N 406.477 -1.02803 1.19454 0
M  V30 4057 C 407.41 -2.107 0.876396 0
M  V30 4058 C 408.388 -1.61741 -0.166897 0
M  V30 4059 O 409.572 -1.88451 -0.0430195 0
M  V30 4060 C 406.699 -3.37262 0.311758 0
M  V30 4061 C 405.745 -4.05093 1.33424 0
M  V30 4062 S 406.578 -4.50498 2.89503 0
M  V30 4063 C 407.734 -5.80277 2.34584 0
M  V30 4064 H 407.967 -2.37362 1.79016 0
M  V30 4065 H 405.5 -1.15755 1.02177 0
M  V30 4066 H 407.458 -4.10499 -0.00748752 0
M  V30 4067 H 406.119 -3.08693 -0.58032 0
M  V30 4068 H 405.312 -4.9611 0.888302 0
M  V30 4069 H 404.914 -3.3803 1.60037 0
M  V30 4070 H 407.206 -6.54873 1.73633 0
M  V30 4071 H 408.149 -6.29651 3.23952 0
M  V30 4072 H 408.557 -5.3599 1.77131 0
M  V30 4073 N 407.956 -0.998596 -1.21925 0
M  V30 4074 C 408.919 -0.558679 -2.22287 0
M  V30 4075 C 409.919 0.361525 -1.56683 0
M  V30 4076 O 411.109 0.152695 -1.73529 0
M  V30 4077 C 408.241 0.18661 -3.40389 0
M  V30 4078 H 409.434 -1.4463 -2.62721 0
M  V30 4079 H 406.987 -0.786413 -1.35075 0
M  V30 4080 H 407.722 1.08996 -3.05435 0
M  V30 4081 H 407.507 -0.474188 -3.89222 0
M  V30 4082 H 408.997 0.482367 -4.14805 0
M  V30 4083 N 409.434 1.37368 -0.772513 0
M  V30 4084 C 410.711 1.93839 -0.26188 0
M  V30 4085 C 411.091 1.7061 1.24319 0
M  V30 4086 O 410.439 1.05534 2.02669 0
M  V30 4087 C 410.649 3.43154 -0.636102 0
M  V30 4088 C 411.997 4.20249 -0.606324 0
M  V30 4089 O 413.021 3.5152 -0.575538 0
M  V30 4090 O 411.88 5.42809 -0.634086 0
M  V30 4091 H 408.974 0.82478 -0.0605555 0
M  V30 4092 H 411.52 1.4665 -0.853917 0
M  V30 4093 H 410.292 3.53647 -1.6748 0
M  V30 4094 H 409.915 3.97596 -0.0170516 0
M  V30 4095 N 410.912 0.523116 1.48665 0
M  V30 4096 C 412.158 -0.0134963 2.02796 0
M  V30 4097 C 412.491 -1.34582 1.40004 0
M  V30 4098 O 411.766 -1.86756 0.543381 0
M  V30 4099 C 412.049 -0.14276 3.59817 0
M  V30 4100 C 411.902 1.21425 4.331 0
M  V30 4101 C 413.221 -0.872856 4.31357 0
M  V30 4102 H 410.34 -0.00343074 0.736992 0
M  V30 4103 H 412.982 0.678816 1.7746 0
M  V30 4104 H 411.132 -0.732401 3.81534 0
M  V30 4105 H 412.804 1.84447 4.2282 0
M  V30 4106 H 411.047 1.79791 3.94788 0
M  V30 4107 H 411.718 1.07687 5.41394 0
M  V30 4108 H 414.194 -0.372555 4.14429 0
M  V30 4109 H 413.07 -0.932185 5.40927 0
M  V30 4110 H 413.331 -1.92161 3.98154 0
M  V30 4111 N 412.39 -1.55475 0.257931 0
M  V30 4112 C 413.62 -2.03314 -0.367026 0
M  V30 4113 C 414.028 -1.13625 -1.51281 0
M  V30 4114 O 413.371 -0.145334 -1.83124 0
M  V30 4115 C 413.433 -3.47362 -0.926284 0
M  V30 4116 C 413.097 -4.56914 0.0886584 0
M  V30 4117 C 414.094 -5.12013 0.902123 0
M  V30 4118 C 411.779 -5.01827 0.217936 0
M  V30 4119 C 413.773 -6.10529 1.83122 0
M  V30 4120 C 411.46 -6.00172 1.15052 0
M  V30 4121 C 412.458 -6.54402 1.95568 0
M  V30 4122 O 412.146 -7.50827 2.87253 0
M  V30 4123 H 411.878 -0.669976 -0.0900443 0
M  V30 4124 H 414.432 -2.01804 0.382673 0
M  V30 4125 H 412.662 -3.46056 -1.72575 0
M  V30 4126 H 414.351 -3.78637 -1.46249 0
M  V30 4127 H 415.117 -4.78139 0.812891 0
M  V30 4128 H 410.996 -4.59272 -0.398721 0
M  V30 4129 H 414.54 -6.52783 2.46008 0
M  V30 4130 H 410.437 -6.33465 1.24064 0
M  V30 4131 H 411.205 -7.68483 2.81739 0
M  V30 4132 N 413.868 0.0150385 -1.57593 0
M  V30 4133 C 414.815 1.01126 -2.07466 0
M  V30 4134 C 415.785 1.35064 -0.966794 0
M  V30 4135 O 416.97 1.4516 -1.23827 0
M  V30 4136 C 414.11 2.30276 -2.57035 0
M  V30 4137 C 413.223 2.02373 -3.81666 0
M  V30 4138 C 412.358 3.25496 -4.19793 0
M  V30 4139 C 411.397 2.93211 -5.37303 0
M  V30 4140 N 410.534 4.08826 -5.70794 0
M  V30 4141 H 415.374 0.57901 -2.92321 0
M  V30 4142 H 412.911 0.27426 -1.44521 0
M  V30 4143 H 414.869 3.05757 -2.83846 0
M  V30 4144 H 413.499 2.71197 -1.75077 0
M  V30 4145 H 412.551 1.17327 -3.61854 0
M  V30 4146 H 413.863 1.74567 -4.67256 0
M  V30 4147 H 413.017 4.09333 -4.47807 0
M  V30 4148 H 411.756 3.56428 -3.32882 0
M  V30 4149 H 410.761 2.07777 -5.09027 0
M  V30 4150 H 411.986 2.63542 -6.25877 0
M  V30 4151 H 409.932 4.39682 -4.86842 0
M  V30 4152 H 409.849 3.84491 -6.50924 0
M  V30 4153 H 411.117 4.93496 -6.03392 0
M  V30 4154 N 415.346 1.54954 0.287554 0
M  V30 4155 C 416.293 1.86834 1.35505 0
M  V30 4156 C 417.263 0.718452 1.49758 0
M  V30 4157 O 418.448 0.968358 1.644 0
M  V30 4158 C 415.588 2.13303 2.71286 0
M  V30 4159 C 414.701 3.40883 2.65373 0
M  V30 4160 C 413.836 3.57125 3.93236 0
M  V30 4161 C 412.875 4.78449 3.81776 0
M  V30 4162 N 412.012 4.91426 5.01443 0
M  V30 4163 H 416.852 2.77889 1.07619 0
M  V30 4164 H 414.389 1.37593 0.520241 0
M  V30 4165 H 416.347 2.26646 3.50267 0
M  V30 4166 H 414.977 1.25499 2.97405 0
M  V30 4167 H 414.029 3.36088 1.78182 0
M  V30 4168 H 415.341 4.29993 2.52799 0
M  V30 4169 H 414.495 3.70207 4.80658 0
M  V30 4170 H 413.234 2.66173 4.0866 0
M  V30 4171 H 412.239 4.65386 2.92738 0
M  V30 4172 H 413.464 5.70822 3.67884 0
M  V30 4173 H 411.41 4.03401 5.17304 0
M  V30 4174 H 411.327 5.74559 4.91343 0
M  V30 4175 H 412.595 5.08879 5.90477 0
M  V30 4176 N 416.824 -0.551391 1.4764 0
M  V30 4177 C 417.757 -1.6738 1.5511 0
M  V30 4178 C 418.735 -1.5753 0.402856 0
M  V30 4179 O 419.919 -1.78307 0.611475 0
M  V30 4180 C 417.046 -3.05661 1.45908 0
M  V30 4181 C 416.092 -3.33938 2.65307 0
M  V30 4182 S 416.925 -3.22553 4.27457 0
M  V30 4183 C 418.081 -4.63317 4.20818 0
M  V30 4184 H 418.314 -1.6079 2.50068 0
M  V30 4185 H 415.847 -0.732674 1.35909 0
M  V30 4186 H 417.805 -3.8542 1.41286 0
M  V30 4187 H 416.466 -3.09711 0.523248 0
M  V30 4188 H 415.659 -4.34761 2.54948 0
M  V30 4189 H 415.261 -2.61809 2.67081 0
M  V30 4190 H 417.553 -5.54391 3.89431 0
M  V30 4191 H 418.496 -4.78732 5.21748 0
M  V30 4192 H 418.904 -4.41636 3.51593 0
M  V30 4193 N 418.302 -1.35869 -0.798587 0
M  V30 4194 C 419.235 -1.23801 -1.91699 0
M  V30 4195 C 420.213 -0.124143 -1.62125 0
M  V30 4196 O 421.397 -0.293656 -1.86199 0
M  V30 4197 C 418.524 -0.908063 -3.263 0
M  V30 4198 C 417.57 -2.0351 -3.74815 0
M  V30 4199 S 418.403 -3.65183 -3.91665 0
M  V30 4200 C 419.559 -3.34283 -5.29156 0
M  V30 4201 H 419.792 -2.18466 -2.01643 0
M  V30 4202 H 417.325 -1.21178 -0.956833 0
M  V30 4203 H 419.283 -0.724506 -4.04056 0
M  V30 4204 H 417.944 0.0206584 -3.14093 0
M  V30 4205 H 417.137 -1.75858 -4.72324 0
M  V30 4206 H 416.739 -2.1774 -3.04081 0
M  V30 4207 H 419.031 -2.87607 -6.13424 0
M  V30 4208 H 419.974 -4.31022 -5.61806 0
M  V30 4209 H 420.382 -2.69854 -4.95822 0
M  V30 4210 N 419.78 1.02168 -1.19998 0
M  V30 4211 C 421.005 1.79833 -1.03319 0
M  V30 4212 C 421.43 1.83504 0.413281 0
M  V30 4213 O 420.788 1.26635 1.29743 0
M  V30 4214 C 420.836 3.22396 -1.61533 0
M  V30 4215 O 419.94 4.03555 -0.849519 0
M  V30 4216 H 419.281 0.554872 -0.364709 0
M  V30 4217 H 421.811 1.28542 -1.59179 0
M  V30 4218 H 421.821 3.73124 -1.65054 0
M  V30 4219 H 420.496 3.19039 -2.66809 0
M  V30 4220 H 419.073 3.62169 -0.888129 0
M  V30 4221 N 421.258 1.00505 1.21394 0
M  V30 4222 C 422.486 0.706609 1.9446 0
M  V30 4223 C 422.901 -0.73081 1.74082 0
M  V30 4224 O 422.258 -1.49446 1.04747 0
M  V30 4225 C 422.309 1.01824 3.46863 0
M  V30 4226 O 422.03 2.39919 3.66566 0
M  V30 4227 C 423.531 0.739216 4.37093 0
M  V30 4228 H 420.751 0.260394 0.618414 0
M  V30 4229 H 423.295 1.34311 1.54211 0
M  V30 4230 H 421.45 0.427343 3.85036 0
M  V30 4231 H 421.864 2.50784 4.6066 0
M  V30 4232 H 423.338 1.00744 5.42729 0
M  V30 4233 H 423.815 -0.326746 4.37983 0
M  V30 4234 H 424.421 1.31173 4.04566 0
M  V30 4235 N 422.737 -1.36956 0.779787 0
M  V30 4236 C 423.967 -2.03459 0.358877 0
M  V30 4237 C 424.375 -1.58939 -1.02641 0
M  V30 4238 O 423.718 -0.769777 -1.66794 0
M  V30 4239 C 423.78 -3.5796 0.332393 0
M  V30 4240 C 423.444 -4.25644 1.66362 0
M  V30 4241 C 424.441 -4.49205 2.61746 0
M  V30 4242 C 422.126 -4.63313 1.94027 0
M  V30 4243 C 424.12 -5.09503 3.82996 0
M  V30 4244 C 421.807 -5.2333 3.15546 0
M  V30 4245 C 422.805 -5.46363 4.0985 0
M  V30 4246 O 422.493 -6.05122 5.29228 0
M  V30 4247 H 422.225 -0.659767 0.147254 0
M  V30 4248 H 424.779 -1.76111 1.05708 0
M  V30 4249 H 423.009 -3.84388 -0.422237 0
M  V30 4250 H 424.698 -4.05852 -0.0625389 0
M  V30 4251 H 425.464 -4.20508 2.41657 0
M  V30 4252 H 421.343 -4.44715 1.21448 0
M  V30 4253 H 424.887 -5.27397 4.56617 0
M  V30 4254 H 420.784 -5.51451 3.35517 0
M  V30 4255 H 421.552 -6.23595 5.30161 0
M  V30 4256 N 424.215 -0.530993 -1.48385 0
M  V30 4257 C 425.626 -0.0907905 -1.86479 0
M  V30 4258 C 425.977 1.33213 -1.44044 0
M  V30 4259 O 425.102 1.99783 -0.831615 0
M  V30 4260 C 425.697 -0.157987 -3.38431 0
M  V30 4261 C 424.256 0.227026 -3.75715 0
M  V30 4262 C 423.403 -0.5173 -2.72432 0
M  V30 4263 H 426.354 -0.742186 -1.40276 0
M  V30 4264 H 426.375 0.630053 -3.75247 0
M  V30 4265 H 425.887 -1.19372 -3.69286 0
M  V30 4266 H 423.988 1.26486 -3.50474 0
M  V30 4267 H 424.101 -0.113288 -4.78966 0
M  V30 4268 H 422.465 0.0365527 -2.54674 0
M  V30 4269 H 423.248 -1.55368 -3.0613 0
M  V30 4270 N 425.693 1.55336 -0.266172 0
M  V30 4271 C 426.942 1.98574 0.353749 0
M  V30 4272 C 427.255 1.15789 1.57646 0
M  V30 4273 O 428.461 1.49129 2.26876 0
M  V30 4274 C 426.917 3.53403 0.680747 0
M  V30 4275 C 426.525 4.44953 -0.52165 0
M  V30 4276 C 428.269 4.05251 1.26379 0
M  V30 4277 C 426.176 5.91156 -0.169736 0
M  V30 4278 H 425.106 0.741643 0.135949 0
M  V30 4279 H 427.757 1.79743 -0.369421 0
M  V30 4280 H 426.139 3.68001 1.46257 0
M  V30 4281 H 427.313 4.42121 -1.29869 0
M  V30 4282 H 425.628 4.03691 -1.02093 0
M  V30 4283 H 428.225 5.12021 1.54074 0
M  V30 4284 H 428.568 3.53749 2.19471 0
M  V30 4285 H 429.101 3.94057 0.544447 0
M  V30 4286 H 425.84 6.46736 -1.0683 0
M  V30 4287 H 425.36 5.97079 0.570717 0
M  V30 4288 H 427.039 6.4655 0.241245 0
M  V30 4289 N 427.171 -0.0066808 1.57599 0
M  V30 4290 C 428.417 -0.693947 1.90558 0
M  V30 4291 C 428.75 -1.73792 0.866594 0
M  V30 4292 O 428.025 -1.94156 -0.115548 0
M  V30 4293 C 428.308 -1.34317 3.34112 0
M  V30 4294 C 428.161 -0.311189 4.48722 0
M  V30 4295 C 429.48 -2.27116 3.7697 0
M  V30 4296 H 426.599 -0.250803 0.693013 0
M  V30 4297 H 429.241 0.043242 1.89951 0
M  V30 4298 H 427.391 -1.9715 3.3476 0
M  V30 4299 H 429.063 0.316944 4.6021 0
M  V30 4300 H 427.306 0.367253 4.32243 0
M  V30 4301 H 427.977 -0.804366 5.46108 0
M  V30 4302 H 430.453 -1.74306 3.77831 0
M  V30 4303 H 429.329 -2.69511 4.78179 0
M  V30 4304 H 429.59 -3.14743 3.10466 0
M  V30 4305 N 428.649 -1.55105 -0.279332 0
M  V30 4306 C 429.874 -1.7976 -1.03446 0
M  V30 4307 C 430.299 -0.565952 -1.79384 0
M  V30 4308 O 429.657 0.484259 -1.74713 0
M  V30 4309 C 429.705 -3.0179 -1.97371 0
M  V30 4310 O 428.809 -2.76432 -3.06038 0
M  V30 4311 H 428.15 -0.594334 -0.29608 0
M  V30 4312 H 430.68 -2.02235 -0.310165 0
M  V30 4313 H 430.69 -3.30351 -2.39441 0
M  V30 4314 H 429.365 -3.91085 -1.4151 0
M  V30 4315 H 427.942 -2.58949 -2.68328 0
M  V30 4316 N 430.127 0.543554 -1.4793 0
M  V30 4317 C 431.376 1.29649 -1.54512 0
M  V30 4318 C 431.689 1.94382 -0.217973 0
M  V30 4319 O 432.895 2.71017 -0.161908 0
M  V30 4320 C 431.351 2.35175 -2.72435 0
M  V30 4321 C 430.959 1.76572 -4.11736 0
M  V30 4322 C 432.703 3.11564 -2.8832 0
M  V30 4323 C 430.61 2.79958 -5.20939 0
M  V30 4324 H 429.54 0.487541 -0.57517 0
M  V30 4325 H 432.191 0.575708 -1.74235 0
M  V30 4326 H 430.573 3.10229 -2.46118 0
M  V30 4327 H 431.747 1.07799 -4.48013 0
M  V30 4328 H 430.062 1.12722 -4.00852 0
M  V30 4329 H 432.659 3.88794 -3.67074 0
M  V30 4330 H 433.002 3.66594 -1.97268 0
M  V30 4331 H 433.535 2.43623 -3.14472 0
M  V30 4332 H 430.274 2.29766 -6.13912 0
M  V30 4333 H 429.794 3.47101 -4.89164 0
M  V30 4334 H 431.473 3.43198 -5.48474 0
M  V30 4335 N 431.605 1.3629 0.791371 0
M  V30 4336 C 432.515 1.32606 1.93527 0
M  V30 4337 C 433.531 0.228541 1.72493 0
M  V30 4338 O 434.707 0.460571 1.96063 0
M  V30 4339 C 431.772 1.11271 3.28359 0
M  V30 4340 C 430.833 2.3048 3.62185 0
M  V30 4341 C 430.066 2.10154 4.90583 0
M  V30 4342 O 430.289 1.07572 5.60165 0
M  V30 4343 O 429.223 2.97884 5.23019 0
M  V30 4344 H 433.049 2.28909 1.99585 0
M  V30 4345 H 430.634 1.16818 0.931344 0
M  V30 4346 H 432.516 1.01283 4.09047 0
M  V30 4347 H 431.191 0.180292 3.23198 0
M  V30 4348 H 430.098 2.46036 2.81811 0
M  V30 4349 H 431.431 3.22221 3.72068 0
M  V30 4350 N 433.083 -1.0153 1.20538 0
M  V30 4351 C 434.36 -1.72327 0.925343 0
M  V30 4352 C 434.74 -2.03383 -0.565547 0
M  V30 4353 O 434.088 -1.69934 -1.52757 0
M  V30 4354 C 434.298 -2.9902 1.79967 0
M  V30 4355 C 435.646 -3.72258 2.04228 0
M  V30 4356 O 436.67 -3.08979 1.77231 0
M  V30 4357 O 435.529 -4.86053 2.4983 0
M  V30 4358 H 432.623 -0.751099 0.346092 0
M  V30 4359 H 435.169 -1.07366 1.31417 0
M  V30 4360 H 433.941 -2.72402 2.80915 0
M  V30 4361 H 433.564 -3.71721 1.41099 0
M  V30 4362 N 434.561 -1.01147 -1.20859 0
M  V30 4363 C 435.972 -0.730205 -1.71828 0
M  V30 4364 C 436.323 0.751662 -1.8123 0
M  V30 4365 O 435.448 1.58686 -1.47132 0
M  V30 4366 C 436.043 -1.31885 -3.12077 0
M  V30 4367 C 434.602 -1.08656 -3.60376 0
M  V30 4368 C 433.749 -1.42769 -2.37723 0
M  V30 4369 H 436.7 -1.18158 -1.05945 0
M  V30 4370 H 436.721 -0.706793 -3.73878 0
M  V30 4371 H 436.233 -2.39737 -3.05201 0
M  V30 4372 H 434.334 -0.0254814 -3.72591 0
M  V30 4373 H 434.447 -1.76301 -4.45483 0
M  V30 4374 H 432.811 -0.846603 -2.40218 0
M  V30 4375 H 433.594 -2.51666 -2.33493 0
M  V30 4376 N 436.039 1.36541 -0.78704 0
M  V30 4377 C 437.286 1.99304 -0.358341 0
M  V30 4378 C 437.614 1.62467 1.06933 0
M  V30 4379 O 436.869 0.870019 1.75297 0
M  V30 4380 C 437.168 3.54343 -0.466485 0
M  V30 4381 C 436.834 4.10993 -1.85461 0
M  V30 4382 C 435.496 4.26177 -2.23443 0
M  V30 4383 C 437.848 4.41895 -2.76366 0
M  V30 4384 C 435.176 4.69573 -3.51736 0
M  V30 4385 C 437.528 4.86722 -4.04084 0
M  V30 4386 C 436.192 5.00112 -4.42091 0
M  V30 4387 H 435.462 0.729306 -0.131126 0
M  V30 4388 H 438.109 1.63068 -1.00404 0
M  V30 4389 H 436.414 3.90918 0.262719 0
M  V30 4390 H 438.111 4.00833 -0.115854 0
M  V30 4391 H 434.701 3.99612 -1.54946 0
M  V30 4392 H 438.885 4.29735 -2.48277 0
M  V30 4393 H 434.141 4.78127 -3.81057 0
M  V30 4394 H 438.315 5.09598 -4.7464 0
M  V30 4395 H 435.942 5.33498 -5.41557 0
M  V30 4396 N 437.518 0.538854 1.48102 0
M  V30 4397 C 438.795 -0.0568108 1.95517 0
M  V30 4398 C 439.175 -1.50408 1.48124 0
M  V30 4399 O 438.523 -2.17133 0.711727 0
M  V30 4400 C 438.733 0.0696262 3.48931 0
M  V30 4401 C 440.081 -0.0851202 4.24515 0
M  V30 4402 O 441.105 -0.0037347 3.562 0
M  V30 4403 O 439.964 -0.257025 5.45895 0
M  V30 4404 H 437.058 -0.0743695 0.823649 0
M  V30 4405 H 439.604 0.604081 1.58584 0
M  V30 4406 H 438.376 1.07744 3.76174 0
M  V30 4407 H 437.999 -0.629714 3.92582 0
M  V30 4408 N 438.996 -1.55193 0.274407 0
M  V30 4409 C 439.928 -2.1989 -0.646595 0
M  V30 4410 C 440.941 -1.1834 -1.11801 0
M  V30 4411 O 442.13 -1.4507 -1.04004 0
M  V30 4412 C 439.23 -2.8104 -1.89393 0
M  V30 4413 C 438.403 -4.08274 -1.56943 0
M  V30 4414 C 437.462 -4.53478 -2.66916 0
M  V30 4415 O 436.488 -5.19267 -2.33132 0
M  V30 4416 N 437.69 -4.2356 -3.9696 0
M  V30 4417 H 440.455 -2.99556 -0.0928686 0
M  V30 4418 H 438.016 -1.61618 0.0954783 0
M  V30 4419 H 440.008 -3.08226 -2.62257 0
M  V30 4420 H 438.578 -2.05372 -2.35672 0
M  V30 4421 H 437.798 -3.88384 -0.674655 0
M  V30 4422 H 439.086 -4.91173 -1.32764 0
M  V30 4423 H 438.484 -3.70799 -4.27229 0
M  V30 4424 H 437.041 -4.55518 -4.66205 0
M  V30 4425 N 440.474 -0.00167713 -1.576 0
M  V30 4426 C 441.751 0.719951 -1.81868 0
M  V30 4427 C 442.131 1.91895 -0.879747 0
M  V30 4428 O 441.479 2.28389 0.0711423 0
M  V30 4429 C 441.689 1.12409 -3.30402 0
M  V30 4430 C 443.037 1.52724 -3.96182 0
M  V30 4431 O 444.061 1.21784 -3.34734 0
M  V30 4432 O 442.92 2.10265 -5.04431 0
M  V30 4433 H 440.014 0.350707 -0.748955 0
M  V30 4434 H 442.56 -0.0272597 -1.69678 0
M  V30 4435 H 441.332 0.269532 -3.90371 0
M  V30 4436 H 440.955 1.93035 -3.47596 0
M  V30 4437 N 441.952 1.55251 0.271103 0
M  V30 4438 C 443.229 1.66664 1.02384 0
M  V30 4439 C 443.609 0.534363 2.04225 0
M  V30 4440 O 442.957 -0.465337 2.23712 0
M  V30 4441 C 443.167 3.05961 1.67895 0
M  V30 4442 C 444.515 3.63772 2.18986 0
M  V30 4443 O 445.539 3.08606 1.77878 0
M  V30 4444 O 444.398 4.60429 2.94393 0
M  V30 4445 H 441.492 0.676957 0.475035 0
M  V30 4446 H 444.038 1.67589 0.26681 0
M  V30 4447 H 442.81 3.79815 0.941071 0
M  V30 4448 H 442.433 3.08943 2.5028 0
M  V30 4449 N 443.43 -0.535701 1.48216 0
M  V30 4450 C 444.676 -1.2913 1.57153 0
M  V30 4451 C 445.031 -1.90899 0.239823 0
M  V30 4452 O 444.324 -1.76022 -0.756748 0
M  V30 4453 C 444.518 -2.4068 2.64212 0
M  V30 4454 C 444.347 -1.89844 4.07663 0
M  V30 4455 C 443.117 -1.72708 4.74869 0
M  V30 4456 C 445.315 -1.43031 4.94011 0
M  V30 4457 N 443.297 -1.16437 6.02757 0
M  V30 4458 C 444.668 -0.986691 6.12098 0
M  V30 4459 C 446.723 -1.3128 4.80281 0
M  V30 4460 C 445.426 -0.437231 7.1797 0
M  V30 4461 C 447.452 -0.777346 5.86269 0
M  V30 4462 C 446.814 -0.343774 7.03561 0
M  V30 4463 H 442.913 -0.463753 0.629648 0
M  V30 4464 H 445.497 -0.604736 1.8507 0
M  V30 4465 H 443.668 -3.06839 2.38126 0
M  V30 4466 H 445.4 -3.07706 2.62867 0
M  V30 4467 H 442.155 -1.96061 4.31111 0
M  V30 4468 H 442.579 -0.903281 6.70947 0
M  V30 4469 H 447.221 -1.63408 3.89946 0
M  V30 4470 H 444.939 -0.103621 8.08034 0
M  V30 4471 H 448.525 -0.689688 5.77698 0
M  V30 4472 H 447.405 0.0641219 7.84174 0
M  V30 4473 N 444.908 -1.36708 -0.784132 0
M  V30 4474 C 446.319 -1.27947 -1.35965 0
M  V30 4475 C 446.67 0.0784013 -1.96043 0
M  V30 4476 O 445.795 0.979989 -1.92938 0
M  V30 4477 C 446.39 -2.31689 -2.47195 0
M  V30 4478 C 444.949 -2.26601 -3.00548 0
M  V30 4479 C 444.096 -2.16184 -1.73666 0
M  V30 4480 H 447.047 -1.4751 -0.585358 0
M  V30 4481 H 447.068 -1.95638 -3.26352 0
M  V30 4482 H 446.58 -3.30506 -2.03439 0
M  V30 4483 H 444.681 -1.31268 -3.48711 0
M  V30 4484 H 444.794 -3.19508 -3.57004 0
M  V30 4485 H 443.158 -1.62524 -1.96107 0
M  V30 4486 H 443.941 -3.16896 -1.32031 0
M  V30 4487 N 446.386 1.0089 -1.21074 0
M  V30 4488 C 447.349 2.0775 -0.968129 0
M  V30 4489 C 448.349 1.6069 0.0593445 0
M  V30 4490 O 449.539 1.73293 -0.177525 0
M  V30 4491 C 446.671 3.37794 -0.459108 0
M  V30 4492 H 447.864 2.30707 -1.9161 0
M  V30 4493 H 445.417 1.17807 -1.02719 0
M  V30 4494 H 446.152 3.20516 0.49397 0
M  V30 4495 H 445.937 3.7328 -1.20019 0
M  V30 4496 H 447.427 4.16454 -0.309099 0
M  V30 4497 N 447.864 1.01787 1.20321 0
M  V30 4498 C 449.11 0.718699 1.90279 0
M  V30 4499 C 449.465 -0.743669 1.77447 0
M  V30 4500 O 448.758 -1.53345 1.14874 0
M  V30 4501 C 448.952 1.09076 3.40349 0
M  V30 4502 C 448.781 2.58775 3.67784 0
M  V30 4503 C 447.551 3.25578 3.86428 0
M  V30 4504 C 449.749 3.56966 3.70243 0
M  V30 4505 N 447.731 4.64495 4.01395 0
M  V30 4506 C 449.102 4.8145 3.90649 0
M  V30 4507 C 451.157 3.5092 3.53213 0
M  V30 4508 C 449.86 6.00619 3.95789 0
M  V30 4509 C 451.886 4.69493 3.59625 0
M  V30 4510 C 451.248 5.92786 3.80505 0
M  V30 4511 H 447.347 0.31468 0.715891 0
M  V30 4512 H 449.931 1.30295 1.44677 0
M  V30 4513 H 448.102 0.534839 3.847 0
M  V30 4514 H 449.834 0.744997 3.97784 0
M  V30 4515 H 446.589 2.76003 3.84862 0
M  V30 4516 H 447.013 5.36624 4.12752 0
M  V30 4517 H 451.655 2.56593 3.36035 0
M  V30 4518 H 449.373 6.95326 4.11762 0
M  V30 4519 H 452.959 4.66432 3.47754 0
M  V30 4520 H 451.839 6.83003 3.85327 0
M  V30 4521 N 449.342 -1.36122 0.79427 0
M  V30 4522 C 450.57 -2.03362 0.380989 0
M  V30 4523 C 450.985 -1.59881 -1.00416 0
M  V30 4524 O 450.342 -0.790515 -1.6449 0
M  V30 4525 C 450.393 -3.58804 0.440649 0
M  V30 4526 O 450.114 -4.007 1.77118 0
M  V30 4527 C 451.615 -4.43296 0.0186117 0
M  V30 4528 H 448.835 -0.652526 0.156367 0
M  V30 4529 H 451.379 -1.73998 1.07447 0
M  V30 4530 H 449.534 -3.8686 -0.204458 0
M  V30 4531 H 449.948 -4.95309 1.72538 0
M  V30 4532 H 451.422 -5.51887 0.111488 0
M  V30 4533 H 451.899 -4.2684 -1.03461 0
M  V30 4534 H 452.505 -4.20512 0.636395 0
M  V30 4535 N 450.82 -0.546701 -1.47814 0
M  V30 4536 C 451.767 0.206854 -2.29871 0
M  V30 4537 C 452.737 0.918235 -1.38411 0
M  V30 4538 O 453.922 0.915991 -1.67375 0
M  V30 4539 C 451.062 1.23746 -3.22151 0
M  V30 4540 C 450.175 0.533216 -4.28697 0
M  V30 4541 C 449.31 1.5482 -5.08138 0
M  V30 4542 C 448.349 0.828347 -6.06469 0
M  V30 4543 N 447.486 1.78966 -6.78908 0
M  V30 4544 H 452.326 -0.499037 -2.93792 0
M  V30 4545 H 449.863 -0.25793 -1.44821 0
M  V30 4546 H 451.821 1.84746 -3.74065 0
M  V30 4547 H 450.451 1.91151 -2.60117 0
M  V30 4548 H 449.503 -0.191089 -3.7992 0
M  V30 4549 H 450.815 -0.0311987 -4.9879 0
M  V30 4550 H 449.969 2.23202 -5.6415 0
M  V30 4551 H 448.708 2.14652 -4.37922 0
M  V30 4552 H 447.713 0.130539 -5.49645 0
M  V30 4553 H 448.938 0.235907 -6.7869 0
M  V30 4554 H 446.884 2.37675 -6.1143 0
M  V30 4555 H 446.801 1.27712 -7.45135 0
M  V30 4556 H 448.069 2.46496 -7.395 0
M  V30 4557 N 452.299 1.55045 -0.282633 0
M  V30 4558 C 453.229 2.2579 0.595066 0
M  V30 4559 C 454.21 1.25074 1.15284 0
M  V30 4560 O 455.395 1.5381 1.18559 0
M  V30 4561 C 452.525 2.98472 1.77572 0
M  V30 4562 C 451.479 4.0618 1.34914 0
M  V30 4563 C 450.805 4.66477 2.6135 0
M  V30 4564 C 452.105 5.1996 0.493821 0
M  V30 4565 H 453.799 2.994 0.00505653 0
M  V30 4566 H 451.345 1.44 0.000992001 0
M  V30 4567 H 453.298 3.46677 2.39568 0
M  V30 4568 H 452.022 2.2241 2.39168 0
M  V30 4569 H 450.681 3.58797 0.752338 0
M  V30 4570 H 450.329 3.87074 3.2122 0
M  V30 4571 H 450.029 5.39207 2.33516 0
M  V30 4572 H 451.553 5.17435 3.24181 0
M  V30 4573 H 452.967 5.64172 1.01898 0
M  V30 4574 H 451.364 5.99299 0.310047 0
M  V30 4575 H 452.434 4.82462 -0.485593 0
M  V30 4576 N 453.777 0.010035 1.57597 0
M  V30 4577 C 455.005 -0.683413 1.95287 0
M  V30 4578 C 455.42 -1.66747 0.885481 0
M  V30 4579 O 454.777 -1.82003 -0.134629 0
M  V30 4580 C 454.828 -1.40652 3.33015 0
M  V30 4581 O 454.549 -0.461916 4.35658 0
M  V30 4582 C 456.05 -2.19356 3.85225 0
M  V30 4583 H 453.27 -0.189708 0.643624 0
M  V30 4584 H 455.814 0.0641359 2.04399 0
M  V30 4585 H 453.969 -2.10562 3.2518 0
M  V30 4586 H 454.383 -0.973215 5.15392 0
M  V30 4587 H 455.857 -2.65433 4.83993 0
M  V30 4588 H 456.334 -3.02457 3.18459 0
M  V30 4589 H 456.94 -1.54442 3.96267 0
M  V30 4590 N 455.255 -1.55392 -0.262866 0
M  V30 4591 C 456.503 -1.76127 -0.991147 0
M  V30 4592 C 456.824 -0.571083 -1.8645 0
M  V30 4593 O 456.094 0.413698 -1.91482 0
M  V30 4594 H 454.674 -0.649528 -0.368948 0
M  V30 4595 H 457.336 -1.9281 -0.284655 0
M  V30 4596 H 456.432 -2.6663 -1.62219 0
M  V30 4597 N 456.733 0.527833 -1.48498 0
M  V30 4598 C 457.643 1.65907 -1.65867 0
M  V30 4599 C 458.659 1.6537 -0.541192 0
M  V30 4600 O 459.835 1.84282 -0.812534 0
M  V30 4601 C 456.9 3.02364 -1.69637 0
M  V30 4602 C 455.961 3.1374 -2.93028 0
M  V30 4603 C 455.194 4.43688 -2.96609 0
M  V30 4604 O 455.417 5.30913 -2.08538 0
M  V30 4605 O 454.351 4.59475 -3.88802 0
M  V30 4606 H 458.177 1.5419 -2.61647 0
M  V30 4607 H 455.762 0.701163 -1.31924 0
M  V30 4608 H 457.644 3.83515 -1.74625 0
M  V30 4609 H 456.319 3.14401 -0.770312 0
M  V30 4610 H 455.226 2.31877 -2.93571 0
M  V30 4611 H 456.559 3.06621 -3.85026 0
M  V30 4612 N 458.211 1.37122 0.776871 0
M  V30 4613 C 459.451 1.33441 1.54831 0
M  V30 4614 C 459.815 -0.0818963 1.91825 0
M  V30 4615 O 461.016 -0.24338 2.67696 0
M  V30 4616 C 459.287 2.24267 2.78279 0
M  V30 4617 S 460.846 2.38389 3.68397 0
M  V30 4618 H 457.664 0.473791 0.530135 0
M  V30 4619 H 460.266 1.7282 0.913968 0
M  V30 4620 H 458.97 3.261 2.49173 0
M  V30 4621 H 458.501 1.85953 3.46677 0
M  V30 4622 H 460.516 1.59068 4.70013 0
M  V30 4623 N 459.689 -1.00246 1.21608 0
M  V30 4624 C 460.636 -2.09073 0.977613 0
M  V30 4625 C 461.606 -1.65815 -0.097297 0
M  V30 4626 O 462.791 -1.90734 0.0503445 0
M  V30 4627 C 459.931 -3.40671 0.551133 0
M  V30 4628 C 459.044 -3.97326 1.69576 0
M  V30 4629 C 458.179 -5.17043 1.2182 0
M  V30 4630 C 457.218 -5.65813 2.335 0
M  V30 4631 N 456.355 -6.76778 1.86859 0
M  V30 4632 H 461.195 -2.28806 1.90924 0
M  V30 4633 H 458.732 -1.12186 0.951452 0
M  V30 4634 H 460.69 -4.16225 0.285097 0
M  V30 4635 H 459.32 -3.20967 -0.343489 0
M  V30 4636 H 458.372 -3.18734 2.07637 0
M  V30 4637 H 459.684 -4.29511 2.53617 0
M  V30 4638 H 458.838 -5.99852 0.908975 0
M  V30 4639 H 457.577 -4.86458 0.347869 0
M  V30 4640 H 456.582 -4.81599 2.65222 0
M  V30 4641 H 457.807 -5.98427 3.21033 0
M  V30 4642 H 455.753 -6.47994 1.02174 0
M  V30 4643 H 455.67 -7.08231 2.64471 0
M  V30 4644 H 456.938 -7.63116 1.58978 0
M  V30 4645 N 461.167 -1.02423 -1.1978 0
M  V30 4646 C 462.416 -0.713265 -1.88667 0
M  V30 4647 C 462.729 0.7609 -1.80193 0
M  V30 4648 O 463.935 1.18473 -2.44288 0
M  V30 4649 C 462.391 -1.22545 -3.38394 0
M  V30 4650 C 461.999 -2.72706 -3.55437 0
M  V30 4651 C 463.743 -0.990257 -4.12788 0
M  V30 4652 C 461.65 -3.17367 -4.99031 0
M  V30 4653 H 460.58 -0.263105 -0.706606 0
M  V30 4654 H 463.231 -1.23792 -1.35454 0
M  V30 4655 H 461.613 -0.628732 -3.90977 0
M  V30 4656 H 462.787 -3.37993 -3.13205 0
M  V30 4657 H 461.102 -2.94453 -2.94425 0
M  V30 4658 H 463.699 -1.29926 -5.18675 0
M  V30 4659 H 464.042 0.0730761 -4.16236 0
M  V30 4660 H 464.575 -1.55074 -3.66329 0
M  V30 4661 H 461.314 -4.23009 -5.00743 0
M  V30 4662 H 460.834 -2.56805 -5.42044 0
M  V30 4663 H 462.513 -3.10441 -5.67658 0
M  V30 4664 N 462.645 1.35699 -0.801477 0
M  V30 4665 C 463.577 2.28598 -0.166028 0
M  V30 4666 C 464.59 1.50044 0.631721 0
M  V30 4667 O 465.779 1.72339 0.464921 0
M  V30 4668 C 462.879 3.29625 0.787451 0
M  V30 4669 C 462.052 4.37384 0.037171 0
M  V30 4670 C 461.111 5.183 0.908375 0
M  V30 4671 O 460.137 5.68053 0.361189 0
M  V30 4672 N 461.339 5.35912 2.23112 0
M  V30 4673 H 464.104 2.83771 -0.964071 0
M  V30 4674 H 461.665 1.47994 -0.656469 0
M  V30 4675 H 463.657 3.80648 1.37439 0
M  V30 4676 H 462.227 2.75004 1.48632 0
M  V30 4677 H 461.447 3.87364 -0.730935 0
M  V30 4678 H 462.735 5.0653 -0.480109 0
M  V30 4679 H 462.133 4.97125 2.69968 0
M  V30 4680 H 460.69 5.90133 2.76741 0
M  V30 4681 N 464.123 0.554532 1.47522 0
M  V30 4682 C 465.372 0.0273458 2.01681 0
M  V30 4683 C 465.685 -1.32962 1.43459 0
M  V30 4684 O 466.891 -1.94657 1.89265 0
M  V30 4685 C 465.347 -0.00159057 3.599 0
M  V30 4686 C 464.955 1.35197 4.27113 0
M  V30 4687 C 466.699 -0.476311 4.21819 0
M  V30 4688 C 464.606 1.28229 5.77331 0
M  V30 4689 H 463.536 0.00645269 0.753972 0
M  V30 4690 H 466.187 0.701985 1.69542 0
M  V30 4691 H 464.569 -0.741821 3.8899 0
M  V30 4692 H 465.743 2.1097 4.09668 0
M  V30 4693 H 464.058 1.76441 3.77171 0
M  V30 4694 H 466.655 -0.5468 5.31897 0
M  V30 4695 H 466.998 -1.4877 3.8881 0
M  V30 4696 H 467.531 0.20898 3.97251 0
M  V30 4697 H 464.27 2.26959 6.14955 0
M  V30 4698 H 463.79 0.566314 5.97121 0
M  V30 4699 H 465.469 0.983226 6.39485 0
M  V30 4700 N 465.601 -1.54893 0.290851 0
M  V30 4701 C 466.847 -2.0023 -0.321867 0
M  V30 4702 C 467.18 -1.179 -1.54316 0
M  V30 4703 O 466.455 -0.25293 -1.92848 0
M  V30 4704 C 466.738 -3.53456 -0.688515 0
M  V30 4705 C 466.591 -4.46532 0.541209 0
M  V30 4706 C 467.91 -4.13057 -1.51895 0
M  V30 4707 H 465.029 -0.727891 -0.115515 0
M  V30 4708 H 467.671 -1.85722 0.400931 0
M  V30 4709 H 465.821 -3.6595 -1.30433 0
M  V30 4710 H 467.493 -4.4596 1.17973 0
M  V30 4711 H 465.736 -4.17545 1.17636 0
M  V30 4712 H 466.407 -5.51475 0.240675 0
M  V30 4713 H 468.883 -4.03937 -0.99872 0
M  V30 4714 H 467.759 -5.20448 -1.74429 0
M  V30 4715 H 468.02 -3.64284 -2.50498 0
M  V30 4716 N 467.08 -0.0183926 -1.57589 0
M  V30 4717 C 468.328 0.661253 -1.90976 0
M  V30 4718 C 468.649 1.73281 -0.894353 0
M  V30 4719 O 467.919 1.9579 0.0656788 0
M  V30 4720 H 466.499 0.247233 -0.704901 0
M  V30 4721 H 469.161 -0.0636639 -1.94796 0
M  V30 4722 H 468.257 1.12083 -2.9128 0
M  V30 4723 N 468.558 1.5553 0.254621 0
M  V30 4724 C 469.835 1.6774 1.00611 0
M  V30 4725 C 470.215 0.555993 2.03647 0
M  V30 4726 O 469.563 -0.441583 2.24193 0
M  V30 4727 C 469.773 3.07725 1.6464 0
M  V30 4728 C 471.121 3.66074 2.15116 0
M  V30 4729 O 472.145 3.10476 1.74595 0
M  V30 4730 O 471.004 4.63526 2.89493 0
M  V30 4731 H 468.098 0.681958 0.467828 0
M  V30 4732 H 470.644 1.67863 0.24902 0
M  V30 4733 H 469.416 3.80792 0.900734 0
M  V30 4734 H 469.039 3.1158 2.46989 0
M  V30 4735 N 470.036 -0.519951 1.48776 0
M  V30 4736 C 471.313 -1.28123 1.47797 0
M  V30 4737 C 471.693 -2.10196 0.195157 0
M  V30 4738 O 471.041 -2.13167 -0.822925 0
M  V30 4739 C 471.251 -2.15413 2.74587 0
M  V30 4740 C 472.599 -2.75225 3.23321 0
M  V30 4741 O 473.623 -2.25694 2.75574 0
M  V30 4742 O 472.482 -3.65346 4.06429 0
M  V30 4743 H 469.576 -0.578793 0.590701 0
M  V30 4744 H 472.122 -0.535779 1.6102 0
M  V30 4745 H 470.894 -1.54617 3.59457 0
M  V30 4746 H 470.517 -2.97186 2.64132 0
M  V30 4747 N 471.514 -1.37532 -0.769588 0
M  V30 4748 C 472.444 -1.36172 -1.89682 0
M  V30 4749 C 473.425 -0.23001 -1.68538 0
M  V30 4750 O 474.61 -0.43069 -1.89364 0
M  V30 4751 C 471.74 -1.1701 -3.26995 0
M  V30 4752 C 470.694 -2.27216 -3.62708 0
M  V30 4753 C 470.02 -1.93174 -4.98586 0
M  V30 4754 C 471.32 -3.6941 -3.69234 0
M  V30 4755 H 473.014 -2.30499 -1.91078 0
M  V30 4756 H 470.56 -1.10953 -0.917902 0
M  V30 4757 H 472.513 -1.14688 -4.05493 0
M  V30 4758 H 471.237 -0.191395 -3.26039 0
M  V30 4759 H 469.896 -2.28697 -2.86519 0
M  V30 4760 H 469.544 -0.938281 -4.94171 0
M  V30 4761 H 469.244 -2.66973 -5.23449 0
M  V30 4762 H 470.768 -1.92443 -5.79481 0
M  V30 4763 H 472.182 -3.70047 -4.37879 0
M  V30 4764 H 470.579 -4.4228 -4.05597 0
M  V30 4765 H 471.649 -4.0288 -2.69844 0
M  V30 4766 N 472.992 0.995999 -1.22138 0
M  V30 4767 C 474.22 1.77066 -1.07029 0
M  V30 4768 C 474.635 1.8495 0.379357 0
M  V30 4769 O 473.992 1.3174 1.26297 0
M  V30 4770 C 474.043 3.20533 -1.67155 0
M  V30 4771 O 473.764 3.13082 -3.06449 0
M  V30 4772 C 475.265 4.14461 -1.5728 0
M  V30 4773 H 472.485 0.556179 -0.375374 0
M  V30 4774 H 475.029 1.25238 -1.61666 0
M  V30 4775 H 473.184 3.6944 -1.16589 0
M  V30 4776 H 473.598 4.03283 -3.35355 0
M  V30 4777 H 475.072 5.1289 -2.04078 0
M  V30 4778 H 475.549 4.36005 -0.528795 0
M  V30 4779 H 476.155 3.71449 -2.07136 0
M  V30 4780 N 474.47 1.03057 1.19235 0
M  V30 4781 C 475.716 0.729098 1.89241 0
M  V30 4782 C 476.049 -0.740573 1.79525 0
M  V30 4783 O 475.324 -1.53946 1.18874 0
M  V30 4784 C 475.607 1.18304 3.40112 0
M  V30 4785 C 475.46 2.71406 3.5869 0
M  V30 4786 C 476.779 0.765161 4.33397 0
M  V30 4787 H 473.898 0.266338 0.687192 0
M  V30 4788 H 476.54 1.28079 1.40341 0
M  V30 4789 H 474.69 0.713672 3.81889 0
M  V30 4790 H 476.362 3.26303 3.26074 0
M  V30 4791 H 474.605 3.11717 3.01687 0
M  V30 4792 H 475.276 2.98225 4.64506 0
M  V30 4793 H 477.752 1.16889 3.99345 0
M  V30 4794 H 476.628 1.11065 5.37546 0
M  V30 4795 H 476.889 -0.332372 4.40849 0
M  V30 4796 N 475.948 -1.35272 0.808662 0
M  V30 4797 C 477.176 -2.02946 0.402537 0
M  V30 4798 C 477.591 -1.60937 -0.987147 0
M  V30 4799 O 476.948 -0.807917 -1.63643 0
M  V30 4800 C 476.999 -3.58317 0.47868 0
M  V30 4801 O 476.72 -3.98799 1.81358 0
M  V30 4802 C 478.221 -4.43251 0.0656281 0
M  V30 4803 H 475.441 -0.650831 0.163279 0
M  V30 4804 H 477.985 -1.72849 1.09286 0
M  V30 4805 H 476.14 -3.87055 -0.163415 0
M  V30 4806 H 476.554 -4.93451 1.77781 0
M  V30 4807 H 478.028 -5.51738 0.170017 0
M  V30 4808 H 478.505 -4.27913 -0.989278 0
M  V30 4809 H 479.111 -4.19813 0.68096 0
M  V30 4810 N 477.426 -0.562348 -1.47226 0
M  V30 4811 C 478.374 0.195476 -2.31777 0
M  V30 4812 C 479.368 0.90433 -1.43242 0
M  V30 4813 O 480.574 0.825031 -1.59979 0
M  V30 4814 H 476.949 0.0819095 -0.747526 0
M  V30 4815 H 478.92 -0.536753 -2.93533 0
M  V30 4816 C 477.669 1.20902 -3.26003 0
M  V30 4817 H 476.992 0.672997 -3.94095 0
M  V30 4818 H 478.432 1.71006 -3.87986 0
M  V30 4819 C 476.891 2.25955 -2.49891 0
M  V30 4820 O 477.421 3.32969 -2.2471 0
M  V30 4821 N 475.627 2.00019 -2.1081 0
M  V30 4822 H 475.174 1.13006 -2.31489 0
M  V30 4823 H 475.132 2.70523 -1.60201 0
M  V30 4824 N 478.904 1.54736 -0.299062 0
M  V30 4825 C 480.315 1.8569 0.193971 0
M  V30 4826 C 480.666 1.22101 1.53577 0
M  V30 4827 O 479.791 0.51799 2.10109 0
M  V30 4828 C 480.386 3.36895 0.358733 0
M  V30 4829 C 478.945 3.67887 0.795986 0
M  V30 4830 C 478.092 2.77131 -0.096807 0
M  V30 4831 H 481.043 1.49934 -0.520134 0
M  V30 4832 H 481.064 3.61294 1.19361 0
M  V30 4833 H 480.576 3.83148 -0.617998 0
M  V30 4834 H 478.677 3.27151 1.78334 0
M  V30 4835 H 478.79 4.75114 0.616718 0
M  V30 4836 H 477.154 2.51153 0.423581 0
M  V30 4837 H 477.937 3.26204 -1.06986 0
M  V30 4838 N 480.382 0.0267497 1.57577 0
M  V30 4839 C 481.312 -0.954308 2.13108 0
M  V30 4840 C 482.293 -1.34088 1.04663 0
M  V30 4841 O 483.478 -1.41992 1.32484 0
M  V30 4842 C 480.608 -2.23744 2.65624 0
M  V30 4843 C 479.562 -1.99168 3.78835 0
M  V30 4844 C 478.888 -3.33726 4.17769 0
M  V30 4845 C 480.188 -1.33277 5.0501 0
M  V30 4846 H 481.882 -0.491848 2.95332 0
M  V30 4847 H 479.428 -0.23514 1.42067 0
M  V30 4848 H 481.381 -2.92754 3.03106 0
M  V30 4849 H 480.105 -2.72151 1.80558 0
M  V30 4850 H 478.764 -1.32577 3.41788 0
M  V30 4851 H 478.412 -3.79888 3.29688 0
M  V30 4852 H 478.112 -3.18089 4.94058 0
M  V30 4853 H 479.636 -4.04008 4.57832 0
M  V30 4854 H 481.05 -1.92283 5.40093 0
M  V30 4855 H 479.447 -1.28045 5.8628 0
M  V30 4856 H 480.517 -0.305411 4.83937 0
M  V30 4857 N 481.861 -1.55662 -0.24637 0
M  V30 4858 C 483.277 -1.48098 -0.594907 0
M  V30 4859 C 483.477 -0.717044 -1.8831 0
M  V30 4860 O 482.533 -0.246618 -2.51293 0
M  V30 4861 C 483.846 -2.92507 -0.697146 0
M  V30 4862 C 485.394 -3.02881 -0.789436 0
M  V30 4863 C 485.869 -4.48598 -0.923232 0
M  V30 4864 N 487.36 -4.52538 -0.988088 0
M  V30 4865 C 488.095 -5.62536 -1.11089 0
M  V30 4866 N 487.591 -6.82342 -1.19919 0
M  V30 4867 N 489.384 -5.50334 -1.14408 0
M  V30 4868 H 481.535 -2.0377 0.599278 0
M  V30 4869 H 483.798 -0.925145 0.20691 0
M  V30 4870 H 483.504 -3.51242 0.179396 0
M  V30 4871 H 483.378 -3.43024 -1.5689 0
M  V30 4872 H 485.765 -2.44226 -1.65643 0
M  V30 4873 H 485.846 -2.55574 0.107482 0
M  V30 4874 H 485.49 -5.07864 -0.0607927 0
M  V30 4875 H 485.42 -4.93587 -1.8352 0
M  V30 4876 H 487.911 -3.66248 -0.931167 0
M  V30 4877 H 488.224 -7.61924 -1.29197 0
M  V30 4878 H 486.569 -6.85102 -1.16876 0
M  V30 4879 H 489.76 -4.5567 -1.07158 0
M  V30 4880 H 489.933 -6.36096 -1.23634 0
M  V30 4881 N 483.339 0.512053 -1.4905 0
M  V30 4882 C 484.585 1.26874 -1.58212 0
M  V30 4883 C 484.918 1.9241 -0.263073 0
M  V30 4884 O 484.193 1.80181 0.732476 0
M  V30 4885 C 484.476 2.34428 -2.73341 0
M  V30 4886 C 484.329 1.73466 -4.15006 0
M  V30 4887 C 485.648 3.36073 -2.84154 0
M  V30 4888 H 482.767 0.459924 -0.575881 0
M  V30 4889 H 485.409 0.568587 -1.81293 0
M  V30 4890 H 483.559 2.94146 -2.53792 0
M  V30 4891 H 485.231 1.17661 -4.46042 0
M  V30 4892 H 483.474 1.03921 -4.21168 0
M  V30 4893 H 484.145 2.51426 -4.91415 0
M  V30 4894 H 486.621 2.86332 -3.01916 0
M  V30 4895 H 485.497 4.08703 -3.66406 0
M  V30 4896 H 485.758 3.97725 -1.93048 0
M  V30 4897 N 484.817 1.37938 0.762283 0
M  V30 4898 C 485.749 1.30349 1.88525 0
M  V30 4899 C 486.762 0.217402 1.61342 0
M  V30 4900 O 487.951 0.474291 1.72084 0
M  V30 4901 C 485.051 0.994844 3.23969 0
M  V30 4902 C 484.224 2.18829 3.78725 0
M  V30 4903 C 483.283 1.84844 4.92665 0
M  V30 4904 O 482.309 2.57244 5.07754 0
M  V30 4905 N 483.511 0.798201 5.74986 0
M  V30 4906 H 486.276 2.27114 1.95549 0
M  V30 4907 H 483.837 1.31686 0.941825 0
M  V30 4908 H 485.829 0.748168 3.97724 0
M  V30 4909 H 484.399 0.115446 3.12387 0
M  V30 4910 H 483.619 2.59615 2.96637 0
M  V30 4911 H 484.907 2.98497 4.1204 0
M  V30 4912 H 484.305 0.197611 5.65355 0
M  V30 4913 H 482.862 0.611396 6.48926 0
M  V30 4914 N 486.295 -0.989507 1.22664 0
M  V30 4915 C 487.242 -2.08024 0.999733 0
M  V30 4916 C 488.212 -1.65909 -0.0797047 0
M  V30 4917 O 489.397 -1.90669 0.0705715 0
M  V30 4918 C 486.537 -3.40067 0.587234 0
M  V30 4919 C 485.65 -3.95505 1.73781 0
M  V30 4920 C 484.785 -5.15722 1.27297 0
M  V30 4921 C 483.824 -5.63305 2.39488 0
M  V30 4922 N 482.961 -6.74758 1.94026 0
M  V30 4923 H 487.801 -2.26768 1.9334 0
M  V30 4924 H 485.338 -1.11171 0.963297 0
M  V30 4925 H 487.296 -4.15899 0.329227 0
M  V30 4926 H 485.926 -3.21314 -0.309426 0
M  V30 4927 H 484.978 -3.16513 2.11006 0
M  V30 4928 H 486.29 -4.26797 2.58158 0
M  V30 4929 H 485.444 -5.98854 0.972546 0
M  V30 4930 H 484.183 -4.86061 0.399445 0
M  V30 4931 H 483.188 -4.78759 2.70315 0
M  V30 4932 H 484.413 -5.94988 3.27362 0
M  V30 4933 H 482.359 -6.46874 1.09041 0
M  V30 4934 H 482.276 -7.05386 2.71968 0
M  V30 4935 H 483.544 -7.61387 1.67062 0
M  V30 4936 N 487.773 -1.03688 -1.18687 0
M  V30 4937 C 488.736 -0.629115 -2.20397 0
M  V30 4938 C 489.736 0.311495 -1.57754 0
M  V30 4939 O 490.926 0.0974107 -1.73927 0
M  V30 4940 C 488.058 0.0782231 -3.4081 0
M  V30 4941 H 489.251 -1.52915 -2.57987 0
M  V30 4942 H 486.804 -0.828988 -1.32505 0
M  V30 4943 H 487.539 0.992233 -3.08748 0
M  V30 4944 H 487.324 -0.597776 -3.87517 0
M  V30 4945 H 488.814 0.350156 -4.16129 0
M  V30 4946 N 489.251 1.34841 -0.815825 0
M  V30 4947 C 490.5 1.97755 -0.396976 0
M  V30 4948 C 490.813 1.65422 1.04379 0
M  V30 4949 O 492.019 2.21771 1.5662 0
M  V30 4950 C 490.475 3.53818 -0.658869 0
M  V30 4951 C 490.083 3.95051 -2.11278 0
M  V30 4952 C 491.827 4.23397 -0.305834 0
M  V30 4953 C 489.734 5.43997 -2.31994 0
M  V30 4954 H 488.664 0.739985 -0.1447 0
M  V30 4955 H 491.315 1.53781 -1.00118 0
M  V30 4956 H 489.697 3.95997 0.0154112 0
M  V30 4957 H 490.871 3.63998 -2.82564 0
M  V30 4958 H 489.186 3.38388 -2.42657 0
M  V30 4959 H 491.783 5.32899 -0.43854 0
M  V30 4960 H 492.126 4.09508 0.748952 0
M  V30 4961 H 492.659 3.8667 -0.934403 0
M  V30 4962 H 489.398 5.62865 -3.35952 0
M  V30 4963 H 488.918 5.76589 -1.65244 0
M  V30 4964 H 490.597 6.10584 -2.14001 0
M  V30 4965 N 490.729 0.570148 1.46925 0
M  V30 4966 C 492.006 -0.0153259 1.95594 0
M  V30 4967 C 492.386 -1.47232 1.51281 0
M  V30 4968 O 491.734 -2.15574 0.757624 0
M  V30 4969 C 491.944 0.143624 3.48704 0
M  V30 4970 C 493.292 0.00494484 4.246 0
M  V30 4971 O 494.316 0.0718214 3.56128 0
M  V30 4972 O 493.175 -0.141175 5.46318 0
M  V30 4973 H 490.269 -0.0568819 0.825041 0
M  V30 4974 H 492.815 0.637583 1.57267 0
M  V30 4975 H 491.587 1.15699 3.73804 0
M  V30 4976 H 491.21 -0.5463 3.93829 0
M  V30 4977 N 492.207 -1.54576 0.307264 0
M  V30 4978 C 493.139 -2.21212 -0.599807 0
M  V30 4979 C 494.152 -1.20685 -1.09266 0
M  V30 4980 O 495.341 -1.47244 -1.00903 0
M  V30 4981 C 492.441 -2.84994 -1.83389 0
M  V30 4982 C 491.614 -4.11511 -1.48248 0
M  V30 4983 C 490.673 -4.59038 -2.57237 0
M  V30 4984 O 489.699 -5.24095 -2.22065 0
M  V30 4985 N 490.901 -4.31884 -3.87887 0
M  V30 4986 H 493.666 -2.99686 -0.0293075 0
M  V30 4987 H 491.227 -1.61379 0.129738 0
M  V30 4988 H 493.219 -3.1372 -2.5566 0
M  V30 4989 H 491.789 -2.10324 -2.31263 0
M  V30 4990 H 491.009 -3.89728 -0.592122 0
M  V30 4991 H 492.297 -4.93879 -1.22316 0
M  V30 4992 H 491.695 -3.79778 -4.19268 0
M  V30 4993 H 490.252 -4.65304 -4.56438 0
M  V30 4994 N 493.685 -0.035106 -1.57561 0
M  V30 4995 C 494.632 0.94474 -2.10578 0
M  V30 4996 C 495.602 1.3192 -1.00927 0
M  V30 4997 O 496.787 1.41147 -1.28382 0
M  V30 4998 C 493.927 2.21982 -2.64231 0
M  V30 4999 C 493.04 1.90128 -3.87911 0
M  V30 5000 C 492.175 3.11975 -4.29936 0
M  V30 5001 C 491.214 2.75968 -5.46359 0
M  V30 5002 N 490.351 3.90459 -5.83512 0
M  V30 5003 H 495.191 0.485717 -2.94015 0
M  V30 5004 H 492.728 0.228143 -1.4532 0
M  V30 5005 H 494.686 2.96572 -2.9343 0
M  V30 5006 H 493.316 2.6549 -1.83616 0
M  V30 5007 H 492.368 1.05755 -3.65404 0
M  V30 5008 H 493.68 1.59613 -4.72573 0
M  V30 5009 H 492.834 3.9488 -4.60603 0
M  V30 5010 H 491.573 3.45657 -3.44053 0
M  V30 5011 H 490.578 1.91478 -5.1538 0
M  V30 5012 H 491.803 2.43497 -6.33945 0
M  V30 5013 H 489.749 4.23971 -5.00584 0
M  V30 5014 H 489.666 3.63588 -6.62827 0
M  V30 5015 H 490.934 4.7405 -6.18787 0
M  V30 5016 N 495.163 1.55791 0.238111 0
M  V30 5017 C 496.126 1.90239 1.27835 0
M  V30 5018 C 497.126 0.779552 1.4064 0
M  V30 5019 O 498.316 1.04747 1.3919 0
M  V30 5020 C 495.448 2.13859 2.65475 0
M  V30 5021 H 496.641 2.83262 0.985034 0
M  V30 5022 H 494.194 1.48818 0.477799 0
M  V30 5023 H 494.929 1.23334 2.99932 0
M  V30 5024 H 494.714 2.95643 2.57561 0
M  V30 5025 H 496.204 2.41664 3.40571 0
M  V30 5026 N 496.642 -0.504142 1.49319 0
M  V30 5027 C 497.882 -1.26867 1.60263 0
M  V30 5028 C 498.246 -1.89924 0.281578 0
M  V30 5029 O 499.447 -2.67479 0.266176 0
M  V30 5030 C 497.718 -2.30956 2.72753 0
M  V30 5031 S 499.277 -3.1679 3.03628 0
M  V30 5032 H 496.095 -0.431198 0.565322 0
M  V30 5033 H 498.697 -0.571407 1.86963 0
M  V30 5034 H 497.401 -1.83156 3.67263 0
M  V30 5035 H 496.932 -3.05356 2.48035 0
M  V30 5036 H 498.947 -4.31549 2.44908 0
M  V30 5037 N 498.12 -1.38341 -0.754957 0
M  V30 5038 C 499.068 -1.35573 -1.89005 0
M  V30 5039 C 500.062 -0.241824 -1.67665 0
M  V30 5040 O 501.268 -0.410785 -1.7525 0
M  V30 5041 H 497.643 -0.422898 -0.621821 0
M  V30 5042 H 499.614 -2.31359 -1.88455 0
M  V30 5043 C 498.363 -1.19631 -3.26471 0
M  V30 5044 H 497.686 -2.04605 -3.43477 0
M  V30 5045 H 499.126 -1.21748 -4.06144 0
M  V30 5046 C 497.585 0.0968705 -3.36761 0
M  V30 5047 O 498.115 1.07439 -3.87066 0
M  V30 5048 N 496.321 0.153242 -2.90196 0
M  V30 5049 H 495.868 -0.642908 -2.49448 0
M  V30 5050 H 495.826 1.01807 -2.9746 0
M  V30 5051 N 499.598 0.982988 -1.23187 0
M  V30 5052 C 500.838 1.73903 -1.07412 0
M  V30 5053 C 501.202 1.88146 0.382764 0
M  V30 5054 O 502.403 2.6053 0.661638 0
M  V30 5055 C 500.674 3.10105 -1.77678 0
M  V30 5056 S 502.233 4.01323 -1.77441 0
M  V30 5057 H 499.051 0.598093 -0.384456 0
M  V30 5058 H 501.653 1.17456 -1.56283 0
M  V30 5059 H 500.357 2.97388 -2.82822 0
M  V30 5060 H 499.888 3.71622 -1.29077 0
M  V30 5061 H 501.903 4.89189 -0.831162 0
M  V30 5062 N 501.076 1.04316 1.18135 0
M  V30 5063 C 502.006 0.657299 2.24058 0
M  V30 5064 C 502.987 -0.340678 1.66654 0
M  V30 5065 O 504.172 -0.220223 1.92947 0
M  V30 5066 C 501.302 0.0220715 3.47293 0
M  V30 5067 C 500.256 0.943857 4.17463 0
M  V30 5068 C 499.582 0.172973 5.3442 0
M  V30 5069 C 500.882 2.26409 4.70677 0
M  V30 5070 H 502.576 1.5428 2.56589 0
M  V30 5071 H 500.122 0.743263 1.23335 0
M  V30 5072 H 502.075 -0.259607 4.206 0
M  V30 5073 H 500.799 -0.898323 3.14003 0
M  V30 5074 H 499.458 1.20996 3.46057 0
M  V30 5075 H 499.106 -0.749907 4.97379 0
M  V30 5076 H 498.806 0.787098 5.82304 0
M  V30 5077 H 500.33 -0.101628 6.10515 0
M  V30 5078 H 501.744 2.04294 5.35665 0
M  V30 5079 H 500.141 2.8314 5.29105 0
M  V30 5080 H 501.211 2.90883 3.87962 0
M  V30 5081 N 502.554 -1.34406 0.822964 0
M  V30 5082 C 503.484 -2.32052 0.259608 0
M  V30 5083 C 504.465 -1.58243 -0.623961 0
M  V30 5084 O 505.65 -1.86224 -0.55083 0
M  V30 5085 C 502.78 -3.42434 -0.579314 0
M  V30 5086 C 501.734 -4.27499 0.20712 0
M  V30 5087 C 501.06 -5.29349 -0.754547 0
M  V30 5088 C 502.36 -5.02758 1.41533 0
M  V30 5089 H 504.054 -2.79418 1.07545 0
M  V30 5090 H 501.6 -1.34338 0.518593 0
M  V30 5091 H 503.553 -4.0976 -0.983612 0
M  V30 5092 H 502.277 -2.93717 -1.4282 0
M  V30 5093 H 500.936 -3.61776 0.592787 0
M  V30 5094 H 500.584 -4.76895 -1.59939 0
M  V30 5095 H 500.284 -5.8714 -0.232561 0
M  V30 5096 H 501.808 -5.99544 -1.1567 0
M  V30 5097 H 503.222 -5.62938 1.08504 0
M  V30 5098 H 501.619 -5.70123 1.87296 0
M  V30 5099 H 502.689 -4.32451 2.1935 0
M  V30 5100 N 504.032 -0.577932 -1.46621 0
M  V30 5101 C 504.962 0.145917 -2.33044 0
M  V30 5102 C 505.943 0.888412 -1.45056 0
M  V30 5103 O 507.128 0.864812 -1.73881 0
M  V30 5104 C 504.258 1.16322 -3.27241 0
M  V30 5105 C 503.212 0.535868 -4.24632 0
M  V30 5106 C 502.538 1.65929 -5.08303 0
M  V30 5107 C 503.838 -0.523861 -5.19666 0
M  V30 5108 H 505.532 -0.575636 -2.93814 0
M  V30 5109 H 503.078 -0.278272 -1.41286 0
M  V30 5110 H 505.031 1.67793 -3.86553 0
M  V30 5111 H 503.755 1.91498 -2.64567 0
M  V30 5112 H 502.414 0.0422759 -3.66576 0
M  V30 5113 H 502.062 2.40061 -4.42018 0
M  V30 5114 H 501.762 1.2452 -5.74255 0
M  V30 5115 H 503.286 2.17686 -5.70478 0
M  V30 5116 H 504.7 -0.0944059 -5.73222 0
M  V30 5117 H 503.097 -0.858 -5.93935 0
M  V30 5118 H 504.167 -1.41197 -4.63887 0
M  V30 5119 N 505.51 1.54411 -0.315457 0
M  V30 5120 C 506.457 2.24048 0.554166 0
M  V30 5121 C 507.427 1.2283 1.11812 0
M  V30 5122 O 508.612 1.51491 1.15997 0
M  V30 5123 C 505.752 2.99574 1.71316 0
M  V30 5124 C 504.865 4.15594 1.17922 0
M  V30 5125 C 504 4.78669 2.30324 0
M  V30 5126 C 503.039 5.86807 1.74137 0
M  V30 5127 N 502.176 6.43777 2.8017 0
M  V30 5128 H 507.016 2.97964 -0.0462602 0
M  V30 5129 H 504.553 1.47059 -0.0346009 0
M  V30 5130 H 506.511 3.41604 2.39505 0
M  V30 5131 H 505.141 2.28008 2.285 0
M  V30 5132 H 504.193 3.78404 0.389136 0
M  V30 5133 H 505.505 4.93459 0.728012 0
M  V30 5134 H 504.659 5.23626 3.06433 0
M  V30 5135 H 503.398 4.00168 2.78778 0
M  V30 5136 H 502.403 5.41261 0.965236 0
M  V30 5137 H 503.628 6.67201 1.2657 0
M  V30 5138 H 501.574 5.68153 3.2793 0
M  V30 5139 H 501.491 7.17031 2.39588 0
M  V30 5140 H 502.759 6.9339 3.56132 0
M  V30 5141 N 506.988 0.0434614 1.5754 0
M  V30 5142 C 508.234 -0.632971 1.92669 0
M  V30 5143 C 508.567 -1.70947 0.921446 0
M  V30 5144 O 507.842 -1.94426 -0.0537202 0
M  V30 5145 C 508.125 -1.23619 3.38216 0
M  V30 5146 C 507.978 -0.168274 4.49485 0
M  V30 5147 C 509.297 -2.15008 3.84005 0
M  V30 5148 H 506.416 -0.228629 0.700641 0
M  V30 5149 H 509.058 0.103651 1.89717 0
M  V30 5150 H 507.208 -1.864 3.40863 0
M  V30 5151 H 508.88 0.463196 4.58969 0
M  V30 5152 H 507.123 0.504581 4.30855 0
M  V30 5153 H 507.794 -0.630218 5.48391 0
M  V30 5154 H 510.27 -1.62198 3.83185 0
M  V30 5155 H 509.146 -2.54161 4.86511 0
M  V30 5156 H 509.407 -3.04707 3.20322 0
M  V30 5157 N 508.466 -1.55915 -0.229846 0
M  V30 5158 C 509.414 -1.9258 -1.30444 0
M  V30 5159 C 510.408 -0.806839 -1.48951 0
M  V30 5160 O 511.614 -0.991606 -1.50224 0
M  V30 5161 H 507.989 -0.611878 -0.437161 0
M  V30 5162 H 509.96 -2.82264 -0.96797 0
M  V30 5163 C 508.709 -2.25171 -2.6494 0
M  V30 5164 H 508.032 -3.10782 -2.51504 0
M  V30 5165 H 509.472 -2.54716 -3.38963 0
M  V30 5166 C 507.931 -1.07394 -3.19324 0
M  V30 5167 O 508.461 -0.330759 -4.00336 0
M  V30 5168 N 506.667 -0.859984 -2.77584 0
M  V30 5169 H 506.214 -1.46605 -2.11813 0
M  V30 5170 H 506.172 -0.0736671 -3.14314 0
M  V30 5171 N 509.944 0.496216 -1.49584 0
M  V30 5172 C 510.876 1.61404 -1.62731 0
M  V30 5173 C 511.889 1.54613 -0.50978 0
M  V30 5174 O 513.078 1.60458 -0.782017 0
M  V30 5175 C 510.178 3.00212 -1.57245 0
M  V30 5176 C 509.351 3.32138 -2.84611 0
M  V30 5177 C 508.41 4.5038 -2.72112 0
M  V30 5178 O 507.436 4.51926 -3.46051 0
M  V30 5179 N 508.638 5.50575 -1.83977 0
M  V30 5180 H 511.403 1.50552 -2.59141 0
M  V30 5181 H 508.964 0.684182 -1.46733 0
M  V30 5182 H 510.956 3.77241 -1.4653 0
M  V30 5183 H 509.526 3.04964 -0.686729 0
M  V30 5184 H 508.746 2.4396 -3.09641 0
M  V30 5185 H 510.034 3.50268 -3.69039 0
M  V30 5186 H 509.432 5.52128 -1.23171 0
M  V30 5187 H 507.989 6.26687 -1.79182 0
M  V30 5188 N 511.423 1.38739 0.74761 0
M  V30 5189 C 512.672 1.3459 1.50228 0
M  V30 5190 C 512.985 -0.0595592 1.95509 0
M  V30 5191 O 514.191 -0.22361 2.70578 0
M  V30 5192 C 512.647 2.36377 2.71393 0
M  V30 5193 C 512.255 3.82573 2.33113 0
M  V30 5194 C 513.999 2.41281 3.49262 0
M  V30 5195 C 511.906 4.76032 3.50924 0
M  V30 5196 H 510.836 0.500312 0.564096 0
M  V30 5197 H 513.487 1.64324 0.8167 0
M  V30 5198 H 511.869 1.99694 3.41962 0
M  V30 5199 H 513.043 4.28227 1.70171 0
M  V30 5200 H 511.358 3.80844 1.68365 0
M  V30 5201 H 513.955 3.08301 4.36869 0
M  V30 5202 H 514.298 1.43353 3.9084 0
M  V30 5203 H 514.831 2.76793 2.85711 0
M  V30 5204 H 511.57 5.75177 3.14408 0
M  V30 5205 H 511.09 4.35066 4.12889 0
M  V30 5206 H 512.769 4.94331 4.17427 0
M  V30 5207 N 512.901 -0.976442 1.23707 0
M  V30 5208 C 514.149 -1.71487 1.06942 0
M  V30 5209 C 514.47 -1.9098 -0.393897 0
M  V30 5210 O 513.74 -1.48128 -1.28198 0
M  V30 5211 H 512.32 -0.635425 0.392739 0
M  V30 5212 H 514.982 -1.17515 1.55487 0
M  V30 5213 H 514.078 -2.70286 1.56051 0
M  V30 5214 N 514.379 -1.04941 -1.1758 0
M  V30 5215 C 515.604 -0.778253 -1.92245 0
M  V30 5216 C 516.029 0.659707 -1.76152 0
M  V30 5217 O 515.387 1.45803 -1.07755 0
M  V30 5218 C 515.435 -1.16051 -3.41416 0
M  V30 5219 O 514.539 -0.291153 -4.11371 0
M  V30 5220 H 513.88 -0.285619 -0.599431 0
M  V30 5221 H 516.41 -1.40159 -1.49052 0
M  V30 5222 H 516.42 -1.12619 -3.92149 0
M  V30 5223 H 515.095 -2.208 -3.52449 0
M  V30 5224 H 513.672 -0.385851 -3.70898 0
M  V30 5225 N 515.857 1.33968 -0.830081 0
M  V30 5226 C 517.103 1.98357 -0.422191 0
M  V30 5227 C 517.436 1.65633 1.01387 0
M  V30 5228 O 516.711 0.931648 1.70735 0
M  V30 5229 C 516.994 3.54492 -0.633043 0
M  V30 5230 C 516.847 3.96934 -2.11574 0
M  V30 5231 C 518.166 4.40039 -0.0735584 0
M  V30 5232 H 515.285 0.720544 -0.154871 0
M  V30 5233 H 517.927 1.58749 -1.04397 0
M  V30 5234 H 516.077 3.88361 -0.103775 0
M  V30 5235 H 517.749 3.73363 -2.7092 0
M  V30 5236 H 515.992 3.46984 -2.60354 0
M  V30 5237 H 516.663 5.05651 -2.21406 0
M  V30 5238 H 519.139 4.12764 -0.52585 0
M  V30 5239 H 518.015 5.48327 -0.250841 0
M  V30 5240 H 518.276 4.30124 1.02202 0
M  V30 5241 N 517.335 0.585699 1.46312 0
M  V30 5242 C 518.56 0.0762461 2.0726 0
M  V30 5243 C 518.985 -1.22071 1.43109 0
M  V30 5244 O 518.343 -1.73804 0.515942 0
M  V30 5245 C 518.391 -0.0729404 3.60526 0
M  V30 5246 O 517.495 -1.1287 3.96654 0
M  V30 5247 H 516.836 0.0641558 0.660893 0
M  V30 5248 H 519.366 0.809492 1.87905 0
M  V30 5249 H 519.376 -0.278158 4.07051 0
M  V30 5250 H 518.051 0.874188 4.06609 0
M  V30 5251 H 516.628 -0.901703 3.61834 0
M  V30 5252 N 518.813 -1.54241 0.323641 0
M  V30 5253 C 519.723 -2.28033 -0.551205 0
M  V30 5254 C 520.739 -1.32388 -1.12913 0
M  V30 5255 O 521.915 -1.65403 -1.14908 0
M  V30 5256 C 518.98 -3.02382 -1.69606 0
M  V30 5257 C 518.041 -4.13612 -1.14993 0
M  V30 5258 C 517.274 -4.84407 -2.24022 0
M  V30 5259 O 517.497 -4.54716 -3.44368 0
M  V30 5260 O 516.431 -5.71312 -1.89436 0
M  V30 5261 H 520.257 -3.03662 0.048066 0
M  V30 5262 H 517.842 -1.49133 0.0893289 0
M  V30 5263 H 519.724 -3.48941 -2.36259 0
M  V30 5264 H 518.399 -2.29628 -2.28151 0
M  V30 5265 H 517.306 -3.71402 -0.448484 0
M  V30 5266 H 518.639 -4.8841 -0.609608 0
M  V30 5267 N 520.291 -0.0518155 -1.57515 0
M  V30 5268 C 521.516 0.634896 -1.97443 0
M  V30 5269 C 521.941 1.63546 -0.929207 0
M  V30 5270 O 521.299 1.80981 0.107484 0
M  V30 5271 C 521.347 1.29765 -3.36442 0
M  V30 5272 O 520.451 2.41333 -3.34413 0
M  V30 5273 H 519.792 0.164994 -0.643174 0
M  V30 5274 H 522.322 -0.120407 -2.04245 0
M  V30 5275 H 522.332 1.64918 -3.73184 0
M  V30 5276 H 521.007 0.564361 -4.12053 0
M  V30 5277 H 519.584 2.08122 -3.09418 0
M  V30 5278 N 521.769 1.56035 0.221574 0
M  V30 5279 C 523.018 1.78245 0.944016 0
M  V30 5280 C 523.331 0.620371 1.85501 0
M  V30 5281 O 524.537 0.726103 2.6161 0
M  V30 5282 C 522.993 3.15659 1.7288 0
M  V30 5283 C 522.601 4.39591 0.863942 0
M  V30 5284 C 524.345 3.47195 2.44246 0
M  V30 5285 C 522.252 5.6803 1.64607 0
M  V30 5286 H 521.182 0.664547 0.356222 0
M  V30 5287 H 523.833 1.8243 0.197904 0
M  V30 5288 H 522.215 3.0565 2.51781 0
M  V30 5289 H 523.389 4.60655 0.115464 0
M  V30 5290 H 521.704 4.15572 0.262407 0
M  V30 5291 H 524.301 4.40381 3.03263 0
M  V30 5292 H 524.644 2.69693 3.1713 0
M  V30 5293 H 525.177 3.58533 1.72334 0
M  V30 5294 H 521.916 6.48425 0.960507 0
M  V30 5295 H 521.436 5.51027 2.36917 0
M  V30 5296 H 523.115 6.08203 2.20675 0
M  V30 5297 N 523.247 -0.488276 1.49845 0
M  V30 5298 C 524.194 -1.58836 1.67451 0
M  V30 5299 C 525.164 -1.57886 0.515857 0
M  V30 5300 O 526.349 -1.75679 0.744403 0
M  V30 5301 C 523.489 -2.96915 1.75885 0
M  V30 5302 C 522.602 -3.07784 3.03138 0
M  V30 5303 C 521.737 -4.36673 3.02473 0
M  V30 5304 C 520.776 -4.41222 4.24252 0
M  V30 5305 N 519.913 -5.61557 4.21424 0
M  V30 5306 H 524.753 -1.43131 2.61376 0
M  V30 5307 H 522.29 -0.696186 1.29583 0
M  V30 5308 H 524.248 -3.76965 1.78755 0
M  V30 5309 H 522.878 -3.11295 0.85414 0
M  V30 5310 H 521.93 -2.20717 3.09819 0
M  V30 5311 H 523.242 -3.07005 3.93128 0
M  V30 5312 H 522.396 -5.25055 3.03977 0
M  V30 5313 H 521.135 -4.40037 2.10283 0
M  V30 5314 H 520.14 -3.5124 4.22978 0
M  V30 5315 H 521.365 -4.39564 5.17649 0
M  V30 5316 H 519.311 -5.65738 3.32078 0
M  V30 5317 H 519.228 -5.62447 5.05163 0
M  V30 5318 H 520.496 -6.52111 4.2705 0
M  V30 5319 N 524.725 -1.39134 -0.740242 0
M  V30 5320 C 525.688 -1.37217 -1.83587 0
M  V30 5321 C 526.688 -0.270221 -1.58513 0
M  V30 5322 O 527.878 -0.527843 -1.6601 0
M  V30 5323 C 525.01 -1.13959 -3.21288 0
M  V30 5324 H 526.203 -2.34705 -1.86691 0
M  V30 5325 H 523.756 -1.24622 -0.94335 0
M  V30 5326 H 524.491 -0.17131 -3.23847 0
M  V30 5327 H 524.276 -1.93754 -3.40884 0
M  V30 5328 H 525.766 -1.15346 -4.01354 0
M  V30 5329 N 526.204 0.969867 -1.24223 0
M  V30 5330 C 527.444 1.72754 -1.0925 0
M  V30 5331 C 527.808 1.88541 0.362787 0
M  V30 5332 O 529.009 2.61217 0.633969 0
M  V30 5333 C 527.28 3.08204 -1.80957 0
M  V30 5334 S 528.839 3.99418 -1.81688 0
M  V30 5335 H 525.657 0.593981 -0.390778 0
M  V30 5336 H 528.259 1.15792 -1.5752 0
M  V30 5337 H 526.963 2.94372 -2.85961 0
M  V30 5338 H 526.494 3.70232 -1.33012 0
M  V30 5339 H 528.509 4.8828 -0.883001 0
M  V30 5340 N 527.682 1.05563 1.17022 0
M  V30 5341 C 528.629 0.659893 2.21165 0
M  V30 5342 C 529.599 -0.339813 1.62587 0
M  V30 5343 O 530.784 -0.230378 1.89404 0
M  V30 5344 C 527.924 0.0447297 3.45071 0
M  V30 5345 C 527.037 1.09372 4.17926 0
M  V30 5346 C 526.172 0.445481 5.29329 0
M  V30 5347 C 525.211 1.47852 5.93975 0
M  V30 5348 N 524.348 0.854172 6.96885 0
M  V30 5349 H 529.188 1.55243 2.54369 0
M  V30 5350 H 526.725 0.776336 1.24946 0
M  V30 5351 H 528.683 -0.329404 4.15898 0
M  V30 5352 H 527.313 -0.811244 3.1244 0
M  V30 5353 H 526.365 1.58564 3.45777 0
M  V30 5354 H 527.677 1.87773 4.62107 0
M  V30 5355 H 526.831 0.0179688 6.06697 0
M  V30 5356 H 525.57 -0.370481 4.86291 0
M  V30 5357 H 524.575 1.91601 5.15334 0
M  V30 5358 H 525.8 2.29645 6.39093 0
M  V30 5359 H 523.746 0.0587882 6.55974 0
M  V30 5360 H 523.663 1.57567 7.39397 0
M  V30 5361 H 524.931 0.451559 7.78191 0
M  V30 5362 N 529.16 -1.33526 0.837174 0
M  V30 5363 C 530.093 -2.27192 0.214233 0
M  V30 5364 C 531.071 -1.49575 -0.637657 0
M  V30 5365 O 532.255 -1.78753 -0.598291 0
M  V30 5366 C 529.382 -3.31401 -0.699367 0
M  V30 5367 C 528.428 -4.26431 0.0768429 0
M  V30 5368 S 529.261 -5.15954 1.4336 0
M  V30 5369 C 530.417 -6.23692 0.525251 0
M  V30 5370 H 530.65 -2.79679 1.00831 0
M  V30 5371 H 528.183 -1.4079 0.633834 0
M  V30 5372 H 530.141 -3.91924 -1.22088 0
M  V30 5373 H 528.802 -2.77732 -1.46709 0
M  V30 5374 H 527.995 -5.00193 -0.618268 0
M  V30 5375 H 527.597 -3.70235 0.529364 0
M  V30 5376 H 529.889 -6.76931 -0.277575 0
M  V30 5377 H 530.832 -6.97283 1.23299 0
M  V30 5378 H 531.24 -5.64398 0.107351 0
M  V30 5379 N 530.638 -0.59345 -1.46 0
M  V30 5380 C 531.601 0.123538 -2.28867 0
M  V30 5381 C 532.601 0.808628 -1.38989 0
M  V30 5382 O 533.791 0.658945 -1.61256 0
M  V30 5383 C 530.923 1.1847 -3.19653 0
M  V30 5384 H 532.116 -0.604843 -2.93737 0
M  V30 5385 H 529.669 -0.351875 -1.52288 0
M  V30 5386 H 530.404 1.94431 -2.59552 0
M  V30 5387 H 530.189 0.69783 -3.8584 0
M  V30 5388 H 531.679 1.68726 -3.81997 0
M  V30 5389 N 532.116 1.54067 -0.331816 0
M  V30 5390 C 533.048 2.22139 0.564538 0
M  V30 5391 C 534.061 1.22408 1.07332 0
M  V30 5392 O 535.25 1.4883 0.985481 0
M  V30 5393 C 532.35 2.87876 1.78831 0
M  V30 5394 C 531.523 4.13817 1.41682 0
M  V30 5395 C 530.582 4.63072 2.49901 0
M  V30 5396 O 529.608 5.27562 2.13699 0
M  V30 5397 N 530.81 4.38001 3.80967 0
M  V30 5398 H 533.575 2.99694 -0.0183736 0
M  V30 5399 H 531.136 1.61153 -0.155396 0
M  V30 5400 H 533.128 3.17747 2.50637 0
M  V30 5401 H 531.698 2.13977 2.27887 0
M  V30 5402 H 530.918 3.9062 0.530044 0
M  V30 5403 H 532.206 4.95762 1.14443 0
M  V30 5404 H 531.604 3.864 4.13173 0
M  V30 5405 H 530.161 4.72507 4.48977 0
M  V30 5406 N 533.594 0.0601682 1.57485 0
M  V30 5407 C 534.504 -0.926121 2.15546 0
M  V30 5408 C 535.52 -1.33532 1.11558 0
M  V30 5409 O 536.696 -1.4104 1.4377 0
M  V30 5410 C 533.761 -2.17952 2.69625 0
M  V30 5411 C 532.822 -1.82783 3.88444 0
M  V30 5412 C 532.055 -3.02148 4.39935 0
M  V30 5413 O 532.278 -4.15803 3.90466 0
M  V30 5414 O 531.212 -2.82639 5.31412 0
M  V30 5415 H 535.038 -0.462289 3.00161 0
M  V30 5416 H 532.623 -0.162246 1.48516 0
M  V30 5417 H 534.505 -2.91474 3.04337 0
M  V30 5418 H 533.18 -2.63456 1.88077 0
M  V30 5419 H 532.087 -1.06549 3.58606 0
M  V30 5420 H 533.42 -1.42072 4.7125 0
M  V30 5421 N 535.072 -1.5615 -0.213296 0
M  V30 5422 C 536.035 -1.92249 -1.24792 0
M  V30 5423 C 537.035 -0.801828 -1.39382 0
M  V30 5424 O 538.225 -1.06948 -1.37506 0
M  V30 5425 C 535.357 -2.18056 -2.62039 0
M  V30 5426 H 536.55 -2.84793 -0.939845 0
M  V30 5427 H 534.103 -1.49559 -0.454062 0
M  V30 5428 H 534.838 -1.2809 -2.97932 0
M  V30 5429 H 534.623 -2.99703 -2.52825 0
M  V30 5430 H 536.113 -2.47051 -3.36683 0
M  V30 5431 N 536.55 0.480323 -1.50102 0
M  V30 5432 C 537.798 1.23063 -1.60312 0
M  V30 5433 C 538.119 1.92659 -0.301226 0
M  V30 5434 O 537.389 1.83691 0.680753 0
M  V30 5435 H 535.969 0.457231 -0.590719 0
M  V30 5436 H 538.631 0.554893 -1.86834 0
M  V30 5437 H 537.727 1.9835 -2.40964 0
M  V30 5438 N 538.028 1.39524 0.732853 0
M  V30 5439 C 539.274 1.38072 1.49358 0
M  V30 5440 C 539.629 -0.0227943 1.92386 0
M  V30 5441 O 538.922 -0.98976 1.64056 0
M  V30 5442 C 539.116 2.28916 2.74468 0
M  V30 5443 C 538.945 3.7796 2.43673 0
M  V30 5444 C 537.715 4.46874 2.35863 0
M  V30 5445 C 539.913 4.69886 2.09074 0
M  V30 5446 N 537.895 5.81242 1.97561 0
M  V30 5447 C 539.266 5.9292 1.81234 0
M  V30 5448 C 541.321 4.57887 1.95561 0
M  V30 5449 C 540.024 7.05297 1.41242 0
M  V30 5450 C 542.05 5.70187 1.56972 0
M  V30 5451 C 541.412 6.92297 1.30018 0
M  V30 5452 H 537.511 0.56051 0.5453 0
M  V30 5453 H 540.095 1.75093 0.85151 0
M  V30 5454 H 538.266 1.9405 3.36451 0
M  V30 5455 H 539.998 2.18441 3.40684 0
M  V30 5456 H 536.753 4.00341 2.5303 0
M  V30 5457 H 537.177 6.52356 1.80997 0
M  V30 5458 H 541.819 3.64014 2.15067 0
M  V30 5459 H 539.537 7.99069 1.20476 0
M  V30 5460 H 543.123 5.62892 1.47119 0
M  V30 5461 H 542.003 7.7772 1.00605 0
M  V30 5462 N 539.506 -0.963266 1.24736 0
M  V30 5463 C 540.754 -1.70343 1.08755 0
M  V30 5464 C 541.075 -1.91387 -0.373619 0
M  V30 5465 O 540.345 -1.4948 -1.2662 0
M  V30 5466 H 538.925 -0.631224 0.399456 0
M  V30 5467 H 541.587 -1.15859 1.56725 0
M  V30 5468 H 540.683 -2.68616 1.58909 0
M  V30 5469 N 540.985 -1.06182 -1.16461 0
M  V30 5470 C 542.231 -0.779015 -1.87241 0
M  V30 5471 C 542.564 0.692715 -1.81425 0
M  V30 5472 O 541.839 1.5074 -1.22913 0
M  V30 5473 C 542.122 -1.2728 -3.36856 0
M  V30 5474 C 541.975 -2.80821 -3.51368 0
M  V30 5475 C 543.294 -0.879799 -4.31216 0
M  V30 5476 H 540.413 -0.284464 -0.679889 0
M  V30 5477 H 543.055 -1.31755 -1.36896 0
M  V30 5478 H 541.205 -0.814673 -3.79862 0
M  V30 5479 H 542.877 -3.34833 -3.17308 0
M  V30 5480 H 541.12 -3.19606 -2.93316 0
M  V30 5481 H 541.791 -3.10435 -4.56436 0
M  V30 5482 H 544.267 -1.27436 -3.96105 0
M  V30 5483 H 543.143 -1.25278 -5.34412 0
M  V30 5484 H 543.404 0.215372 -4.41575 0
M  V30 5485 N 542.463 1.3308 -0.844243 0
M  V30 5486 C 543.396 2.27075 -0.226279 0
M  V30 5487 C 544.374 1.49911 0.629716 0
M  V30 5488 O 545.558 1.79068 0.588803 0
M  V30 5489 C 542.685 3.31767 0.681782 0
M  V30 5490 C 541.731 4.26384 -0.0994565 0
M  V30 5491 S 542.564 5.15186 -1.46094 0
M  V30 5492 C 543.72 6.23405 -0.558319 0
M  V30 5493 H 543.953 2.79141 -1.02312 0
M  V30 5494 H 541.486 1.40452 -0.641292 0
M  V30 5495 H 543.444 3.92566 1.20008 0
M  V30 5496 H 542.105 2.78507 1.45234 0
M  V30 5497 H 541.298 5.00514 0.591733 0
M  V30 5498 H 540.9 3.69949 -0.548991 0
M  V30 5499 H 543.192 6.77069 0.241672 0
M  V30 5500 H 544.135 6.96619 -1.26995 0
M  V30 5501 H 544.543 5.64333 -0.13728 0
M  V30 5502 N 543.941 0.601185 1.45683 0
M  V30 5503 C 545.187 0.0940202 2.02582 0
M  V30 5504 C 545.52 -1.26972 1.46941 0
M  V30 5505 O 544.795 -1.83613 0.641612 0
M  V30 5506 C 545.078 0.0481715 3.60068 0
M  V30 5507 C 544.931 1.44212 4.26055 0
M  V30 5508 C 546.25 -0.642975 4.35378 0
M  V30 5509 H 543.369 0.0356404 0.736138 0
M  V30 5510 H 546.011 0.771929 1.73612 0
M  V30 5511 H 544.161 -0.529128 3.8488 0
M  V30 5512 H 545.833 2.06601 4.12449 0
M  V30 5513 H 544.076 2.00465 3.84703 0
M  V30 5514 H 544.747 1.36234 5.34925 0
M  V30 5515 H 547.223 -0.152351 4.15821 0
M  V30 5516 H 546.099 -0.644141 5.45107 0
M  V30 5517 H 546.36 -1.70785 4.0778 0
M  V30 5518 N 545.419 -1.53889 0.339982 0
M  V30 5519 C 546.644 -2.05741 -0.261798 0
M  V30 5520 C 547.069 -1.21354 -1.43718 0
M  V30 5521 O 546.427 -0.22645 -1.7988 0
M  V30 5522 C 546.475 -3.54542 -0.658228 0
M  V30 5523 O 545.579 -3.7302 -1.75869 0
M  V30 5524 H 544.92 -0.662529 -0.0441672 0
M  V30 5525 H 547.45 -1.98568 0.493161 0
M  V30 5526 H 547.46 -3.9711 -0.936368 0
M  V30 5527 H 546.135 -4.15412 0.201358 0
M  V30 5528 H 544.712 -3.42355 -1.47809 0
M  V30 5529 N 546.897 -0.0685191 -1.57451 0
M  V30 5530 C 547.847 0.909895 -2.09057 0
M  V30 5531 C 548.831 1.26088 -0.999528 0
M  V30 5532 O 550.023 1.24041 -1.26265 0
M  V30 5533 C 547.152 2.17863 -2.65312 0
M  V30 5534 C 546.238 1.85427 -3.81415 0
M  V30 5535 N 546.629 1.23426 -4.9051 0
M  V30 5536 C 544.927 2.15196 -3.90649 0
M  V30 5537 C 545.628 1.09008 -5.71395 0
M  V30 5538 N 544.604 1.59871 -5.1956 0
M  V30 5539 H 548.406 0.426145 -2.90794 0
M  V30 5540 H 545.92 0.135462 -1.61834 0
M  V30 5541 H 547.917 2.88872 -3.00597 0
M  V30 5542 H 546.577 2.66829 -1.85021 0
M  V30 5543 H 547.588 0.904305 -5.09944 0
M  V30 5544 H 544.265 2.66562 -3.21327 0
M  V30 5545 H 545.655 0.607305 -6.6915 0
M  V30 5546 N 548.375 1.56261 0.205012 0
M  V30 5547 C 549.791 1.49623 0.555433 0
M  V30 5548 C 549.991 0.766719 1.86343 0
M  V30 5549 O 549.047 0.313158 2.50551 0
M  V30 5550 C 550.36 2.94253 0.619347 0
M  V30 5551 C 551.908 3.04868 0.708855 0
M  V30 5552 C 552.383 4.50888 0.803969 0
M  V30 5553 N 553.874 4.54999 0.867758 0
M  V30 5554 C 554.609 5.65284 0.96135 0
M  V30 5555 N 554.105 6.85282 1.01786 0
M  V30 5556 N 555.898 5.53174 0.997771 0
M  V30 5557 H 548.049 2.0211 -0.653094 0
M  V30 5558 H 550.312 0.919333 -0.231366 0
M  V30 5559 H 550.018 3.50643 -0.272458 0
M  V30 5560 H 549.892 3.47063 1.47741 0
M  V30 5561 H 552.279 2.48532 1.5911 0
M  V30 5562 H 552.36 2.55199 -0.175205 0
M  V30 5563 H 552.004 5.07846 -0.0738798 0
M  V30 5564 H 551.934 4.98279 1.70369 0
M  V30 5565 H 554.425 3.68588 0.833735 0
M  V30 5566 H 554.738 7.65081 1.08951 0
M  V30 5567 H 553.083 6.8796 0.986706 0
M  V30 5568 H 556.274 4.5835 0.950392 0
M  V30 5569 H 556.447 6.39151 1.06725 0
M  V30 5570 N 549.853 -0.472356 1.50355 0
M  V30 5571 C 551.078 -1.25251 1.65309 0
M  V30 5572 C 551.503 -1.85081 0.335643 0
M  V30 5573 O 550.861 -1.67227 -0.700335 0
M  V30 5574 C 550.909 -2.3379 2.74544 0
M  V30 5575 O 550.013 -3.38401 2.35709 0
M  V30 5576 H 549.354 -0.368539 0.552336 0
M  V30 5577 H 551.884 -0.562271 1.96722 0
M  V30 5578 H 551.894 -2.79121 2.97583 0
M  V30 5579 H 550.569 -1.89614 3.70161 0
M  V30 5580 H 549.146 -2.9879 2.23112 0
M  V30 5581 N 551.331 -1.39911 -0.725443 0
M  V30 5582 C 552.579 -1.37382 -1.48224 0
M  V30 5583 C 552.9 0.0264107 -1.94982 0
M  V30 5584 O 552.17 0.979408 -1.6966 0
M  V30 5585 H 550.75 -0.505596 -0.549892 0
M  V30 5586 H 553.412 -1.7487 -0.860608 0
M  V30 5587 H 552.508 -2.04254 -2.3598 0
M  V30 5588 N 552.809 0.956637 -1.25245 0
M  V30 5589 C 553.719 2.0868 -1.0719 0
M  V30 5590 C 554.735 1.73997 -0.00959074 0
M  V30 5591 O 555.911 2.00301 -0.210104 0
M  V30 5592 C 552.976 3.39754 -0.690526 0
M  V30 5593 C 552.037 3.88316 -1.83055 0
M  V30 5594 C 551.27 5.13134 -1.46728 0
M  V30 5595 O 551.493 5.6925 -0.362029 0
M  V30 5596 O 550.427 5.56356 -2.29677 0
M  V30 5597 H 554.253 2.26813 -2.01965 0
M  V30 5598 H 551.838 1.07098 -1.04165 0
M  V30 5599 H 553.72 4.18543 -0.489871 0
M  V30 5600 H 552.395 3.22896 0.227981 0
M  V30 5601 H 551.302 3.1054 -2.08604 0
M  V30 5602 H 552.635 4.09669 -2.72822 0
M  V30 5603 N 554.287 1.06798 1.15896 0
M  V30 5604 C 555.515 0.808694 1.90441 0
M  V30 5605 C 555.93 -0.637506 1.77711 0
M  V30 5606 O 555.287 -1.43684 1.12522 0
M  V30 5607 C 555.338 1.20068 3.40978 0
M  V30 5608 O 555.059 2.59013 3.53333 0
M  V30 5609 C 556.56 0.96987 4.3256 0
M  V30 5610 H 553.78 0.292809 0.603742 0
M  V30 5611 H 556.324 1.42296 1.46874 0
M  V30 5612 H 554.479 0.630842 3.82229 0
M  V30 5613 H 554.893 2.7485 4.46719 0
M  V30 5614 H 556.367 1.29371 5.36626 0
M  V30 5615 H 556.844 -0.0941209 4.39099 0
M  V30 5616 H 557.45 1.52433 3.97044 0
M  V30 5617 N 555.766 -1.3263 0.851289 0
M  V30 5618 C 556.676 -2.32722 0.296268 0
M  V30 5619 C 557.692 -1.63901 -0.584162 0
M  V30 5620 O 558.868 -1.95465 -0.485334 0
M  V30 5621 C 555.933 -3.42942 -0.509103 0
M  V30 5622 C 554.994 -4.2746 0.397069 0
M  V30 5623 C 554.227 -5.32416 -0.36996 0
M  V30 5624 O 554.45 -5.47491 -1.6003 0
M  V30 5625 O 553.384 -6.01327 0.262493 0
M  V30 5626 H 557.21 -2.82078 1.12543 0
M  V30 5627 H 554.795 -1.36194 0.614135 0
M  V30 5628 H 556.677 -4.1017 -0.96634 0
M  V30 5629 H 555.352 -2.95781 -1.31512 0
M  V30 5630 H 554.259 -3.63053 0.902411 0
M  V30 5631 H 555.592 -4.78136 1.16818 0
M  V30 5632 N 557.244 -0.608902 -1.45362 0
M  V30 5633 C 558.521 -0.0365378 -1.95566 0
M  V30 5634 C 558.901 1.43169 -1.55131 0
M  V30 5635 O 558.249 2.1349 -0.814513 0
M  V30 5636 C 558.459 -0.236026 -3.48201 0
M  V30 5637 C 559.807 -0.117518 -4.24437 0
M  V30 5638 O 560.831 -0.166217 -3.55812 0
M  V30 5639 O 559.69 -0.00372127 -5.465 0
M  V30 5640 H 556.784 0.0349874 -0.82626 0
M  V30 5641 H 559.33 -0.679055 -1.55521 0
M  V30 5642 H 558.102 -1.25569 -3.70605 0
M  V30 5643 H 557.725 0.441691 -3.95139 0
M  V30 5644 N 558.722 1.53707 -0.348139 0
M  V30 5645 C 559.67 2.26671 0.521808 0
M  V30 5646 C 560.664 1.28988 1.09811 0
M  V30 5647 O 561.87 1.4668 1.04332 0
M  V30 5648 H 558.245 0.728387 0.186968 0
M  V30 5649 H 560.216 2.98176 -0.115563 0
M  V30 5650 C 558.965 3.05591 1.6586 0
M  V30 5651 H 558.288 3.80589 1.22443 0
M  V30 5652 H 559.728 3.59851 2.24239 0
M  V30 5653 C 558.187 2.15366 2.59073 0
M  V30 5654 O 558.717 1.7528 3.61441 0
M  V30 5655 N 556.923 1.80352 2.27863 0
M  V30 5656 H 556.47 2.13149 1.44656 0
M  V30 5657 H 556.428 1.20268 2.90488 0
M  V30 5658 N 560.2 0.0768682 1.57412 0
M  V30 5659 C 561.447 -0.591085 1.93681 0
M  V30 5660 C 561.775 -1.69311 0.957286 0
M  V30 5661 O 561.03 -1.95682 -0.0262428 0
M  V30 5662 C 561.329 -1.20268 3.36557 0
M  V30 5663 C 560.995 -0.226286 4.50332 0
M  V30 5664 C 559.657 0.0423142 4.81181 0
M  V30 5665 C 562.009 0.441415 5.19327 0
M  V30 5666 C 559.337 0.985616 5.78362 0
M  V30 5667 C 561.689 1.37307 6.17519 0
M  V30 5668 C 560.353 1.65009 6.46783 0
M  V30 5669 H 559.623 -0.216293 0.70873 0
M  V30 5670 H 562.27 0.148824 1.90921 0
M  V30 5671 H 560.575 -2.01844 3.35807 0
M  V30 5672 H 562.272 -1.72688 3.61911 0
M  V30 5673 H 558.862 -0.445821 4.26275 0
M  V30 5674 H 563.046 0.247023 4.95685 0
M  V30 5675 H 558.302 1.20743 5.99359 0
M  V30 5676 H 562.476 1.89637 6.70083 0
M  V30 5677 H 560.103 2.38263 7.21897 0
M  V30 5678 N 561.678 -1.56367 -0.196722 0
M  V30 5679 C 562.927 -1.79724 -0.915539 0
M  V30 5680 C 563.24 -0.649804 -1.84491 0
M  V30 5681 O 564.446 -0.767631 -2.60422 0
M  V30 5682 C 562.902 -3.18369 -1.67836 0
M  V30 5683 C 562.51 -4.4091 -0.793897 0
M  V30 5684 C 564.254 -3.51037 -2.38691 0
M  V30 5685 C 562.161 -5.70577 -1.55549 0
M  V30 5686 H 561.091 -0.67013 -0.345604 0
M  V30 5687 H 563.742 -1.82721 -0.168856 0
M  V30 5688 H 562.124 -3.09617 -2.46887 0
M  V30 5689 H 563.298 -4.60781 -0.042163 0
M  V30 5690 H 561.613 -4.15937 -0.19626 0
M  V30 5691 H 564.21 -4.4515 -2.96219 0
M  V30 5692 H 564.553 -2.74704 -3.12799 0
M  V30 5693 H 565.086 -3.61229 -1.66608 0
M  V30 5694 H 561.825 -6.49871 -0.857226 0
M  V30 5695 H 561.345 -5.54726 -2.2812 0
M  V30 5696 H 563.024 -6.11637 -2.10971 0
M  V30 5697 N 563.156 0.464375 -1.50603 0
M  V30 5698 C 564.119 1.54393 -1.69397 0
M  V30 5699 C 565.119 1.50566 -0.564504 0
M  V30 5700 O 566.309 1.53066 -0.831645 0
M  V30 5701 C 563.441 2.9401 -1.72543 0
M  V30 5702 H 564.634 1.39044 -2.65719 0
M  V30 5703 H 562.187 0.69122 -1.40185 0
M  V30 5704 H 562.922 3.14795 -0.77938 0
M  V30 5705 H 562.707 2.98195 -2.54602 0
M  V30 5706 H 564.197 3.72375 -1.89015 0
M  V30 5707 N 564.634 1.40294 0.718013 0
M  V30 5708 C 565.911 1.2894 1.47084 0
M  V30 5709 C 566.291 -0.0933625 2.10893 0
M  V30 5710 O 565.639 -1.10598 1.99951 0
M  V30 5711 C 565.849 2.4264 2.50852 0
M  V30 5712 C 567.197 2.8276 3.16752 0
M  V30 5713 O 568.221 2.42215 2.61171 0
M  V30 5714 O 567.08 3.528 4.17366 0
M  V30 5715 H 564.174 0.506236 0.653952 0
M  V30 5716 H 566.72 1.52208 0.750394 0
M  V30 5717 H 565.492 3.35009 2.022 0
M  V30 5718 H 565.115 2.21129 3.30435 0
M  V30 5719 N 566.112 -0.949982 1.2575 0
M  V30 5720 C 567.042 -2.06483 1.09028 0
M  V30 5721 C 568.023 -1.701 -0.00201532 0
M  V30 5722 O 569.208 -1.93469 0.168383 0
M  V30 5723 C 566.338 -3.39899 0.71316 0
M  V30 5724 C 565.292 -3.90309 1.75621 0
M  V30 5725 C 564.618 -5.20274 1.23365 0
M  V30 5726 C 565.918 -4.16169 3.15596 0
M  V30 5727 H 567.612 -2.20731 2.02283 0
M  V30 5728 H 565.158 -1.06066 0.973964 0
M  V30 5729 H 567.111 -4.17346 0.58309 0
M  V30 5730 H 565.835 -3.25602 -0.255091 0
M  V30 5731 H 564.494 -3.15035 1.8748 0
M  V30 5732 H 564.142 -5.02351 0.255491 0
M  V30 5733 H 563.842 -5.54971 1.93082 0
M  V30 5734 H 565.366 -6.00314 1.11607 0
M  V30 5735 H 566.78 -4.84259 3.06864 0
M  V30 5736 H 565.177 -4.62131 3.82825 0
M  V30 5737 H 566.247 -3.22273 3.6231 0
M  V30 5738 N 567.59 -1.07411 -1.15328 0
M  V30 5739 C 568.836 -0.798831 -1.86404 0
M  V30 5740 C 569.169 0.673433 -1.8215 0
M  V30 5741 O 568.444 1.49428 -1.24505 0
M  V30 5742 C 568.727 -1.30846 -3.35487 0
M  V30 5743 C 568.58 -2.84532 -3.4837 0
M  V30 5744 C 569.899 -0.925486 -4.30259 0
M  V30 5745 H 567.018 -0.291659 -0.676834 0
M  V30 5746 H 569.66 -1.332 -1.35491 0
M  V30 5747 H 567.81 -0.854916 -3.78977 0
M  V30 5748 H 569.482 -3.3818 -3.13739 0
M  V30 5749 H 567.725 -3.22699 -2.8991 0
M  V30 5750 H 568.396 -3.15259 -4.53118 0
M  V30 5751 H 570.872 -1.3163 -3.94731 0
M  V30 5752 H 569.748 -1.3094 -5.33053 0
M  V30 5753 H 570.009 0.168525 -4.41779 0
M  V30 5754 N 569.068 1.32177 -0.85831 0
M  V30 5755 C 570.314 1.97417 -0.46417 0
M  V30 5756 C 570.647 1.67746 0.978514 0
M  V30 5757 O 569.922 0.967654 1.68721 0
M  V30 5758 C 570.205 3.53069 -0.708094 0
M  V30 5759 C 570.058 3.92357 -2.19946 0
M  V30 5760 C 571.377 4.39783 -0.166881 0
M  V30 5761 H 568.496 0.717097 -0.17012 0
M  V30 5762 H 571.138 1.56499 -1.07741 0
M  V30 5763 H 569.288 3.88054 -0.186128 0
M  V30 5764 H 570.96 3.67533 -2.78779 0
M  V30 5765 H 569.203 3.41384 -2.67656 0
M  V30 5766 H 569.874 5.00841 -2.32082 0
M  V30 5767 H 572.35 4.11556 -0.613285 0
M  V30 5768 H 571.226 5.47671 -0.367093 0
M  V30 5769 H 571.487 4.32196 0.930559 0
M  V30 5770 N 570.547 0.616602 1.45037 0
M  V30 5771 C 571.795 0.115103 2.01772 0
M  V30 5772 C 572.116 -1.2622 1.48639 0
M  V30 5773 O 571.386 -1.83563 0.684199 0
M  V30 5774 H 569.966 0.0395607 0.745952 0
M  V30 5775 H 572.628 0.800032 1.77723 0
M  V30 5776 H 571.724 0.0717274 3.12018 0
M  V30 5777 N 572.025 -1.5352 0.356285 0
M  V30 5778 C 572.955 -2.28372 -0.486661 0
M  V30 5779 C 573.936 -1.30432 -1.09185 0
M  V30 5780 O 575.121 -1.59291 -1.11085 0
M  V30 5781 C 572.251 -3.06604 -1.63129 0
M  V30 5782 C 571.205 -4.12154 -1.15381 0
M  V30 5783 C 570.531 -4.78415 -2.38796 0
M  V30 5784 C 571.831 -5.21724 -0.245179 0
M  V30 5785 H 573.525 -2.99083 0.137797 0
M  V30 5786 H 571.071 -1.43841 0.0677134 0
M  V30 5787 H 573.024 -3.57712 -2.22755 0
M  V30 5788 H 571.748 -2.33568 -2.28284 0
M  V30 5789 H 570.407 -3.61978 -0.580294 0
M  V30 5790 H 570.055 -4.01959 -3.02387 0
M  V30 5791 H 569.755 -5.49734 -2.07524 0
M  V30 5792 H 571.279 -5.32313 -2.99125 0
M  V30 5793 H 572.693 -5.68391 -0.748646 0
M  V30 5794 H 571.09 -6.00095 -0.0237608 0
M  V30 5795 H 572.16 -4.79596 0.715229 0
M  V30 5796 N 573.503 -0.0852151 -1.57369 0
M  V30 5797 C 574.919 0.271436 -1.57275 0
M  V30 5798 C 575.119 1.69109 -1.09565 0
M  V30 5799 O 574.175 2.40549 -0.767611 0
M  V30 5800 C 575.488 0.0688638 -3.00621 0
M  V30 5801 C 577.036 0.137373 -3.12698 0
M  V30 5802 C 577.511 -0.0370832 -4.57985 0
M  V30 5803 N 579.002 0.0180794 -4.63196 0
M  V30 5804 C 579.737 -0.0922953 -5.73326 0
M  V30 5805 N 579.233 -0.256948 -6.92323 0
M  V30 5806 N 581.026 -0.0342702 -5.6209 0
M  V30 5807 H 573.177 -1.01288 -1.86693 0
M  V30 5808 H 575.44 -0.396138 -0.861266 0
M  V30 5809 H 575.146 -0.911277 -3.39689 0
M  V30 5810 H 575.02 0.815442 -3.6828 0
M  V30 5811 H 577.407 1.10801 -2.73509 0
M  V30 5812 H 577.488 -0.640532 -2.47651 0
M  V30 5813 H 577.132 -1.00455 -4.97867 0
M  V30 5814 H 577.062 0.760392 -5.21081 0
M  V30 5815 H 579.553 0.143202 -3.77629 0
M  V30 5816 H 579.866 -0.332949 -7.72082 0
M  V30 5817 H 578.211 -0.292487 -6.94384 0
M  V30 5818 H 581.402 0.0931605 -4.68007 0
M  V30 5819 H 581.575 -0.12374 -6.47882 0
M  V30 5820 N 574.981 1.5647 0.188427 0
M  V30 5821 C 576.209 1.85131 0.923803 0
M  V30 5822 C 576.624 0.668537 1.76567 0
M  V30 5823 O 575.981 -0.362662 1.7886 0
M  V30 5824 C 576.032 3.12661 1.81453 0
M  V30 5825 O 575.753 4.26378 1.00665 0
M  V30 5826 C 577.254 3.54548 2.66103 0
M  V30 5827 H 574.474 0.614624 0.269218 0
M  V30 5828 H 577.018 2.03581 0.193671 0
M  V30 5829 H 575.173 2.96088 2.49821 0
M  V30 5830 H 575.587 4.99041 1.61425 0
M  V30 5831 H 577.061 4.4673 3.24247 0
M  V30 5832 H 577.538 2.77853 3.40139 0
M  V30 5833 H 578.144 3.73674 2.03096 0
M  V30 5834 N 576.459 -0.456382 1.50847 0
M  V30 5835 C 577.707 -1.20497 1.62249 0
M  V30 5836 C 578.028 -1.92156 0.331839 0
M  V30 5837 O 577.298 -1.84751 -0.651443 0
M  V30 5838 H 575.878 -0.447775 0.597918 0
M  V30 5839 H 578.54 -0.525099 1.87693 0
M  V30 5840 H 577.636 -1.94492 2.44089 0
M  V30 5841 N 577.937 -1.40673 -0.710563 0
M  V30 5842 C 578.869 -1.37256 -1.83558 0
M  V30 5843 C 579.882 -0.277133 -1.60424 0
M  V30 5844 O 581.071 -0.537831 -1.70205 0
M  V30 5845 C 578.171 -1.1144 -3.20054 0
M  V30 5846 C 577.344 -2.32734 -3.70342 0
M  V30 5847 C 576.403 -2.03002 -4.85465 0
M  V30 5848 O 575.429 -2.75912 -4.97857 0
M  V30 5849 N 576.631 -1.01105 -5.71627 0
M  V30 5850 H 579.396 -2.34215 -1.86985 0
M  V30 5851 H 576.957 -1.35091 -0.892301 0
M  V30 5852 H 578.949 -0.895265 -3.94673 0
M  V30 5853 H 577.519 -0.231307 -3.11743 0
M  V30 5854 H 576.739 -2.70446 -2.86798 0
M  V30 5855 H 578.027 -3.13584 -4.00678 0
M  V30 5856 H 577.425 -0.407303 -5.64232 0
M  V30 5857 H 575.982 -0.85182 -6.4621 0
M  V30 5858 N 579.415 0.9433 -1.26252 0
M  V30 5859 C 580.664 1.68369 -1.11062 0
M  V30 5860 C 580.977 1.92514 0.346104 0
M  V30 5861 O 582.183 2.64358 0.618646 0
M  V30 5862 C 580.639 3.03171 -1.93946 0
M  V30 5863 C 580.247 2.86782 -3.4418 0
M  V30 5864 C 581.991 3.80916 -1.87359 0
M  V30 5865 C 579.898 4.17044 -4.19319 0
M  V30 5866 H 578.828 0.631469 -0.412023 0
M  V30 5867 H 581.479 1.04922 -1.50544 0
M  V30 5868 H 579.861 3.67587 -1.47296 0
M  V30 5869 H 581.035 2.31229 -3.98585 0
M  V30 5870 H 579.35 2.22482 -3.51981 0
M  V30 5871 H 581.947 4.77417 -2.40784 0
M  V30 5872 H 582.29 4.07658 -0.843857 0
M  V30 5873 H 582.823 3.2327 -2.31821 0
M  V30 5874 H 579.562 3.95487 -5.22753 0
M  V30 5875 H 579.082 4.72319 -3.69696 0
M  V30 5876 H 580.761 4.85513 -4.27651 0
M  V30 5877 N 580.893 1.08022 1.14757 0
M  V30 5878 C 581.84 0.706657 2.19716 0
M  V30 5879 C 582.81 -0.30525 1.63271 0
M  V30 5880 O 583.995 -0.19015 1.8985 0
M  V30 5881 C 581.135 0.117914 3.44898 0
M  V30 5882 C 580.248 1.18212 4.15512 0
M  V30 5883 C 579.383 0.557659 5.28265 0
M  V30 5884 C 578.422 1.60418 5.90705 0
M  V30 5885 N 577.559 1.0018 6.94916 0
M  V30 5886 H 582.399 1.60603 2.51019 0
M  V30 5887 H 579.936 0.802664 1.23271 0
M  V30 5888 H 581.894 -0.241112 4.16503 0
M  V30 5889 H 580.524 -0.744788 3.1409 0
M  V30 5890 H 579.576 1.65863 3.42335 0
M  V30 5891 H 580.888 1.97533 4.5802 0
M  V30 5892 H 580.042 0.146654 6.06523 0
M  V30 5893 H 578.781 -0.267249 4.86967 0
M  V30 5894 H 577.786 2.02489 5.11154 0
M  V30 5895 H 579.011 2.43149 6.34078 0
M  V30 5896 H 576.957 0.197917 6.55701 0
M  V30 5897 H 576.874 1.73216 7.35889 0
M  V30 5898 H 578.142 0.616523 7.77058 0
M  V30 5899 N 582.371 -1.3172 0.865308 0
M  V30 5900 C 583.599 -2.01057 0.488251 0
M  V30 5901 C 584.014 -1.64979 -0.918 0
M  V30 5902 O 583.371 -0.876597 -1.60069 0
M  V30 5903 C 583.422 -3.55964 0.630224 0
M  V30 5904 O 583.143 -3.90749 1.98109 0
M  V30 5905 C 584.644 -4.42574 0.253567 0
M  V30 5906 H 581.864 -0.64332 0.190736 0
M  V30 5907 H 584.408 -1.68058 1.16519 0
M  V30 5908 H 582.563 -3.874 0.000895422 0
M  V30 5909 H 582.977 -4.85467 1.9855 0
M  V30 5910 H 584.451 -5.50521 0.403875 0
M  V30 5911 H 584.928 -4.31724 -0.806895 0
M  V30 5912 H 585.534 -4.16547 0.858404 0
M  V30 5913 N 583.85 -0.624285 -1.44708 0
M  V30 5914 C 585.098 -0.125802 -2.01708 0
M  V30 5915 C 585.418 1.2543 -1.49306 0
M  V30 5916 O 584.689 1.83198 -0.693924 0
M  V30 5917 H 583.269 -0.0435161 -0.745731 0
M  V30 5918 H 585.931 -0.809446 -1.77296 0
M  V30 5919 H 585.027 -0.0882734 -3.11975 0
M  V30 5920 N 585.328 1.53329 -0.364422 0
M  V30 5921 C 586.291 2.24323 0.470292 0
M  V30 5922 C 587.291 1.25068 1.01067 0
M  V30 5923 O 588.481 1.49354 0.896605 0
M  V30 5924 C 585.613 2.97908 1.65722 0
M  V30 5925 H 586.806 2.9952 -0.150917 0
M  V30 5926 H 584.359 1.55868 -0.116092 0
M  V30 5927 H 585.094 2.2695 2.31655 0
M  V30 5928 H 584.879 3.70732 1.27671 0
M  V30 5929 H 586.369 3.5188 2.24878 0
M  V30 5930 N 586.806 0.0935595 1.57322 0
M  V30 5931 C 588.217 -0.435807 1.81542 0
M  V30 5932 C 588.568 -1.68263 1.00907 0
M  V30 5933 O 587.693 -2.15087 0.237983 0
M  V30 5934 C 588.288 -0.797436 3.29282 0
M  V30 5935 C 586.847 -1.27155 3.54272 0
M  V30 5936 C 585.994 -0.267455 2.76007 0
M  V30 5937 H 588.945 0.31902 1.5546 0
M  V30 5938 H 588.966 -1.6571 3.42521 0
M  V30 5939 H 588.478 0.110206 3.87943 0
M  V30 5940 H 586.579 -2.19696 3.00939 0
M  V30 5941 H 586.692 -1.23445 4.62923 0
M  V30 5942 H 585.056 -0.749282 2.43429 0
M  V30 5943 H 585.839 0.632839 3.37417 0
M  V30 5944 N 588.284 -1.56567 -0.180126 0
M  V30 5945 C 589.524 -1.83285 -0.904761 0
M  V30 5946 C 589.888 -0.673226 -1.7981 0
M  V30 5947 O 591.089 -0.820645 -2.55967 0
M  V30 5948 C 589.36 -3.15086 -1.68688 0
M  V30 5949 S 590.919 -3.63258 -2.46149 0
M  V30 5950 H 587.737 -0.643114 -0.303193 0
M  V30 5951 H 590.339 -1.94785 -0.167034 0
M  V30 5952 H 589.043 -3.97484 -1.02148 0
M  V30 5953 H 588.574 -3.06504 -2.46615 0
M  V30 5954 H 590.589 -3.29884 -3.70663 0
M  V30 5955 N 589.762 0.448376 -1.51087 0
M  V30 5956 C 591.178 0.783984 -1.39017 0
M  V30 5957 C 591.378 1.96087 -0.463904 0
M  V30 5958 O 590.434 2.52357 0.0850534 0
M  V30 5959 C 591.747 1.07471 -2.80839 0
M  V30 5960 C 593.295 1.17981 -2.89913 0
M  V30 5961 C 593.77 1.50354 -4.32617 0
M  V30 5962 N 595.261 1.57301 -4.35673 0
M  V30 5963 C 595.996 1.839 -5.4311 0
M  V30 5964 N 595.492 2.08365 -6.60724 0
M  V30 5965 N 597.285 1.8559 -5.30578 0
M  V30 5966 H 589.436 -0.326881 -2.0987 0
M  V30 5967 H 591.699 -0.0838006 -0.944289 0
M  V30 5968 H 591.405 0.282768 -3.50561 0
M  V30 5969 H 591.279 2.00519 -3.19487 0
M  V30 5970 H 593.666 1.9624 -2.20395 0
M  V30 5971 H 593.747 0.228603 -2.54776 0
M  V30 5972 H 593.391 0.726273 -5.0268 0
M  V30 5973 H 593.321 2.46663 -4.65258 0
M  V30 5974 H 595.812 1.40342 -3.50874 0
M  V30 5975 H 596.125 2.27999 -7.38401 0
M  V30 5976 H 594.47 2.0571 -6.63859 0
M  V30 5977 H 597.661 1.65989 -4.37682 0
M  V30 5978 H 597.834 2.05983 -6.1439 0
M  V30 5979 N 591.24 1.41047 0.703093 0
M  V30 5980 C 592.465 1.43537 1.49706 0
M  V30 5981 C 592.89 0.0401853 1.88057 0
M  V30 5982 O 592.248 -0.954785 1.54122 0
M  V30 5983 C 592.296 2.3433 2.74084 0
M  V30 5984 O 591.4 1.79515 3.71279 0
M  V30 5985 H 590.741 0.487454 0.450871 0
M  V30 5986 H 593.271 1.85422 0.86486 0
M  V30 5987 H 593.281 2.49947 3.22476 0
M  V30 5988 H 591.956 3.35708 2.45506 0
M  V30 5989 H 590.533 1.7331 3.30179 0
M  V30 5990 N 592.718 -0.936591 1.26751 0
M  V30 5991 C 593.628 -2.06949 1.10496 0
M  V30 5992 C 594.644 -1.7396 0.037271 0
M  V30 5993 O 595.82 -1.99941 0.241944 0
M  V30 5994 C 592.885 -3.38612 0.744491 0
M  V30 5995 C 591.946 -3.85355 1.89209 0
M  V30 5996 C 591.179 -5.10735 1.54873 0
M  V30 5997 O 591.402 -5.68602 0.452546 0
M  V30 5998 O 590.336 -5.52632 2.38499 0
M  V30 5999 H 594.162 -2.23571 2.05547 0
M  V30 6000 H 591.747 -1.05428 1.05855 0
M  V30 6001 H 593.629 -4.17711 0.556396 0
M  V30 6002 H 592.304 -3.23218 -0.176582 0
M  V30 6003 H 591.211 -3.07182 2.13518 0
M  V30 6004 H 592.544 -4.05277 2.79305 0
M  V30 6005 N 594.196 -1.08629 -1.14182 0
M  V30 6006 C 595.612 -0.814363 -1.3726 0
M  V30 6007 C 595.812 0.575271 -1.93114 0
M  V30 6008 O 594.868 1.33165 -2.1453 0
M  V30 6009 C 596.181 -1.8989 -2.33157 0
M  V30 6010 C 597.729 -1.92518 -2.46791 0
M  V30 6011 C 598.204 -3.00092 -3.45989 0
M  V30 6012 N 599.695 -2.99279 -3.53534 0
M  V30 6013 C 600.43 -3.79158 -4.30147 0
M  V30 6014 N 599.926 -4.68923 -5.09983 0
M  V30 6015 N 601.719 -3.67451 -4.25366 0
M  V30 6016 H 593.87 -1.98232 -0.762758 0
M  V30 6017 H 596.133 -0.860383 -0.398051 0
M  V30 6018 H 595.839 -2.89809 -1.99257 0
M  V30 6019 H 595.713 -1.77013 -3.33086 0
M  V30 6020 H 598.1 -0.932425 -2.79982 0
M  V30 6021 H 598.181 -2.09473 -1.46816 0
M  V30 6022 H 597.825 -3.99575 -3.13532 0
M  V30 6023 H 597.755 -2.80382 -4.45751 0
M  V30 6024 H 600.246 -2.3422 -2.96563 0
M  V30 6025 H 600.559 -5.26475 -5.65724 0
M  V30 6026 H 598.904 -4.72964 -5.09244 0
M  V30 6027 H 602.095 -2.9669 -3.62067 0
M  V30 6028 H 602.268 -4.29944 -4.84822 0
M  V30 6029 N 595.674 1.31259 -0.872281 0
M  V30 6030 C 596.604 2.30929 -0.345554 0
M  V30 6031 C 597.585 1.60449 0.5648 0
M  V30 6032 O 598.77 1.8814 0.481335 0
M  V30 6033 C 595.9 3.44348 0.451823 0
M  V30 6034 C 594.854 4.26435 -0.365641 0
M  V30 6035 C 594.18 5.31785 0.557562 0
M  V30 6036 C 595.48 4.97159 -1.60095 0
M  V30 6037 H 597.174 2.75234 -1.17841 0
M  V30 6038 H 594.72 1.3232 -0.568094 0
M  V30 6039 H 596.673 4.13128 0.830854 0
M  V30 6040 H 595.397 2.98816 1.31821 0
M  V30 6041 H 594.056 3.59326 -0.726649 0
M  V30 6042 H 593.704 4.82502 1.4213 0
M  V30 6043 H 593.404 5.87598 0.0144878 0
M  V30 6044 H 594.928 6.03424 0.933387 0
M  V30 6045 H 596.342 5.58523 -1.29323 0
M  V30 6046 H 594.739 5.62779 -2.08327 0
M  V30 6047 H 595.809 4.24012 -2.35249 0
M  V30 6048 N 597.152 0.631951 1.44375 0
M  V30 6049 C 598.115 -0.0628142 2.29114 0
M  V30 6050 C 599.115 -0.771494 1.41084 0
M  V30 6051 O 600.305 -0.615959 1.62947 0
M  V30 6052 C 597.437 -1.09953 3.22681 0
M  V30 6053 H 598.63 0.682509 2.92031 0
M  V30 6054 H 596.183 0.392128 1.51301 0
M  V30 6055 H 596.918 -1.87481 2.64616 0
M  V30 6056 H 596.703 -0.595286 3.87555 0
M  V30 6057 H 598.193 -1.58538 3.86336 0
M  V30 6058 N 598.631 -1.53133 0.372548 0
M  V30 6059 C 599.578 -2.25951 -0.470631 0
M  V30 6060 C 600.548 -1.26895 -1.07176 0
M  V30 6061 O 601.733 -1.55691 -1.10294 0
M  V30 6062 C 598.873 -3.05726 -1.6008 0
M  V30 6063 C 597.986 -4.19684 -1.02416 0
M  V30 6064 C 597.121 -4.86888 -2.124 0
M  V30 6065 C 596.16 -5.92866 -1.52238 0
M  V30 6066 N 595.297 -6.53732 -2.56084 0
M  V30 6067 H 600.137 -2.97587 0.156816 0
M  V30 6068 H 597.674 -1.4683 0.0891571 0
M  V30 6069 H 599.632 -3.50258 -2.26661 0
M  V30 6070 H 598.262 -2.36331 -2.1988 0
M  V30 6071 H 597.314 -3.79588 -0.248426 0
M  V30 6072 H 598.626 -4.95821 -0.544366 0
M  V30 6073 H 597.78 -5.34638 -2.86787 0
M  V30 6074 H 596.519 -4.10239 -2.63734 0
M  V30 6075 H 595.524 -5.4447 -0.763685 0
M  V30 6076 H 596.749 -6.71439 -1.0172 0
M  V30 6077 H 594.695 -5.79932 -3.06618 0
M  V30 6078 H 594.612 -7.25429 -2.12811 0
M  V30 6079 H 595.88 -7.0613 -3.30152 0
M  V30 6080 N 600.109 -0.101901 -1.5727 0
M  V30 6081 C 601.339 0.567568 -1.98651 0
M  V30 6082 C 601.747 1.61839 -0.980037 0
M  V30 6083 O 601.09 1.83661 0.0376564 0
M  V30 6084 C 601.152 1.26742 -3.36417 0
M  V30 6085 C 600.816 0.366561 -4.55528 0
M  V30 6086 C 601.813 -0.388022 -5.1845 0
M  V30 6087 C 599.498 0.282629 -5.01504 0
M  V30 6088 C 601.492 -1.21445 -6.25724 0
M  V30 6089 C 599.179 -0.547443 -6.08643 0
M  V30 6090 C 600.177 -1.29462 -6.70618 0
M  V30 6091 O 599.865 -2.11095 -7.7569 0
M  V30 6092 H 599.597 0.156282 -0.657687 0
M  V30 6093 H 602.151 -0.179912 -2.04611 0
M  V30 6094 H 600.381 2.06162 -3.27161 0
M  V30 6095 H 602.07 1.8321 -3.622 0
M  V30 6096 H 602.836 -0.332949 -4.83856 0
M  V30 6097 H 598.715 0.853868 -4.53023 0
M  V30 6098 H 602.259 -1.79814 -6.74027 0
M  V30 6099 H 598.156 -0.603971 -6.42668 0
M  V30 6100 H 598.924 -2.03851 -7.92709 0
M  V30 6101 N 601.587 1.56661 0.17182 0
M  V30 6102 C 602.535 1.97289 1.23207 0
M  V30 6103 C 603.529 0.861566 1.45854 0
M  V30 6104 O 604.735 1.04668 1.4644 0
M  V30 6105 H 601.11 0.627681 0.41415 0
M  V30 6106 H 603.081 2.85662 0.862542 0
M  V30 6107 C 601.83 2.34849 2.564 0
M  V30 6108 H 601.153 3.19903 2.39797 0
M  V30 6109 H 602.593 2.67121 3.29276 0
M  V30 6110 C 601.052 1.19172 3.15119 0
M  V30 6111 O 601.582 0.479113 3.98833 0
M  V30 6112 N 599.788 0.962415 2.74201 0
M  V30 6113 H 599.335 1.54365 2.06226 0
M  V30 6114 H 599.293 0.190272 3.13824 0
M  V30 6115 N 603.065 -0.440357 1.51323 0
M  V30 6116 C 603.997 -1.55254 1.68609 0
M  V30 6117 C 605.01 -1.52614 0.566812 0
M  V30 6118 O 606.199 -1.57445 0.841032 0
M  V30 6119 C 603.299 -2.94169 1.68279 0
M  V30 6120 C 602.472 -3.21346 2.96742 0
M  V30 6121 C 601.531 -4.3997 2.8864 0
M  V30 6122 O 600.557 -4.38771 3.62586 0
M  V30 6123 N 601.759 -5.43367 2.04285 0
M  V30 6124 H 604.524 -1.40831 2.6455 0
M  V30 6125 H 602.085 -0.629251 1.49171 0
M  V30 6126 H 604.077 -3.71543 1.60431 0
M  V30 6127 H 602.647 -3.02205 0.799441 0
M  V30 6128 H 601.867 -2.32299 3.18482 0
M  V30 6129 H 603.155 -3.3633 3.81785 0
M  V30 6130 H 602.553 -5.47176 1.43578 0
M  V30 6131 H 601.11 -6.19605 2.02318 0
M  V30 6132 N 604.543 -1.41418 -0.695603 0
M  V30 6133 C 605.473 -1.46035 -1.82197 0
M  V30 6134 C 606.454 -0.319025 -1.67082 0
M  V30 6135 O 607.639 -0.530462 -1.86815 0
M  V30 6136 C 604.769 -1.34179 -3.20333 0
M  V30 6137 C 603.723 -2.46123 -3.50154 0
M  V30 6138 C 603.049 -2.19332 -4.87645 0
M  V30 6139 C 604.349 -3.88463 -3.49133 0
M  V30 6140 H 606.043 -2.40303 -1.78591 0
M  V30 6141 H 603.589 -1.15663 -0.857797 0
M  V30 6142 H 605.542 -1.36021 -3.98844 0
M  V30 6143 H 604.266 -0.363952 -3.24566 0
M  V30 6144 H 602.925 -2.43563 -2.73994 0
M  V30 6145 H 602.573 -1.19891 -4.88503 0
M  V30 6146 H 602.273 -2.94344 -5.08562 0
M  V30 6147 H 603.797 -2.22889 -5.68465 0
M  V30 6148 H 605.211 -3.92738 -4.17648 0
M  V30 6149 H 603.608 -4.63158 -3.81582 0
M  V30 6150 H 604.678 -4.16617 -2.48109 0
M  V30 6151 N 606.021 0.929856 -1.27246 0
M  V30 6152 C 606.951 2.04722 -1.12299 0
M  V30 6153 C 607.932 1.70082 -0.0250464 0
M  V30 6154 O 609.117 1.93176 -0.199141 0
M  V30 6155 C 606.247 3.38721 -0.767145 0
M  V30 6156 C 605.201 3.87466 -1.81808 0
M  V30 6157 C 604.527 5.18246 -1.31626 0
M  V30 6158 C 605.827 4.11095 -3.22177 0
M  V30 6159 H 607.521 2.17485 -2.05769 0
M  V30 6160 H 605.067 1.04503 -0.990715 0
M  V30 6161 H 607.02 4.16366 -0.649413 0
M  V30 6162 H 605.744 3.25967 0.203259 0
M  V30 6163 H 604.403 3.12012 -1.92468 0
M  V30 6164 H 604.051 5.01881 -0.335378 0
M  V30 6165 H 603.751 5.51829 -2.01887 0
M  V30 6166 H 605.275 5.98462 -1.21143 0
M  V30 6167 H 606.689 4.79316 -3.1453 0
M  V30 6168 H 605.086 4.55982 -3.90129 0
M  V30 6169 H 606.156 3.16468 -3.67391 0
M  V30 6170 N 607.499 1.09233 1.13605 0
M  V30 6171 C 608.915 0.82163 1.36826 0
M  V30 6172 C 609.115 -0.565021 1.93416 0
M  V30 6173 O 608.171 -1.32026 2.15234 0
M  V30 6174 C 609.484 1.91124 2.32147 0
M  V30 6175 C 611.032 1.93824 2.45767 0
M  V30 6176 C 611.507 3.01923 3.44393 0
M  V30 6177 N 612.998 3.01149 3.51942 0
M  V30 6178 C 613.733 3.81434 4.2813 0
M  V30 6179 N 613.229 4.71621 5.07489 0
M  V30 6180 N 615.022 3.69702 4.23411 0
M  V30 6181 H 607.173 1.98633 0.752234 0
M  V30 6182 H 609.436 0.862482 0.393482 0
M  V30 6183 H 609.142 2.90862 1.97717 0
M  V30 6184 H 609.016 1.78777 3.32142 0
M  V30 6185 H 611.403 0.94726 2.79483 0
M  V30 6186 H 611.484 2.10248 1.45703 0
M  V30 6187 H 611.128 4.01232 3.11408 0
M  V30 6188 H 611.058 2.82742 4.44257 0
M  V30 6189 H 613.549 2.35789 2.95317 0
M  V30 6190 H 613.862 5.29468 5.62924 0
M  V30 6191 H 612.207 4.75658 5.06729 0
M  V30 6192 H 615.398 2.98606 3.60489 0
M  V30 6193 H 615.571 4.32509 4.82535 0
M  V30 6194 N 608.977 -1.30795 0.87923 0
M  V30 6195 C 610.226 -1.95636 0.490875 0
M  V30 6196 C 610.539 -1.70214 -0.963674 0
M  V30 6197 O 611.745 -2.28991 -1.45861 0
M  V30 6198 C 610.201 -3.50271 0.826929 0
M  V30 6199 C 609.809 -3.84521 2.29886 0
M  V30 6200 C 611.553 -4.21456 0.507494 0
M  V30 6201 C 609.46 -5.32309 2.57685 0
M  V30 6202 H 608.39 -0.732238 0.179841 0
M  V30 6203 H 611.041 -1.48829 1.07341 0
M  V30 6204 H 609.423 -3.9562 0.173542 0
M  V30 6205 H 610.597 -3.50102 2.99609 0
M  V30 6206 H 608.912 -3.26425 2.58526 0
M  V30 6207 H 611.509 -5.30199 0.692293 0
M  V30 6208 H 611.852 -4.12614 -0.552718 0
M  V30 6209 H 612.385 -3.81772 1.11782 0
M  V30 6210 H 609.124 -5.46195 3.62424 0
M  V30 6211 H 608.644 -5.68048 1.92566 0
M  V30 6212 H 610.323 -5.99678 2.42889 0
M  V30 6213 N 610.455 -0.639598 -1.44038 0
M  V30 6214 C 611.365 0.0612377 -2.3452 0
M  V30 6215 C 612.381 0.826717 -1.53106 0
M  V30 6216 O 613.557 0.777059 -1.85806 0
M  V30 6217 C 610.622 1.02492 -3.31204 0
M  V30 6218 C 609.683 0.25788 -4.28525 0
M  V30 6219 C 608.916 1.17566 -5.2059 0
M  V30 6220 O 609.139 2.41461 -5.16771 0
M  V30 6221 O 608.073 0.655407 -5.98321 0
M  V30 6222 H 611.899 -0.68318 -2.95916 0
M  V30 6223 H 609.484 -0.399784 -1.43952 0
M  V30 6224 H 611.366 1.57911 -3.90694 0
M  V30 6225 H 610.041 1.7498 -2.7233 0
M  V30 6226 H 608.948 -0.339566 -3.72556 0
M  V30 6227 H 610.281 -0.427154 -4.90343 0
M  V30 6228 N 611.933 1.52934 -0.380664 0
M  V30 6229 C 612.843 2.29921 0.466192 0
M  V30 6230 C 613.859 1.36488 1.07922 0
M  V30 6231 O 615.035 1.69553 1.0869 0
M  V30 6232 C 612.1 3.08468 1.58266 0
M  V30 6233 C 611.161 4.17595 0.995627 0
M  V30 6234 C 610.394 4.92387 2.05889 0
M  V30 6235 O 610.617 4.67184 3.27254 0
M  V30 6236 O 609.551 5.77949 1.68102 0
M  V30 6237 H 613.377 3.03274 -0.160735 0
M  V30 6238 H 610.962 1.48698 -0.144617 0
M  V30 6239 H 612.844 3.57469 2.23145 0
M  V30 6240 H 611.519 2.37937 2.19471 0
M  V30 6241 H 610.426 3.72811 0.310332 0
M  V30 6242 H 611.759 4.90336 0.427918 0
M  V30 6243 N 613.412 0.11024 1.57214 0
M  V30 6244 C 614.689 -0.592956 1.86396 0
M  V30 6245 C 615.069 -1.85379 1.00985 0
M  V30 6246 O 614.417 -2.28337 0.0863592 0
M  V30 6247 C 614.627 -0.893816 3.3736 0
M  V30 6248 C 615.975 -1.25069 4.05762 0
M  V30 6249 O 616.999 -0.984356 3.42329 0
M  V30 6250 O 615.858 -1.75017 5.17718 0
M  V30 6251 H 612.952 -0.29828 0.771335 0
M  V30 6252 H 615.498 0.144083 1.69087 0
M  V30 6253 H 614.27 2.6031e-05 3.913 0
M  V30 6254 H 613.893 -1.68631 3.60068 0
M  V30 6255 N 614.89 -1.56749 -0.16351 0
M  V30 6256 C 615.82 -2.00042 -1.20438 0
M  V30 6257 C 616.801 -0.877256 -1.45733 0
M  V30 6258 O 617.986 -1.1439 -1.56935 0
M  V30 6259 C 615.116 -2.36697 -2.54149 0
M  V30 6260 C 614.07 -3.52046 -2.43408 0
M  V30 6261 C 613.396 -3.74466 -3.81679 0
M  V30 6262 C 614.696 -4.85247 -1.93216 0
M  V30 6263 H 616.39 -2.87244 -0.844477 0
M  V30 6264 H 613.936 -1.38194 -0.40478 0
M  V30 6265 H 615.889 -2.65582 -3.27176 0
M  V30 6266 H 614.613 -1.46414 -2.91943 0
M  V30 6267 H 613.272 -3.23301 -1.72834 0
M  V30 6268 H 612.92 -2.81461 -4.1688 0
M  V30 6269 H 612.62 -4.52084 -3.75359 0
M  V30 6270 H 614.144 -4.0576 -4.5628 0
M  V30 6271 H 615.558 -5.12957 -2.56023 0
M  V30 6272 H 613.955 -5.66556 -1.97825 0
M  V30 6273 H 615.025 -4.7672 -0.88689 0
M  V30 6274 N 616.368 0.432326 -1.51554 0
M  V30 6275 C 617.616 1.17901 -1.64146 0
M  V30 6276 C 617.937 1.91604 -0.362367 0
M  V30 6277 O 617.207 1.85764 0.621968 0
M  V30 6278 H 615.787 0.438206 -0.604966 0
M  V30 6279 H 618.449 0.495172 -1.88505 0
M  V30 6280 H 617.545 1.90584 -2.47152 0
M  V30 6281 N 617.846 1.41785 0.688094 0
M  V30 6282 C 619.094 1.41264 1.4453 0
M  V30 6283 C 619.415 0.0252946 1.94984 0
M  V30 6284 O 618.685 -0.934081 1.72197 0
M  V30 6285 H 617.265 0.519998 0.536294 0
M  V30 6286 H 619.927 1.7709 0.813941 0
M  V30 6287 H 619.023 2.10439 2.30482 0
M  V30 6288 N 619.324 -0.923095 1.27737 0
M  V30 6289 C 620.287 -2.00587 1.10894 0
M  V30 6290 C 621.287 -1.60718 0.0514927 0
M  V30 6291 O 622.477 -1.71658 0.296481 0
M  V30 6292 C 619.609 -3.33829 0.690717 0
M  V30 6293 H 620.802 -2.16959 2.07048 0
M  V30 6294 H 618.355 -1.10451 1.1059 0
M  V30 6295 H 619.09 -3.23157 -0.272 0
M  V30 6296 H 618.875 -3.64125 1.45448 0
M  V30 6297 H 620.365 -4.13336 0.595252 0
M  V30 6298 N 620.802 -1.09834 -1.13024 0
M  V30 6299 C 621.765 -0.745058 -2.16752 0
M  V30 6300 C 622.765 0.227435 -1.59183 0
M  V30 6301 O 623.955 0.0050786 -1.74199 0
M  V30 6302 C 621.087 -0.102543 -3.40746 0
M  V30 6303 H 622.28 -1.66375 -2.49518 0
M  V30 6304 H 619.833 -0.898061 -1.27924 0
M  V30 6305 H 620.568 0.827177 -3.13573 0
M  V30 6306 H 620.353 -0.80235 -3.83803 0
M  V30 6307 H 621.843 0.129082 -4.174 0
M  V30 6308 N 622.28 1.30327 -0.886154 0
M  V30 6309 C 623.227 2.28099 -0.352069 0
M  V30 6310 C 624.197 1.56433 0.558397 0
M  V30 6311 O 625.382 1.84492 0.486561 0
M  V30 6312 C 622.522 3.42456 0.426346 0
M  V30 6313 C 621.635 4.28938 -0.513472 0
M  V30 6314 C 620.77 5.30458 0.280657 0
M  V30 6315 C 619.809 6.0859 -0.654556 0
M  V30 6316 N 618.946 7.02022 0.104322 0
M  V30 6317 H 623.786 2.73166 -1.19097 0
M  V30 6318 H 621.323 1.34367 -0.598662 0
M  V30 6319 H 623.281 4.07518 0.893587 0
M  V30 6320 H 621.911 2.98455 1.22981 0
M  V30 6321 H 620.963 3.64173 -1.09921 0
M  V30 6322 H 622.275 4.83399 -1.2299 0
M  V30 6323 H 621.429 6.01273 0.8097 0
M  V30 6324 H 620.168 4.76693 1.03029 0
M  V30 6325 H 619.173 5.36651 -1.19522 0
M  V30 6326 H 620.398 6.64443 -1.4033 0
M  V30 6327 H 618.344 6.50645 0.836472 0
M  V30 6328 H 618.261 7.53979 -0.552453 0
M  V30 6329 H 619.529 7.77077 0.614069 0
M  V30 6330 N 623.758 0.647228 1.43697 0
M  V30 6331 C 624.988 0.16551 2.05936 0
M  V30 6332 C 625.396 -1.17164 1.48557 0
M  V30 6333 O 624.739 -1.73307 0.60914 0
M  V30 6334 C 624.801 -0.00648082 3.59499 0
M  V30 6335 C 624.465 1.25503 4.39429 0
M  V30 6336 C 625.462 2.18241 4.71876 0
M  V30 6337 C 623.147 1.49494 4.79538 0
M  V30 6338 C 625.141 3.33268 5.43333 0
M  V30 6339 C 622.828 2.64815 5.50742 0
M  V30 6340 C 623.826 3.56528 5.82561 0
M  V30 6341 O 623.514 4.69836 6.52311 0
M  V30 6342 H 623.246 0.0844124 0.670709 0
M  V30 6343 H 625.8 0.88638 1.8529 0
M  V30 6344 H 624.03 -0.782661 3.78697 0
M  V30 6345 H 625.719 -0.444794 4.03456 0
M  V30 6346 H 626.485 2.00946 4.41413 0
M  V30 6347 H 622.364 0.789912 4.54182 0
M  V30 6348 H 625.908 4.04874 5.68087 0
M  V30 6349 H 621.805 2.82047 5.8062 0
M  V30 6350 H 622.573 4.69024 6.70789 0
M  V30 6351 N 625.236 -1.5273 0.388769 0
M  V30 6352 C 626.199 -2.25043 -0.434544 0
M  V30 6353 C 627.199 -1.26661 -0.990644 0
M  V30 6354 O 628.389 -1.50762 -0.872731 0
M  V30 6355 C 625.521 -3.00507 -1.60961 0
M  V30 6356 H 626.714 -2.99242 0.198549 0
M  V30 6357 H 624.267 -1.55664 0.140875 0
M  V30 6358 H 625.002 -2.30607 -2.28015 0
M  V30 6359 H 624.787 -3.72716 -1.21757 0
M  V30 6360 H 626.277 -3.55413 -2.19251 0
M  V30 6361 N 626.714 -0.118576 -1.57153 0
M  V30 6362 C 627.962 0.538461 -1.94795 0
M  V30 6363 C 628.283 1.67243 -1.00274 0
M  V30 6364 O 627.553 1.95811 -0.0589692 0
M  V30 6365 H 626.133 0.201904 -0.719197 0
M  V30 6366 H 628.795 -0.187418 -1.93997 0
M  V30 6367 H 627.891 0.933315 -2.97818 0
M  V30 6368 N 628.193 1.56834 0.155195 0
M  V30 6369 C 629.103 2.009 1.21146 0
M  V30 6370 C 630.119 0.923029 1.475 0
M  V30 6371 O 631.295 1.23189 1.59331 0
M  V30 6372 C 628.36 2.37378 2.52691 0
M  V30 6373 C 627.421 3.59883 2.34057 0
M  V30 6374 C 626.654 3.94612 3.59329 0
M  V30 6375 O 626.877 3.30104 4.65175 0
M  V30 6376 O 625.811 4.87895 3.52479 0
M  V30 6377 H 629.637 2.9105 0.867371 0
M  V30 6378 H 627.222 1.44916 0.363298 0
M  V30 6379 H 629.104 2.61737 3.3026 0
M  V30 6380 H 627.779 1.50385 2.86646 0
M  V30 6381 H 626.686 3.40722 1.54465 0
M  V30 6382 H 628.019 4.47468 2.0502 0
M  V30 6383 N 629.671 -0.424282 1.51781 0
M  V30 6384 C 630.619 -1.53649 1.74628 0
M  V30 6385 C 631.613 -1.57923 0.612922 0
M  V30 6386 O 632.819 -1.61511 0.794618 0
M  V30 6387 H 629.194 -0.510706 0.551981 0
M  V30 6388 H 631.165 -1.31558 2.67834 0
M  V30 6389 C 629.914 -2.91177 1.9003 0
M  V30 6390 H 629.237 -2.88625 2.76651 0
M  V30 6391 H 630.677 -3.6833 2.10021 0
M  V30 6392 C 629.136 -3.30303 0.663435 0
M  V30 6393 O 629.666 -4.01315 -0.175812 0
M  V30 6394 N 627.872 -2.86201 0.503723 0
M  V30 6395 H 627.419 -2.28583 1.18776 0
M  V30 6396 H 627.377 -3.12741 -0.322575 0
M  V30 6397 N 631.149 -1.42148 -0.680565 0
M  V30 6398 C 632.396 -1.4231 -1.44063 0
M  V30 6399 C 632.724 -0.037488 -1.94464 0
M  V30 6400 O 631.979 0.953184 -1.70918 0
M  V30 6401 C 632.278 -2.38945 -2.65782 0
M  V30 6402 C 631.944 -3.85455 -2.33956 0
M  V30 6403 C 630.606 -4.25364 -2.24987 0
M  V30 6404 C 632.958 -4.77895 -2.08004 0
M  V30 6405 C 630.286 -5.55701 -1.88184 0
M  V30 6406 C 632.638 -6.08568 -1.72706 0
M  V30 6407 C 631.302 -6.47482 -1.62244 0
M  V30 6408 H 630.572 -0.520748 -0.527164 0
M  V30 6409 H 633.219 -1.7505 -0.776524 0
M  V30 6410 H 631.524 -1.99511 -3.37198 0
M  V30 6411 H 633.221 -2.36336 -3.23954 0
M  V30 6412 H 629.811 -3.53855 -2.41836 0
M  V30 6413 H 633.995 -4.47854 -2.1387 0
M  V30 6414 H 629.251 -5.84718 -1.78648 0
M  V30 6415 H 633.425 -6.79688 -1.5165 0
M  V30 6416 H 631.052 -7.48387 -1.33496 0
M  V30 6417 N 632.627 0.916307 -1.28225 0
M  V30 6418 C 634.043 1.19425 -1.05876 0
M  V30 6419 C 634.243 2.005 0.2005 0
M  V30 6420 O 633.299 2.35806 0.902873 0
M  V30 6421 C 634.612 1.93133 -2.30478 0
M  V30 6422 C 636.16 2.06026 -2.35632 0
M  V30 6423 C 636.635 2.83141 -3.59994 0
M  V30 6424 N 638.126 2.90704 -3.60618 0
M  V30 6425 C 638.861 3.50865 -4.53521 0
M  V30 6426 N 638.357 4.12327 -5.56739 0
M  V30 6427 N 640.15 3.48379 -4.41122 0
M  V30 6428 H 632.301 0.37496 -2.09064 0
M  V30 6429 H 634.564 0.228531 -0.920042 0
M  V30 6430 H 634.27 1.40985 -3.22205 0
M  V30 6431 H 634.144 2.93696 -2.36691 0
M  V30 6432 H 636.531 2.57355 -1.44404 0
M  V30 6433 H 636.612 1.04647 -2.33415 0
M  V30 6434 H 636.256 2.32492 -4.51564 0
M  V30 6435 H 636.186 3.84829 -3.59464 0
M  V30 6436 H 638.677 2.47034 -2.85977 0
M  V30 6437 H 638.99 4.56205 -6.23776 0
M  V30 6438 H 637.335 4.10839 -5.60568 0
M  V30 6439 H 640.526 2.99572 -3.59686 0
M  V30 6440 H 640.699 3.94974 -5.13712 0
M  V30 6441 N 634.105 1.10431 1.1244 0
M  V30 6442 C 635.521 0.836096 1.35947 0
M  V30 6443 C 635.721 -0.544475 1.94004 0
M  V30 6444 O 634.777 -1.29735 2.16622 0
M  V30 6445 C 636.09 1.93575 2.30107 0
M  V30 6446 C 637.638 1.9642 2.43697 0
M  V30 6447 C 638.113 3.05559 3.41171 0
M  V30 6448 N 639.604 3.04865 3.48728 0
M  V30 6449 C 640.339 3.85954 4.24061 0
M  V30 6450 N 639.835 4.76977 5.02458 0
M  V30 6451 N 641.628 3.74172 4.19466 0
M  V30 6452 H 633.779 1.9942 0.731124 0
M  V30 6453 H 636.042 0.866607 0.384312 0
M  V30 6454 H 635.748 2.92943 1.94621 0
M  V30 6455 H 635.622 1.8229 3.30227 0
M  V30 6456 H 638.009 0.97685 2.78463 0
M  V30 6457 H 638.09 2.11782 1.43465 0
M  V30 6458 H 637.734 4.04513 3.07135 0
M  V30 6459 H 637.664 2.87438 4.41234 0
M  V30 6460 H 640.155 2.38908 2.92799 0
M  V30 6461 H 640.468 5.35409 5.57277 0
M  V30 6462 H 638.813 4.81006 5.01655 0
M  V30 6463 H 642.004 3.02412 3.57302 0
M  V30 6464 H 642.177 4.37602 4.77921 0
M  V30 6465 N 635.583 -1.29855 0.893053 0
M  V30 6466 C 636.994 -1.77946 0.564998 0
M  V30 6467 C 637.345 -1.73339 -0.919134 0
M  V30 6468 O 636.47 -1.3152 -1.71847 0
M  V30 6469 C 637.065 -3.23118 1.01883 0
M  V30 6470 C 635.624 -3.69013 0.742051 0
M  V30 6471 C 634.771 -2.50121 1.19727 0
M  V30 6472 H 637.722 -1.16611 1.07646 0
M  V30 6473 H 637.743 -3.78875 0.351249 0
M  V30 6474 H 637.255 -3.26439 2.09903 0
M  V30 6475 H 635.356 -3.71173 -0.325816 0
M  V30 6476 H 635.469 -4.60117 1.33527 0
M  V30 6477 H 633.833 -2.47128 0.616418 0
M  V30 6478 H 634.616 -2.56174 2.28538 0
M  V30 6479 O 637.1 -0.794376 -1.40613 0
M  V30 6480 H 637.791 -0.366277 -1.90205 0
M  V30 END ATOM
M  V30 BEGIN BOND
M  V30 END BOND
M  V30 END CTAB
M  END
$$$$
