drugbank_target|P00338 L-lactate dehydrogenase A chain (DB00157; DB02483; DB02701; DB03940; DB09118; DB09130; DB11638)
 OpenBabel12092119313D

  0  0  0     0  0            999 V3000
M  V30 BEGIN CTAB
M  V30 COUNTS 5241 5285 0 0 0
M  V30 BEGIN ATOM
M  V30 1 H -0.908 1.98254 -0.117106 0
M  V30 2 N 0 1.576 0 0
M  V30 3 C 0.933 2.03868 1.02534 0
M  V30 4 C 1.911 0.928543 1.3348 0
M  V30 5 O 3.095 1.19667 1.45644 0
M  V30 6 C 0.222 2.43627 2.35294 0
M  V30 7 C -0.732 3.65373 2.2001 0
M  V30 8 S 0.101 5.13292 1.52614 0
M  V30 9 C 1.257 5.56322 2.86805 0
M  V30 10 H 1.49 2.90518 0.631377 0
M  V30 11 H -0.977 1.52953 0.210867 0
M  V30 12 H 0.981 2.67203 3.11629 0
M  V30 13 H -0.358 1.57376 2.7183 0
M  V30 14 H -1.165 3.90944 3.18086 0
M  V30 15 H -1.563 3.418 1.51819 0
M  V30 16 H 0.729 5.58782 3.83104 0
M  V30 17 H 1.672 6.56266 2.65933 0
M  V30 18 H 2.08 4.83886 2.90714 0
M  V30 19 N 1.4781 -0.272755 1.55222 0
M  V30 20 C 2.4411 -1.32041 1.87344 0
M  V30 21 C 3.4411 -1.42342 0.74803 0
M  V30 22 O 4.6311 -1.41488 1.0162 0
M  V30 23 C 1.7631 -2.70173 2.07893 0
M  V30 24 H 2.9561 -1.04789 2.80997 0
M  V30 25 H 0.5091 -0.51083 1.47717 0
M  V30 26 H 1.2441 -3.02605 1.16622 0
M  V30 27 H 1.0291 -2.64082 2.89833 0
M  V30 28 H 2.5191 -3.45869 2.34017 0
M  V30 29 N 2.9562 -1.48159 -0.537278 0
M  V30 30 C 4.1842 -1.59454 -1.31841 0
M  V30 31 C 4.5992 -0.252065 -1.8711 0
M  V30 32 O 3.9562 0.757621 -1.66031 0
M  V30 33 C 4.0072 -2.63546 -2.47439 0
M  V30 34 O 3.7282 -3.92583 -1.94449 0
M  V30 35 C 5.2292 -2.85212 -3.39366 0
M  V30 36 H 2.4492 -0.53785 -0.401196 0
M  V30 37 H 4.9932 -1.93932 -0.648891 0
M  V30 38 H 3.1482 -2.31946 -3.1029 0
M  V30 39 H 3.5622 -4.49629 -2.70063 0
M  V30 40 H 5.0362 -3.61863 -4.16844 0
M  V30 41 H 5.5132 -1.93765 -3.94147 0
M  V30 42 H 6.1192 -3.18086 -2.82314 0
M  V30 43 N 4.4343 0.785586 -1.36625 0
M  V30 44 C 5.3643 1.91259 -1.33949 0
M  V30 45 C 6.3453 1.68795 -0.210325 0
M  V30 46 O 7.5303 1.89854 -0.408561 0
M  V30 47 C 4.6603 3.28339 -1.13186 0
M  V30 48 C 3.6143 3.65335 -2.22967 0
M  V30 49 C 2.9403 5.00806 -1.87342 0
M  V30 50 C 4.2403 3.7352 -3.65075 0
M  V30 51 H 5.9343 1.93755 -2.28253 0
M  V30 52 H 3.4803 0.930788 -1.09874 0
M  V30 53 H 5.4333 4.06804 -1.09948 0
M  V30 54 H 4.1573 3.2624 -0.153332 0
M  V30 55 H 2.8163 2.89169 -2.25337 0
M  V30 56 H 2.4643 4.95233 -0.880545 0
M  V30 57 H 2.1643 5.26529 -2.60846 0
M  V30 58 H 3.6883 5.81687 -1.85667 0
M  V30 59 H 5.1023 4.42168 -3.64911 0
M  V30 60 H 3.4993 4.10731 -4.37516 0
M  V30 61 H 4.5693 2.74527 -3.99703 0
M  V30 62 N 5.9124 1.20967 1.01018 0
M  V30 63 C 6.8594 0.964281 2.09691 0
M  V30 64 C 7.8294 -0.107853 1.65749 0
M  V30 65 O 9.0144 0.0381987 1.90762 0
M  V30 66 C 6.1544 0.52943 3.41015 0
M  V30 67 C 5.2674 1.67043 3.98398 0
M  V30 68 C 4.4024 1.18525 5.17808 0
M  V30 69 C 3.4414 2.29892 5.67288 0
M  V30 70 N 2.5784 1.82546 6.77954 0
M  V30 71 H 7.4184 1.89463 2.30017 0
M  V30 72 H 4.9554 0.944289 1.1279 0
M  V30 73 H 6.9134 0.258588 4.16398 0
M  V30 74 H 5.5434 -0.363919 3.20742 0
M  V30 75 H 4.5954 2.05603 3.20049 0
M  V30 76 H 5.9074 2.50877 4.31117 0
M  V30 77 H 5.0614 0.870762 6.00419 0
M  V30 78 H 3.8004 0.316887 4.86669 0
M  V30 79 H 2.8054 2.6215 4.83278 0
M  V30 80 H 4.0304 3.17216 6.00459 0
M  V30 81 H 1.9764 0.980454 6.48632 0
M  V30 82 H 1.8934 2.59956 7.09901 0
M  V30 83 H 3.1614 1.54115 7.64113 0
M  V30 84 N 7.3905 -1.2043 1.01659 0
M  V30 85 C 8.6675 -1.8548 0.621004 0
M  V30 86 C 9.0475 -1.9091 -0.900919 0
M  V30 87 O 8.3955 -1.41694 -1.79263 0
M  V30 88 C 8.6055 -3.25119 1.2688 0
M  V30 89 C 9.9535 -4.01403 1.38423 0
M  V30 90 O 10.9775 -3.34473 1.22501 0
M  V30 91 O 9.8365 -5.21265 1.64151 0
M  V30 92 H 6.9305 -0.798761 0.214266 0
M  V30 93 H 9.4765 -1.28019 1.11396 0
M  V30 94 H 8.2485 -3.15932 2.30873 0
M  V30 95 H 7.8715 -3.90212 0.762917 0
M  V30 96 N 8.8686 -0.792821 -1.36206 0
M  V30 97 C 9.8006 -0.151469 -2.28699 0
M  V30 98 C 10.8136 0.641262 -1.49638 0
M  V30 99 O 12.0026 0.475885 -1.72039 0
M  V30 100 C 9.1026 0.808424 -3.29117 0
M  V30 101 C 8.2756 0.0650202 -4.37352 0
M  V30 102 C 7.3346 0.941358 -5.17711 0
M  V30 103 O 6.3606 0.397352 -5.67811 0
M  V30 104 N 7.5626 2.2652 -5.3448 0
M  V30 105 H 10.3276 -0.945982 -2.84379 0
M  V30 106 H 7.8886 -0.647032 -1.48409 0
M  V30 107 H 9.8806 1.3986 -3.79765 0
M  V30 108 H 8.4506 1.5038 -2.74052 0
M  V30 109 H 7.6706 -0.706255 -3.87822 0
M  V30 110 H 8.9586 -0.447847 -5.06825 0
M  V30 111 H 8.3566 2.73128 -4.95396 0
M  V30 112 H 6.9136 2.80493 -5.88359 0
M  V30 113 N 10.3467 1.47872 -0.545128 0
M  V30 114 C 11.2767 2.32661 0.197793 0
M  V30 115 C 12.2577 1.43041 0.920504 0
M  V30 116 O 13.4427 1.71912 0.90333 0
M  V30 117 C 10.5727 3.24569 1.23582 0
M  V30 118 C 9.5267 4.23333 0.630323 0
M  V30 119 C 8.8527 5.0448 1.77211 0
M  V30 120 C 10.1527 5.20704 -0.407974 0
M  V30 121 H 11.8467 2.95024 -0.510045 0
M  V30 122 H 9.3927 1.4187 -0.246731 0
M  V30 123 H 11.3457 3.8272 1.76362 0
M  V30 124 H 10.0697 2.60236 1.97344 0
M  V30 125 H 8.7287 3.6639 0.123922 0
M  V30 126 H 8.3767 4.36561 2.49847 0
M  V30 127 H 8.0767 5.71339 1.37281 0
M  V30 128 H 9.6007 5.65487 2.3034 0
M  V30 129 H 11.0147 5.7329 0.033305 0
M  V30 130 H 9.4117 5.95699 -0.725486 0
M  V30 131 H 10.4817 4.66917 -1.30828 0
M  V30 132 N 11.8248 0.280983 1.55075 0
M  V30 133 C 13.0738 -0.334784 1.98902 0
M  V30 134 C 13.3868 -1.56534 1.17288 0
M  V30 135 O 14.5928 -2.25443 1.51287 0
M  V30 136 C 13.0488 -0.646994 3.54037 0
M  V30 137 C 12.6568 0.564085 4.44435 0
M  V30 138 C 14.4008 -1.22506 4.06439 0
M  V30 139 C 12.3078 0.226137 5.90967 0
M  V30 140 H 11.2378 -0.128866 0.742906 0
M  V30 141 H 13.8888 0.386556 1.79382 0
M  V30 142 H 12.2708 -1.42739 3.6938 0
M  V30 143 H 13.4448 1.34082 4.40861 0
M  V30 144 H 11.7598 1.0594 4.02698 0
M  V30 145 H 14.3568 -1.49182 5.13468 0
M  V30 146 H 14.6998 -2.16085 3.55827 0
M  V30 147 H 15.2328 -0.50682 3.94558 0
M  V30 148 H 11.9718 1.12996 6.45687 0
M  V30 149 H 11.4918 -0.513717 5.97596 0
M  V30 150 H 13.1708 -0.179539 6.46751 0
M  V30 151 N 13.3029 -1.57598 0.00835791 0
M  V30 152 C 14.5329 -1.94931 -0.684496 0
M  V30 153 C 14.9409 -0.882233 -1.67372 0
M  V30 154 O 14.2839 0.146621 -1.83114 0
M  V30 155 C 14.3459 -3.283 -1.4649 0
M  V30 156 C 14.0099 -4.52548 -0.63634 0
M  V30 157 C 15.0069 -5.19839 0.0795586 0
M  V30 158 C 12.6919 -4.98942 -0.579849 0
M  V30 159 C 14.6859 -6.3183 0.840843 0
M  V30 160 C 12.3729 -6.10819 0.185155 0
M  V30 161 C 13.3709 -6.77121 0.894227 0
M  V30 162 O 13.0589 -7.86853 1.64673 0
M  V30 163 H 12.7909 -0.647249 -0.19505 0
M  V30 164 H 15.3449 -2.05318 0.0581272 0
M  V30 165 H 13.5749 -3.14345 -2.2522 0
M  V30 166 H 15.2639 -3.50685 -2.04389 0
M  V30 167 H 16.0299 -4.84979 0.0451202 0
M  V30 168 H 11.9089 -4.47155 -1.1213 0
M  V30 169 H 15.4529 -6.83513 1.39483 0
M  V30 170 H 11.3499 -6.4512 0.221384 0
M  V30 171 H 12.1179 -8.03412 1.56432 0
M  V30 172 N 14.781 0.264519 -1.55364 0
M  V30 173 C 15.729 1.34702 -1.89626 0
M  V30 174 C 16.723 1.50712 -0.773459 0
M  V30 175 O 17.929 1.52395 -0.957897 0
M  V30 176 H 14.304 0.450682 -0.601988 0
M  V30 177 H 16.275 1.0306 -2.80038 0
M  V30 178 C 15.024 2.6989 -2.19214 0
M  V30 179 H 14.347 2.58365 -3.05103 0
M  V30 180 H 15.787 3.44553 -2.47102 0
M  V30 181 C 14.246 3.21637 -1.00254 0
M  V30 182 O 14.776 4.00973 -0.241501 0
M  V30 183 N 12.982 2.7943 -0.797938 0
M  V30 184 H 12.529 2.15026 -1.4185 0
M  V30 185 H 12.487 3.144 -0.00363422 0
M  V30 186 N 16.2591 1.48442 0.529413 0
M  V30 187 C 17.1891 1.65902 1.64313 0
M  V30 188 C 18.1701 0.507897 1.6234 0
M  V30 189 O 19.3551 0.740503 1.79528 0
M  V30 190 C 16.4851 1.69911 3.02898 0
M  V30 191 C 15.4391 2.8453 3.19729 0
M  V30 192 C 14.7651 2.73629 4.59381 0
M  V30 193 C 16.0651 4.25821 3.02447 0
M  V30 194 H 17.7591 2.5914 1.49955 0
M  V30 195 H 15.3051 1.24709 0.719982 0
M  V30 196 H 17.2581 1.80715 3.80684 0
M  V30 197 H 15.9821 0.732524 3.18279 0
M  V30 198 H 14.6411 2.73283 2.44361 0
M  V30 199 H 14.2891 1.74938 4.71599 0
M  V30 200 H 13.9891 3.50541 4.71588 0
M  V30 201 H 15.5131 2.86401 5.39265 0
M  V30 202 H 16.9271 4.37898 3.70024 0
M  V30 203 H 15.3241 5.03735 3.26146 0
M  V30 204 H 16.3941 4.42244 1.98867 0
M  V30 205 N 17.7372 -0.778329 1.37039 0
M  V30 206 C 18.6672 -1.90546 1.34962 0
M  V30 207 C 19.6482 -1.68681 0.219274 0
M  V30 208 O 20.8332 -1.89634 0.418624 0
M  V30 209 C 17.9632 -3.27734 1.14925 0
M  V30 210 C 16.9172 -3.64147 2.24902 0
M  V30 211 C 16.2432 -4.99806 1.89996 0
M  V30 212 C 17.5432 -3.71579 3.67051 0
M  V30 213 H 19.2372 -1.92541 2.29277 0
M  V30 214 H 16.7832 -0.924948 1.10366 0
M  V30 215 H 18.7362 -4.06215 1.12104 0
M  V30 216 H 17.4602 -3.26154 0.170631 0
M  V30 217 H 16.1192 -2.8797 2.26868 0
M  V30 218 H 15.7672 -4.94759 0.906796 0
M  V30 219 H 15.4672 -5.25139 2.63634 0
M  V30 220 H 16.9912 -5.80694 1.88749 0
M  V30 221 H 18.4052 -4.40227 3.67251 0
M  V30 222 H 16.8022 -4.08405 4.39688 0
M  V30 223 H 17.8722 -2.72404 4.01154 0
M  V30 224 N 19.2153 -1.21501 -1.00376 0
M  V30 225 C 20.1623 -0.975387 -2.09177 0
M  V30 226 C 21.1323 0.0990615 -1.65804 0
M  V30 227 O 22.3173 -0.0483147 -1.90739 0
M  V30 228 C 19.4573 -0.547507 -3.40729 0
M  V30 229 C 18.5703 -1.69153 -3.97506 0
M  V30 230 C 17.7053 -1.2127 -5.17172 0
M  V30 231 C 16.7443 -2.32897 -5.66061 0
M  V30 232 N 15.8813 -1.86138 -6.76976 0
M  V30 233 H 20.7213 -1.9068 -2.29009 0
M  V30 234 H 18.2583 -0.950257 -1.12288 0
M  V30 235 H 20.2163 -0.280667 -4.16255 0
M  V30 236 H 18.8463 0.346904 -3.20931 0
M  V30 237 H 17.8983 -2.07298 -3.18954 0
M  V30 238 H 19.2103 -2.5316 -4.29781 0
M  V30 239 H 18.3643 -0.902591 -5.99948 0
M  V30 240 H 17.1033 -0.342692 -4.86495 0
M  V30 241 H 16.1083 -2.64709 -4.81881 0
M  V30 242 H 17.3333 -3.20396 -5.98768 0
M  V30 243 H 15.2793 -1.01484 -6.48103 0
M  V30 244 H 15.1963 -2.63717 -7.08512 0
M  V30 245 H 16.4643 -1.58165 -7.63285 0
M  V30 246 N 20.6934 1.19889 -1.02296 0
M  V30 247 C 21.6034 2.26571 -0.608508 0
M  V30 248 C 22.6194 1.70299 0.356964 0
M  V30 249 O 23.7954 2.00235 0.216326 0
M  V30 250 C 20.8604 3.46677 0.0402814 0
M  V30 251 C 19.9214 4.18153 -0.97194 0
M  V30 252 C 19.1544 5.32525 -0.354016 0
M  V30 253 O 19.3774 5.64112 0.844604 0
M  V30 254 O 18.3114 5.92242 -1.07391 0
M  V30 255 H 22.1374 2.64251 -1.49684 0
M  V30 256 H 19.7224 1.26629 -0.792809 0
M  V30 257 H 21.6044 4.19475 0.402324 0
M  V30 258 H 20.2794 3.10858 0.902707 0
M  V30 259 H 19.1864 3.47499 -1.38546 0
M  V30 260 H 20.5194 4.57927 -1.80454 0
M  V30 261 N 22.1715 0.800033 1.35784 0
M  V30 262 C 23.0815 0.207204 2.33683 0
M  V30 263 C 24.0975 -0.64631 1.61551 0
M  V30 264 O 25.2735 -0.559604 1.93469 0
M  V30 265 C 22.3385 -0.639659 3.40748 0
M  V30 266 C 21.3995 0.233585 4.28664 0
M  V30 267 C 20.6325 -0.572954 5.30616 0
M  V30 268 O 20.8555 -1.80816 5.40982 0
M  V30 269 O 19.7895 0.0327285 6.01891 0
M  V30 270 H 23.6155 1.01692 2.86169 0
M  V30 271 H 21.2005 0.561691 1.38439 0
M  V30 272 H 23.0825 -1.12223 4.06182 0
M  V30 273 H 21.7575 -1.42708 2.90544 0
M  V30 274 H 20.6645 0.763147 3.66233 0
M  V30 275 H 21.9975 0.984784 4.82248 0
M  V30 276 N 23.6496 -1.47581 0.552962 0
M  V30 277 C 24.5816 -2.27997 -0.234533 0
M  V30 278 C 25.5946 -1.36753 -0.883321 0
M  V30 279 O 26.7836 -1.61612 -0.757889 0
M  V30 280 C 23.8836 -3.10879 -1.34935 0
M  V30 281 C 23.0566 -4.30056 -0.798158 0
M  V30 282 C 22.1156 -4.94567 -1.79694 0
M  V30 283 O 21.1416 -5.53087 -1.34474 0
M  V30 284 N 22.3436 -4.88878 -3.13015 0
M  V30 285 H 25.1086 -2.96222 0.455255 0
M  V30 286 H 22.6696 -1.57163 0.388761 0
M  V30 287 H 24.6616 -3.50903 -2.01616 0
M  V30 288 H 23.2316 -2.44924 -1.94244 0
M  V30 289 H 22.4516 -3.94174 0.0453079 0
M  V30 290 H 23.7396 -5.07152 -0.409173 0
M  V30 291 H 23.1376 -4.42526 -3.52402 0
M  V30 292 H 21.6946 -5.32934 -3.75266 0
M  V30 293 N 25.1277 -0.289203 -1.54924 0
M  V30 294 C 26.3557 0.326463 -2.04308 0
M  V30 295 C 26.7707 1.48413 -1.16701 0
M  V30 296 O 26.1277 1.81507 -0.190087 0
M  V30 297 C 26.1787 0.794014 -3.52672 0
M  V30 298 O 25.8997 -0.317564 -4.36948 0
M  V30 299 C 27.4007 1.47605 -4.18004 0
M  V30 300 H 24.6207 0.0726272 -0.667058 0
M  V30 301 H 27.1647 -0.425401 -2.00026 0
M  V30 302 H 25.3197 1.49593 -3.57352 0
M  V30 303 H 25.7337 0.0443186 -5.24481 0
M  V30 304 H 27.2077 1.75447 -5.23376 0
M  V30 305 H 27.6847 2.41224 -3.67025 0
M  V30 306 H 28.2907 0.81762 -4.17367 0
M  V30 307 N 26.6058 1.57591 -0.0167156 0
M  V30 308 C 28.0168 1.79201 0.523834 0
M  V30 309 C 28.3678 0.925796 1.72984 0
M  V30 310 O 27.4928 0.132792 2.15992 0
M  V30 311 C 28.0878 3.25 0.957091 0
M  V30 312 C 26.6468 3.47648 1.44283 0
M  V30 313 C 25.7938 2.74374 0.401757 0
M  V30 314 H 28.7448 1.56831 -0.242816 0
M  V30 315 H 28.7658 3.34031 1.82219 0
M  V30 316 H 28.2778 3.88019 0.0791415 0
M  V30 317 H 26.3788 2.89866 2.34113 0
M  V30 318 H 26.4918 4.56352 1.45877 0
M  V30 319 H 24.8558 2.39485 0.867121 0
M  V30 320 H 25.6388 3.40102 -0.467513 0
M  V30 321 N 28.0839 -0.256276 1.55502 0
M  V30 322 C 29.0159 -1.33981 1.85962 0
M  V30 323 C 30.0289 -1.44743 0.745212 0
M  V30 324 O 31.2179 -1.4626 1.02324 0
M  V30 325 C 28.3179 -2.7194 2.02242 0
M  V30 326 C 27.4909 -2.83562 3.33033 0
M  V30 327 C 26.5499 -4.02304 3.39172 0
M  V30 328 O 25.5759 -3.92273 4.12444 0
M  V30 329 N 26.7779 -5.15045 2.67784 0
M  V30 330 H 29.5429 -1.08191 2.7949 0
M  V30 331 H 27.1039 -0.446388 1.55624 0
M  V30 332 H 29.0959 -3.49697 2.03701 0
M  V30 333 H 27.6659 -2.90479 1.15502 0
M  V30 334 H 26.8859 -1.92555 3.43971 0
M  V30 335 H 28.1739 -2.88271 4.19258 0
M  V30 336 H 27.5719 -5.26085 2.07968 0
M  V30 337 H 26.1289 -5.90972 2.74947 0
M  V30 338 N 29.562 -1.4872 -0.521534 0
M  V30 339 C 30.51 -1.64328 -1.64618 0
M  V30 340 C 31.504 -0.50953 -1.61555 0
M  V30 341 O 32.71 -0.688525 -1.66311 0
M  V30 342 H 29.085 -0.517805 -0.545328 0
M  V30 343 H 31.056 -2.58767 -1.48601 0
M  V30 344 C 29.805 -1.70805 -3.02855 0
M  V30 345 H 29.128 -2.5741 -3.05909 0
M  V30 346 H 30.568 -1.85766 -3.81139 0
M  V30 347 C 29.027 -0.448479 -3.33902 0
M  V30 348 O 29.557 0.434928 -3.99339 0
M  V30 349 N 27.763 -0.317616 -2.88859 0
M  V30 350 H 27.31 -1.03748 -2.35784 0
M  V30 351 H 27.268 0.524113 -3.10001 0
M  V30 352 N 31.0401 0.771051 -1.3745 0
M  V30 353 C 31.9871 1.88435 -1.3327 0
M  V30 354 C 32.9571 1.64914 -0.198136 0
M  V30 355 O 34.1421 1.86821 -0.387606 0
M  V30 356 C 31.2821 3.25509 -1.14622 0
M  V30 357 C 30.3951 3.60979 -2.37314 0
M  V30 358 C 29.5301 4.87265 -2.11533 0
M  V30 359 C 28.5691 5.15469 -3.30088 0
M  V30 360 N 27.7061 6.32944 -3.03853 0
M  V30 361 H 32.5461 1.91344 -2.28455 0
M  V30 362 H 30.0831 0.935466 -1.13523 0
M  V30 363 H 32.0411 4.04582 -1.01831 0
M  V30 364 H 30.6711 3.21974 -0.230837 0
M  V30 365 H 29.7231 2.76885 -2.60842 0
M  V30 366 H 31.0351 3.77759 -3.25729 0
M  V30 367 H 30.1891 5.74244 -1.95777 0
M  V30 368 H 28.9281 4.7259 -1.20457 0
M  V30 369 H 27.9331 4.26966 -3.46382 0
M  V30 370 H 29.1581 5.32052 -4.22016 0
M  V30 371 H 27.1041 6.19625 -2.15407 0
M  V30 372 H 27.0211 6.50143 -3.85812 0
M  V30 373 H 28.2891 7.22857 -2.91716 0
M  V30 374 N 32.5182 1.22032 0.997298 0
M  V30 375 C 33.7672 1.03637 1.73038 0
M  V30 376 C 34.0802 -0.429475 1.90827 0
M  V30 377 O 35.2862 -0.732995 2.61418 0
M  V30 378 C 33.7422 1.80582 3.11317 0
M  V30 379 C 33.3502 3.31387 3.01474 0
M  V30 380 C 35.0942 1.70621 3.88701 0
M  V30 381 C 33.0012 4.00791 4.3488 0
M  V30 382 H 31.9312 0.384179 0.648785 0
M  V30 383 H 34.5822 1.4584 1.11368 0
M  V30 384 H 32.9642 1.31175 3.73643 0
M  V30 385 H 34.1382 3.88155 2.4834 0
M  V30 386 H 32.4532 3.41976 2.37575 0
M  V30 387 H 35.0502 2.19799 4.87434 0
M  V30 388 H 35.3932 0.665823 4.10941 0
M  V30 389 H 35.9262 2.17547 3.33044 0
M  V30 390 H 32.6652 5.05064 4.1784 0
M  V30 391 H 32.1852 3.48811 4.87945 0
M  V30 392 H 33.8642 4.06139 5.03647 0
M  V30 393 N 33.9963 -1.19345 1.0293 0
M  V30 394 C 35.2243 -1.92997 0.745644 0
M  V30 395 C 35.6393 -1.75519 -0.695589 0
M  V30 396 O 34.9963 -1.07737 -1.47306 0
M  V30 397 C 35.0473 -3.44741 1.08792 0
M  V30 398 O 34.7683 -3.61658 2.47256 0
M  V30 399 C 36.2693 -4.35515 0.827129 0
M  V30 400 H 33.4893 -0.613042 0.272801 0
M  V30 401 H 36.0333 -1.51473 1.3739 0
M  V30 402 H 34.1883 -3.84097 0.504832 0
M  V30 403 H 34.6023 -4.55514 2.60015 0
M  V30 404 H 36.0763 -5.40589 1.11658 0
M  V30 405 H 36.5533 -4.38552 -0.238436 0
M  V30 406 H 37.1593 -4.01841 1.39297 0
M  V30 407 N 35.4744 -0.807222 -1.35358 0
M  V30 408 C 36.7204 -0.388463 -1.99045 0
M  V30 409 C 37.0534 1.04184 -1.63888 0
M  V30 410 O 36.3284 1.72292 -0.902535 0
M  V30 411 C 36.6114 -0.572783 -3.55515 0
M  V30 412 C 36.4644 -2.04807 -4.00468 0
M  V30 413 C 37.7834 0.00114064 -4.401 0
M  V30 414 H 34.9024 -0.142619 -0.723069 0
M  V30 415 H 37.5444 -1.01687 -1.60498 0
M  V30 416 H 35.6944 -0.0378425 -3.88482 0
M  V30 417 H 37.3664 -2.64544 -3.77908 0
M  V30 418 H 35.6094 -2.54427 -3.51353 0
M  V30 419 H 36.2804 -2.12792 -5.09337 0
M  V30 420 H 38.7564 -0.455716 -4.13597 0
M  V30 421 H 37.6324 -0.157737 -5.48673 0
M  V30 422 H 37.8934 1.09488 -4.28328 0
M  V30 423 N 36.9525 1.47285 -0.560781 0
M  V30 424 C 38.1985 2.02764 -0.0381184 0
M  V30 425 C 38.5315 1.43384 1.30976 0
M  V30 426 O 37.8065 0.590733 1.85312 0
M  V30 427 C 38.0895 3.60064 0.0511427 0
M  V30 428 C 37.9425 4.2987 -1.32408 0
M  V30 429 C 39.2615 4.33439 0.762795 0
M  V30 430 H 36.3805 0.736841 -0.0153264 0
M  V30 431 H 39.0225 1.75675 -0.723759 0
M  V30 432 H 37.1725 3.83274 0.635065 0
M  V30 433 H 38.8445 4.17989 -1.95148 0
M  V30 434 H 37.0875 3.90085 -1.8978 0
M  V30 435 H 37.7585 5.38478 -1.21431 0
M  V30 436 H 40.2345 4.15243 0.266965 0
M  V30 437 H 39.1105 5.43124 0.794221 0
M  V30 438 H 39.3715 4.02915 1.81966 0
M  V30 439 N 38.4306 0.297415 1.54768 0
M  V30 440 C 39.6786 -0.312295 1.99673 0
M  V30 441 C 39.9996 -1.54686 1.18732 0
M  V30 442 O 39.2696 -1.93854 0.282382 0
M  V30 443 H 37.8496 -0.118381 0.73756 0
M  V30 444 H 40.5116 0.407915 1.90583 0
M  V30 445 H 39.6076 -0.586813 3.06534 0
M  V30 446 N 39.9087 -1.5758 0.0250728 0
M  V30 447 C 41.1547 -1.91917 -0.655413 0
M  V30 448 C 41.4877 -0.901433 -1.72011 0
M  V30 449 O 40.7627 0.0764069 -1.9435 0
M  V30 450 C 41.0457 -3.36751 -1.27558 0
M  V30 451 C 40.8987 -4.49258 -0.220719 0
M  V30 452 C 42.2177 -3.81469 -2.19475 0
M  V30 453 H 39.3367 -0.697925 -0.23679 0
M  V30 454 H 41.9787 -1.89825 0.0815036 0
M  V30 455 H 40.1287 -3.38664 -1.90365 0
M  V30 456 H 41.8007 -4.59478 0.409601 0
M  V30 457 H 40.0437 -4.31415 0.454264 0
M  V30 458 H 40.7147 -5.47618 -0.694175 0
M  V30 459 H 43.1907 -3.81266 -1.66659 0
M  V30 460 H 42.0667 -4.83512 -2.59822 0
M  V30 461 H 42.3277 -3.16744 -3.08424 0
M  V30 462 N 41.3868 0.248026 -1.55636 0
M  V30 463 C 42.6348 0.974295 -1.77065 0
M  V30 464 C 42.9558 1.85897 -0.588849 0
M  V30 465 O 42.2258 1.91868 0.395407 0
M  V30 466 H 40.8058 0.362733 -0.653019 0
M  V30 467 H 43.4678 0.266244 -1.93073 0
M  V30 468 H 42.5638 1.59667 -2.68166 0
M  V30 469 N 42.8649 1.48995 0.513639 0
M  V30 470 C 43.8279 1.64229 1.59879 0
M  V30 471 C 44.8279 0.514696 1.5234 0
M  V30 472 O 46.0179 0.78087 1.55718 0
M  V30 473 C 43.1499 1.62783 2.99524 0
M  V30 474 H 44.3429 2.61004 1.47705 0
M  V30 475 H 41.8959 1.37837 0.736936 0
M  V30 476 H 42.6309 0.675461 3.17188 0
M  V30 477 H 42.4159 2.4466 3.06404 0
M  V30 478 H 43.9059 1.76669 3.78388 0
M  V30 479 N 44.343 -0.763751 1.37857 0
M  V30 480 C 45.589 -1.52483 1.33704 0
M  V30 481 C 45.922 -1.94051 -0.0759612 0
M  V30 482 O 45.197 -1.64675 -1.03501 0
M  V30 483 C 45.48 -2.78441 2.28348 0
M  V30 484 C 45.333 -2.43075 3.78463 0
M  V30 485 C 46.652 -3.80415 2.21298 0
M  V30 486 H 43.771 -0.553169 0.487005 0
M  V30 487 H 46.413 -0.875562 1.68624 0
M  V30 488 H 44.563 -3.33842 1.987 0
M  V30 489 H 46.235 -1.93527 4.18742 0
M  V30 490 H 44.478 -1.75666 3.96641 0
M  V30 491 H 45.149 -3.33149 4.40132 0
M  V30 492 H 47.625 -3.34527 2.47449 0
M  V30 493 H 46.501 -4.66257 2.89647 0
M  V30 494 H 46.762 -4.25262 1.20849 0
M  V30 495 N 45.8211 -1.22559 -0.990812 0
M  V30 496 C 47.0691 -1.04933 -1.72724 0
M  V30 497 C 47.3901 0.416158 -1.90508 0
M  V30 498 O 46.6601 1.29918 -1.46622 0
M  V30 499 H 45.2401 -0.385296 -0.639965 0
M  V30 500 H 47.9021 -1.54105 -1.19322 0
M  V30 501 H 46.9981 -1.52886 -2.72089 0
M  V30 502 N 47.2992 1.18797 -1.03562 0
M  V30 503 C 48.2322 2.2105 -0.56676 0
M  V30 504 C 49.2102 1.57704 0.395993 0
M  V30 505 O 50.3942 1.85908 0.311498 0
M  V30 506 C 47.5212 3.38259 0.172704 0
M  V30 507 C 46.5672 4.19987 -0.74252 0
M  V30 508 S 47.4002 4.87199 -2.22254 0
M  V30 509 C 48.5562 6.07813 -1.49379 0
M  V30 510 H 48.7892 2.60478 -1.43312 0
M  V30 511 H 46.3222 1.29151 -0.846133 0
M  V30 512 H 48.2802 4.06191 0.593191 0
M  V30 513 H 46.9412 2.97252 1.01488 0
M  V30 514 H 46.1342 5.03709 -0.171265 0
M  V30 515 H 45.7362 3.57408 -1.10163 0
M  V30 516 H 48.0282 6.72948 -0.784056 0
M  V30 517 H 48.9712 6.69435 -2.30786 0
M  V30 518 H 49.3792 5.55781 -0.988331 0
M  V30 519 N 48.7773 0.814389 1.34928 0
M  V30 520 C 49.7403 0.235759 2.27984 0
M  V30 521 C 50.7403 -0.581412 1.49921 0
M  V30 522 O 51.9303 -0.398758 1.69575 0
M  V30 523 C 49.0623 -0.670433 3.34242 0
M  V30 524 H 50.2553 1.05659 2.80671 0
M  V30 525 H 47.8083 0.585614 1.44915 0
M  V30 526 H 48.5433 -1.51466 2.86755 0
M  V30 527 H 48.3283 -0.0860822 3.92005 0
M  V30 528 H 49.8183 -1.06935 4.03676 0
M  V30 529 N 50.2554 -1.46986 0.568584 0
M  V30 530 C 51.4954 -2.04336 0.0512999 0
M  V30 531 C 51.8594 -1.43214 -1.27881 0
M  V30 532 O 53.0604 -1.91679 -1.88448 0
M  V30 533 C 51.3314 -3.57389 -0.0282328 0
M  V30 534 S 52.8904 -4.36056 -0.489991 0
M  V30 535 H 49.7084 -0.71034 0.0306349 0
M  V30 536 H 52.3104 -1.80212 0.757891 0
M  V30 537 H 51.0144 -3.99395 0.944011 0
M  V30 538 H 50.5454 -3.86028 -0.75803 0
M  V30 539 H 52.5604 -4.6441 -1.74752 0
M  V30 540 N 51.7335 -0.305618 -1.54608 0
M  V30 541 C 52.6965 0.555591 -2.22364 0
M  V30 542 C 53.6965 1.05768 -1.21119 0
M  V30 543 O 54.8865 0.952972 -1.45822 0
M  V30 544 C 52.0185 1.76974 -2.91364 0
M  V30 545 H 53.2115 -0.0364572 -2.99878 0
M  V30 546 H 50.7645 -0.0565007 -1.56198 0
M  V30 547 H 51.4995 2.40151 -2.17941 0
M  V30 548 H 51.2845 1.41732 -3.65588 0
M  V30 549 H 52.7745 2.38148 -3.43038 0
M  V30 550 N 53.2116 1.57565 -0.0334293 0
M  V30 551 C 54.4606 1.91155 0.643639 0
M  V30 552 C 54.7736 0.91192 1.73042 0
M  V30 553 O 55.9796 1.13923 2.46442 0
M  V30 554 C 54.4356 3.39443 1.1961 0
M  V30 555 C 54.0436 4.47774 0.142381 0
M  V30 556 C 55.7876 3.82094 1.84944 0
M  V30 557 C 53.6946 5.87162 0.706727 0
M  V30 558 H 52.6246 0.713368 0.244176 0
M  V30 559 H 55.2756 1.8323 -0.0994323 0
M  V30 560 H 53.6576 3.42313 1.99092 0
M  V30 561 H 54.8316 4.56469 -0.630296 0
M  V30 562 H 53.1466 4.14352 -0.412446 0
M  V30 563 H 55.7436 4.83591 2.2813 0
M  V30 564 H 56.0866 3.17386 2.69392 0
M  V30 565 H 56.6196 3.81665 1.12145 0
M  V30 566 H 53.3586 6.55424 -0.0997178 0
M  V30 567 H 52.8786 5.82064 1.44779 0
M  V30 568 H 54.5576 6.35866 1.19514 0
M  V30 569 N 54.6897 -0.239769 1.55765 0
M  V30 570 C 55.9147 -0.988373 1.82335 0
M  V30 571 C 56.3397 -1.77886 0.611421 0
M  V30 572 O 55.6977 -1.75889 -0.439639 0
M  V30 573 C 55.7457 -1.89627 3.06715 0
M  V30 574 O 54.8497 -2.98904 2.84131 0
M  V30 575 H 54.1907 -0.280858 0.601677 0
M  V30 576 H 56.7207 -0.258597 2.02959 0
M  V30 577 H 56.7307 -2.30957 3.36338 0
M  V30 578 H 55.4057 -1.31511 3.9456 0
M  V30 579 H 53.9827 -2.61651 2.65694 0
M  V30 580 N 56.1678 -1.49265 -0.50573 0
M  V30 581 C 57.4168 -1.57761 -1.25675 0
M  V30 582 C 57.7298 -0.267371 -1.93764 0
M  V30 583 O 58.9358 -0.230827 -2.70517 0
M  V30 584 C 57.3918 -2.78332 -2.28165 0
M  V30 585 C 56.9998 -4.16096 -1.66037 0
M  V30 586 C 58.7438 -2.96155 -3.04125 0
M  V30 587 C 56.6508 -5.27895 -2.6661 0
M  V30 588 H 55.5808 -0.587391 -0.472745 0
M  V30 589 H 58.2318 -1.75644 -0.53118 0
M  V30 590 H 56.6138 -2.53934 -3.03865 0
M  V30 591 H 57.7878 -4.50612 -0.963622 0
M  V30 592 H 56.1028 -4.03591 -1.02484 0
M  V30 593 H 58.6998 -3.76849 -3.79327 0
M  V30 594 H 59.0428 -2.06534 -3.61455 0
M  V30 595 H 59.5758 -3.2057 -2.35541 0
M  V30 596 H 56.3148 -6.1956 -2.14068 0
M  V30 597 H 55.8348 -4.97839 -3.34539 0
M  V30 598 H 57.5138 -5.57031 -3.29129 0
M  V30 599 N 57.6459 0.756429 -1.3826 0
M  V30 600 C 58.5759 1.88374 -1.37976 0
M  V30 601 C 59.5569 1.68311 -0.246082 0
M  V30 602 O 60.7419 1.88944 -0.44874 0
M  V30 603 C 57.8719 3.25864 -1.20125 0
M  V30 604 C 56.8259 3.60523 -2.30666 0
M  V30 605 C 56.1519 4.9672 -1.97923 0
M  V30 606 C 57.4519 3.65692 -3.72916 0
M  V30 607 H 59.1459 1.88869 -2.32312 0
M  V30 608 H 56.6919 0.907272 -1.11824 0
M  V30 609 H 58.6449 4.0438 -1.18552 0
M  V30 610 H 57.3689 3.25841 -0.222498 0
M  V30 611 H 56.0279 2.84324 -2.3142 0
M  V30 612 H 55.6759 4.93253 -0.985393 0
M  V30 613 H 55.3759 5.20878 -2.71955 0
M  V30 614 H 56.8999 5.77618 -1.97964 0
M  V30 615 H 58.3139 4.34328 -3.74208 0
M  V30 616 H 56.7109 4.01358 -4.4613 0
M  V30 617 H 57.7809 2.65987 -4.05436 0
M  V30 618 N 59.124 1.23083 0.984299 0
M  V30 619 C 60.057 0.951786 2.07404 0
M  V30 620 C 61.035 -0.10848 1.62238 0
M  V30 621 O 62.219 0.0249467 1.88483 0
M  V30 622 C 59.346 0.433142 3.35919 0
M  V30 623 C 58.392 1.47941 4.0002 0
M  V30 624 S 59.225 3.05556 4.39768 0
M  V30 625 C 60.381 2.55351 5.71442 0
M  V30 626 H 60.614 1.87456 2.30754 0
M  V30 627 H 58.147 1.06284 1.11996 0
M  V30 628 H 60.105 0.140506 4.10259 0
M  V30 629 H 58.766 -0.468656 3.10584 0
M  V30 630 H 57.959 1.06658 4.92585 0
M  V30 631 H 57.561 1.7212 3.3204 0
M  V30 632 H 59.853 1.97128 6.48187 0
M  V30 633 H 60.796 3.46441 6.17563 0
M  V30 634 H 61.204 1.96339 5.29255 0
M  V30 635 N 60.6021 -1.18246 1.0419 0
M  V30 636 C 61.5491 -2.2192 0.634037 0
M  V30 637 C 62.5191 -1.62179 -0.358765 0
M  V30 638 O 63.7041 -1.89122 -0.252466 0
M  V30 639 C 60.8441 -3.451 0.00445535 0
M  V30 640 C 59.9571 -4.19174 1.04487 0
M  V30 641 C 59.0921 -5.29813 0.383676 0
M  V30 642 C 58.1311 -5.9566 1.4091 0
M  V30 643 N 57.2681 -6.97834 0.772784 0
M  V30 644 H 62.1081 -2.56164 1.52263 0
M  V30 645 H 59.6451 -1.25843 0.761701 0
M  V30 646 H 61.6031 -4.15485 -0.377919 0
M  V30 647 H 60.2331 -3.11472 -0.847652 0
M  V30 648 H 59.2851 -3.47604 1.54518 0
M  V30 649 H 60.5971 -4.64267 1.82368 0
M  V30 650 H 59.7511 -6.06677 -0.0528366 0
M  V30 651 H 58.4901 -4.85825 -0.427208 0
M  V30 652 H 57.4951 -5.17535 1.85574 0
M  V30 653 H 58.7201 -6.4173 2.22171 0
M  V30 654 H 56.6661 -6.55998 -0.0177708 0
M  V30 655 H 56.5831 -7.41186 1.48928 0
M  V30 656 H 57.8511 -7.78665 0.36071 0
M  V30 657 N 62.0802 -0.821533 -1.34494 0
M  V30 658 C 63.3572 -0.33159 -1.92769 0
M  V30 659 C 63.7372 1.18088 -1.74981 0
M  V30 660 O 63.0852 1.98733 -1.12772 0
M  V30 661 C 63.2952 -0.759398 -3.40638 0
M  V30 662 C 64.6432 -0.757433 -4.1779 0
M  V30 663 O 65.6672 -0.70189 -3.49216 0
M  V30 664 O 64.5262 -0.829361 -5.4017 0
M  V30 665 H 61.6202 -0.0902502 -0.822061 0
M  V30 666 H 64.1662 -0.906231 -1.43477 0
M  V30 667 H 62.9382 -1.8012 -3.47379 0
M  V30 668 H 62.5612 -0.160378 -3.97276 0
M  V30 669 N 63.5583 1.46682 -0.576371 0
M  V30 670 C 64.4883 2.33028 0.148397 0
M  V30 671 C 65.4693 1.44961 0.889956 0
M  V30 672 O 66.6543 1.73789 0.866662 0
M  V30 673 C 63.7843 3.27117 1.1667 0
M  V30 674 C 62.7383 4.24575 0.540386 0
M  V30 675 C 62.0643 5.08126 1.6647 0
M  V30 676 C 63.3643 5.19722 -0.518331 0
M  V30 677 H 65.0583 2.93875 -0.572509 0
M  V30 678 H 62.6043 1.41315 -0.276768 0
M  V30 679 H 64.5573 3.86374 1.68204 0
M  V30 680 H 63.2813 2.64364 1.9178 0
M  V30 681 H 61.9403 3.66571 0.0461769 0
M  V30 682 H 61.5883 4.41762 2.40531 0
M  V30 683 H 61.2883 5.74122 1.25131 0
M  V30 684 H 62.8123 5.70246 2.18293 0
M  V30 685 H 64.2263 5.73232 -0.0883058 0
M  V30 686 H 62.6233 5.94026 -0.851679 0
M  V30 687 H 63.6933 4.64037 -1.40703 0
M  V30 688 N 65.0364 0.313813 1.54444 0
M  V30 689 C 65.9994 -0.54379 2.22656 0
M  V30 690 C 66.9994 -1.05124 1.21678 0
M  V30 691 O 68.1894 -0.945225 1.46325 0
M  V30 692 C 65.3214 -1.75427 2.92298 0
M  V30 693 H 66.5144 0.0523599 2.99854 0
M  V30 694 H 64.0674 0.0647834 1.56166 0
M  V30 695 H 64.8024 -2.38991 2.19211 0
M  V30 696 H 64.5874 -1.39791 3.66334 0
M  V30 697 H 66.0774 -2.36325 3.44297 0
M  V30 698 N 66.5145 -1.57545 0.0417849 0
M  V30 699 C 67.7915 -1.83642 -0.673433 0
M  V30 700 C 68.1715 -0.928298 -1.89594 0
M  V30 701 O 67.5195 0.0129955 -2.28496 0
M  V30 702 C 67.7295 -3.33155 -1.03964 0
M  V30 703 C 69.0775 -3.99941 -1.42592 0
M  V30 704 O 70.1015 -3.37725 -1.13226 0
M  V30 705 O 68.9605 -5.09619 -1.9736 0
M  V30 706 H 66.0545 -0.757638 -0.331533 0
M  V30 707 H 68.6005 -1.69554 0.070433 0
M  V30 708 H 67.3725 -3.9093 -0.170098 0
M  V30 709 H 66.9955 -3.52396 -1.84126 0
M  V30 710 N 67.9926 0.231505 -1.5589 0
M  V30 711 C 68.9026 1.308 -1.94752 0
M  V30 712 C 69.9186 1.51826 -0.849989 0
M  V30 713 O 71.0946 1.6515 -1.15271 0
M  V30 714 C 68.1596 2.63968 -2.24771 0
M  V30 715 C 67.2206 2.51331 -3.48039 0
M  V30 716 C 66.4536 3.78148 -3.76616 0
M  V30 717 O 66.6766 4.80722 -3.07022 0
M  V30 718 O 65.6106 3.75857 -4.70123 0
M  V30 719 H 69.4366 1.0083 -2.86474 0
M  V30 720 H 67.0216 0.433547 -1.42971 0
M  V30 721 H 68.9036 3.42633 -2.45318 0
M  V30 722 H 67.5786 2.9364 -1.36225 0
M  V30 723 H 66.4856 1.709 -3.32782 0
M  V30 724 H 67.8186 2.26601 -4.36936 0
M  V30 725 N 69.4707 1.49531 0.497807 0
M  V30 726 C 70.4007 1.6935 1.60757 0
M  V30 727 C 71.3817 0.542218 1.61227 0
M  V30 728 O 72.5667 0.778417 1.77917 0
M  V30 729 C 69.6967 1.76298 2.99226 0
M  V30 730 C 68.6507 2.91248 3.13622 0
M  V30 731 C 67.9767 2.83312 4.53474 0
M  V30 732 C 69.2767 4.3214 2.93346 0
M  V30 733 H 70.9707 2.62263 1.44425 0
M  V30 734 H 68.5167 1.26208 0.693367 0
M  V30 735 H 70.4697 1.88749 3.76765 0
M  V30 736 H 69.1937 0.799871 3.16654 0
M  V30 737 H 67.8527 2.78404 2.38509 0
M  V30 738 H 67.5007 1.84902 4.67782 0
M  V30 739 H 67.2007 3.60465 4.64046 0
M  V30 740 H 68.7247 2.97775 5.33069 0
M  V30 741 H 70.1387 4.45649 3.60652 0
M  V30 742 H 68.5357 5.1054 3.15387 0
M  V30 743 H 69.6057 4.46363 1.89441 0
M  V30 744 N 70.9488 -0.749086 1.3866 0
M  V30 745 C 71.9118 -1.84457 1.36045 0
M  V30 746 C 72.9118 -1.58682 0.260122 0
M  V30 747 O 74.1018 -1.66343 0.517261 0
M  V30 748 C 71.2338 -3.22008 1.11911 0
M  V30 749 H 72.4268 -1.88182 2.33512 0
M  V30 750 H 69.9798 -0.951266 1.24019 0
M  V30 751 H 70.7148 -3.2395 0.150686 0
M  V30 752 H 70.4998 -3.42111 1.91579 0
M  V30 753 H 71.9898 -4.0208 1.12788 0
M  V30 754 N 72.4269 -1.23603 -0.977757 0
M  V30 755 C 73.3569 -1.04401 -2.0886 0
M  V30 756 C 74.3379 0.0399052 -1.70053 0
M  V30 757 O 75.5229 -0.125246 -1.93796 0
M  V30 758 C 72.6529 -0.637269 -3.41403 0
M  V30 759 C 71.6069 -1.66883 -3.94124 0
M  V30 760 C 70.9329 -1.11745 -5.22893 0
M  V30 761 C 72.2329 -3.06247 -4.23096 0
M  V30 762 H 73.9269 -1.97316 -2.25182 0
M  V30 763 H 71.4729 -0.950096 -1.08209 0
M  V30 764 H 73.4259 -0.48998 -4.18542 0
M  V30 765 H 72.1499 0.327557 -3.24953 0
M  V30 766 H 70.8089 -1.80416 -3.19133 0
M  V30 767 H 70.4569 -0.143527 -5.02795 0
M  V30 768 H 70.1569 -1.80672 -5.59134 0
M  V30 769 H 71.6809 -0.982067 -6.02651 0
M  V30 770 H 73.0949 -2.96001 -4.90975 0
M  V30 771 H 71.4919 -3.72436 -4.70544 0
M  V30 772 H 72.5619 -3.55041 -3.30263 0
M  V30 773 N 73.905 1.17692 -1.04816 0
M  V30 774 C 75.151 1.88137 -0.75711 0
M  V30 775 C 75.484 1.80604 0.713841 0
M  V30 776 O 74.759 1.21146 1.52164 0
M  V30 777 C 75.042 3.38318 -1.2334 0
M  V30 778 C 74.895 3.54622 -2.76701 0
M  V30 779 C 76.214 4.32214 -0.829415 0
M  V30 780 H 73.333 0.683163 -0.27651 0
M  V30 781 H 75.975 1.38424 -1.30149 0
M  V30 782 H 74.125 3.80787 -0.770286 0
M  V30 783 H 75.797 3.21194 -3.31107 0
M  V30 784 H 74.04 2.97026 -3.16161 0
M  V30 785 H 74.711 4.60028 -3.05088 0
M  V30 786 H 77.187 3.97565 -1.22805 0
M  V30 787 H 76.063 5.35838 -1.19033 0
M  V30 788 H 76.324 4.41294 0.266891 0
M  V30 789 N 75.3831 0.828654 1.34056 0
M  V30 790 C 76.6601 0.341809 1.9259 0
M  V30 791 C 77.0401 -1.17158 1.75605 0
M  V30 792 O 76.3881 -1.98132 1.13824 0
M  V30 793 C 76.5981 0.777453 3.4023 0
M  V30 794 C 77.9461 0.779579 4.17382 0
M  V30 795 O 78.9701 0.7204 3.48839 0
M  V30 796 O 77.8291 0.857996 5.39723 0
M  V30 797 H 74.9231 0.0946085 0.821571 0
M  V30 798 H 77.4691 0.913827 1.42994 0
M  V30 799 H 76.2411 1.8196 3.46419 0
M  V30 800 H 75.8641 0.181444 3.97186 0
M  V30 801 N 76.8612 -1.46375 0.584142 0
M  V30 802 C 78.1072 -2.02678 0.0703716 0
M  V30 803 C 78.4402 -1.4545 -1.28678 0
M  V30 804 O 77.7152 -0.62014 -1.84349 0
M  V30 805 C 77.9982 -3.60099 0.00614674 0
M  V30 806 C 77.8512 -4.27709 1.3923 0
M  V30 807 C 79.1702 -4.34598 -0.693742 0
M  V30 808 H 76.2892 -0.736504 0.027047 0
M  V30 809 H 78.9312 -1.74501 0.751615 0
M  V30 810 H 77.0812 -3.84236 -0.574009 0
M  V30 811 H 78.7532 -4.14832 2.01773 0
M  V30 812 H 76.9962 -3.87016 1.95962 0
M  V30 813 H 77.6672 -5.36478 1.29982 0
M  V30 814 H 80.1432 -4.15615 -0.200869 0
M  V30 815 H 79.0192 -5.44318 -0.707714 0
M  V30 816 H 79.2802 -4.05759 -1.75533 0
M  V30 817 N 78.3393 -0.321999 -1.54275 0
M  V30 818 C 79.5883 0.281931 -1.9972 0
M  V30 819 C 79.9013 1.53369 -1.21397 0
M  V30 820 O 81.1073 2.21352 -1.57211 0
M  V30 821 C 79.5633 0.5529 -3.55628 0
M  V30 822 C 79.1713 -0.681721 -4.42783 0
M  V30 823 C 80.9153 1.11687 -4.09544 0
M  V30 824 C 78.8223 -0.382742 -5.9016 0
M  V30 825 H 77.7523 0.109124 -0.746062 0
M  V30 826 H 80.4033 -0.43398 -1.78294 0
M  V30 827 H 78.7853 1.32896 -3.73035 0
M  V30 828 H 79.9593 -1.45723 -4.37151 0
M  V30 829 H 78.2743 -1.1658 -3.99748 0
M  V30 830 H 80.8713 1.35515 -5.17242 0
M  V30 831 H 81.2143 2.06575 -3.61431 0
M  V30 832 H 81.7473 0.402032 -3.95763 0
M  V30 833 H 78.4863 -1.30076 -6.42464 0
M  V30 834 H 78.0063 0.355094 -5.98748 0
M  V30 835 H 79.6853 0.00800157 -6.47 0
M  V30 836 N 79.8174 1.5752 -0.0501392 0
M  V30 837 C 80.7274 2.14952 0.939827 0
M  V30 838 C 81.7434 1.10706 1.34239 0
M  V30 839 O 82.9194 1.42869 1.41952 0
M  V30 840 C 79.9844 2.68232 2.19665 0
M  V30 841 C 79.0454 3.87272 1.85253 0
M  V30 842 C 78.2784 4.38002 3.04943 0
M  V30 843 O 78.5014 3.87811 4.18281 0
M  V30 844 O 77.4354 5.29602 2.86017 0
M  V30 845 H 81.2614 2.9986 0.481392 0
M  V30 846 H 78.8464 1.4841 0.171699 0
M  V30 847 H 80.7284 3.02475 2.93406 0
M  V30 848 H 79.4034 1.86395 2.64648 0
M  V30 849 H 78.3104 3.5792 1.0883 0
M  V30 850 H 79.6434 4.70336 1.4507 0
M  V30 851 N 81.2955 -0.223234 1.56011 0
M  V30 852 C 82.5725 -0.972108 1.69733 0
M  V30 853 C 82.9525 -2.02485 0.59691 0
M  V30 854 O 82.3005 -2.25037 -0.396324 0
M  V30 855 C 82.5105 -1.58407 3.10979 0
M  V30 856 C 83.8585 -2.07696 3.70334 0
M  V30 857 O 84.8825 -1.68304 3.1393 0
M  V30 858 O 83.7415 -2.80096 4.69264 0
M  V30 859 H 80.8355 -0.453993 0.691245 0
M  V30 860 H 83.3815 -0.215149 1.68331 0
M  V30 861 H 82.1535 -0.823831 3.82529 0
M  V30 862 H 81.7765 -2.40661 3.16493 0
M  V30 863 N 82.7736 -1.49793 -0.48987 0
M  V30 864 C 83.7206 -1.67281 -1.59014 0
M  V30 865 C 84.6906 -0.514177 -1.57941 0
M  V30 866 O 85.8756 -0.742533 -1.75759 0
M  V30 867 C 83.0156 -1.75569 -2.97102 0
M  V30 868 C 82.1286 -3.0281 -3.08107 0
M  V30 869 C 81.2636 -3.02008 -4.36995 0
M  V30 870 C 80.3026 -4.23782 -4.41673 0
M  V30 871 N 79.4396 -4.20826 -5.62005 0
M  V30 872 H 84.2796 -2.61224 -1.43409 0
M  V30 873 H 81.8166 -1.29508 -0.697565 0
M  V30 874 H 83.7746 -1.78354 -3.77155 0
M  V30 875 H 82.4046 -0.850827 -3.11385 0
M  V30 876 H 81.4566 -3.09584 -2.21047 0
M  V30 877 H 82.7686 -3.92801 -3.07423 0
M  V30 878 H 81.9226 -3.03418 -5.25378 0
M  V30 879 H 80.6616 -2.09815 -4.4026 0
M  V30 880 H 79.6666 -4.22604 -3.5169 0
M  V30 881 H 80.8916 -5.17181 -4.40115 0
M  V30 882 H 78.8376 -3.31476 -5.66091 0
M  V30 883 H 78.7546 -5.04564 -5.62984 0
M  V30 884 H 80.0226 -4.26355 -6.52565 0
M  V30 885 N 84.2517 0.741722 -1.39055 0
M  V30 886 C 85.1817 1.869 -1.39966 0
M  V30 887 C 86.1627 1.6804 -0.26392 0
M  V30 888 O 87.3477 1.88458 -0.468755 0
M  V30 889 C 84.4777 3.24572 -1.23574 0
M  V30 890 C 83.4317 3.58056 -2.34477 0
M  V30 891 C 82.7577 4.94593 -2.0318 0
M  V30 892 C 84.0577 3.61716 -3.76774 0
M  V30 893 H 85.7517 1.86395 -2.34302 0
M  V30 894 H 83.2977 0.895361 -1.1278 0
M  V30 895 H 85.2507 4.031 -1.22834 0
M  V30 896 H 83.9747 3.25587 -0.257045 0
M  V30 897 H 82.6337 2.81854 -2.34423 0
M  V30 898 H 82.2817 4.92181 -1.03765 0
M  V30 899 H 81.9817 5.17964 -2.77465 0
M  V30 900 H 83.5057 5.75486 -2.04079 0
M  V30 901 H 84.9197 4.30335 -3.78794 0
M  V30 902 H 83.3167 3.96603 -4.50362 0
M  V30 903 H 84.3867 2.61672 -4.08235 0
M  V30 904 N 85.7298 1.2412 0.971189 0
M  V30 905 C 86.6768 1.0305 2.06517 0
M  V30 906 C 87.6468 -0.0550666 1.66009 0
M  V30 907 O 88.8318 0.0988688 1.90544 0
M  V30 908 C 85.9718 0.637653 3.39158 0
M  V30 909 C 85.0848 1.79633 3.92882 0
M  V30 910 C 84.2198 1.34939 5.13775 0
M  V30 911 C 83.2588 2.47823 5.59687 0
M  V30 912 N 82.3958 2.04022 6.71803 0
M  V30 913 H 87.2358 1.96685 2.23873 0
M  V30 914 H 84.7728 0.979694 1.09729 0
M  V30 915 H 86.7308 0.390931 4.15364 0
M  V30 916 H 85.3608 -0.261693 3.21737 0
M  V30 917 H 84.4128 2.15681 3.13346 0
M  V30 918 H 85.7248 2.64466 4.22918 0
M  V30 919 H 84.8788 1.06134 5.97345 0
M  V30 920 H 83.6178 0.471557 4.85415 0
M  V30 921 H 82.6228 2.77392 4.74693 0
M  V30 922 H 83.8478 3.36158 5.90063 0
M  V30 923 H 81.7938 1.18632 6.45184 0
M  V30 924 H 81.7108 2.82409 7.01271 0
M  V30 925 H 82.9788 1.78347 7.58823 0
M  V30 926 N 87.2079 -1.17134 1.05439 0
M  V30 927 C 88.4559 -1.87085 0.764429 0
M  V30 928 C 88.7769 -1.81584 -0.710787 0
M  V30 929 O 88.0469 -1.24349 -1.51374 0
M  V30 930 H 86.6269 -0.692627 0.279779 0
M  V30 931 H 89.2889 -1.42087 1.33406 0
M  V30 932 H 88.3849 -2.92759 1.0816 0
M  V30 933 N 88.686 -0.835752 -1.33615 0
M  V30 934 C 89.596 -0.269088 -2.33052 0
M  V30 935 C 90.612 0.603251 -1.63208 0
M  V30 936 O 91.788 0.508112 -1.94885 0
M  V30 937 C 88.853 0.549091 -3.42324 0
M  V30 938 C 87.914 -0.347156 -4.27894 0
M  V30 939 C 87.147 0.43207 -5.31948 0
M  V30 940 O 87.37 1.66409 -5.45586 0
M  V30 941 O 86.304 -0.192298 -6.01593 0
M  V30 942 H 90.13 -1.09243 -2.83372 0
M  V30 943 H 87.715 -0.598198 -1.36901 0
M  V30 944 H 89.597 1.01414 -4.09015 0
M  V30 945 H 88.272 1.34955 -2.94226 0
M  V30 946 H 87.179 -0.859979 -3.64081 0
M  V30 947 H 88.512 -1.1123 -4.79467 0
M  V30 948 N 90.1641 1.46063 -0.591896 0
M  V30 949 C 91.0971 2.27452 0.184617 0
M  V30 950 C 92.0751 1.36188 0.888351 0
M  V30 951 O 93.2591 1.65606 0.90039 0
M  V30 952 C 90.3861 3.14162 1.26571 0
M  V30 953 C 89.4321 4.21255 0.666814 0
M  V30 954 S 90.2651 5.33034 -0.513345 0
M  V30 955 C 91.4211 6.23311 0.56872 0
M  V30 956 H 91.6541 2.92963 -0.505939 0
M  V30 957 H 89.1871 1.49676 -0.379014 0
M  V30 958 H 91.1451 3.6468 1.88463 0
M  V30 959 H 89.8061 2.47946 1.92826 0
M  V30 960 H 88.9991 4.81788 1.47974 0
M  V30 961 H 88.6011 3.73797 0.123359 0
M  V30 962 H 90.8931 6.61758 1.45198 0
M  V30 963 H 91.8361 7.081 -7.23824e-05 0
M  V30 964 H 92.2441 5.57646 0.876996 0
M  V30 965 N 91.6422 0.330177 1.54103 0
M  V30 966 C 92.5752 -0.575477 2.20825 0
M  V30 967 C 93.5532 -1.11064 1.18758 0
M  V30 968 O 94.7372 -1.17341 1.47524 0
M  V30 969 C 91.8642 -1.79032 2.87516 0
M  V30 970 C 90.9102 -1.38581 4.03358 0
M  V30 971 S 91.7432 -0.416911 5.33875 0
M  V30 972 C 92.8992 -1.63889 6.04062 0
M  V30 973 H 93.1322 -0.00872114 2.97299 0
M  V30 974 H 90.6652 0.114254 1.53977 0
M  V30 975 H 92.6232 -2.48734 3.2656 0
M  V30 976 H 91.2842 -2.32827 2.10832 0
M  V30 977 H 90.4772 -2.29123 4.48908 0
M  V30 978 H 90.0792 -0.768419 3.66021 0
M  V30 979 H 92.3712 -2.57536 6.26643 0
M  V30 980 H 93.3142 -1.22542 6.97416 0
M  V30 981 H 93.7222 -1.82887 5.34053 0
M  V30 982 N 93.1203 -1.57491 0.0584922 0
M  V30 983 C 94.3973 -1.84346 -0.653918 0
M  V30 984 C 94.7773 -0.948355 -1.88599 0
M  V30 985 O 94.1253 -0.0112403 -2.28497 0
M  V30 986 C 94.3353 -3.34239 -1.00425 0
M  V30 987 C 95.6833 -4.01431 -1.38342 0
M  V30 988 O 96.7073 -3.38907 -1.09637 0
M  V30 989 O 95.5663 -5.11683 -1.91943 0
M  V30 990 H 92.6603 -0.761112 -0.323478 0
M  V30 991 H 95.2063 -1.6947 0.0884125 0
M  V30 992 H 93.9783 -3.91089 -0.128625 0
M  V30 993 H 93.6013 -3.54329 -1.80378 0
M  V30 994 N 94.5984 0.214957 -1.56127 0
M  V30 995 C 95.5284 1.2695 -1.95974 0
M  V30 996 C 96.5094 1.48539 -0.828868 0
M  V30 997 O 97.6944 1.60611 -1.09168 0
M  V30 998 C 94.8244 2.61794 -2.28214 0
M  V30 999 C 93.7784 2.54851 -3.43853 0
M  V30 1000 C 93.1044 3.93785 -3.61715 0
M  V30 1001 C 94.4044 2.09065 -4.78632 0
M  V30 1002 H 96.0984 0.93846 -2.84312 0
M  V30 1003 H 93.6444 0.449996 -1.36788 0
M  V30 1004 H 95.5974 3.35731 -2.54682 0
M  V30 1005 H 94.3214 2.96599 -1.36736 0
M  V30 1006 H 92.9804 1.8337 -3.17444 0
M  V30 1007 H 92.6284 4.25908 -2.67602 0
M  V30 1008 H 92.3284 3.90019 -4.39498 0
M  V30 1009 H 93.8524 4.69374 -3.90539 0
M  V30 1010 H 95.2664 2.7275 -5.04262 0
M  V30 1011 H 93.6634 2.16346 -5.59745 0
M  V30 1012 H 94.7334 1.04315 -4.73547 0
M  V30 1013 N 96.0765 1.50051 0.48192 0
M  V30 1014 C 97.0085 1.64263 1.59844 0
M  V30 1015 C 98.0215 0.52451 1.54119 0
M  V30 1016 O 99.2105 0.797293 1.59704 0
M  V30 1017 C 96.3105 1.60102 2.98698 0
M  V30 1018 C 95.4835 2.87767 3.29407 0
M  V30 1019 C 94.5425 2.76397 4.47762 0
M  V30 1020 O 93.5685 3.50348 4.48603 0
M  V30 1021 N 94.7705 1.89222 5.48794 0
M  V30 1022 H 97.5355 2.60566 1.48073 0
M  V30 1023 H 95.0965 1.47379 0.670149 0
M  V30 1024 H 97.0885 1.50123 3.75826 0
M  V30 1025 H 95.6585 0.715798 3.04294 0
M  V30 1026 H 94.8785 3.11954 2.40994 0
M  V30 1027 H 96.1665 3.72365 3.4673 0
M  V30 1028 H 95.5645 1.28434 5.50928 0
M  V30 1029 H 94.1215 1.85154 6.24949 0
M  V30 1030 N 97.5546 -0.734337 1.39446 0
M  V30 1031 C 98.5046 -1.83949 1.34709 0
M  V30 1032 C 99.4886 -1.59279 0.227851 0
M  V30 1033 O 100.681 -1.70771 0.465438 0
M  V30 1034 C 97.8096 -3.21884 1.19356 0
M  V30 1035 C 96.8956 -3.52381 2.35984 0
M  V30 1036 N 97.2866 -3.53811 3.61457 0
M  V30 1037 C 95.5846 -3.82747 2.28956 0
M  V30 1038 C 96.2856 -3.82122 4.38586 0
M  V30 1039 N 95.2616 -3.9993 3.68181 0
M  V30 1040 H 99.0636 -1.83361 2.29687 0
M  V30 1041 H 96.5776 -0.932609 1.32952 0
M  V30 1042 H 98.5746 -4.00998 1.14046 0
M  V30 1043 H 97.2346 -3.23711 0.253295 0
M  V30 1044 H 98.2456 -3.35107 3.94872 0
M  V30 1045 H 94.9226 -3.92175 1.43194 0
M  V30 1046 H 96.3126 -3.89691 5.47349 0
M  V30 1047 N 99.0327 -1.24633 -0.964593 0
M  V30 1048 C 100.281 -1.08573 -1.70459 0
M  V30 1049 C 100.602 0.375655 -1.91347 0
M  V30 1050 O 99.8717 1.26779 -1.49345 0
M  V30 1051 H 98.4517 -0.398784 -0.631649 0
M  V30 1052 H 101.114 -1.56601 -1.16026 0
M  V30 1053 H 100.21 -1.58623 -2.68785 0
M  V30 1054 N 100.511 1.16574 -1.06058 0
M  V30 1055 C 101.736 1.91493 -0.796562 0
M  V30 1056 C 102.161 1.76773 0.642868 0
M  V30 1057 O 101.519 1.09142 1.44768 0
M  V30 1058 C 101.567 3.40293 -1.19303 0
M  V30 1059 O 100.671 4.11074 -0.330394 0
M  V30 1060 H 100.012 0.596678 -0.291326 0
M  V30 1061 H 102.542 1.47708 -1.41575 0
M  V30 1062 H 102.552 3.91057 -1.16356 0
M  V30 1063 H 101.227 3.50326 -2.24153 0
M  V30 1064 H 99.8038 3.70513 -0.421225 0
M  V30 1065 N 101.989 0.842826 1.3317 0
M  V30 1066 C 102.919 0.294028 2.31641 0
M  V30 1067 C 103.9 -0.600401 1.59151 0
M  V30 1068 O 105.085 -0.523124 1.87022 0
M  V30 1069 C 102.215 -0.528416 3.43257 0
M  V30 1070 C 101.169 0.27056 4.27144 0
M  V30 1071 C 100.495 -0.675881 5.30411 0
M  V30 1072 C 101.795 1.48981 5.00602 0
M  V30 1073 H 103.489 1.11681 2.77791 0
M  V30 1074 H 101.035 0.538478 1.33553 0
M  V30 1075 H 102.988 -0.922674 4.11175 0
M  V30 1076 H 101.712 -1.38445 2.95805 0
M  V30 1077 H 100.371 0.646427 3.60856 0
M  V30 1078 H 100.019 -1.52842 4.79216 0
M  V30 1079 H 99.7189 -0.145374 5.8742 0
M  V30 1080 H 101.243 -1.06757 6.01195 0
M  V30 1081 H 102.657 1.16849 5.61266 0
M  V30 1082 H 101.054 1.95739 5.6728 0
M  V30 1083 H 102.124 2.25746 4.29147 0
M  V30 1084 N 103.467 -1.45747 0.599634 0
M  V30 1085 C 104.714 -2.02292 0.0917284 0
M  V30 1086 C 105.042 -1.46906 -1.27472 0
M  V30 1087 O 104.297 -0.630652 -1.8526 0
M  V30 1088 C 104.596 -3.57399 -0.00602758 0
M  V30 1089 C 104.262 -4.31902 1.29503 0
M  V30 1090 C 102.924 -4.51974 1.65144 0
M  V30 1091 C 105.276 -4.74551 2.15525 0
M  V30 1092 C 102.604 -5.11949 2.86574 0
M  V30 1093 C 104.956 -5.35868 3.36196 0
M  V30 1094 C 103.62 -5.54165 3.72099 0
M  V30 1095 H 102.89 -0.740239 0.0335658 0
M  V30 1096 H 105.537 -1.7491 0.779661 0
M  V30 1097 H 103.842 -3.84014 -0.777183 0
M  V30 1098 H 105.539 -3.98846 -0.415038 0
M  V30 1099 H 102.129 -4.16588 1.00761 0
M  V30 1100 H 106.313 -4.58784 1.8929 0
M  V30 1101 H 101.569 -5.24305 3.14507 0
M  V30 1102 H 105.743 -5.6787 4.03109 0
M  V30 1103 H 103.37 -6.00406 4.6628 0
M  V30 1104 N 104.945 -0.338344 -1.53925 0
M  V30 1105 C 105.875 0.51328 -2.27789 0
M  V30 1106 C 106.856 1.107 -1.29149 0
M  V30 1107 O 108.041 1.12937 -1.57984 0
M  V30 1108 C 105.171 1.66697 -3.04679 0
M  V30 1109 C 104.125 1.20183 -4.1078 0
M  V30 1110 C 103.451 2.44363 -4.75595 0
M  V30 1111 C 104.751 0.30605 -5.21403 0
M  V30 1112 H 106.445 -0.102883 -2.99223 0
M  V30 1113 H 103.991 -0.0509219 -1.4391 0
M  V30 1114 H 105.944 2.26915 -3.55088 0
M  V30 1115 H 104.668 2.30995 -2.30887 0
M  V30 1116 H 103.327 0.622499 -3.61276 0
M  V30 1117 H 102.975 3.07057 -3.98403 0
M  V30 1118 H 102.675 2.13925 -5.47275 0
M  V30 1119 H 104.199 3.05317 -5.28786 0
M  V30 1120 H 105.613 0.814929 -5.67478 0
M  V30 1121 H 104.01 0.0937929 -6.00027 0
M  V30 1122 H 105.08 -0.65921 -4.80398 0
M  V30 1123 N 106.423 1.57458 -0.0668435 0
M  V30 1124 C 107.839 1.56947 0.289772 0
M  V30 1125 C 108.039 1.07584 1.70376 0
M  V30 1126 O 107.095 0.739486 2.41429 0
M  V30 1127 C 108.408 3.0052 0.103943 0
M  V30 1128 C 109.956 3.12517 0.173857 0
M  V30 1129 C 110.431 4.57997 0.0163682 0
M  V30 1130 N 111.922 4.63144 0.0721352 0
M  V30 1131 C 112.657 5.73394 -0.0253794 0
M  V30 1132 N 112.153 6.92576 -0.176133 0
M  V30 1133 N 113.946 5.62091 0.0313305 0
M  V30 1134 H 106.097 1.87863 -0.991027 0
M  V30 1135 H 108.36 0.86583 -0.38606 0
M  V30 1136 H 108.066 3.40729 -0.871572 0
M  V30 1137 H 107.94 3.67304 0.858366 0
M  V30 1138 H 110.327 2.72197 1.13985 0
M  V30 1139 H 110.408 2.48381 -0.611586 0
M  V30 1140 H 110.052 4.99005 -0.946374 0
M  V30 1141 H 109.982 5.20158 0.821153 0
M  V30 1142 H 112.473 3.77436 0.187263 0
M  V30 1143 H 112.786 7.72418 -0.242821 0
M  V30 1144 H 111.131 6.94678 -0.211429 0
M  V30 1145 H 114.322 4.67867 0.147773 0
M  V30 1146 H 114.495 6.47982 -0.048121 0
M  V30 1147 N 107.901 -0.206675 1.56239 0
M  V30 1148 C 109.129 -0.945345 1.8404 0
M  V30 1149 C 109.544 -1.77336 0.647885 0
M  V30 1150 O 108.901 -1.78425 -0.383511 0
M  V30 1151 C 108.952 -1.8509 3.10522 0
M  V30 1152 O 108.673 -1.05634 4.25174 0
M  V30 1153 C 110.174 -2.70222 3.51418 0
M  V30 1154 H 107.394 -0.276372 0.61144 0
M  V30 1155 H 109.938 -0.217417 2.03341 0
M  V30 1156 H 108.093 -2.53259 2.93153 0
M  V30 1157 H 108.507 -1.67238 4.97124 0
M  V30 1158 H 109.981 -3.29438 4.42916 0
M  V30 1159 H 110.458 -3.43358 2.73864 0
M  V30 1160 H 111.064 -2.07443 3.71278 0
M  V30 1161 N 109.379 -1.50304 -0.473955 0
M  V30 1162 C 110.79 -1.54042 -1.0549 0
M  V30 1163 C 111.141 -0.342248 -1.93192 0
M  V30 1164 O 110.266 0.545157 -2.09421 0
M  V30 1165 C 110.861 -2.79152 -1.91989 0
M  V30 1166 C 109.42 -2.8558 -2.45196 0
M  V30 1167 C 108.567 -2.48295 -1.2347 0
M  V30 1168 H 111.518 -1.5661 -0.256693 0
M  V30 1169 H 111.539 -2.60845 -2.7702 0
M  V30 1170 H 111.051 -3.66339 -1.28131 0
M  V30 1171 H 109.152 -2.02738 -3.12615 0
M  V30 1172 H 109.265 -3.88403 -2.80499 0
M  V30 1173 H 107.629 -2.00669 -1.56856 0
M  V30 1174 H 108.412 -3.37787 -0.612789 0
M  V30 1175 N 110.857 0.726932 -1.39834 0
M  V30 1176 C 111.804 1.841 -1.39197 0
M  V30 1177 C 112.774 1.642 -0.250502 0
M  V30 1178 O 113.959 1.85494 -0.446846 0
M  V30 1179 C 111.099 3.21697 -1.24919 0
M  V30 1180 C 110.212 3.53247 -2.48678 0
M  V30 1181 C 109.347 4.80289 -2.26928 0
M  V30 1182 C 108.386 5.04707 -3.4632 0
M  V30 1183 N 107.523 6.22956 -3.23836 0
M  V30 1184 H 112.363 1.83979 -2.34427 0
M  V30 1185 H 109.9 0.898876 -1.16442 0
M  V30 1186 H 111.858 4.01137 -1.1465 0
M  V30 1187 H 110.488 3.21076 -0.333153 0
M  V30 1188 H 109.54 2.68447 -2.69519 0
M  V30 1189 H 110.852 3.67205 -3.37582 0
M  V30 1190 H 110.006 5.67725 -2.13947 0
M  V30 1191 H 108.745 4.68519 -1.35431 0
M  V30 1192 H 107.75 4.1573 -3.5979 0
M  V30 1193 H 108.975 5.18357 -4.38729 0
M  V30 1194 H 106.921 6.12459 -2.35011 0
M  V30 1195 H 106.838 6.37539 -4.063 0
M  V30 1196 H 108.106 7.1321 -3.14566 0
M  V30 1197 N 112.336 1.25143 0.95797 0
M  V30 1198 C 113.585 1.0909 1.69654 0
M  V30 1199 C 113.898 -0.368548 1.92097 0
M  V30 1200 O 115.104 -0.649455 2.63618 0
M  V30 1201 C 113.56 1.90395 3.05414 0
M  V30 1202 C 113.168 3.4081 2.90779 0
M  V30 1203 C 114.912 1.82901 3.83076 0
M  V30 1204 C 112.819 4.14423 4.21909 0
M  V30 1205 H 111.749 0.404625 0.636235 0
M  V30 1206 H 114.4 1.4931 1.06672 0
M  V30 1207 H 112.782 1.42996 3.69281 0
M  V30 1208 H 113.956 3.95859 2.35865 0
M  V30 1209 H 112.271 3.49361 2.26575 0
M  V30 1210 H 114.868 2.35196 4.80195 0
M  V30 1211 H 115.211 0.796224 4.08615 0
M  V30 1212 H 115.744 2.28033 3.25954 0
M  V30 1213 H 112.483 5.18102 4.01561 0
M  V30 1214 H 112.003 3.64159 4.76601 0
M  V30 1215 H 113.682 4.21956 4.90471 0
M  V30 1216 N 113.814 -1.1601 1.06675 0
M  V30 1217 C 115.06 -1.86909 0.786945 0
M  V30 1218 C 115.393 -1.81717 -0.685018 0
M  V30 1219 O 114.668 -1.23551 -1.50218 0
M  V30 1220 C 114.951 -3.36313 1.28707 0
M  V30 1221 C 114.804 -3.50175 2.82308 0
M  V30 1222 C 116.123 -4.3084 0.898071 0
M  V30 1223 H 113.242 -0.678677 0.287343 0
M  V30 1224 H 115.884 -1.36336 1.32334 0
M  V30 1225 H 114.034 -3.79513 0.830768 0
M  V30 1226 H 115.706 -3.15886 3.36175 0
M  V30 1227 H 113.949 -2.91959 3.20847 0
M  V30 1228 H 114.62 -4.55116 3.12368 0
M  V30 1229 H 117.096 -3.95561 1.29114 0
M  V30 1230 H 115.972 -5.33876 1.27543 0
M  V30 1231 H 116.233 -4.41662 -0.196651 0
M  V30 1232 N 115.292 -0.849877 -1.32721 0
M  V30 1233 C 116.517 -0.463856 -2.02146 0
M  V30 1234 C 116.942 0.930449 -1.63476 0
M  V30 1235 O 116.3 1.61033 -0.832952 0
M  V30 1236 C 116.348 -0.604955 -3.55489 0
M  V30 1237 O 115.452 0.36425 -4.10788 0
M  V30 1238 H 114.793 -0.187046 -0.637111 0
M  V30 1239 H 117.323 -1.14775 -1.69375 0
M  V30 1240 H 117.333 -0.490696 -4.05038 0
M  V30 1241 H 116.008 -1.62174 -3.82978 0
M  V30 1242 H 114.585 0.206628 -3.72327 0
M  V30 1243 N 116.77 1.45427 -0.607355 0
M  V30 1244 C 118.018 2.01841 -0.102253 0
M  V30 1245 C 118.339 1.47832 1.27164 0
M  V30 1246 O 117.609 0.672497 1.83995 0
M  V30 1247 H 116.189 0.746188 -0.0348101 0
M  V30 1248 H 118.851 1.78229 -0.7887 0
M  V30 1249 H 117.947 3.12057 -0.0518585 0
M  V30 1250 N 118.248 0.346503 1.53744 0
M  V30 1251 C 119.195 -0.508914 2.25119 0
M  V30 1252 C 120.165 -1.09315 1.25058 0
M  V30 1253 O 121.35 -1.12921 1.53797 0
M  V30 1254 C 118.49 -1.65246 3.02965 0
M  V30 1255 C 117.603 -1.09525 4.17886 0
M  V30 1256 C 116.738 -2.20634 4.83212 0
M  V30 1257 C 115.777 -1.62279 5.90196 0
M  V30 1258 N 114.914 -2.67143 6.49291 0
M  V30 1259 H 119.754 0.106283 2.9781 0
M  V30 1260 H 117.291 0.0642227 1.4696 0
M  V30 1261 H 119.249 -2.32574 3.4636 0
M  V30 1262 H 117.879 -2.2386 2.32565 0
M  V30 1263 H 116.931 -0.312818 3.79112 0
M  V30 1264 H 118.243 -0.628444 4.94825 0
M  V30 1265 H 117.397 -2.95821 5.29693 0
M  V30 1266 H 116.136 -2.70659 4.05703 0
M  V30 1267 H 115.141 -0.855989 5.43096 0
M  V30 1268 H 116.366 -1.13102 6.69615 0
M  V30 1269 H 114.312 -3.16417 5.74645 0
M  V30 1270 H 114.229 -2.25093 7.21713 0
M  V30 1271 H 115.497 -3.4209 7.00425 0
M  V30 1272 N 119.726 -1.57421 0.075193 0
M  V30 1273 C 121.003 -1.85029 -0.634329 0
M  V30 1274 C 121.383 -0.968305 -1.87582 0
M  V30 1275 O 120.731 -0.0354749 -2.28472 0
M  V30 1276 C 120.941 -3.35286 -0.968742 0
M  V30 1277 C 122.289 -4.02875 -1.34077 0
M  V30 1278 O 123.313 -3.40051 -1.06037 0
M  V30 1279 O 122.172 -5.13691 -1.86506 0
M  V30 1280 H 119.266 -0.7645 -0.315387 0
M  V30 1281 H 121.812 -1.69366 0.106382 0
M  V30 1282 H 120.584 -3.91203 -0.0871376 0
M  V30 1283 H 120.207 -3.56223 -1.7661 0
M  V30 1284 N 121.204 0.198386 -1.56346 0
M  V30 1285 C 122.434 0.934215 -1.84271 0
M  V30 1286 C 122.842 1.77496 -0.655125 0
M  V30 1287 O 122.185 1.7961 0.385488 0
M  V30 1288 C 122.247 1.88278 -3.06254 0
M  V30 1289 C 121.911 1.22431 -4.40295 0
M  V30 1290 C 122.908 0.602839 -5.16393 0
M  V30 1291 C 120.593 1.22915 -4.87029 0
M  V30 1292 C 122.587 -0.0050083 -6.374 0
M  V30 1293 C 120.274 0.617465 -6.07973 0
M  V30 1294 C 121.272 0.00146341 -6.83 0
M  V30 1295 O 120.96 -0.600642 -8.01653 0
M  V30 1296 H 120.692 0.278245 -0.616081 0
M  V30 1297 H 123.246 0.211626 -2.04307 0
M  V30 1298 H 121.476 2.64498 -2.82095 0
M  V30 1299 H 123.165 2.48612 -3.20853 0
M  V30 1300 H 123.931 0.591265 -4.81382 0
M  V30 1301 H 119.81 1.69801 -4.28589 0
M  V30 1302 H 123.354 -0.48643 -6.95902 0
M  V30 1303 H 119.251 0.62653 -6.42452 0
M  V30 1304 H 120.019 -0.497225 -8.16988 0
M  V30 1305 N 122.682 1.50554 0.465978 0
M  V30 1306 C 123.63 1.70324 1.58406 0
M  V30 1307 C 124.624 0.569139 1.59553 0
M  V30 1308 O 125.83 0.749776 1.63641 0
M  V30 1309 H 122.205 0.537688 0.525734 0
M  V30 1310 H 124.176 2.64104 1.38894 0
M  V30 1311 C 122.925 1.81928 2.96307 0
M  V30 1312 H 122.248 2.68586 2.96144 0
M  V30 1313 H 123.688 1.99784 3.73982 0
M  V30 1314 C 122.147 0.572095 3.32007 0
M  V30 1315 O 122.677 -0.286416 4.00678 0
M  V30 1316 N 120.883 0.424606 2.87481 0
M  V30 1317 H 120.43 1.12427 2.31771 0
M  V30 1318 H 120.388 -0.408697 3.11732 0
M  V30 1319 N 124.16 -0.719506 1.40217 0
M  V30 1320 C 125.406 -1.48152 1.38488 0
M  V30 1321 C 125.739 -1.94195 -0.0141867 0
M  V30 1322 O 125.014 -1.67884 -0.982096 0
M  V30 1323 C 125.297 -2.71035 2.37091 0
M  V30 1324 C 125.15 -2.30912 3.86005 0
M  V30 1325 C 126.469 -3.73182 2.33288 0
M  V30 1326 H 123.588 -0.537395 0.504357 0
M  V30 1327 H 126.23 -0.821472 1.71324 0
M  V30 1328 H 124.38 -3.27352 2.0922 0
M  V30 1329 H 126.052 -1.80107 4.24687 0
M  V30 1330 H 124.295 -1.62958 4.02029 0
M  V30 1331 H 124.966 -3.18978 4.50508 0
M  V30 1332 H 127.442 -3.26485 2.57966 0
M  V30 1333 H 126.318 -4.56806 3.04334 0
M  V30 1334 H 126.579 -4.21202 1.34317 0
M  V30 1335 N 125.638 -1.25649 -0.95132 0
M  V30 1336 C 126.866 -1.13343 -1.73092 0
M  V30 1337 C 127.281 0.312434 -1.86197 0
M  V30 1338 O 126.638 1.21465 -1.36207 0
M  V30 1339 C 126.689 -1.78602 -3.14299 0
M  V30 1340 O 126.41 -3.17537 -3.01831 0
M  V30 1341 C 127.911 -1.72119 -4.08522 0
M  V30 1342 H 125.131 -0.395181 -0.542285 0
M  V30 1343 H 127.675 -1.66076 -1.19328 0
M  V30 1344 H 125.83 -1.29832 -3.64996 0
M  V30 1345 H 126.244 -3.49676 -3.90931 0
M  V30 1346 H 127.718 -2.22435 -5.052 0
M  V30 1347 H 128.195 -0.685635 -4.33815 0
M  V30 1348 H 128.801 -2.20393 -3.63741 0
M  V30 1349 N 127.117 1.15442 -1.07289 0
M  V30 1350 C 128.08 2.18358 -0.696591 0
M  V30 1351 C 129.08 1.58637 0.262837 0
M  V30 1352 O 130.27 1.74145 0.0438809 0
M  V30 1353 C 127.402 3.4089 -0.0266151 0
M  V30 1354 H 128.595 2.53162 -1.60776 0
M  V30 1355 H 126.148 1.29893 -0.869342 0
M  V30 1356 H 126.883 3.11653 0.896822 0
M  V30 1357 H 126.668 3.85495 -0.716657 0
M  V30 1358 H 128.158 4.17009 0.222028 0
M  V30 1359 N 128.595 0.856903 1.32268 0
M  V30 1360 C 129.543 0.291987 2.3076 0
M  V30 1361 C 130.537 -0.585857 1.58947 0
M  V30 1362 O 131.743 -0.47341 1.73663 0
M  V30 1363 H 128.118 0.075721 0.748178 0
M  V30 1364 H 130.089 1.13687 2.75895 0
M  V30 1365 C 128.838 -0.502869 3.44044 0
M  V30 1366 H 128.161 0.163328 3.99466 0
M  V30 1367 H 129.601 -0.863691 4.1511 0
M  V30 1368 C 128.06 -1.68898 2.91505 0
M  V30 1369 O 128.59 -2.78811 2.89184 0
M  V30 1370 N 126.796 -1.51679 2.47875 0
M  V30 1371 H 126.343 -0.622666 2.49961 0
M  V30 1372 H 126.301 -2.31184 2.13076 0
M  V30 1373 N 130.073 -1.45103 0.615059 0
M  V30 1374 C 131.298 -2.07064 0.117988 0
M  V30 1375 C 131.723 -1.4554 -1.19163 0
M  V30 1376 O 131.081 -0.550855 -1.72729 0
M  V30 1377 C 131.129 -3.606 -0.000288387 0
M  V30 1378 O 130.233 -3.98847 -1.04856 0
M  V30 1379 H 129.574 -0.659467 0.0774581 0
M  V30 1380 H 132.104 -1.86236 0.847186 0
M  V30 1381 H 132.114 -4.07529 -0.196091 0
M  V30 1382 H 130.789 -4.04765 0.955932 0
M  V30 1383 H 129.366 -3.63577 -0.828619 0
M  V30 1384 N 131.551 -0.354651 -1.53558 0
M  V30 1385 C 132.498 0.496968 -2.25386 0
M  V30 1386 C 133.468 1.0865 -1.25636 0
M  V30 1387 O 134.653 1.12104 -1.54394 0
M  V30 1388 C 131.793 1.63637 -3.03837 0
M  V30 1389 C 130.906 1.07307 -4.18461 0
M  V30 1390 C 130.041 2.18068 -4.84376 0
M  V30 1391 C 129.08 1.59147 -5.91049 0
M  V30 1392 N 128.217 2.63695 -6.50699 0
M  V30 1393 H 133.057 -0.122075 -2.9775 0
M  V30 1394 H 130.594 -0.0720154 -1.46924 0
M  V30 1395 H 132.552 2.30734 -3.47589 0
M  V30 1396 H 131.182 2.22623 -2.33749 0
M  V30 1397 H 130.234 0.292708 -3.79272 0
M  V30 1398 H 131.546 0.602193 -4.95152 0
M  V30 1399 H 130.7 2.93007 -5.31255 0
M  V30 1400 H 129.439 2.68504 -4.07133 0
M  V30 1401 H 128.444 0.827175 -5.43542 0
M  V30 1402 H 129.669 1.09549 -6.70206 0
M  V30 1403 H 127.615 3.13365 -5.76315 0
M  V30 1404 H 127.532 2.21263 -7.22896 0
M  V30 1405 H 128.8 3.3837 -7.02229 0
M  V30 1406 N 133.029 1.57378 -0.0835403 0
M  V30 1407 C 133.959 2.1641 0.87686 0
M  V30 1408 C 134.94 1.09429 1.30228 0
M  V30 1409 O 136.125 1.37516 1.37124 0
M  V30 1410 C 133.255 2.73517 2.14022 0
M  V30 1411 C 132.209 3.85769 1.85381 0
M  V30 1412 C 131.535 4.29529 3.18448 0
M  V30 1413 C 132.835 5.09486 1.14984 0
M  V30 1414 H 134.529 2.96914 0.385059 0
M  V30 1415 H 132.075 1.42823 0.18377 0
M  V30 1416 H 134.028 3.13463 2.81636 0
M  V30 1417 H 132.752 1.90252 2.65465 0
M  V30 1418 H 131.411 3.46345 1.20169 0
M  V30 1419 H 131.059 3.43169 3.67755 0
M  V30 1420 H 130.759 5.05204 3.00071 0
M  V30 1421 H 132.283 4.72099 3.8724 0
M  V30 1422 H 133.697 5.46674 1.72687 0
M  V30 1423 H 132.094 5.90515 1.06826 0
M  V30 1424 H 133.164 4.84724 0.130749 0
M  V30 1425 N 134.507 -0.190092 1.56449 0
M  V30 1426 C 135.753 -0.911052 1.81184 0
M  V30 1427 C 136.086 -1.82699 0.658396 0
M  V30 1428 O 135.361 -1.91491 -0.340775 0
M  V30 1429 C 135.644 -1.72297 3.16205 0
M  V30 1430 C 135.497 -0.831419 4.42049 0
M  V30 1431 C 136.816 -2.69454 3.47969 0
M  V30 1432 H 133.935 -0.32977 0.659106 0
M  V30 1433 H 136.577 -0.178169 1.89163 0
M  V30 1434 H 134.727 -2.34778 3.09534 0
M  V30 1435 H 136.399 -0.220929 4.60771 0
M  V30 1436 H 134.642 -0.138406 4.33579 0
M  V30 1437 H 135.313 -1.43461 5.33032 0
M  V30 1438 H 137.789 -2.17104 3.54972 0
M  V30 1439 H 136.665 -3.23342 4.43555 0
M  V30 1440 H 136.926 -3.48744 2.71717 0
M  V30 1441 N 135.985 -1.50799 -0.457987 0
M  V30 1442 C 137.234 -1.6168 -1.20593 0
M  V30 1443 C 137.547 -0.32888 -1.92815 0
M  V30 1444 O 138.753 -0.316773 -2.69646 0
M  V30 1445 C 137.209 -2.8545 -2.19195 0
M  V30 1446 C 136.817 -4.21168 -1.52715 0
M  V30 1447 C 138.561 -3.05681 -2.94549 0
M  V30 1448 C 136.468 -5.3611 -2.4968 0
M  V30 1449 H 135.398 -0.602134 -0.453818 0
M  V30 1450 H 138.049 -1.77245 -0.475031 0
M  V30 1451 H 136.431 -2.63472 -2.95632 0
M  V30 1452 H 137.605 -4.53449 -0.819775 0
M  V30 1453 H 135.92 -4.06648 -0.895922 0
M  V30 1454 H 138.517 -3.88727 -3.67145 0
M  V30 1455 H 138.86 -2.17929 -3.54701 0
M  V30 1456 H 139.393 -3.27901 -2.25223 0
M  V30 1457 H 136.132 -6.26057 -1.94249 0
M  V30 1458 H 135.652 -5.0823 -3.18532 0
M  V30 1459 H 137.331 -5.6722 -3.11241 0
M  V30 1460 N 137.463 0.71206 -1.40597 0
M  V30 1461 C 138.712 1.46754 -1.38369 0
M  V30 1462 C 139.025 1.95598 0.0097839 0
M  V30 1463 O 140.231 2.71059 0.154677 0
M  V30 1464 C 138.687 2.65289 -2.43207 0
M  V30 1465 C 138.295 2.23301 -3.88382 0
M  V30 1466 C 140.039 3.43008 -2.50091 0
M  V30 1467 C 137.946 3.38696 -4.84808 0
M  V30 1468 H 136.876 0.55118 -0.514506 0
M  V30 1469 H 139.527 0.774616 -1.66349 0
M  V30 1470 H 137.909 3.36769 -2.08332 0
M  V30 1471 H 139.083 1.59218 -4.32419 0
M  V30 1472 H 137.398 1.58618 -3.85006 0
M  V30 1473 H 139.995 4.28881 -3.1932 0
M  V30 1474 H 140.338 3.87065 -1.53253 0
M  V30 1475 H 140.871 2.78574 -2.83974 0
M  V30 1476 H 137.61 2.99668 -5.82992 0
M  V30 1477 H 137.13 4.01683 -4.45433 0
M  V30 1478 H 138.809 4.04712 -5.04794 0
M  V30 1479 N 138.941 1.26152 0.944643 0
M  V30 1480 C 140.169 1.14259 1.72489 0
M  V30 1481 C 140.584 -0.302555 1.8636 0
M  V30 1482 O 139.941 -1.20741 1.36849 0
M  V30 1483 C 139.992 1.80266 3.13347 0
M  V30 1484 O 139.713 3.19133 3.00143 0
M  V30 1485 C 141.214 1.74283 4.07603 0
M  V30 1486 H 138.434 0.398051 0.540181 0
M  V30 1487 H 140.978 1.66706 1.18446 0
M  V30 1488 H 139.133 1.31766 3.64303 0
M  V30 1489 H 139.547 3.51744 3.89071 0
M  V30 1490 H 141.021 2.25111 5.04013 0
M  V30 1491 H 141.498 0.708631 4.33446 0
M  V30 1492 H 142.104 2.22319 3.62567 0
M  V30 1493 N 140.419 -1.14872 1.07899 0
M  V30 1494 C 141.382 -2.17986 0.708161 0
M  V30 1495 C 142.382 -1.58775 -0.25442 0
M  V30 1496 O 143.572 -1.74166 -0.034645 0
M  V30 1497 C 140.704 -3.40871 0.0446929 0
M  V30 1498 H 141.897 -2.52306 1.62116 0
M  V30 1499 H 139.45 -1.2943 0.876218 0
M  V30 1500 H 140.185 -3.12124 -0.880281 0
M  V30 1501 H 139.97 -3.8511 0.737091 0
M  V30 1502 H 141.46 -4.17121 -0.19991 0
M  V30 1503 N 141.898 -0.863906 -1.31812 0
M  V30 1504 C 143.146 -0.470904 -1.96537 0
M  V30 1505 C 143.467 0.978771 -1.68657 0
M  V30 1506 O 142.737 1.6853 -0.998717 0
M  V30 1507 H 141.317 -0.171148 -0.72713 0
M  V30 1508 H 143.979 -1.10236 -1.60729 0
M  V30 1509 H 143.075 -0.623616 -3.05806 0
M  V30 1510 N 143.376 1.44774 -0.622745 0
M  V30 1511 C 144.339 2.29069 0.0774015 0
M  V30 1512 C 145.339 1.4059 0.780461 0
M  V30 1513 O 146.529 1.62551 0.626322 0
M  V30 1514 C 143.661 3.21974 1.12006 0
M  V30 1515 H 144.854 2.92459 -0.663901 0
M  V30 1516 H 142.407 1.51548 -0.382486 0
M  V30 1517 H 143.142 2.63417 1.89162 0
M  V30 1518 H 142.927 3.87168 0.619951 0
M  V30 1519 H 144.417 3.85318 1.60995 0
M  V30 1520 N 144.854 0.36279 1.53368 0
M  V30 1521 C 146.27 0.0116182 1.59596 0
M  V30 1522 C 146.47 -1.47012 1.37803 0
M  V30 1523 O 145.526 -2.23136 1.18181 0
M  V30 1524 C 146.839 0.465052 2.97082 0
M  V30 1525 C 148.387 0.419033 3.10182 0
M  V30 1526 C 148.862 0.848235 4.50077 0
M  V30 1527 N 150.353 0.803183 4.56183 0
M  V30 1528 C 151.088 1.107 5.62613 0
M  V30 1529 N 150.584 1.47996 6.76808 0
M  V30 1530 N 152.377 1.02998 5.52583 0
M  V30 1531 H 144.528 1.32775 1.65785 0
M  V30 1532 H 146.791 0.542518 0.777417 0
M  V30 1533 H 146.497 1.49892 3.18159 0
M  V30 1534 H 146.371 -0.149786 3.76902 0
M  V30 1535 H 148.758 -0.605696 2.88817 0
M  V30 1536 H 148.839 1.06933 2.32377 0
M  V30 1537 H 148.483 1.87107 4.7218 0
M  V30 1538 H 148.413 0.175218 5.26308 0
M  V30 1539 H 150.904 0.52838 3.74188 0
M  V30 1540 H 151.217 1.69613 7.53957 0
M  V30 1541 H 149.562 1.51859 6.78206 0
M  V30 1542 H 152.753 0.737817 4.62249 0
M  V30 1543 H 152.926 1.2701 6.35431 0
M  V30 1544 N 146.332 -1.57332 0.0918853 0
M  V30 1545 C 147.264 -2.10869 -0.898168 0
M  V30 1546 C 148.277 -1.04521 -1.24817 0
M  V30 1547 O 149.466 -1.31977 -1.20184 0
M  V30 1548 C 146.566 -2.57083 -2.2082 0
M  V30 1549 C 145.739 -3.87229 -2.03402 0
M  V30 1550 C 144.798 -4.19324 -3.17889 0
M  V30 1551 O 143.824 -4.88598 -2.91994 0
M  V30 1552 N 145.026 -3.74471 -4.43567 0
M  V30 1553 H 147.791 -2.96439 -0.440943 0
M  V30 1554 H 145.352 -1.61631 -0.0933064 0
M  V30 1555 H 147.344 -2.75602 -2.96354 0
M  V30 1556 H 145.914 -1.76541 -2.57977 0
M  V30 1557 H 145.134 -3.7789 -1.12218 0
M  V30 1558 H 146.422 -4.72379 -1.89038 0
M  V30 1559 H 145.82 -3.18546 -4.67488 0
M  V30 1560 H 144.377 -3.98151 -5.16061 0
M  V30 1561 N 147.81 0.181792 -1.56548 0
M  V30 1562 C 148.742 1.24956 -1.92142 0
M  V30 1563 C 149.755 1.41022 -0.813422 0
M  V30 1564 O 150.944 1.41212 -1.09186 0
M  V30 1565 C 148.044 2.61981 -2.14987 0
M  V30 1566 C 147.217 2.6735 -3.46183 0
M  V30 1567 C 146.276 3.85664 -3.5798 0
M  V30 1568 O 145.302 3.72148 -4.30691 0
M  V30 1569 N 146.504 5.01683 -2.92053 0
M  V30 1570 H 149.269 0.947329 -2.84334 0
M  V30 1571 H 146.83 0.371629 -1.57577 0
M  V30 1572 H 148.822 3.3958 -2.20154 0
M  V30 1573 H 147.392 2.84637 -1.2923 0
M  V30 1574 H 146.612 1.75925 -3.52766 0
M  V30 1575 H 147.9 2.67939 -4.32534 0
M  V30 1576 H 147.298 5.15564 -2.32832 0
M  V30 1577 H 145.855 5.77181 -3.0283 0
M  V30 1578 N 149.288 1.51039 0.449983 0
M  V30 1579 C 150.198 1.74261 1.57067 0
M  V30 1580 C 151.214 0.626363 1.62335 0
M  V30 1581 O 152.39 0.907162 1.79812 0
M  V30 1582 C 149.455 1.85114 2.93144 0
M  V30 1583 C 148.516 3.0893 2.98095 0
M  V30 1584 C 147.749 3.19256 4.27681 0
M  V30 1585 O 147.972 2.35835 5.19363 0
M  V30 1586 O 146.906 4.12144 4.38658 0
M  V30 1587 H 150.732 2.69303 1.40391 0
M  V30 1588 H 148.317 1.35389 0.631688 0
M  V30 1589 H 150.199 1.94311 3.73926 0
M  V30 1590 H 148.874 0.932588 3.09975 0
M  V30 1591 H 147.781 3.0522 2.16314 0
M  V30 1592 H 149.114 4.00433 2.86206 0
M  V30 1593 N 150.766 -0.704594 1.40972 0
M  V30 1594 C 152.014 -1.46169 1.39568 0
M  V30 1595 C 152.335 -1.95 0.00253745 0
M  V30 1596 O 151.605 -1.71095 -0.954114 0
M  V30 1597 H 150.185 -0.542326 0.513704 0
M  V30 1598 H 152.847 -0.834553 1.76128 0
M  V30 1599 H 151.943 -2.32922 2.07735 0
M  V30 1600 N 152.244 -1.26651 -0.937939 0
M  V30 1601 C 153.154 -1.10276 -2.07066 0
M  V30 1602 C 154.17 -0.0354197 -1.73964 0
M  V30 1603 O 155.346 -0.239816 -1.99967 0
M  V30 1604 C 152.411 -0.740887 -3.38691 0
M  V30 1605 C 151.472 -1.88799 -3.85556 0
M  V30 1606 C 150.705 -1.54329 -5.10899 0
M  V30 1607 O 150.928 -0.446494 -5.6865 0
M  V30 1608 O 149.862 -2.37911 -5.52885 0
M  V30 1609 H 153.688 -2.05309 -2.23789 0
M  V30 1610 H 151.273 -1.05743 -1.0554 0
M  V30 1611 H 153.155 -0.55195 -4.1777 0
M  V30 1612 H 151.83 0.180022 -3.23199 0
M  V30 1613 H 150.737 -2.13191 -3.07409 0
M  V30 1614 H 152.07 -2.78874 -4.05574 0
M  V30 1615 N 153.722 1.14298 -1.08507 0
M  V30 1616 C 154.947 1.8976 -0.837001 0
M  V30 1617 C 155.372 1.78097 0.605228 0
M  V30 1618 O 154.73 1.12188 1.4242 0
M  V30 1619 C 154.778 3.37685 -1.26495 0
M  V30 1620 O 153.882 4.10281 -0.417514 0
M  V30 1621 H 153.223 0.590365 -0.303917 0
M  V30 1622 H 155.753 1.44672 -1.44676 0
M  V30 1623 H 155.763 3.88501 -1.24625 0
M  V30 1624 H 154.438 3.45492 -2.31534 0
M  V30 1625 H 153.015 3.69536 -0.499722 0
M  V30 1626 N 155.201 0.870884 1.31352 0
M  V30 1627 C 156.617 0.562932 1.49343 0
M  V30 1628 C 156.817 -0.902725 1.80148 0
M  V30 1629 O 155.873 -1.68484 1.88067 0
M  V30 1630 C 157.186 1.46393 2.62659 0
M  V30 1631 C 158.734 1.46607 2.76542 0
M  V30 1632 C 159.209 2.35266 3.92955 0
M  V30 1633 N 160.7 2.33151 4.00243 0
M  V30 1634 C 161.435 2.98471 4.89594 0
M  V30 1635 N 160.931 3.72964 5.8384 0
M  V30 1636 N 162.724 2.87775 4.82848 0
M  V30 1637 H 154.875 1.81923 1.09626 0
M  V30 1638 H 157.138 0.777934 0.541777 0
M  V30 1639 H 156.844 2.50689 2.46674 0
M  V30 1640 H 156.718 1.16314 3.58819 0
M  V30 1641 H 159.105 0.43069 2.9194 0
M  V30 1642 H 159.186 1.8071 1.81046 0
M  V30 1643 H 158.83 3.38881 3.78315 0
M  V30 1644 H 158.76 1.98487 4.87761 0
M  V30 1645 H 161.251 1.79006 3.32814 0
M  V30 1646 H 161.564 4.19932 6.4875 0
M  V30 1647 H 159.909 3.77073 5.83816 0
M  V30 1648 H 163.1 2.29116 4.08195 0
M  V30 1649 H 163.273 3.38961 5.52277 0
M  V30 1650 N 156.679 -1.44442 0.630414 0
M  V30 1651 C 157.609 -2.33418 -0.0618083 0
M  V30 1652 C 158.59 -1.48165 -0.835541 0
M  V30 1653 O 159.775 -1.76886 -0.801564 0
M  V30 1654 C 156.905 -3.31222 -1.04449 0
M  V30 1655 C 155.859 -4.26288 -0.382436 0
M  V30 1656 C 155.185 -5.13954 -1.47497 0
M  V30 1657 C 156.485 -5.1744 0.710865 0
M  V30 1658 H 158.179 -2.91548 0.681184 0
M  V30 1659 H 155.725 -1.40191 0.329026 0
M  V30 1660 H 157.678 -3.92351 -1.53748 0
M  V30 1661 H 156.402 -2.71299 -1.81836 0
M  V30 1662 H 155.061 -3.6649 0.0899054 0
M  V30 1663 H 154.709 -4.50385 -2.2397 0
M  V30 1664 H 154.409 -5.7837 -1.03737 0
M  V30 1665 H 155.933 -5.77955 -1.96979 0
M  V30 1666 H 157.347 -5.72509 0.300996 0
M  V30 1667 H 155.744 -5.90455 1.07156 0
M  V30 1668 H 156.814 -4.58496 1.57829 0
M  V30 1669 N 158.157 -0.370918 -1.53173 0
M  V30 1670 C 159.105 0.488101 -2.27421 0
M  V30 1671 C 160.099 1.07884 -1.30604 0
M  V30 1672 O 161.305 1.02143 -1.48212 0
M  V30 1673 H 157.68 0.176134 -0.731082 0
M  V30 1674 H 159.651 -0.159815 -2.97972 0
M  V30 1675 C 158.4 1.61306 -3.08019 0
M  V30 1676 H 157.723 1.1678 -3.82364 0
M  V30 1677 H 159.163 2.18872 -3.63141 0
M  V30 1678 C 157.622 2.55848 -2.19188 0
M  V30 1679 O 158.152 3.58799 -1.80626 0
M  V30 1680 N 156.358 2.2516 -1.83715 0
M  V30 1681 H 155.905 1.41476 -2.15273 0
M  V30 1682 H 155.863 2.8867 -1.24567 0
M  V30 1683 N 159.635 1.57281 -0.100228 0
M  V30 1684 C 160.565 2.17328 0.853857 0
M  V30 1685 C 161.546 1.10804 1.2906 0
M  V30 1686 O 162.731 1.38963 1.35657 0
M  V30 1687 C 159.861 2.75772 2.11109 0
M  V30 1688 C 158.815 3.87713 1.81279 0
M  V30 1689 C 158.141 4.32882 3.13874 0
M  V30 1690 C 159.441 5.10677 1.09574 0
M  V30 1691 H 161.135 2.97305 0.353545 0
M  V30 1692 H 158.681 1.43009 0.168612 0
M  V30 1693 H 160.634 3.16433 2.78296 0
M  V30 1694 H 159.358 1.93057 2.63432 0
M  V30 1695 H 158.017 3.476 1.16489 0
M  V30 1696 H 157.665 3.47051 3.64095 0
M  V30 1697 H 157.365 5.08358 2.94696 0
M  V30 1698 H 158.889 4.7618 3.82211 0
M  V30 1699 H 160.303 5.48474 1.66879 0
M  V30 1700 H 158.7 5.91615 1.00557 0
M  V30 1701 H 159.77 4.84835 0.0793299 0
M  V30 1702 N 161.113 -0.173488 1.56642 0
M  V30 1703 C 162.359 -0.891784 1.8214 0
M  V30 1704 C 162.692 -1.8199 0.677736 0
M  V30 1705 O 161.967 -1.91842 -0.320446 0
M  V30 1706 C 162.25 -1.68933 3.18015 0
M  V30 1707 C 162.103 -0.784487 4.42906 0
M  V30 1708 C 163.422 -2.65748 3.50808 0
M  V30 1709 H 160.541 -0.322761 0.662567 0
M  V30 1710 H 163.183 -0.158095 1.89341 0
M  V30 1711 H 161.333 -2.31482 3.12007 0
M  V30 1712 H 163.005 -0.172046 4.60979 0
M  V30 1713 H 161.248 -0.0924117 4.33702 0
M  V30 1714 H 161.919 -1.37799 5.34524 0
M  V30 1715 H 164.395 -2.13327 3.57255 0
M  V30 1716 H 163.271 -3.18619 4.4696 0
M  V30 1717 H 163.532 -3.45842 2.75401 0
M  V30 1718 N 162.591 -1.51276 -0.441967 0
M  V30 1719 C 163.523 -1.68444 -1.55433 0
M  V30 1720 C 164.536 -0.565187 -1.52674 0
M  V30 1721 O 165.725 -0.839356 -1.57534 0
M  V30 1722 C 162.825 -1.67966 -2.94348 0
M  V30 1723 C 161.998 -2.964 -3.21661 0
M  V30 1724 C 161.057 -2.88171 -4.40277 0
M  V30 1725 O 160.083 -3.62119 -4.39157 0
M  V30 1726 N 161.285 -2.03706 -5.43584 0
M  V30 1727 H 164.05 -2.644 -1.41112 0
M  V30 1728 H 161.611 -1.49104 -0.630838 0
M  V30 1729 H 163.603 -1.60035 -3.71713 0
M  V30 1730 H 162.173 -0.796225 -3.0229 0
M  V30 1731 H 161.393 -3.18234 -2.32638 0
M  V30 1732 H 162.681 -3.81427 -3.36736 0
M  V30 1733 H 162.079 -1.42995 -5.47329 0
M  V30 1734 H 160.636 -2.01658 -6.1982 0
M  V30 1735 N 164.069 0.697108 -1.41344 0
M  V30 1736 C 165.485 1.00751 -1.2378 0
M  V30 1737 C 165.685 2.01105 -0.126066 0
M  V30 1738 O 164.741 2.47295 0.51004 0
M  V30 1739 C 166.054 1.53359 -2.58653 0
M  V30 1740 C 167.602 1.6525 -2.65822 0
M  V30 1741 C 168.077 2.2126 -4.01009 0
M  V30 1742 N 169.568 2.28622 -4.02847 0
M  V30 1743 C 170.303 2.72984 -5.04249 0
M  V30 1744 N 169.799 3.16962 -6.16041 0
M  V30 1745 N 171.592 2.72534 -4.91611 0
M  V30 1746 H 163.743 0.0322662 -2.12375 0
M  V30 1747 H 166.006 0.0768853 -0.944877 0
M  V30 1748 H 165.712 0.870773 -3.4075 0
M  V30 1749 H 165.586 2.51597 -2.81032 0
M  V30 1750 H 167.973 2.30644 -1.84086 0
M  V30 1751 H 168.054 0.655614 -2.47256 0
M  V30 1752 H 167.698 1.56482 -4.83193 0
M  V30 1753 H 167.628 3.21698 -4.16915 0
M  V30 1754 H 170.119 1.97585 -3.22131 0
M  V30 1755 H 170.432 3.49434 -6.89287 0
M  V30 1756 H 168.777 3.14875 -6.1958 0
M  V30 1757 H 171.968 2.37525 -4.0336 0
M  V30 1758 H 172.141 3.06789 -5.70775 0
M  V30 1759 N 165.547 1.27147 0.931209 0
M  V30 1760 C 166.495 1.09398 2.05268 0
M  V30 1761 C 167.489 0.0180591 1.6939 0
M  V30 1762 O 168.695 0.17551 1.79142 0
M  V30 1763 H 165.07 0.336986 0.672268 0
M  V30 1764 H 167.041 2.04416 2.17386 0
M  V30 1765 C 165.79 0.75424 3.39421 0
M  V30 1766 H 165.113 1.57404 3.67511 0
M  V30 1767 H 166.553 0.669903 4.18674 0
M  V30 1768 C 165.012 -0.541197 3.32525 0
M  V30 1769 O 165.542 -1.57664 3.69466 0
M  V30 1770 N 163.748 -0.535517 2.85623 0
M  V30 1771 H 163.295 0.307511 2.55758 0
M  V30 1772 H 163.253 -1.40236 2.81392 0
M  V30 1773 N 167.025 -1.13721 1.09112 0
M  V30 1774 C 168.271 -1.85198 0.826414 0
M  V30 1775 C 168.604 -1.83129 -0.646319 0
M  V30 1776 O 167.879 -1.2671 -1.47563 0
M  V30 1777 C 168.162 -3.33507 1.35812 0
M  V30 1778 C 168.015 -3.44108 2.89672 0
M  V30 1779 C 169.334 -4.28838 0.989256 0
M  V30 1780 H 166.453 -0.67243 0.301675 0
M  V30 1781 H 169.095 -1.33499 1.35197 0
M  V30 1782 H 167.245 -3.77666 0.911082 0
M  V30 1783 H 168.917 -3.08684 3.428 0
M  V30 1784 H 167.16 -2.85087 3.26967 0
M  V30 1785 H 167.831 -4.48388 3.21951 0
M  V30 1786 H 170.307 -3.92734 1.37475 0
M  V30 1787 H 169.183 -5.31051 1.38838 0
M  V30 1788 H 169.444 -4.4198 -0.102924 0
M  V30 1789 N 168.503 -0.877838 -1.30888 0
M  V30 1790 C 169.451 -0.328662 -2.30266 0
M  V30 1791 C 170.445 0.560496 -1.59859 0
M  V30 1792 O 171.651 0.445722 -1.74394 0
M  V30 1793 H 168.026 -0.0876142 -0.746879 0
M  V30 1794 H 169.997 -1.18061 -2.74051 0
M  V30 1795 C 168.746 0.448071 -3.44801 0
M  V30 1796 H 168.069 -0.226859 -3.99156 0
M  V30 1797 H 169.509 0.797541 -4.16432 0
M  V30 1798 C 167.968 1.64239 -2.94155 0
M  V30 1799 O 168.498 2.74175 -2.93583 0
M  V30 1800 N 166.704 1.47716 -2.50256 0
M  V30 1801 H 166.251 0.582821 -2.5092 0
M  V30 1802 H 166.209 2.27765 -2.16727 0
M  V30 1803 N 169.982 1.44106 -0.638065 0
M  V30 1804 C 171.231 2.01194 -0.142744 0
M  V30 1805 C 171.544 1.50835 1.24532 0
M  V30 1806 O 172.75 2.00096 1.83504 0
M  V30 1807 C 171.206 3.59319 -0.20442 0
M  V30 1808 C 170.814 4.18674 -1.59423 0
M  V30 1809 C 172.558 4.23854 0.234079 0
M  V30 1810 C 170.465 5.69045 -1.61065 0
M  V30 1811 H 169.395 0.752367 -0.0495998 0
M  V30 1812 H 172.046 1.65246 -0.797881 0
M  V30 1813 H 170.428 3.92598 0.517946 0
M  V30 1814 H 171.602 3.96921 -2.34074 0
M  V30 1815 H 169.917 3.66453 -1.97741 0
M  V30 1816 H 172.514 5.34155 0.241443 0
M  V30 1817 H 172.857 3.96688 1.2627 0
M  V30 1818 H 173.39 3.95403 -0.436025 0
M  V30 1819 H 170.129 6.00956 -2.61787 0
M  V30 1820 H 169.649 5.929 -0.90718 0
M  V30 1821 H 171.328 6.32809 -1.34766 0
M  V30 1822 N 171.46 0.379036 1.52974 0
M  V30 1823 C 172.707 -0.206421 2.01445 0
M  V30 1824 C 173.035 -1.47668 1.26587 0
M  V30 1825 O 172.29 -1.92514 0.351675 0
M  V30 1826 C 172.589 -0.53096 3.53434 0
M  V30 1827 C 172.255 0.646546 4.46241 0
M  V30 1828 C 170.917 0.969604 4.7133 0
M  V30 1829 C 173.269 1.43479 5.01062 0
M  V30 1830 C 170.597 2.08263 5.48492 0
M  V30 1831 C 172.949 2.53834 5.7944 0
M  V30 1832 C 171.613 2.86659 6.02812 0
M  V30 1833 H 170.883 -0.0755349 0.73714 0
M  V30 1834 H 173.53 0.514271 1.84465 0
M  V30 1835 H 171.835 -1.33285 3.68432 0
M  V30 1836 H 173.532 -0.996417 3.88423 0
M  V30 1837 H 170.122 0.384734 4.2687 0
M  V30 1838 H 174.306 1.19844 4.81613 0
M  V30 1839 H 169.562 2.34078 5.64816 0
M  V30 1840 H 173.736 3.15319 6.20924 0
M  V30 1841 H 171.363 3.73026 6.62387 0
M  V30 1842 N 172.938 -1.57226 0.108567 0
M  V30 1843 C 173.885 -2.14756 -0.845481 0
M  V30 1844 C 174.855 -1.06971 -1.27068 0
M  V30 1845 O 176.04 -1.34827 -1.35005 0
M  V30 1846 C 173.18 -2.74298 -2.09415 0
M  V30 1847 C 172.293 -3.96358 -1.71826 0
M  V30 1848 C 171.428 -4.44021 -2.9158 0
M  V30 1849 C 170.467 -5.58637 -2.50181 0
M  V30 1850 N 169.604 -6.01091 -3.62814 0
M  V30 1851 H 174.444 -2.95961 -0.348035 0
M  V30 1852 H 171.981 -1.46226 -0.160106 0
M  V30 1853 H 173.939 -3.06945 -2.82561 0
M  V30 1854 H 172.569 -1.95801 -2.56636 0
M  V30 1855 H 171.621 -3.69939 -0.885947 0
M  V30 1856 H 172.933 -4.79504 -1.37394 0
M  V30 1857 H 172.087 -4.78522 -3.72963 0
M  V30 1858 H 170.826 -3.59803 -3.29231 0
M  V30 1859 H 169.831 -5.23751 -1.67228 0
M  V30 1860 H 171.056 -6.44613 -2.13659 0
M  V30 1861 H 169.002 -5.19817 -4.00158 0
M  V30 1862 H 168.919 -6.79066 -3.32273 0
M  V30 1863 H 170.187 -6.40227 -4.44668 0
M  V30 1864 N 174.416 0.165178 -1.56732 0
M  V30 1865 C 175.663 0.880807 -1.8234 0
M  V30 1866 C 175.991 1.81977 -0.686621 0
M  V30 1867 O 175.246 1.92971 0.325697 0
M  V30 1868 C 175.545 1.70405 -3.1416 0
M  V30 1869 C 175.211 0.913475 -4.4155 0
M  V30 1870 C 173.873 0.695303 -4.7615 0
M  V30 1871 C 176.225 0.359349 -5.1996 0
M  V30 1872 C 173.553 -0.0879947 -5.86634 0
M  V30 1873 C 175.905 -0.410893 -6.31264 0
M  V30 1874 C 174.569 -0.639808 -6.64427 0
M  V30 1875 H 173.839 0.32231 -0.667231 0
M  V30 1876 H 176.486 0.145402 -1.90947 0
M  V30 1877 H 174.791 2.50903 -3.00923 0
M  V30 1878 H 176.488 2.26091 -3.31186 0
M  V30 1879 H 173.078 1.09357 -4.14414 0
M  V30 1880 H 177.262 0.515228 -4.93618 0
M  V30 1881 H 172.518 -0.27503 -6.10781 0
M  V30 1882 H 176.692 -0.847494 -6.91224 0
M  V30 1883 H 174.319 -1.24864 -7.49875 0
M  V30 1884 N 175.894 1.51508 0.433938 0
M  V30 1885 C 177.143 1.63578 1.18005 0
M  V30 1886 C 177.456 0.359514 1.92268 0
M  V30 1887 O 178.662 0.359632 2.69108 0
M  V30 1888 C 177.118 2.88901 2.14626 0
M  V30 1889 C 176.726 4.23544 1.45995 0
M  V30 1890 C 178.47 3.10328 2.89649 0
M  V30 1891 C 176.377 5.40014 2.4112 0
M  V30 1892 H 175.307 0.609277 0.444182 0
M  V30 1893 H 177.958 1.77978 0.446773 0
M  V30 1894 H 176.34 2.68142 2.91403 0
M  V30 1895 H 177.514 4.54696 0.747532 0
M  V30 1896 H 175.829 4.08021 0.831115 0
M  V30 1897 H 178.426 3.94518 3.60915 0
M  V30 1898 H 178.769 2.23544 3.51189 0
M  V30 1899 H 179.302 3.31443 2.19978 0
M  V30 1900 H 176.041 6.29068 1.84264 0
M  V30 1901 H 175.561 5.13233 3.10406 0
M  V30 1902 H 177.24 5.72099 3.02177 0
M  V30 1903 N 177.372 -0.689602 1.41712 0
M  V30 1904 C 178.621 -1.44534 1.40686 0
M  V30 1905 C 178.934 -1.95588 0.0213352 0
M  V30 1906 O 180.14 -2.71271 -0.111534 0
M  V30 1907 C 178.596 -2.61387 2.47396 0
M  V30 1908 C 178.204 -2.17094 3.91885 0
M  V30 1909 C 179.948 -3.38986 2.55517 0
M  V30 1910 C 177.855 -3.3094 4.90135 0
M  V30 1911 H 176.785 -0.542925 0.52321 0
M  V30 1912 H 179.436 -0.748054 1.6756 0
M  V30 1913 H 177.818 -3.33412 2.13664 0
M  V30 1914 H 178.992 -1.52318 4.34897 0
M  V30 1915 H 177.307 -1.52473 3.8748 0
M  V30 1916 H 179.904 -4.23747 3.26102 0
M  V30 1917 H 180.247 -3.84578 1.59391 0
M  V30 1918 H 180.78 -2.74021 2.8837 0
M  V30 1919 H 177.519 -2.90355 5.87685 0
M  V30 1920 H 177.039 -3.94546 4.51767 0
M  V30 1921 H 178.718 -3.9663 5.11169 0
M  V30 1922 N 178.85 -1.27639 -0.924453 0
M  V30 1923 C 180.261 -1.12834 -1.48746 0
M  V30 1924 C 180.612 0.285505 -1.94112 0
M  V30 1925 O 179.737 1.17874 -1.81479 0
M  V30 1926 C 180.332 -2.04217 -2.70334 0
M  V30 1927 C 178.891 -1.93509 -3.22848 0
M  V30 1928 C 178.038 -1.96583 -1.95577 0
M  V30 1929 H 180.989 -1.40484 -0.738233 0
M  V30 1930 H 181.01 -1.59989 -3.4523 0
M  V30 1931 H 180.522 -3.07111 -2.37285 0
M  V30 1932 H 178.623 -0.936131 -3.60649 0
M  V30 1933 H 178.736 -2.79917 -3.88823 0
M  V30 1934 H 177.1 -1.4085 -2.12211 0
M  V30 1935 H 177.883 -3.01137 -1.64837 0
M  V30 1936 N 180.328 1.1314 -1.09713 0
M  V30 1937 C 181.276 2.20717 -0.733934 0
M  V30 1938 C 182.27 1.6729 0.266506 0
M  V30 1939 O 183.476 1.79547 0.127656 0
M  V30 1940 H 179.851 0.719292 -0.21937 0
M  V30 1941 H 181.822 2.48611 -1.6503 0
M  V30 1942 C 180.571 3.47265 -0.173849 0
M  V30 1943 H 179.894 3.88716 -0.934873 0
M  V30 1944 H 181.334 4.23979 0.0423126 0
M  V30 1945 C 179.793 3.18724 1.09164 0
M  V30 1946 O 180.323 3.37762 2.17439 0
M  V30 1947 N 178.529 2.72583 1.00732 0
M  V30 1948 H 178.076 2.57291 0.126121 0
M  V30 1949 H 178.034 2.53862 1.85476 0
M  V30 1950 N 181.806 0.884767 1.30421 0
M  V30 1951 C 183.052 0.503851 1.96441 0
M  V30 1952 C 183.385 -0.944518 1.69684 0
M  V30 1953 O 182.66 -1.66737 1.00145 0
M  V30 1954 C 182.943 0.779085 3.51571 0
M  V30 1955 C 182.796 2.27807 3.87846 0
M  V30 1956 C 184.115 0.255452 4.39358 0
M  V30 1957 H 181.234 0.184533 0.713524 0
M  V30 1958 H 183.876 1.10872 1.54297 0
M  V30 1959 H 182.026 0.264274 3.876 0
M  V30 1960 H 183.698 2.86127 3.61841 0
M  V30 1961 H 181.941 2.74479 3.35922 0
M  V30 1962 H 182.612 2.42125 4.96064 0
M  V30 1963 H 185.088 0.696079 4.10236 0
M  V30 1964 H 183.964 0.477361 5.4682 0
M  V30 1965 H 184.225 -0.843293 4.33983 0
M  V30 1966 N 183.284 -1.43765 0.645699 0
M  V30 1967 C 184.53 -2.02197 0.156271 0
M  V30 1968 C 184.863 -1.50776 -1.22393 0
M  V30 1969 O 184.138 -0.697771 -1.81553 0
M  V30 1970 C 184.421 -3.59749 0.158872 0
M  V30 1971 C 184.274 -4.21419 1.57245 0
M  V30 1972 C 185.593 -4.37149 -0.50879 0
M  V30 1973 H 182.712 -0.734694 0.0582602 0
M  V30 1974 H 185.354 -1.71157 0.824951 0
M  V30 1975 H 183.504 -3.86325 -0.410525 0
M  V30 1976 H 185.176 -4.059 2.19186 0
M  V30 1977 H 183.419 -3.78356 2.122 0
M  V30 1978 H 184.09 -5.30482 1.52619 0
M  V30 1979 H 186.566 -4.16093 -0.024412 0
M  V30 1980 H 185.442 -5.4683 -0.476213 0
M  V30 1981 H 185.703 -4.12839 -1.58165 0
M  V30 1982 N 184.763 -0.387143 -1.52771 0
M  V30 1983 C 185.71 0.449048 -2.26389 0
M  V30 1984 C 186.68 1.05961 -1.27912 0
M  V30 1985 O 187.865 1.08804 -1.56737 0
M  V30 1986 C 185.005 1.57155 -3.0724 0
M  V30 1987 C 184.118 0.984066 -4.20643 0
M  V30 1988 C 183.253 2.07745 -4.88892 0
M  V30 1989 C 182.292 1.46574 -5.94292 0
M  V30 1990 N 181.429 2.49834 -6.56146 0
M  V30 1991 H 186.269 -0.185205 -2.97424 0
M  V30 1992 H 183.806 -0.103164 -1.46738 0
M  V30 1993 H 185.764 2.23309 -3.52405 0
M  V30 1994 H 184.394 2.17615 -2.38419 0
M  V30 1995 H 183.446 0.212193 -3.79808 0
M  V30 1996 H 184.758 0.497029 -4.96318 0
M  V30 1997 H 183.912 2.81673 -5.3735 0
M  V30 1998 H 182.651 2.59807 -4.12737 0
M  V30 1999 H 181.656 0.711696 -5.45174 0
M  V30 2000 H 182.881 0.953088 -6.72379 0
M  V30 2001 H 180.827 3.0107 -5.82832 0
M  V30 2002 H 180.744 2.05879 -7.27427 0
M  V30 2003 H 182.012 3.23399 -7.09249 0
M  V30 2004 N 186.241 1.57166 -0.116904 0
M  V30 2005 C 187.471 1.99184 0.548586 0
M  V30 2006 C 187.879 0.995436 1.60897 0
M  V30 2007 O 187.222 -0.0201293 1.83689 0
M  V30 2008 C 187.284 3.37611 1.23526 0
M  V30 2009 C 186.948 4.55857 0.323077 0
M  V30 2010 C 187.945 5.18056 -0.437476 0
M  V30 2011 C 185.63 5.01751 0.234761 0
M  V30 2012 C 187.624 6.24536 -1.2741 0
M  V30 2013 C 185.311 6.08093 -0.605496 0
M  V30 2014 C 186.309 6.69352 -1.35856 0
M  V30 2015 O 185.997 7.7364 -2.18487 0
M  V30 2016 H 185.729 0.659148 0.149999 0
M  V30 2017 H 188.283 2.0443 -0.199428 0
M  V30 2018 H 186.513 3.29113 2.0303 0
M  V30 2019 H 188.202 3.63932 1.79745 0
M  V30 2020 H 188.968 4.83516 -0.379105 0
M  V30 2021 H 184.847 4.53817 0.810601 0
M  V30 2022 H 188.391 6.72281 -1.86237 0
M  V30 2023 H 184.288 6.42063 -0.665268 0
M  V30 2024 H 185.056 7.90727 -2.11406 0
M  V30 2025 N 187.719 -0.156864 1.56817 0
M  V30 2026 C 188.944 -0.890331 1.87318 0
M  V30 2027 C 189.369 -1.74394 0.704855 0
M  V30 2028 O 188.727 -1.77972 -0.345786 0
M  V30 2029 C 188.775 -1.73102 3.16336 0
M  V30 2030 O 187.879 -2.83422 2.99576 0
M  V30 2031 H 187.22 -0.24857 0.615718 0
M  V30 2032 H 189.75 -0.150649 2.04045 0
M  V30 2033 H 189.76 -2.12803 3.48107 0
M  V30 2034 H 188.435 -1.10412 4.00976 0
M  V30 2035 H 187.012 -2.47199 2.7919 0
M  V30 2036 N 189.197 -1.51736 -0.425897 0
M  V30 2037 C 190.608 -1.5732 -1.00536 0
M  V30 2038 C 190.959 -0.403537 -1.92005 0
M  V30 2039 O 190.084 0.478256 -2.11049 0
M  V30 2040 C 190.679 -2.85119 -1.8301 0
M  V30 2041 C 189.238 -2.93236 -2.35987 0
M  V30 2042 C 188.385 -2.52098 -1.15508 0
M  V30 2043 H 191.336 -1.57348 -0.206739 0
M  V30 2044 H 191.357 -2.69526 -2.68581 0
M  V30 2045 H 190.869 -3.7023 -1.16411 0
M  V30 2046 H 188.97 -2.12581 -3.06007 0
M  V30 2047 H 189.083 -3.9713 -2.68001 0
M  V30 2048 H 187.447 -2.05558 -1.50393 0
M  V30 2049 H 188.23 -3.39565 -0.505014 0
M  V30 2050 N 190.675 0.682077 -1.42076 0
M  V30 2051 C 191.623 1.81707 -1.45208 0
M  V30 2052 C 192.617 1.66183 -0.328591 0
M  V30 2053 O 193.823 1.7288 -0.501264 0
M  V30 2054 H 190.198 0.599014 -0.454628 0
M  V30 2055 H 192.169 1.76183 -2.40836 0
M  V30 2056 C 190.918 3.19816 -1.36428 0
M  V30 2057 H 190.241 3.32385 -2.22171 0
M  V30 2058 H 191.681 3.99272 -1.42681 0
M  V30 2059 C 190.14 3.36809 -0.078191 0
M  V30 2060 O 190.67 3.92124 0.87188 0
M  V30 2061 N 188.876 2.906 0.00229266 0
M  V30 2062 H 188.423 2.45772 -0.771616 0
M  V30 2063 H 188.381 3.02347 0.862179 0
M  V30 2064 N 192.153 1.28127 0.917671 0
M  V30 2065 C 193.393 1.163 1.68088 0
M  V30 2066 C 193.757 -0.284515 1.8988 0
M  V30 2067 O 194.958 -0.525413 2.63615 0
M  V30 2068 C 193.229 1.93546 3.00457 0
M  V30 2069 S 194.788 1.98048 3.91564 0
M  V30 2070 H 191.606 0.415005 0.577315 0
M  V30 2071 H 194.208 1.62173 1.09179 0
M  V30 2072 H 192.912 2.97888 2.82295 0
M  V30 2073 H 192.443 1.48207 3.64415 0
M  V30 2074 H 194.458 1.08415 4.84211 0
M  V30 2075 N 193.631 -1.12557 1.10312 0
M  V30 2076 C 194.578 -2.18247 0.750781 0
M  V30 2077 C 195.548 -1.63853 -0.272293 0
M  V30 2078 O 196.733 -1.90195 -0.151862 0
M  V30 2079 C 193.873 -3.44591 0.187379 0
M  V30 2080 C 192.986 -4.13046 1.2656 0
M  V30 2081 C 192.121 -5.27034 0.663978 0
M  V30 2082 C 191.16 -5.87353 1.72287 0
M  V30 2083 N 190.297 -6.92757 1.1416 0
M  V30 2084 H 195.137 -2.47732 1.65628 0
M  V30 2085 H 192.674 -1.21629 0.827337 0
M  V30 2086 H 194.632 -4.16904 -0.157148 0
M  V30 2087 H 193.262 -3.15527 -0.681355 0
M  V30 2088 H 192.314 -3.38924 1.72727 0
M  V30 2089 H 193.626 -4.53947 2.06721 0
M  V30 2090 H 192.78 -6.06104 0.268824 0
M  V30 2091 H 191.519 -4.87407 -0.169082 0
M  V30 2092 H 190.524 -5.06971 2.12746 0
M  V30 2093 H 191.749 -6.29051 2.55875 0
M  V30 2094 H 189.695 -6.5517 0.329984 0
M  V30 2095 H 189.612 -7.3225 1.88007 0
M  V30 2096 H 190.88 -7.75658 0.772956 0
M  V30 2097 N 195.109 -0.891671 -1.2995 0
M  V30 2098 C 196.039 -0.379797 -2.30391 0
M  V30 2099 C 197.02 0.540919 -1.6127 0
M  V30 2100 O 198.205 0.453352 -1.88834 0
M  V30 2101 C 195.335 0.400654 -3.44981 0
M  V30 2102 C 194.289 -0.428905 -4.25846 0
M  V30 2103 C 193.615 0.478557 -5.32554 0
M  V30 2104 C 194.915 -1.67458 -4.94727 0
M  V30 2105 H 196.609 -1.21914 -2.73454 0
M  V30 2106 H 194.155 -0.587675 -1.31462 0
M  V30 2107 H 196.108 0.769434 -4.14316 0
M  V30 2108 H 194.832 1.27371 -3.0074 0
M  V30 2109 H 193.491 -0.779911 -3.58208 0
M  V30 2110 H 193.139 1.34951 -4.84559 0
M  V30 2111 H 192.839 -0.0727433 -5.87555 0
M  V30 2112 H 194.363 0.843705 -6.04743 0
M  V30 2113 H 195.777 -1.376 -5.56542 0
M  V30 2114 H 194.174 -2.16659 -5.59624 0
M  V30 2115 H 195.244 -2.41518 -4.20473 0
M  V30 2116 N 196.587 1.43421 -0.653314 0
M  V30 2117 C 197.517 2.33487 0.0246656 0
M  V30 2118 C 198.498 1.49475 0.811863 0
M  V30 2119 O 199.683 1.78139 0.773322 0
M  V30 2120 C 196.813 3.32841 0.99166 0
M  V30 2121 C 195.767 4.26842 0.314568 0
M  V30 2122 C 195.093 5.16236 1.39302 0
M  V30 2123 C 196.393 5.16243 -0.793095 0
M  V30 2124 H 198.087 2.90427 -0.727481 0
M  V30 2125 H 195.633 1.39649 -0.351287 0
M  V30 2126 H 197.586 3.94747 1.47487 0
M  V30 2127 H 196.31 2.74158 1.77497 0
M  V30 2128 H 194.969 3.663 -0.148199 0
M  V30 2129 H 194.617 4.53891 2.16776 0
M  V30 2130 H 194.317 5.79948 0.945223 0
M  V30 2131 H 195.841 5.81015 1.87759 0
M  V30 2132 H 197.255 5.71958 -0.392039 0
M  V30 2133 H 195.652 5.88676 -1.16536 0
M  V30 2134 H 196.722 4.55927 -1.65103 0
M  V30 2135 N 198.065 0.39524 1.52563 0
M  V30 2136 C 199.314 -0.186321 2.00838 0
M  V30 2137 C 199.627 -1.47402 1.28577 0
M  V30 2138 O 200.833 -2.13599 1.67593 0
M  V30 2139 C 199.289 -0.382595 3.57861 0
M  V30 2140 C 198.897 0.892202 4.39026 0
M  V30 2141 C 200.641 -0.9202 4.14406 0
M  V30 2142 C 198.548 0.66388 5.87662 0
M  V30 2143 H 197.478 -0.0734041 0.750418 0
M  V30 2144 H 200.129 0.518552 1.76021 0
M  V30 2145 H 198.511 -1.14946 3.7895 0
M  V30 2146 H 199.685 1.66414 4.29701 0
M  V30 2147 H 198 1.35519 3.9373 0
M  V30 2148 H 200.597 -1.10683 5.23119 0
M  V30 2149 H 200.94 -1.89096 3.70875 0
M  V30 2150 H 201.473 -0.212751 3.97231 0
M  V30 2151 H 198.212 1.6058 6.35527 0
M  V30 2152 H 197.732 -0.0690193 5.9976 0
M  V30 2153 H 199.411 0.300699 6.46301 0
M  V30 2154 N 199.544 -1.57102 0.125237 0
M  V30 2155 C 200.79 -1.95697 -0.532035 0
M  V30 2156 C 201.123 -1.009 -1.6593 0
M  V30 2157 O 200.398 -0.047347 -1.94442 0
M  V30 2158 C 200.681 -3.44181 -1.05884 0
M  V30 2159 C 200.534 -4.49752 0.0654392 0
M  V30 2160 C 201.853 -3.94655 -1.9477 0
M  V30 2161 H 198.972 -0.711571 -0.191925 0
M  V30 2162 H 201.614 -1.88923 0.20206 0
M  V30 2163 H 199.764 -3.50085 -1.68442 0
M  V30 2164 H 201.436 -4.55943 0.700982 0
M  V30 2165 H 199.679 -4.27653 0.727709 0
M  V30 2166 H 200.35 -5.50924 -0.344505 0
M  V30 2167 H 202.826 -3.91094 -1.42074 0
M  V30 2168 H 201.702 -4.99057 -2.28546 0
M  V30 2169 H 201.963 -3.35718 -2.87656 0
M  V30 2170 N 201.022 0.148545 -1.56898 0
M  V30 2171 C 202.247 0.880385 -1.87787 0
M  V30 2172 C 202.672 1.74018 -0.714093 0
M  V30 2173 O 202.03 1.78153 0.336343 0
M  V30 2174 C 202.078 1.71422 -3.17249 0
M  V30 2175 O 201.182 2.8183 -3.01074 0
M  V30 2176 H 200.523 0.245301 -0.617028 0
M  V30 2177 H 203.053 0.139826 -2.04122 0
M  V30 2178 H 203.063 2.10954 -3.49231 0
M  V30 2179 H 201.738 1.08284 -4.01556 0
M  V30 2180 H 200.315 2.45715 -2.80497 0
M  V30 2181 N 202.5 1.5196 0.417844 0
M  V30 2182 C 203.448 1.75278 1.52907 0
M  V30 2183 C 204.442 0.619611 1.57662 0
M  V30 2184 O 205.648 0.801457 1.61173 0
M  V30 2185 H 202.023 0.554141 0.508362 0
M  V30 2186 H 203.994 2.68389 1.30422 0
M  V30 2187 C 202.743 1.91262 2.90369 0
M  V30 2188 H 202.066 2.77872 2.8745 0
M  V30 2189 H 203.506 2.11581 3.67436 0
M  V30 2190 C 201.965 0.677431 3.30019 0
M  V30 2191 O 202.495 -0.158799 4.01386 0
M  V30 2192 N 200.701 0.515851 2.85985 0
M  V30 2193 H 200.248 1.19744 2.28077 0
M  V30 2194 H 200.206 -0.309315 3.12875 0
M  V30 2195 N 203.978 -0.674533 1.42435 0
M  V30 2196 C 205.389 -1.25514 1.38214 0
M  V30 2197 C 205.74 -1.96055 0.0755464 0
M  V30 2198 O 204.865 -2.00028 -0.8257 0
M  V30 2199 C 205.46 -2.28269 2.50357 0
M  V30 2200 C 204.019 -2.81856 2.49467 0
M  V30 2201 C 203.166 -1.56182 2.29134 0
M  V30 2202 H 206.117 -0.467902 1.51646 0
M  V30 2203 H 206.138 -3.10009 2.20624 0
M  V30 2204 H 205.65 -1.769 3.45439 0
M  V30 2205 H 203.751 -3.37346 1.58204 0
M  V30 2206 H 203.864 -3.30854 3.46515 0
M  V30 2207 H 202.228 -1.82761 1.774 0
M  V30 2208 H 203.011 -1.06778 3.26272 0
M  V30 2209 N 205.456 -1.28612 -0.910864 0
M  V30 2210 C 206.702 -1.16106 -1.66274 0
M  V30 2211 C 207.035 0.289113 -1.92036 0
M  V30 2212 O 206.31 1.21 -1.52281 0
M  V30 2213 C 206.593 -1.96309 -3.01885 0
M  V30 2214 C 206.446 -3.49405 -2.8326 0
M  V30 2215 C 207.765 -1.78076 -4.02463 0
M  V30 2216 H 204.884 -0.423152 -0.603417 0
M  V30 2217 H 207.526 -1.57961 -1.05586 0
M  V30 2218 H 205.676 -1.60742 -3.53687 0
M  V30 2219 H 207.348 -3.94894 -2.38446 0
M  V30 2220 H 205.591 -3.74893 -2.18261 0
M  V30 2221 H 206.262 -4.00784 -3.79574 0
M  V30 2222 H 208.738 -2.0912 -3.59733 0
M  V30 2223 H 207.614 -2.36561 -4.95308 0
M  V30 2224 H 207.875 -0.733008 -4.35981 0
M  V30 2225 N 206.934 1.1197 -1.10907 0
M  V30 2226 C 208.211 1.79959 -0.766432 0
M  V30 2227 C 208.591 1.97466 0.746363 0
M  V30 2228 O 207.939 1.55491 1.67436 0
M  V30 2229 C 208.149 3.14009 -1.52314 0
M  V30 2230 C 209.497 3.89134 -1.69883 0
M  V30 2231 O 210.521 3.2368 -1.48692 0
M  V30 2232 O 209.38 5.06572 -2.05054 0
M  V30 2233 H 206.474 0.779208 -0.277062 0
M  V30 2234 H 209.02 1.18762 -1.21217 0
M  V30 2235 H 207.792 2.96587 -2.55249 0
M  V30 2236 H 207.415 3.82915 -1.07059 0
M  V30 2237 N 208.412 0.89855 1.29475 0
M  V30 2238 C 209.661 0.519863 1.94885 0
M  V30 2239 C 209.974 -0.9383 1.71625 0
M  V30 2240 O 211.18 -1.42445 2.31131 0
M  V30 2241 C 209.636 0.878836 3.49005 0
M  V30 2242 C 209.244 2.35569 3.81066 0
M  V30 2243 C 210.988 0.570004 4.20656 0
M  V30 2244 C 208.895 2.65558 5.28425 0
M  V30 2245 H 207.825 0.190692 0.729488 0
M  V30 2246 H 210.476 1.09539 1.47219 0
M  V30 2247 H 208.858 0.232253 3.95318 0
M  V30 2248 H 210.032 3.04773 3.45616 0
M  V30 2249 H 208.347 2.63343 3.22552 0
M  V30 2250 H 210.944 0.770925 5.29113 0
M  V30 2251 H 211.287 -0.491404 4.1339 0
M  V30 2252 H 211.82 1.17438 3.8007 0
M  V30 2253 H 208.559 3.70493 5.40754 0
M  V30 2254 H 208.079 2.00977 5.65127 0
M  V30 2255 H 209.758 2.51765 5.96006 0
M  V30 2256 N 209.89 -1.43072 0.660911 0
M  V30 2257 C 210.82 -2.33497 -0.0122829 0
M  V30 2258 C 211.801 -1.49903 -0.803925 0
M  V30 2259 O 212.986 -1.78546 -0.763864 0
M  V30 2260 C 210.116 -3.33363 -0.973994 0
M  V30 2261 C 209.07 -4.27003 -0.291928 0
M  V30 2262 C 208.396 -5.16967 -1.36562 0
M  V30 2263 C 209.696 -5.15816 0.820462 0
M  V30 2264 H 211.39 -2.90038 0.742873 0
M  V30 2265 H 208.936 -1.39461 0.358688 0
M  V30 2266 H 210.889 -3.95524 -1.45392 0
M  V30 2267 H 209.613 -2.75095 -1.7604 0
M  V30 2268 H 208.272 -3.66217 0.167623 0
M  V30 2269 H 207.92 -4.55034 -2.14366 0
M  V30 2270 H 207.62 -5.80441 -0.914454 0
M  V30 2271 H 209.144 -5.82003 -1.84675 0
M  V30 2272 H 210.558 -5.71742 0.422366 0
M  V30 2273 H 208.955 -5.8805 1.19656 0
M  V30 2274 H 210.025 -4.55045 1.67518 0
M  V30 2275 N 211.368 -0.403325 -1.52352 0
M  V30 2276 C 212.596 0.174012 -2.06167 0
M  V30 2277 C 213.011 1.39347 -1.27388 0
M  V30 2278 O 212.368 1.79597 -0.324201 0
M  V30 2279 C 212.419 0.530223 -3.5759 0
M  V30 2280 O 212.14 -0.640806 -4.33388 0
M  V30 2281 C 213.641 1.16192 -4.27802 0
M  V30 2282 H 210.861 0.0229464 -0.670608 0
M  V30 2283 H 213.405 -0.572604 -1.9632 0
M  V30 2284 H 211.56 1.22673 -3.67464 0
M  V30 2285 H 211.974 -0.344851 -5.23365 0
M  V30 2286 H 213.448 1.36141 -5.34948 0
M  V30 2287 H 213.925 2.13335 -3.83907 0
M  V30 2288 H 214.531 0.505775 -4.22282 0
M  V30 2289 N 212.846 1.57033 -0.133567 0
M  V30 2290 C 214.076 1.99754 0.527429 0
M  V30 2291 C 214.484 1.01245 1.59832 0
M  V30 2292 O 213.827 -0.000645496 1.837 0
M  V30 2293 C 213.889 3.38903 1.19939 0
M  V30 2294 C 213.553 4.56174 0.274709 0
M  V30 2295 C 214.55 5.17563 -0.492398 0
M  V30 2296 C 212.235 5.01972 0.18153 0
M  V30 2297 C 214.229 6.2315 -1.34027 0
M  V30 2298 C 211.916 6.07416 -0.669958 0
M  V30 2299 C 212.914 6.67874 -1.42947 0
M  V30 2300 O 212.602 7.71279 -2.2668 0
M  V30 2301 H 212.334 0.660702 0.142999 0
M  V30 2302 H 214.888 2.04207 -0.221099 0
M  V30 2303 H 213.118 3.31248 1.99528 0
M  V30 2304 H 214.807 3.65818 1.75875 0
M  V30 2305 H 215.573 4.83087 -0.430367 0
M  V30 2306 H 211.452 4.54652 0.762422 0
M  V30 2307 H 214.996 6.70268 -1.93357 0
M  V30 2308 H 210.893 6.41321 -0.73333 0
M  V30 2309 H 211.661 7.88441 -2.1978 0
M  V30 2310 N 214.325 -0.140222 1.56975 0
M  V30 2311 C 215.571 -0.852949 1.83991 0
M  V30 2312 C 215.904 -1.80512 0.716187 0
M  V30 2313 O 215.179 -1.92479 -0.279681 0
M  V30 2314 C 215.462 -1.6215 3.21527 0
M  V30 2315 C 215.315 -0.690363 4.4447 0
M  V30 2316 C 216.634 -2.58247 3.56366 0
M  V30 2317 H 213.753 -0.308634 0.669264 0
M  V30 2318 H 216.395 -0.117898 1.89634 0
M  V30 2319 H 214.545 -2.24812 3.16847 0
M  V30 2320 H 216.217 -0.0742264 4.6124 0
M  V30 2321 H 214.46 -0.000396433 4.338 0
M  V30 2322 H 215.131 -1.2643 5.37326 0
M  V30 2323 H 217.607 -2.05701 3.61699 0
M  V30 2324 H 216.483 -3.09067 4.53617 0
M  V30 2325 H 216.744 -3.39923 2.82674 0
M  V30 2326 N 215.803 -1.52179 -0.40978 0
M  V30 2327 C 216.766 -1.74853 -1.48186 0
M  V30 2328 C 217.766 -0.618417 -1.48433 0
M  V30 2329 O 218.956 -0.886286 -1.49969 0
M  V30 2330 C 216.088 -1.8303 -2.87598 0
M  V30 2331 H 217.281 -2.70559 -1.29374 0
M  V30 2332 H 214.834 -1.42586 -0.640233 0
M  V30 2333 H 215.569 -0.89236 -3.11781 0
M  V30 2334 H 215.354 -2.65187 -2.88822 0
M  V30 2335 H 216.844 -2.02316 -3.65319 0
M  V30 2336 N 217.281 0.66697 -1.42791 0
M  V30 2337 C 218.527 1.42754 -1.44889 0
M  V30 2338 C 218.882 1.92283 -0.0669755 0
M  V30 2339 O 218.175 1.68494 0.912154 0
M  V30 2340 C 218.369 2.6349 -2.4147 0
M  V30 2341 C 218.198 2.25776 -3.88915 0
M  V30 2342 C 216.968 2.1476 -4.57391 0
M  V30 2343 C 219.166 1.86927 -4.79127 0
M  V30 2344 N 217.148 1.70232 -5.89826 0
M  V30 2345 C 218.519 1.53378 -6.00729 0
M  V30 2346 C 220.574 1.73989 -4.66511 0
M  V30 2347 C 219.277 1.08187 -7.11117 0
M  V30 2348 C 221.303 1.30203 -5.76889 0
M  V30 2349 C 220.665 0.975818 -6.97608 0
M  V30 2350 H 216.764 0.518559 -0.585338 0
M  V30 2351 H 219.348 0.768906 -1.78874 0
M  V30 2352 H 217.519 3.27033 -2.09533 0
M  V30 2353 H 219.251 3.30123 -2.34096 0
M  V30 2354 H 216.006 2.3408 -4.11708 0
M  V30 2355 H 216.43 1.50369 -6.6009 0
M  V30 2356 H 221.072 1.97853 -3.7365 0
M  V30 2357 H 218.79 0.830701 -8.03819 0
M  V30 2358 H 222.376 1.20701 -5.69142 0
M  V30 2359 H 221.256 0.642157 -7.81566 0
M  V30 2360 N 218.759 1.29093 0.90403 0
M  V30 2361 C 219.706 1.13853 2.00764 0
M  V30 2362 C 220.676 0.0330084 1.66067 0
M  V30 2363 O 221.861 0.199733 1.89752 0
M  V30 2364 C 219.001 0.816537 3.35301 0
M  V30 2365 C 218.114 2.00206 3.82807 0
M  V30 2366 C 217.249 1.61983 5.059 0
M  V30 2367 C 216.288 2.77143 5.45764 0
M  V30 2368 N 215.425 2.39346 6.60044 0
M  V30 2369 H 220.265 2.08276 2.13132 0
M  V30 2370 H 217.802 1.03648 1.04381 0
M  V30 2371 H 219.76 0.610557 4.12708 0
M  V30 2372 H 218.39 -0.090779 3.22672 0
M  V30 2373 H 217.442 2.31988 3.01473 0
M  V30 2374 H 218.754 2.86512 4.08304 0
M  V30 2375 H 217.908 1.37649 5.90879 0
M  V30 2376 H 216.647 0.728202 4.82233 0
M  V30 2377 H 215.652 3.02165 4.59322 0
M  V30 2378 H 216.877 3.66964 5.71414 0
M  V30 2379 H 214.823 1.52665 6.37989 0
M  V30 2380 H 214.74 3.19185 6.85315 0
M  V30 2381 H 216.008 2.1832 7.48303 0
M  V30 2382 N 220.237 -1.11381 1.11499 0
M  V30 2383 C 221.486 -1.82494 0.858993 0
M  V30 2384 C 221.799 -1.85605 -0.617278 0
M  V30 2385 O 223.005 -2.52824 -0.989552 0
M  V30 2386 C 221.461 -3.27745 1.48699 0
M  V30 2387 C 221.069 -3.32961 2.99735 0
M  V30 2388 C 222.813 -4.03754 1.31085 0
M  V30 2389 C 220.72 -4.72612 3.55516 0
M  V30 2390 H 219.65 -0.683802 0.317696 0
M  V30 2391 H 222.301 -1.25331 1.34031 0
M  V30 2392 H 220.683 -3.84844 0.933339 0
M  V30 2393 H 221.857 -2.85741 3.61509 0
M  V30 2394 H 220.172 -2.70433 3.16631 0
M  V30 2395 H 222.769 -5.06891 1.70192 0
M  V30 2396 H 223.112 -4.15527 0.253496 0
M  V30 2397 H 223.645 -3.53043 1.83318 0
M  V30 2398 H 220.384 -4.66036 4.60967 0
M  V30 2399 H 219.904 -5.2024 2.98513 0
M  V30 2400 H 221.583 -5.4157 3.53992 0
M  V30 2401 N 221.715 -0.905404 -1.28997 0
M  V30 2402 C 222.94 -0.549175 -1.99997 0
M  V30 2403 C 223.365 0.860276 -1.67275 0
M  V30 2404 O 222.723 1.57355 -0.900502 0
M  V30 2405 C 222.771 -0.755185 -3.52604 0
M  V30 2406 O 221.875 0.189692 -4.11964 0
M  V30 2407 H 221.216 -0.213899 -0.628604 0
M  V30 2408 H 223.746 -1.21856 -1.64354 0
M  V30 2409 H 223.756 -0.662045 -4.02593 0
M  V30 2410 H 222.431 -1.78271 -3.75755 0
M  V30 2411 H 221.008 0.0485257 -3.72868 0
M  V30 2412 N 223.193 1.4272 -0.668489 0
M  V30 2413 C 224.441 2.01226 -0.187769 0
M  V30 2414 C 224.762 1.53092 1.2078 0
M  V30 2415 O 224.032 0.74993 1.80977 0
M  V30 2416 H 222.612 0.744041 -0.0664272 0
M  V30 2417 H 225.274 1.74723 -0.863583 0
M  V30 2418 H 224.37 3.11556 -0.184166 0
M  V30 2419 N 224.671 0.411399 1.52136 0
M  V30 2420 C 225.918 -0.163645 2.01838 0
M  V30 2421 C 226.246 -1.4495 1.29691 0
M  V30 2422 O 225.501 -1.91725 0.392431 0
M  V30 2423 C 225.8 -0.455872 3.54481 0
M  V30 2424 C 225.466 0.741055 4.44769 0
M  V30 2425 C 224.128 1.06936 4.69167 0
M  V30 2426 C 226.48 1.54075 4.97906 0
M  V30 2427 C 223.808 2.19851 5.43951 0
M  V30 2428 C 226.16 2.66067 5.73926 0
M  V30 2429 C 224.824 2.99381 5.96596 0
M  V30 2430 H 224.094 -0.0598821 0.738576 0
M  V30 2431 H 226.741 0.553283 1.83333 0
M  V30 2432 H 225.046 -1.2544 3.71177 0
M  V30 2433 H 226.743 -0.913802 3.90449 0
M  V30 2434 H 223.333 0.475192 4.25958 0
M  V30 2435 H 227.517 1.30033 4.78963 0
M  V30 2436 H 222.773 2.46006 5.59724 0
M  V30 2437 H 226.947 3.28419 6.14096 0
M  V30 2438 H 224.574 3.86992 6.54325 0
M  V30 2439 N 226.149 -1.5696 0.141893 0
M  V30 2440 C 227.56 -1.82797 -0.379776 0
M  V30 2441 C 227.911 -1.06033 -1.6508 0
M  V30 2442 O 227.036 -0.304011 -2.14254 0
M  V30 2443 C 227.631 -3.31578 -0.695802 0
M  V30 2444 C 226.19 -3.58014 -1.16201 0
M  V30 2445 C 225.337 -2.76699 -0.182455 0
M  V30 2446 H 228.288 -1.54406 0.366675 0
M  V30 2447 H 228.309 -3.47454 -1.55099 0
M  V30 2448 H 227.821 -3.87421 0.229449 0
M  V30 2449 H 225.922 -3.07553 -2.10338 0
M  V30 2450 H 226.035 -4.66501 -1.09151 0
M  V30 2451 H 224.399 -2.45618 -0.674072 0
M  V30 2452 H 225.182 -3.35311 0.736297 0
M  V30 2453 N 227.627 0.131896 -1.57047 0
M  V30 2454 C 228.574 1.16236 -1.99393 0
M  V30 2455 C 229.544 1.41863 -0.863943 0
M  V30 2456 O 230.729 1.53946 -1.12718 0
M  V30 2457 C 227.869 2.48708 -2.39245 0
M  V30 2458 C 226.982 2.30127 -3.65603 0
M  V30 2459 C 226.117 3.55738 -3.94492 0
M  V30 2460 C 225.156 3.32259 -5.14073 0
M  V30 2461 N 224.293 4.50039 -5.38896 0
M  V30 2462 H 229.133 0.794251 -2.87221 0
M  V30 2463 H 226.67 0.380707 -1.42088 0
M  V30 2464 H 228.628 3.25969 -2.60384 0
M  V30 2465 H 227.258 2.83437 -1.54478 0
M  V30 2466 H 226.31 1.43845 -3.52154 0
M  V30 2467 H 227.622 2.08746 -4.5302 0
M  V30 2468 H 226.776 4.41423 -4.1621 0
M  V30 2469 H 225.515 3.80138 -3.05526 0
M  V30 2470 H 224.52 2.44963 -4.92212 0
M  V30 2471 H 225.745 3.09242 -6.04604 0
M  V30 2472 H 223.691 4.74584 -4.52886 0
M  V30 2473 H 223.608 4.31716 -6.2061 0
M  V30 2474 H 224.876 5.36895 -5.65123 0
M  V30 2475 N 229.106 1.52395 0.401703 0
M  V30 2476 C 230.054 1.7689 1.51039 0
M  V30 2477 C 231.048 0.636298 1.56996 0
M  V30 2478 O 232.254 0.818507 1.60314 0
M  V30 2479 H 228.629 0.559502 0.502456 0
M  V30 2480 H 230.6 2.69757 1.27568 0
M  V30 2481 C 229.349 1.94331 2.88324 0
M  V30 2482 H 228.672 2.80905 2.84486 0
M  V30 2483 H 230.112 2.15466 3.65172 0
M  V30 2484 C 228.571 0.712396 3.29282 0
M  V30 2485 O 229.101 -0.116218 4.01532 0
M  V30 2486 N 227.307 0.546154 2.85422 0
M  V30 2487 H 226.854 1.22156 2.26794 0
M  V30 2488 H 226.812 -0.276113 3.13185 0
M  V30 2489 N 230.584 -0.659388 1.43143 0
M  V30 2490 C 232 -0.974337 1.26407 0
M  V30 2491 C 232.2 -2.007 0.179341 0
M  V30 2492 O 231.256 -2.4856 -0.444295 0
M  V30 2493 C 232.569 -1.46447 2.62628 0
M  V30 2494 C 234.117 -1.58144 2.7011 0
M  V30 2495 C 234.592 -2.1055 4.06734 0
M  V30 2496 N 236.083 -2.17861 4.08767 0
M  V30 2497 C 236.818 -2.59519 5.1131 0
M  V30 2498 N 236.314 -3.00518 6.24228 0
M  V30 2499 N 238.107 -2.59404 4.98664 0
M  V30 2500 H 230.258 0.0240528 2.12386 0
M  V30 2501 H 232.521 -0.0518065 0.946583 0
M  V30 2502 H 232.227 -0.780123 3.42939 0
M  V30 2503 H 232.101 -2.44058 2.87603 0
M  V30 2504 H 234.488 -2.25682 1.90136 0
M  V30 2505 H 234.569 -0.589828 2.48907 0
M  V30 2506 H 234.213 -1.43616 4.87172 0
M  V30 2507 H 234.143 -3.10531 4.25298 0
M  V30 2508 H 236.634 -1.88975 3.27257 0
M  V30 2509 H 236.947 -3.31036 6.98309 0
M  V30 2510 H 235.292 -2.98337 6.2771 0
M  V30 2511 H 238.483 -2.26747 4.09516 0
M  V30 2512 H 238.656 -2.91548 5.78709 0
M  V30 2513 N 232.062 -1.29571 -0.897171 0
M  V30 2514 C 233.308 -1.17863 -1.65034 0
M  V30 2515 C 233.641 0.268729 -1.92332 0
M  V30 2516 O 232.916 1.19378 -1.53555 0
M  V30 2517 C 233.199 -1.995 -2.99786 0
M  V30 2518 C 233.052 -3.5239 -2.79538 0
M  V30 2519 C 234.371 -1.82335 -4.00552 0
M  V30 2520 H 231.49 -0.429528 -0.598895 0
M  V30 2521 H 234.132 -1.59072 -1.03905 0
M  V30 2522 H 232.282 -1.64485 -3.51962 0
M  V30 2523 H 233.954 -3.97401 -2.34244 0
M  V30 2524 H 232.197 -3.77187 -2.14273 0
M  V30 2525 H 232.868 -4.04787 -3.75302 0
M  V30 2526 H 235.344 -2.12924 -3.57495 0
M  V30 2527 H 234.22 -2.41801 -4.92771 0
M  V30 2528 H 234.481 -0.779209 -4.35179 0
M  V30 2529 N 233.54 1.10788 -1.12088 0
M  V30 2530 C 234.789 1.82036 -0.868659 0
M  V30 2531 C 235.102 1.85929 0.607426 0
M  V30 2532 O 236.308 2.53346 0.97613 0
M  V30 2533 C 234.764 3.26951 -1.50435 0
M  V30 2534 C 234.372 3.31367 -3.01496 0
M  V30 2535 C 236.116 4.03053 -1.33225 0
M  V30 2536 C 234.023 4.7072 -3.58017 0
M  V30 2537 H 232.953 0.682108 -0.321318 0
M  V30 2538 H 235.604 1.24618 -1.34694 0
M  V30 2539 H 233.986 3.84343 -0.953735 0
M  V30 2540 H 235.16 2.83819 -3.6302 0
M  V30 2541 H 233.475 2.6875 -3.18061 0
M  V30 2542 H 236.072 5.05981 -1.72878 0
M  V30 2543 H 236.415 4.15387 -0.275529 0
M  V30 2544 H 236.948 3.52066 -1.85188 0
M  V30 2545 H 233.687 4.63585 -4.63432 0
M  V30 2546 H 233.207 5.1865 -3.01268 0
M  V30 2547 H 234.886 5.39685 -3.56859 0
M  V30 2548 N 235.018 0.912232 1.28515 0
M  V30 2549 C 236.266 0.543523 1.94654 0
M  V30 2550 C 236.587 -0.9155 1.72173 0
M  V30 2551 O 235.857 -1.64708 1.06058 0
M  V30 2552 H 234.437 0.198017 0.720277 0
M  V30 2553 H 237.099 1.16126 1.56527 0
M  V30 2554 H 236.195 0.736684 3.03281 0
M  V30 2555 N 236.496 -1.42363 0.676048 0
M  V30 2556 C 237.721 -2.06377 0.205705 0
M  V30 2557 C 238.146 -1.50463 -1.12883 0
M  V30 2558 O 237.504 -0.623619 -1.70237 0
M  V30 2559 C 237.552 -3.60277 0.152655 0
M  V30 2560 O 236.656 -4.02935 -0.87845 0
M  V30 2561 H 235.997 -0.655588 0.105359 0
M  V30 2562 H 238.527 -1.82475 0.925412 0
M  V30 2563 H 238.537 -4.07993 -0.0230675 0
M  V30 2564 H 237.212 -4.00346 1.12675 0
M  V30 2565 H 235.789 -3.66764 -0.673668 0
M  V30 2566 N 237.974 -0.419461 -1.51915 0
M  V30 2567 C 239.222 0.152637 -2.01523 0
M  V30 2568 C 239.543 1.44762 -1.30649 0
M  V30 2569 O 238.813 1.90997 -0.435535 0
M  V30 2570 H 237.393 0.0593966 -0.744635 0
M  V30 2571 H 240.055 -0.558073 -1.86739 0
M  V30 2572 H 239.151 0.341369 -3.10227 0
M  V30 2573 N 239.452 1.56882 -0.150215 0
M  V30 2574 C 240.692 1.98119 0.502804 0
M  V30 2575 C 241.056 1.03327 1.61826 0
M  V30 2576 O 242.257 1.33621 2.33236 0
M  V30 2577 C 240.528 3.43329 0.992988 0
M  V30 2578 S 242.087 4.0659 1.65015 0
M  V30 2579 H 238.905 0.692189 0.162467 0
M  V30 2580 H 241.507 1.93988 -0.242689 0
M  V30 2581 H 240.211 4.10046 0.170436 0
M  V30 2582 H 239.742 3.5118 1.77303 0
M  V30 2583 H 241.757 3.99906 2.93752 0
M  V30 2584 N 240.93 -0.123565 1.57115 0
M  V30 2585 C 241.878 -1.17082 2.00984 0
M  V30 2586 C 242.872 -1.43136 0.906009 0
M  V30 2587 O 244.078 -1.43152 1.09121 0
M  V30 2588 H 240.453 -0.394653 0.64012 0
M  V30 2589 H 242.424 -0.774292 2.88179 0
M  V30 2590 C 241.173 -2.49057 2.42623 0
M  V30 2591 H 240.496 -2.29846 3.27125 0
M  V30 2592 H 241.936 -3.20906 2.7712 0
M  V30 2593 C 240.395 -3.11305 1.28805 0
M  V30 2594 O 240.925 -3.97171 0.60153 0
M  V30 2595 N 239.131 -2.71111 1.04628 0
M  V30 2596 H 238.678 -2.01382 1.60634 0
M  V30 2597 H 238.636 -3.1309 0.286685 0
M  V30 2598 N 242.408 -1.52605 -0.393616 0
M  V30 2599 C 243.338 -1.80022 -1.48709 0
M  V30 2600 C 244.319 -0.651995 -1.57108 0
M  V30 2601 O 245.504 -0.89913 -1.72132 0
M  V30 2602 C 242.634 -1.96492 -2.86371 0
M  V30 2603 C 241.588 -3.12161 -2.92813 0
M  V30 2604 C 240.914 -3.13877 -4.3288 0
M  V30 2605 C 242.214 -4.51322 -2.6288 0
M  V30 2606 H 243.908 -2.71589 -1.26015 0
M  V30 2607 H 241.454 -1.30684 -0.604778 0
M  V30 2608 H 243.407 -2.14255 -3.62867 0
M  V30 2609 H 242.131 -1.01611 -3.10391 0
M  V30 2610 H 240.79 -2.94173 -2.18764 0
M  V30 2611 H 240.438 -2.16687 -4.53933 0
M  V30 2612 H 240.138 -3.91576 -4.38112 0
M  V30 2613 H 241.662 -3.33789 -5.1129 0
M  V30 2614 H 243.076 -4.69435 -3.29096 0
M  V30 2615 H 241.473 -5.31053 -2.79468 0
M  V30 2616 H 242.543 -4.58353 -1.58242 0
M  V30 2617 N 243.887 0.651787 -1.4349 0
M  V30 2618 C 245.164 1.40909 -1.35661 0
M  V30 2619 C 245.544 2.11099 -0.00511733 0
M  V30 2620 O 244.892 2.04892 1.0115 0
M  V30 2621 C 245.102 2.3926 -2.54078 0
M  V30 2622 C 246.45 3.03217 -2.97228 0
M  V30 2623 O 247.474 2.49588 -2.54135 0
M  V30 2624 O 246.333 4.00455 -3.71885 0
M  V30 2625 H 243.427 0.629625 -0.536191 0
M  V30 2626 H 245.973 0.678575 -1.55542 0
M  V30 2627 H 244.745 1.86352 -3.44076 0
M  V30 2628 H 244.368 3.1976 -2.36303 0
M  V30 2629 N 245.365 1.30045 0.890287 0
M  V30 2630 C 246.59 1.21598 1.68014 0
M  V30 2631 C 247.015 -0.218678 1.86825 0
M  V30 2632 O 246.373 -1.15756 1.39536 0
M  V30 2633 C 246.421 1.94434 3.03691 0
M  V30 2634 O 245.525 1.2678 3.92429 0
M  V30 2635 H 244.866 0.420856 0.513592 0
M  V30 2636 H 247.396 1.71775 1.11151 0
M  V30 2637 H 247.406 2.03251 3.5377 0
M  V30 2638 H 246.081 2.98777 2.89318 0
M  V30 2639 H 244.658 1.26282 3.50866 0
M  V30 2640 N 246.843 -1.10192 1.12674 0
M  V30 2641 C 247.806 -2.14786 0.799979 0
M  V30 2642 C 248.806 -1.59711 -0.18685 0
M  V30 2643 O 249.996 -1.74156 0.0392558 0
M  V30 2644 C 247.128 -3.40374 0.189228 0
M  V30 2645 H 248.321 -2.45203 1.72671 0
M  V30 2646 H 245.874 -1.25597 0.930326 0
M  V30 2647 H 246.609 -3.15577 -0.747107 0
M  V30 2648 H 246.394 -3.81637 0.899766 0
M  V30 2649 H 247.884 -4.17594 -0.0228143 0
M  V30 2650 N 248.321 -0.919034 -1.28029 0
M  V30 2651 C 249.737 -0.617972 -1.4715 0
M  V30 2652 C 249.937 0.835242 -1.83374 0
M  V30 2653 O 248.993 1.61388 -1.94191 0
M  V30 2654 C 250.306 -1.56041 -2.57044 0
M  V30 2655 C 251.854 -1.56769 -2.7091 0
M  V30 2656 C 252.329 -2.49688 -3.83953 0
M  V30 2657 N 253.82 -2.47845 -3.91314 0
M  V30 2658 C 254.555 -3.16437 -4.78179 0
M  V30 2659 N 254.051 -3.94376 -5.69596 0
M  V30 2660 N 255.844 -3.05498 -4.71834 0
M  V30 2661 H 247.995 -1.85866 -1.02798 0
M  V30 2662 H 250.258 -0.797506 -0.512531 0
M  V30 2663 H 249.964 -2.59671 -2.372 0
M  V30 2664 H 249.838 -1.29551 -3.54255 0
M  V30 2665 H 252.225 -0.538745 -2.90141 0
M  V30 2666 H 252.306 -1.87305 -1.74214 0
M  V30 2667 H 251.95 -3.52688 -3.65477 0
M  V30 2668 H 251.88 -2.16453 -4.80058 0
M  V30 2669 H 254.371 -1.91234 -3.25941 0
M  V30 2670 H 254.684 -4.43721 -6.32718 0
M  V30 2671 H 253.029 -3.98481 -5.69419 0
M  V30 2672 H 256.22 -2.44108 -3.99411 0
M  V30 2673 H 256.393 -3.59225 -5.39316 0
M  V30 2674 N 249.799 1.42003 -0.683588 0
M  V30 2675 C 251.046 2.01413 -0.209514 0
M  V30 2676 C 251.374 1.54088 1.1869 0
M  V30 2677 O 250.629 0.737591 1.81268 0
M  V30 2678 C 250.928 3.56827 -0.202357 0
M  V30 2679 C 250.594 4.23617 -1.54464 0
M  V30 2680 C 249.256 4.41577 -1.91215 0
M  V30 2681 C 251.608 4.61178 -2.42826 0
M  V30 2682 C 248.936 4.9437 -3.15935 0
M  V30 2683 C 251.288 5.15355 -3.66867 0
M  V30 2684 C 249.952 5.31528 -4.03776 0
M  V30 2685 H 249.222 0.737023 -0.0766668 0
M  V30 2686 H 251.869 1.70067 -0.880312 0
M  V30 2687 H 250.174 3.87892 0.551969 0
M  V30 2688 H 251.871 4.00588 0.181793 0
M  V30 2689 H 248.461 4.10004 -1.24877 0
M  V30 2690 H 252.645 4.46968 -2.15717 0
M  V30 2691 H 247.901 5.05076 -3.44541 0
M  V30 2692 H 252.075 5.43402 -4.35531 0
M  V30 2693 H 249.702 5.72199 -5.00492 0
M  V30 2694 N 251.277 0.427512 1.51691 0
M  V30 2695 C 252.693 0.0792977 1.59403 0
M  V30 2696 C 252.893 -1.41035 1.43914 0
M  V30 2697 O 251.949 -2.17922 1.27539 0
M  V30 2698 C 253.262 0.590636 2.94842 0
M  V30 2699 C 254.81 0.550215 3.08126 0
M  V30 2700 C 255.285 1.03836 4.46074 0
M  V30 2701 N 256.776 0.995943 4.52366 0
M  V30 2702 C 257.511 1.34463 5.57411 0
M  V30 2703 N 257.007 1.76569 6.69922 0
M  V30 2704 N 258.8 1.26343 5.47717 0
M  V30 2705 H 250.951 1.39687 1.60004 0
M  V30 2706 H 253.214 0.575003 0.753708 0
M  V30 2707 H 252.92 1.63251 3.11516 0
M  V30 2708 H 252.794 0.0102061 3.77199 0
M  V30 2709 H 255.181 -0.482654 2.91126 0
M  V30 2710 H 255.262 1.16693 2.27632 0
M  V30 2711 H 254.906 2.06965 4.63819 0
M  V30 2712 H 254.836 0.398286 5.25092 0
M  V30 2713 H 257.327 0.68661 3.7161 0
M  V30 2714 H 257.64 2.01438 7.46085 0
M  V30 2715 H 255.985 1.80488 6.71155 0
M  V30 2716 H 259.176 0.933209 4.58703 0
M  V30 2717 H 259.349 1.53846 6.29472 0
M  V30 2718 N 252.755 -1.56801 0.158532 0
M  V30 2719 C 253.985 -2.00568 -0.495583 0
M  V30 2720 C 254.393 -1.03774 -1.58201 0
M  V30 2721 O 253.736 -0.0285797 -1.83678 0
M  V30 2722 C 253.798 -3.40768 -1.14532 0
M  V30 2723 C 253.462 -4.56553 -0.202101 0
M  V30 2724 C 254.459 -5.16714 0.574675 0
M  V30 2725 C 252.144 -5.02197 -0.101648 0
M  V30 2726 C 254.138 -6.20939 1.43924 0
M  V30 2727 C 251.825 -6.06274 0.766508 0
M  V30 2728 C 252.823 -6.65515 1.53555 0
M  V30 2729 O 252.511 -7.67575 2.38922 0
M  V30 2730 H 252.243 -0.662893 -0.13247 0
M  V30 2731 H 254.797 -2.03829 0.253559 0
M  V30 2732 H 253.027 -3.34381 -1.94233 0
M  V30 2733 H 254.716 -3.6857 -1.70033 0
M  V30 2734 H 255.482 -4.82341 0.507167 0
M  V30 2735 H 251.361 -4.55807 -0.689994 0
M  V30 2736 H 254.905 -6.67107 2.03996 0
M  V30 2737 H 250.802 -6.40073 0.835266 0
M  V30 2738 H 251.57 -7.84844 2.32296 0
M  V30 2739 N 254.233 0.115231 -1.57178 0
M  V30 2740 C 255.163 1.1423 -2.03651 0
M  V30 2741 C 256.144 1.42967 -0.921655 0
M  V30 2742 O 257.329 1.53343 -1.19162 0
M  V30 2743 C 254.459 2.4675 -2.44401 0
M  V30 2744 C 253.413 2.32467 -3.59365 0
M  V30 2745 C 252.739 3.69984 -3.86026 0
M  V30 2746 C 254.039 1.78203 -4.90959 0
M  V30 2747 H 255.733 0.755749 -2.89705 0
M  V30 2748 H 253.279 0.362093 -1.39373 0
M  V30 2749 H 255.232 3.18854 -2.75517 0
M  V30 2750 H 253.956 2.87302 -1.55322 0
M  V30 2751 H 252.615 1.62811 -3.28463 0
M  V30 2752 H 252.263 4.08028 -2.94147 0
M  V30 2753 H 251.963 3.61279 -4.63412 0
M  V30 2754 H 253.487 4.43587 -4.19599 0
M  V30 2755 H 254.901 2.40128 -5.20587 0
M  V30 2756 H 253.298 1.8031 -5.72371 0
M  V30 2757 H 254.368 0.739876 -4.79222 0
M  V30 2758 N 255.711 1.52812 0.385517 0
M  V30 2759 C 256.644 1.72592 1.49289 0
M  V30 2760 C 257.622 0.573819 1.52138 0
M  V30 2761 O 258.806 0.80404 1.70492 0
M  V30 2762 C 255.933 1.78669 2.87741 0
M  V30 2763 C 254.979 3.00455 3.02703 0
M  V30 2764 S 255.812 4.60366 2.73538 0
M  V30 2765 C 256.968 4.69263 4.14177 0
M  V30 2766 H 257.201 2.66248 1.32285 0
M  V30 2767 H 254.734 1.43148 0.578611 0
M  V30 2768 H 256.692 1.82855 3.67524 0
M  V30 2769 H 255.353 0.861 3.02069 0
M  V30 2770 H 254.546 3.01258 4.04054 0
M  V30 2771 H 254.148 2.94278 2.30817 0
M  V30 2772 H 256.44 4.48092 5.08153 0
M  V30 2773 H 257.383 5.71276 4.18388 0
M  V30 2774 H 257.791 3.98072 4.00249 0
M  V30 2775 N 257.189 -0.644168 1.43834 0
M  V30 2776 C 258.437 -1.40117 1.45642 0
M  V30 2777 C 258.758 -1.94814 0.0852413 0
M  V30 2778 O 258.028 -1.74988 -0.880688 0
M  V30 2779 H 256.608 -0.52005 0.536243 0
M  V30 2780 H 259.27 -0.7591 1.7951 0
M  V30 2781 H 258.366 -2.23902 2.17427 0
M  V30 2782 N 258.668 -1.30515 -0.883378 0
M  V30 2783 C 259.578 -1.18959 -2.02203 0
M  V30 2784 C 260.594 -0.109172 -1.73657 0
M  V30 2785 O 261.77 -0.324413 -1.9877 0
M  V30 2786 C 258.835 -0.883871 -3.35244 0
M  V30 2787 C 257.896 -2.04982 -3.77201 0
M  V30 2788 C 257.129 -1.75859 -5.03894 0
M  V30 2789 O 257.352 -0.687276 -5.66244 0
M  V30 2790 O 256.286 -2.61146 -5.42297 0
M  V30 2791 H 260.112 -2.14616 -2.1488 0
M  V30 2792 H 257.697 -1.10124 -1.0096 0
M  V30 2793 H 259.579 -0.728644 -4.15053 0
M  V30 2794 H 258.254 0.0427798 -3.23672 0
M  V30 2795 H 257.161 -2.26038 -2.9809 0
M  V30 2796 H 258.494 -2.95825 -3.93381 0
M  V30 2797 N 260.146 1.09593 -1.13257 0
M  V30 2798 C 261.562 1.33775 -0.870423 0
M  V30 2799 C 261.762 1.95327 0.494926 0
M  V30 2800 O 260.818 2.19853 1.2418 0
M  V30 2801 C 262.131 2.25106 -1.99369 0
M  V30 2802 C 263.679 2.3862 -2.02558 0
M  V30 2803 C 264.154 3.33285 -3.14142 0
M  V30 2804 N 265.645 3.40857 -3.13641 0
M  V30 2805 C 266.38 4.14101 -3.96621 0
M  V30 2806 N 265.876 4.90157 -4.8961 0
M  V30 2807 N 267.669 4.09808 -3.84726 0
M  V30 2808 H 259.82 0.680136 -2.01216 0
M  V30 2809 H 262.083 0.362133 -0.876107 0
M  V30 2810 H 261.789 1.87103 -2.97801 0
M  V30 2811 H 261.663 3.25481 -1.90635 0
M  V30 2812 H 264.05 2.75887 -1.0474 0
M  V30 2813 H 264.131 1.38028 -2.15364 0
M  V30 2814 H 263.775 2.96741 -4.12198 0
M  V30 2815 H 263.705 4.33776 -2.98574 0
M  V30 2816 H 266.196 2.86624 -2.46282 0
M  V30 2817 H 266.509 5.4347 -5.49418 0
M  V30 2818 H 264.854 4.89251 -4.93617 0
M  V30 2819 H 268.045 3.4949 -3.11408 0
M  V30 2820 H 268.218 4.66629 -4.49623 0
M  V30 2821 N 261.624 0.925811 1.2754 0
M  V30 2822 C 262.554 0.440748 2.29303 0
M  V30 2823 C 263.535 -0.497971 1.62648 0
M  V30 2824 O 264.72 -0.403126 1.8997 0
M  V30 2825 C 261.85 -0.309048 3.45922 0
M  V30 2826 C 260.804 0.54166 4.24559 0
M  V30 2827 C 260.13 -0.337191 5.33636 0
M  V30 2828 C 261.43 1.80516 4.90114 0
M  V30 2829 H 263.124 1.29121 2.70126 0
M  V30 2830 H 260.67 0.622323 1.29858 0
M  V30 2831 H 262.623 -0.659315 4.1621 0
M  V30 2832 H 261.347 -1.19352 3.04011 0
M  V30 2833 H 260.006 0.874609 3.56014 0
M  V30 2834 H 259.654 -1.22056 4.87966 0
M  V30 2835 H 259.354 0.228497 5.87156 0
M  V30 2836 H 260.878 -0.683072 6.06767 0
M  V30 2837 H 262.292 1.52307 5.52698 0
M  V30 2838 H 260.689 2.3142 5.53683 0
M  V30 2839 H 261.759 2.52581 4.13921 0
M  V30 2840 N 263.102 -1.41638 0.69111 0
M  V30 2841 C 264.35 -2.00902 0.219758 0
M  V30 2842 C 264.671 -1.54994 -1.18329 0
M  V30 2843 O 263.941 -0.778628 -1.79762 0
M  V30 2844 H 262.521 -0.74289 0.0782558 0
M  V30 2845 H 265.183 -1.73327 0.891271 0
M  V30 2846 H 264.279 -3.11224 0.233708 0
M  V30 2847 N 264.58 -0.43555 -1.51462 0
M  V30 2848 C 265.826 0.131709 -2.02372 0
M  V30 2849 C 266.159 1.42516 -1.3192 0
M  V30 2850 O 265.434 1.89606 -0.433573 0
M  V30 2851 C 265.717 0.352301 -3.58373 0
M  V30 2852 C 265.57 -0.959676 -4.39443 0
M  V30 2853 C 266.889 1.12286 -4.25535 0
M  V30 2854 H 264.008 0.0463936 -0.735538 0
M  V30 2855 H 266.65 -0.574197 -1.81116 0
M  V30 2856 H 264.8 0.9536 -3.76615 0
M  V30 2857 H 266.472 -1.59482 -4.32855 0
M  V30 2858 H 264.715 -1.56468 -4.04599 0
M  V30 2859 H 265.386 -0.759394 -5.46752 0
M  V30 2860 H 267.862 0.613545 -4.11552 0
M  V30 2861 H 266.738 1.24598 -5.34571 0
M  V30 2862 H 266.999 2.15048 -3.86273 0
M  V30 2863 N 266.058 1.56714 -0.166846 0
M  V30 2864 C 267.008 2.14338 0.777382 0
M  V30 2865 C 267.992 1.07642 1.19591 0
M  V30 2866 O 269.184 1.33775 1.15902 0
M  V30 2867 C 266.313 2.78417 2.00846 0
M  V30 2868 C 265.399 3.92264 1.61212 0
M  V30 2869 N 265.79 4.97268 0.925104 0
M  V30 2870 C 264.088 4.03342 1.90346 0
M  V30 2871 C 264.789 5.77093 0.730627 0
M  V30 2872 N 263.765 5.2854 1.27067 0
M  V30 2873 H 267.567 2.9289 0.243466 0
M  V30 2874 H 265.081 1.62364 0.0339954 0
M  V30 2875 H 267.078 3.18073 2.69509 0
M  V30 2876 H 265.738 2.01344 2.54736 0
M  V30 2877 H 266.749 5.14601 0.583646 0
M  V30 2878 H 263.426 3.37368 2.45946 0
M  V30 2879 H 264.816 6.71638 0.187668 0
M  V30 2880 N 267.536 -0.106894 1.57237 0
M  V30 2881 C 268.947 -0.662723 1.74542 0
M  V30 2882 C 269.298 -1.7971 0.787319 0
M  V30 2883 O 268.423 -2.16368 -0.0369636 0
M  V30 2884 C 269.018 -1.20896 3.16496 0
M  V30 2885 C 267.577 -1.71096 3.35266 0
M  V30 2886 C 266.724 -0.615642 2.7038 0
M  V30 2887 H 269.675 0.119106 1.58252 0
M  V30 2888 H 269.696 -2.07847 3.18716 0
M  V30 2889 H 269.208 -0.383122 3.86204 0
M  V30 2890 H 267.309 -2.56119 2.70618 0
M  V30 2891 H 267.422 -1.81208 4.43509 0
M  V30 2892 H 265.786 -1.05222 2.31949 0
M  V30 2893 H 266.569 0.199419 3.4272 0
M  V30 2894 N 269.014 -1.53014 -0.377408 0
M  V30 2895 C 269.944 -1.81589 -1.46791 0
M  V30 2896 C 270.925 -0.668622 -1.56408 0
M  V30 2897 O 272.11 -0.917337 -1.71168 0
M  V30 2898 C 269.24 -1.99519 -2.8427 0
M  V30 2899 C 268.194 -3.15249 -2.89486 0
M  V30 2900 C 267.52 -3.18451 -4.29527 0
M  V30 2901 C 268.82 -4.54084 -2.58079 0
M  V30 2902 H 270.514 -2.7291 -1.23127 0
M  V30 2903 H 268.06 -1.31319 -0.590883 0
M  V30 2904 H 270.013 -2.18092 -3.60575 0
M  V30 2905 H 268.737 -1.04897 -3.09296 0
M  V30 2906 H 267.396 -2.96477 -2.15631 0
M  V30 2907 H 267.044 -2.2149 -4.5161 0
M  V30 2908 H 266.744 -3.962 -4.33934 0
M  V30 2909 H 268.268 -3.39193 -5.07721 0
M  V30 2910 H 269.682 -4.72899 -3.24098 0
M  V30 2911 H 268.079 -5.33987 -2.7382 0
M  V30 2912 H 269.149 -4.60006 -1.53372 0
M  V30 2913 N 270.492 0.636531 -1.44174 0
M  V30 2914 C 271.717 1.42847 -1.50364 0
M  V30 2915 C 272.142 1.87665 -0.127867 0
M  V30 2916 O 271.5 1.58408 0.88185 0
M  V30 2917 C 271.548 2.62854 -2.4686 0
M  V30 2918 O 270.652 3.62501 -1.9664 0
M  V30 2919 H 269.993 0.427642 -0.507955 0
M  V30 2920 H 272.523 0.777422 -1.89255 0
M  V30 2921 H 272.533 3.10465 -2.64718 0
M  V30 2922 H 271.208 2.29578 -3.46795 0
M  V30 2923 H 269.785 3.21735 -1.88523 0
M  V30 2924 N 271.97 1.30982 0.876444 0
M  V30 2925 C 273.21 1.21589 1.64303 0
M  V30 2926 C 273.574 -0.223962 1.90689 0
M  V30 2927 O 274.775 -0.44128 2.65153 0
M  V30 2928 C 273.046 2.03007 2.94148 0
M  V30 2929 S 274.605 2.10405 3.85065 0
M  V30 2930 H 271.423 0.433161 0.563819 0
M  V30 2931 H 274.025 1.65565 1.03964 0
M  V30 2932 H 272.729 3.06719 2.72675 0
M  V30 2933 H 272.26 1.59725 3.59515 0
M  V30 2934 H 274.275 1.23765 4.80517 0
M  V30 2935 N 273.449 -1.08991 1.13837 0
M  V30 2936 C 274.399 -2.1393 0.788535 0
M  V30 2937 C 275.383 -1.59396 -0.219516 0
M  V30 2938 O 276.575 -1.76985 -0.0227557 0
M  V30 2939 C 273.704 -3.42305 0.261147 0
M  V30 2940 C 272.79 -4.03736 1.29837 0
M  V30 2941 N 273.181 -4.39659 2.50067 0
M  V30 2942 C 271.479 -4.30993 1.1472 0
M  V30 2943 C 272.18 -4.88113 3.16419 0
M  V30 2944 N 271.156 -4.85846 2.43832 0
M  V30 2945 H 274.958 -2.39516 1.70322 0
M  V30 2946 H 272.472 -1.26263 1.02134 0
M  V30 2947 H 274.469 -4.16899 -0.0077405 0
M  V30 2948 H 273.129 -3.18172 -0.647805 0
M  V30 2949 H 274.14 -4.30878 2.8734 0
M  V30 2950 H 270.817 -4.16444 0.296773 0
M  V30 2951 H 272.207 -5.25336 4.18894 0
M  V30 2952 N 274.927 -0.932562 -1.27047 0
M  V30 2953 C 276.175 -0.574422 -1.93765 0
M  V30 2954 C 276.496 0.887993 -1.73608 0
M  V30 2955 O 275.766 1.62999 -1.08665 0
M  V30 2956 H 274.346 -0.209451 -0.717035 0
M  V30 2957 H 277.008 -1.18601 -1.5466 0
M  V30 2958 H 276.104 -0.784841 -3.02071 0
M  V30 2959 N 276.405 1.4127 -0.698611 0
M  V30 2960 C 277.651 2.01979 -0.239972 0
M  V30 2961 C 278.006 1.54353 1.14861 0
M  V30 2962 O 277.299 0.746218 1.76471 0
M  V30 2963 C 277.493 3.56592 -0.240192 0
M  V30 2964 C 277.322 4.19226 -1.62726 0
M  V30 2965 C 276.092 4.53389 -2.23084 0
M  V30 2966 C 278.29 4.45228 -2.57443 0
M  V30 2967 N 276.272 5.01327 -3.54323 0
M  V30 2968 C 277.643 4.94973 -3.73365 0
M  V30 2969 C 279.698 4.27243 -2.55671 0
M  V30 2970 C 278.401 5.28624 -4.878 0
M  V30 2971 C 280.427 4.61985 -3.69221 0
M  V30 2972 C 279.789 5.11904 -4.83873 0
M  V30 2973 H 275.888 0.770561 -0.133269 0
M  V30 2974 H 278.472 1.71767 -0.916748 0
M  V30 2975 H 276.643 3.86271 0.406082 0
M  V30 2976 H 278.375 4.04025 0.23356 0
M  V30 2977 H 275.13 4.39946 -1.75341 0
M  V30 2978 H 275.554 5.29697 -4.21604 0
M  V30 2979 H 280.196 3.87884 -1.68243 0
M  V30 2980 H 277.914 5.66905 -5.75885 0
M  V30 2981 H 281.5 4.49725 -3.69105 0
M  V30 2982 H 280.38 5.38282 -5.70282 0
M  V30 2983 N 277.883 0.443576 1.51229 0
M  V30 2984 C 279.129 -0.120975 2.02439 0
M  V30 2985 C 279.462 -1.41815 1.32674 0
M  V30 2986 O 278.737 -1.89373 0.443622 0
M  V30 2987 C 279.02 -0.333291 3.58554 0
M  V30 2988 C 278.873 0.982968 4.38928 0
M  V30 2989 C 280.192 -1.10028 4.26124 0
M  V30 2990 H 277.311 -0.0424923 0.735774 0
M  V30 2991 H 279.953 0.583794 1.80809 0
M  V30 2992 H 278.103 -0.933614 3.77115 0
M  V30 2993 H 279.775 1.61775 4.32003 0
M  V30 2994 H 278.018 1.58611 4.03763 0
M  V30 2995 H 278.689 0.788379 5.46341 0
M  V30 2996 H 281.165 -0.591711 4.11871 0
M  V30 2997 H 280.041 -1.21761 5.35225 0
M  V30 2998 H 280.302 -2.12996 3.87408 0
M  V30 2999 N 279.361 -1.56624 0.175154 0
M  V30 3000 C 280.291 -2.21155 -0.749195 0
M  V30 3001 C 281.272 -1.16836 -1.23626 0
M  V30 3002 O 282.457 -1.45277 -1.28873 0
M  V30 3003 C 279.587 -2.8553 -1.97711 0
M  V30 3004 C 278.541 -3.95921 -1.62575 0
M  V30 3005 C 277.867 -4.47365 -2.92864 0
M  V30 3006 C 279.167 -5.15323 -0.850838 0
M  V30 3007 H 280.861 -2.98653 -0.211295 0
M  V30 3008 H 278.407 -1.43651 -0.100188 0
M  V30 3009 H 280.36 -3.2935 -2.62881 0
M  V30 3010 H 279.084 -2.05406 -2.53921 0
M  V30 3011 H 277.743 -3.52762 -0.997719 0
M  V30 3012 H 277.391 -3.64027 -3.47122 0
M  V30 3013 H 277.091 -5.21839 -2.70106 0
M  V30 3014 H 278.615 -4.93873 -3.59056 0
M  V30 3015 H 280.029 -5.55812 -1.40521 0
M  V30 3016 H 278.426 -5.95739 -0.722154 0
M  V30 3017 H 279.496 -4.84661 0.152082 0
M  V30 3018 N 280.839 0.0985539 -1.57292 0
M  V30 3019 C 282.087 0.801092 -1.85545 0
M  V30 3020 C 282.408 1.79438 -0.763353 0
M  V30 3021 O 281.678 1.94763 0.21073 0
M  V30 3022 H 280.258 0.29884 -0.684619 0
M  V30 3023 H 282.92 0.0810064 -1.94732 0
M  V30 3024 H 282.016 1.3338 -2.82163 0
M  V30 3025 N 282.317 1.53212 0.369288 0
M  V30 3026 C 283.227 1.82342 1.47609 0
M  V30 3027 C 284.243 0.711532 1.58787 0
M  V30 3028 O 285.419 1.0012 1.74751 0
M  V30 3029 C 282.484 2.00393 2.8292 0
M  V30 3030 C 281.545 3.24297 2.81301 0
M  V30 3031 C 280.778 3.41478 4.10157 0
M  V30 3032 O 281.001 2.63033 5.06132 0
M  V30 3033 O 279.935 4.34817 4.16194 0
M  V30 3034 H 283.761 2.76366 1.25918 0
M  V30 3035 H 281.346 1.38547 0.559034 0
M  V30 3036 H 283.228 2.13859 3.63101 0
M  V30 3037 H 281.903 1.09559 3.04596 0
M  V30 3038 H 280.81 3.16257 1.99831 0
M  V30 3039 H 282.143 4.15041 2.64578 0
M  V30 3040 N 283.795 -0.628877 1.44509 0
M  V30 3041 C 284.745 -1.7345 1.47983 0
M  V30 3042 C 285.729 -1.5715 0.345373 0
M  V30 3043 O 286.921 -1.66848 0.590829 0
M  V30 3044 C 284.05 -3.12143 1.42904 0
M  V30 3045 C 283.136 -3.33906 2.61472 0
M  V30 3046 N 283.527 -3.26024 3.86706 0
M  V30 3047 C 281.825 -3.64709 2.56716 0
M  V30 3048 C 282.526 -3.48536 4.65722 0
M  V30 3049 N 281.502 -3.71517 3.96832 0
M  V30 3050 H 285.304 -1.65818 2.42655 0
M  V30 3051 H 282.818 -0.831419 1.39503 0
M  V30 3052 H 284.815 -3.91433 1.43476 0
M  V30 3053 H 283.475 -3.2094 0.492717 0
M  V30 3054 H 284.486 -3.04893 4.18641 0
M  V30 3055 H 281.163 -3.80473 1.71891 0
M  V30 3056 H 282.553 -3.48016 5.74747 0
M  V30 3057 N 285.273 -1.31445 -0.869486 0
M  V30 3058 C 286.521 -1.20918 -1.61936 0
M  V30 3059 C 286.842 0.232683 -1.93607 0
M  V30 3060 O 286.112 1.15352 -1.58338 0
M  V30 3061 H 284.692 -0.44454 -0.600328 0
M  V30 3062 H 287.354 -1.64776 -1.0409 0
M  V30 3063 H 286.45 -1.78124 -2.56278 0
M  V30 3064 N 286.751 1.08385 -1.14413 0
M  V30 3065 C 288.028 1.77429 -0.823297 0
M  V30 3066 C 288.408 1.9974 0.683163 0
M  V30 3067 O 287.756 1.60739 1.62405 0
M  V30 3068 C 287.966 3.09004 -1.62227 0
M  V30 3069 C 289.314 3.83532 -1.82177 0
M  V30 3070 O 290.338 3.18786 -1.58915 0
M  V30 3071 O 289.197 4.99792 -2.21067 0
M  V30 3072 H 286.291 0.769999 -0.301712 0
M  V30 3073 H 288.837 1.14846 -1.24934 0
M  V30 3074 H 287.609 2.88316 -2.64555 0
M  V30 3075 H 287.232 3.79316 -1.19187 0
M  V30 3076 N 288.23 0.939286 1.26551 0
M  V30 3077 C 289.455 0.602008 1.98471 0
M  V30 3078 C 289.88 -0.815624 1.69497 0
M  V30 3079 O 289.238 -1.54912 0.941905 0
M  V30 3080 C 289.286 0.848407 3.50477 0
M  V30 3081 O 288.39 -0.0804009 4.12322 0
M  V30 3082 H 287.731 0.23049 0.622712 0
M  V30 3083 H 290.261 1.2617 1.61066 0
M  V30 3084 H 290.271 0.768553 4.00696 0
M  V30 3085 H 288.946 1.88171 3.70897 0
M  V30 3086 H 287.523 0.0503508 3.72866 0
M  V30 3087 N 289.708 -1.40897 0.706093 0
M  V30 3088 C 290.933 -2.05895 0.249435 0
M  V30 3089 C 291.358 -1.52823 -1.09666 0
M  V30 3090 O 290.716 -0.659589 -1.68876 0
M  V30 3091 C 290.764 -3.59872 0.22904 0
M  V30 3092 O 289.868 -4.04708 -0.792784 0
M  V30 3093 H 289.209 -0.653206 0.119241 0
M  V30 3094 H 291.739 -1.80471 0.96391 0
M  V30 3095 H 291.749 -4.07951 0.0634791 0
M  V30 3096 H 290.424 -3.97866 1.21141 0
M  V30 3097 H 289.001 -3.68111 -0.59572 0
M  V30 3098 N 291.186 -0.45159 -1.50991 0
M  V30 3099 C 292.432 0.110237 -2.025 0
M  V30 3100 C 292.765 1.41109 -1.33424 0
M  V30 3101 O 292.04 1.89135 -0.453659 0
M  V30 3102 C 292.323 0.314271 -3.58726 0
M  V30 3103 C 292.176 -1.00623 -4.38401 0
M  V30 3104 C 293.495 1.07767 -4.26702 0
M  V30 3105 H 290.614 0.0385897 -0.735989 0
M  V30 3106 H 293.256 -0.593374 -1.80497 0
M  V30 3107 H 291.406 0.913601 -3.77605 0
M  V30 3108 H 293.078 -1.64064 -4.31139 0
M  V30 3109 H 291.321 -1.6075 -4.02917 0
M  V30 3110 H 291.992 -0.817341 -5.45915 0
M  V30 3111 H 294.468 0.56986 -4.12179 0
M  V30 3112 H 293.344 1.18921 -5.35863 0
M  V30 3113 H 293.605 2.10939 -3.88532 0
M  V30 3114 N 292.664 1.56529 -0.183458 0
M  V30 3115 C 294.075 1.83739 0.331177 0
M  V30 3116 C 294.426 1.10373 1.62211 0
M  V30 3117 O 293.551 0.36071 2.13373 0
M  V30 3118 C 294.146 3.33306 0.607646 0
M  V30 3119 C 292.705 3.60969 1.06668 0
M  V30 3120 C 291.852 2.77086 0.109029 0
M  V30 3121 H 294.803 1.53379 -0.407484 0
M  V30 3122 H 294.824 3.51444 1.45832 0
M  V30 3123 H 294.336 3.86677 -0.332086 0
M  V30 3124 H 292.437 3.13021 2.0211 0
M  V30 3125 H 292.55 4.69231 0.967447 0
M  V30 3126 H 290.914 2.47319 0.608714 0
M  V30 3127 H 291.697 3.33241 -0.82494 0
M  V30 3128 N 294.142 -0.090211 1.57342 0
M  V30 3129 C 295.388 -0.793982 1.86611 0
M  V30 3130 C 295.721 -1.78142 0.773252 0
M  V30 3131 O 294.996 -1.93271 -0.218304 0
M  V30 3132 C 295.279 -1.51839 3.26523 0
M  V30 3133 C 295.132 -0.548609 4.46442 0
M  V30 3134 C 296.451 -2.46779 3.64401 0
M  V30 3135 H 293.57 -0.287186 0.678744 0
M  V30 3136 H 296.212 -0.0575076 1.89913 0
M  V30 3137 H 294.362 -2.14617 3.23839 0
M  V30 3138 H 296.034 0.0725513 4.61243 0
M  V30 3139 H 294.277 0.137614 4.33582 0
M  V30 3140 H 294.948 -1.09271 5.41076 0
M  V30 3141 H 297.424 -1.94089 3.68061 0
M  V30 3142 H 296.3 -2.94479 4.63221 0
M  V30 3143 H 296.561 -3.30758 2.93346 0
M  V30 3144 N 295.62 -1.53406 -0.361157 0
M  V30 3145 C 296.866 -1.70999 -1.1014 0
M  V30 3146 C 297.221 -0.458425 -1.86859 0
M  V30 3147 O 296.514 0.548654 -1.83577 0
M  V30 3148 C 296.708 -2.90211 -2.08596 0
M  V30 3149 C 296.537 -4.26841 -1.41553 0
M  V30 3150 C 295.307 -4.91621 -1.16778 0
M  V30 3151 C 297.505 -5.07212 -0.850915 0
M  V30 3152 N 295.487 -6.12164 -0.461312 0
M  V30 3153 C 296.858 -6.19394 -0.274046 0
M  V30 3154 C 298.913 -4.92218 -0.750036 0
M  V30 3155 C 297.616 -7.18221 0.393868 0
M  V30 3156 C 299.642 -5.91322 -0.095894 0
M  V30 3157 C 299.004 -7.0283 0.470081 0
M  V30 3158 H 295.103 -0.678939 -0.388028 0
M  V30 3159 H 297.687 -1.90811 -0.38722 0
M  V30 3160 H 295.858 -2.71931 -2.77323 0
M  V30 3161 H 297.59 -2.96606 -2.7533 0
M  V30 3162 H 294.345 -4.50849 -1.45024 0
M  V30 3163 H 294.769 -6.76888 -0.123312 0
M  V30 3164 H 299.411 -4.06192 -1.17337 0
M  V30 3165 H 297.129 -8.03835 0.82914 0
M  V30 3166 H 300.715 -5.81797 -0.0187075 0
M  V30 3167 H 299.595 -7.782 0.968241 0
M  V30 3168 N 297.098 0.621204 -1.44841 0
M  V30 3169 C 298.323 1.41244 -1.51871 0
M  V30 3170 C 298.748 1.87519 -0.147764 0
M  V30 3171 O 298.106 1.59334 0.865 0
M  V30 3172 C 298.154 2.60221 -2.49634 0
M  V30 3173 O 297.258 3.60395 -2.00473 0
M  V30 3174 H 296.599 0.42223 -0.512463 0
M  V30 3175 H 299.129 0.757305 -1.90069 0
M  V30 3176 H 299.139 3.0764 -2.67996 0
M  V30 3177 H 297.814 2.25887 -3.4921 0
M  V30 3178 H 296.391 3.19717 -1.91925 0
M  V30 3179 N 298.576 1.31904 0.862503 0
M  V30 3180 C 299.824 1.21776 1.61292 0
M  V30 3181 C 300.145 -0.222413 1.93727 0
M  V30 3182 O 299.415 -1.1451 1.58947 0
M  V30 3183 H 297.995 0.447717 0.597962 0
M  V30 3184 H 300.657 1.65326 1.03215 0
M  V30 3185 H 299.753 1.7948 2.5533 0
M  V30 3186 N 300.054 -1.07777 1.14986 0
M  V30 3187 C 300.987 -2.14228 0.786243 0
M  V30 3188 C 301.965 -1.60888 -0.235347 0
M  V30 3189 O 303.149 -1.88099 -0.122909 0
M  V30 3190 C 300.276 -3.38281 0.168433 0
M  V30 3191 C 299.322 -4.10387 1.16123 0
M  V30 3192 S 300.155 -4.62371 2.70135 0
M  V30 3193 C 301.311 -5.89704 2.09762 0
M  V30 3194 H 301.544 -2.44741 1.68787 0
M  V30 3195 H 299.077 -1.19984 0.971756 0
M  V30 3196 H 301.035 -4.10098 -0.181588 0
M  V30 3197 H 299.696 -3.05953 -0.710725 0
M  V30 3198 H 298.889 -4.99431 0.677086 0
M  V30 3199 H 298.491 -3.44513 1.45556 0
M  V30 3200 H 300.783 -6.61648 1.45701 0
M  V30 3201 H 301.726 -6.42824 2.96955 0
M  V30 3202 H 302.134 -5.4302 1.54239 0
M  V30 3203 N 301.532 -0.945985 -1.26051 0
M  V30 3204 C 302.48 -0.450259 -2.282 0
M  V30 3205 C 303.474 0.47497 -1.62605 0
M  V30 3206 O 304.68 0.352653 -1.76512 0
M  V30 3207 H 301.055 -0.127081 -0.741184 0
M  V30 3208 H 303.026 -1.32422 -2.67408 0
M  V30 3209 C 301.775 0.26467 -3.46691 0
M  V30 3210 H 301.098 -0.438123 -3.97392 0
M  V30 3211 H 302.538 0.575678 -4.20074 0
M  V30 3212 C 300.997 1.48416 -3.02447 0
M  V30 3213 O 301.527 2.58227 -3.07704 0
M  V30 3214 N 299.733 1.34243 -2.57735 0
M  V30 3215 H 299.28 0.448994 -2.53657 0
M  V30 3216 H 299.238 2.15957 -2.28495 0
M  V30 3217 N 303.011 1.40521 -0.713556 0
M  V30 3218 C 304.257 2.01221 -0.252564 0
M  V30 3219 C 304.59 1.56444 1.1506 0
M  V30 3220 O 303.865 0.783597 1.78017 0
M  V30 3221 C 304.148 3.58582 -0.330332 0
M  V30 3222 C 304.001 4.13437 -1.77173 0
M  V30 3223 C 305.32 4.39079 0.299641 0
M  V30 3224 H 302.439 0.731077 -0.0932471 0
M  V30 3225 H 305.081 1.67026 -0.905673 0
M  V30 3226 H 303.231 3.87844 0.225737 0
M  V30 3227 H 304.903 3.9498 -2.38303 0
M  V30 3228 H 303.146 3.67801 -2.3001 0
M  V30 3229 H 303.817 5.22597 -1.77755 0
M  V30 3230 H 306.293 4.15735 -0.174139 0
M  V30 3231 H 305.169 5.4848 0.214771 0
M  V30 3232 H 305.43 4.19915 1.38288 0
M  V30 3233 N 304.489 0.459591 1.5075 0
M  V30 3234 C 305.452 -0.329093 2.26825 0
M  V30 3235 C 306.452 -0.930481 1.31144 0
M  V30 3236 O 307.642 -0.801453 1.54669 0
M  V30 3237 C 304.774 -1.46768 3.07688 0
M  V30 3238 H 305.967 0.337924 2.9799 0
M  V30 3239 H 303.52 0.213336 1.54837 0
M  V30 3240 H 304.255 -2.17009 2.40993 0
M  V30 3241 H 304.04 -1.04238 3.77991 0
M  V30 3242 H 305.53 -2.02433 3.65254 0
M  V30 3243 N 305.967 -1.56429 0.191757 0
M  V30 3244 C 307.215 -1.97095 -0.447006 0
M  V30 3245 C 307.536 -1.07967 -1.62383 0
M  V30 3246 O 306.806 -0.150248 -1.95323 0
M  V30 3247 H 305.386 -0.727832 -0.168135 0
M  V30 3248 H 308.048 -1.92911 0.27771 0
M  V30 3249 H 307.144 -3.01848 -0.793371 0
M  V30 3250 N 307.445 0.0818655 -1.57387 0
M  V30 3251 C 308.691 0.784074 -1.8703 0
M  V30 3252 C 309.024 1.77729 -0.782689 0
M  V30 3253 O 308.299 1.93384 0.208051 0
M  V30 3254 C 308.582 1.50105 -3.27323 0
M  V30 3255 C 308.435 0.524925 -4.46727 0
M  V30 3256 C 309.754 2.44843 -3.65705 0
M  V30 3257 H 306.873 0.283582 -0.680257 0
M  V30 3258 H 309.515 0.0474352 -1.89941 0
M  V30 3259 H 307.665 2.12897 -3.24972 0
M  V30 3260 H 309.337 -0.0970111 -4.61198 0
M  V30 3261 H 307.58 -0.160606 -4.33503 0
M  V30 3262 H 308.251 1.064 -5.41648 0
M  V30 3263 H 310.727 1.92135 -3.69085 0
M  V30 3264 H 309.603 2.92018 -4.64776 0
M  V30 3265 H 309.864 3.29197 -2.95096 0
M  V30 3266 N 308.923 1.53595 0.353017 0
M  V30 3267 C 310.148 1.7462 1.11904 0
M  V30 3268 C 310.573 0.479721 1.8188 0
M  V30 3269 O 309.931 -0.567066 1.72204 0
M  V30 3270 C 309.979 2.92029 2.11545 0
M  V30 3271 O 309.083 2.61516 3.18878 0
M  V30 3272 H 308.424 0.579531 0.324099 0
M  V30 3273 H 310.954 2.00525 0.406301 0
M  V30 3274 H 310.964 3.18551 2.5493 0
M  V30 3275 H 309.639 3.83888 1.60008 0
M  V30 3276 H 308.216 2.45852 2.80377 0
M  V30 3277 N 310.401 -0.613514 1.45168 0
M  V30 3278 C 311.331 -1.7354 1.56225 0
M  V30 3279 C 312.312 -1.64981 0.41414 0
M  V30 3280 O 313.497 -1.83472 0.636526 0
M  V30 3281 C 310.627 -3.12128 1.52295 0
M  V30 3282 C 309.581 -3.35491 2.65762 0
M  V30 3283 C 308.907 -4.74291 2.46885 0
M  V30 3284 C 310.207 -3.26325 4.0781 0
M  V30 3285 H 311.901 -1.64543 2.50132 0
M  V30 3286 H 309.447 -0.790185 1.20383 0
M  V30 3287 H 311.4 -3.90404 1.58628 0
M  V30 3288 H 310.124 -3.2195 0.549139 0
M  V30 3289 H 308.783 -2.59603 2.58847 0
M  V30 3290 H 308.431 -4.80839 1.47657 0
M  V30 3291 H 308.131 -4.9088 3.22972 0
M  V30 3292 H 309.655 -5.54775 2.55063 0
M  V30 3293 H 311.069 -3.94483 4.16 0
M  V30 3294 H 309.466 -3.54445 4.8424 0
M  V30 3295 H 310.536 -2.23855 4.30136 0
M  V30 3296 N 311.879 -1.3236 -0.855495 0
M  V30 3297 C 312.826 -1.21225 -1.964 0
M  V30 3298 C 313.796 -0.0946204 -1.6583 0
M  V30 3299 O 314.981 -0.27002 -1.8888 0
M  V30 3300 C 312.121 -0.940419 -3.32039 0
M  V30 3301 C 311.234 -2.14276 -3.75113 0
M  V30 3302 C 310.369 -1.80648 -4.9954 0
M  V30 3303 C 309.408 -2.97208 -5.35102 0
M  V30 3304 N 308.545 -2.63678 -6.50706 0
M  V30 3305 H 313.385 -2.16042 -2.05255 0
M  V30 3306 H 310.922 -1.07451 -1.00463 0
M  V30 3307 H 312.88 -0.763311 -4.10158 0
M  V30 3308 H 311.51 -0.0290413 -3.22787 0
M  V30 3309 H 310.562 -2.43017 -2.92655 0
M  V30 3310 H 311.874 -3.01468 -3.97389 0
M  V30 3311 H 311.028 -1.59484 -5.85363 0
M  V30 3312 H 309.767 -0.906678 -4.79198 0
M  V30 3313 H 308.772 -3.19004 -4.47791 0
M  V30 3314 H 309.997 -3.87918 -5.57401 0
M  V30 3315 H 307.943 -1.76238 -6.31883 0
M  V30 3316 H 307.86 -3.444 -6.72997 0
M  V30 3317 H 309.128 -2.45942 -7.39684 0
M  V30 3318 N 313.357 1.07166 -1.15556 0
M  V30 3319 C 314.585 1.83514 -0.955519 0
M  V30 3320 C 315 1.82163 0.49621 0
M  V30 3321 O 314.357 1.23441 1.34419 0
M  V30 3322 C 314.408 3.30515 -1.46432 0
M  V30 3323 O 314.129 3.31937 -2.85918 0
M  V30 3324 C 315.63 4.23625 -1.30603 0
M  V30 3325 H 312.85 0.578926 -0.339244 0
M  V30 3326 H 315.394 1.35265 -1.53374 0
M  V30 3327 H 313.549 3.76106 -0.928584 0
M  V30 3328 H 313.963 4.23794 -3.09029 0
M  V30 3329 H 315.437 5.24831 -1.71047 0
M  V30 3330 H 315.914 4.38485 -0.250441 0
M  V30 3331 H 316.52 3.83871 -1.83094 0
M  V30 3332 N 314.835 0.952656 1.25548 0
M  V30 3333 C 315.765 0.489287 2.28316 0
M  V30 3334 C 316.746 -0.463359 1.63667 0
M  V30 3335 O 317.931 -0.36274 1.90782 0
M  V30 3336 C 315.061 -0.235603 3.465 0
M  V30 3337 C 314.015 0.631593 4.23314 0
M  V30 3338 C 313.341 -0.223923 5.34231 0
M  V30 3339 C 314.641 1.90871 4.86174 0
M  V30 3340 H 316.335 1.34822 2.67326 0
M  V30 3341 H 313.881 0.649728 1.28509 0
M  V30 3342 H 315.834 -0.570882 4.17515 0
M  V30 3343 H 314.558 -1.12877 3.06474 0
M  V30 3344 H 313.217 0.949929 3.54079 0
M  V30 3345 H 312.865 -1.11678 4.90446 0
M  V30 3346 H 312.565 0.35299 5.86539 0
M  V30 3347 H 314.089 -0.554214 6.0808 0
M  V30 3348 H 315.503 1.63997 5.49343 0
M  V30 3349 H 313.9 2.43112 5.4865 0
M  V30 3350 H 314.97 2.61304 4.08471 0
M  V30 3351 N 316.313 -1.40141 0.720998 0
M  V30 3352 C 317.263 -2.27949 0.0482544 0
M  V30 3353 C 318.247 -1.43538 -0.727021 0
M  V30 3354 O 319.439 -1.6658 -0.598332 0
M  V30 3355 C 316.568 -3.32126 -0.868729 0
M  V30 3356 C 315.654 -4.24008 -0.0883515 0
M  V30 3357 N 316.045 -4.97154 0.931226 0
M  V30 3358 C 314.343 -4.4485 -0.320105 0
M  V30 3359 C 315.044 -5.64587 1.4006 0
M  V30 3360 N 314.02 -5.38787 0.721752 0
M  V30 3361 H 317.822 -2.81948 0.829609 0
M  V30 3362 H 315.336 -1.52656 0.554067 0
M  V30 3363 H 317.333 -3.93884 -1.36605 0
M  V30 3364 H 315.993 -2.79687 -1.6494 0
M  V30 3365 H 317.004 -5.01 1.31222 0
M  V30 3366 H 313.681 -4.03378 -1.07668 0
M  V30 3367 H 315.071 -6.33175 2.24808 0
M  V30 3368 N 317.792 -0.46758 -1.50504 0
M  V30 3369 C 319.203 -0.0116166 -1.86696 0
M  V30 3370 C 319.554 1.39202 -1.38265 0
M  V30 3371 O 318.679 2.0313 -0.746132 0
M  V30 3372 C 319.274 -0.0143044 -3.38797 0
M  V30 3373 C 317.833 0.386175 -3.74414 0
M  V30 3374 C 316.98 -0.401287 -2.74381 0
M  V30 3375 H 319.931 -0.682022 -1.43297 0
M  V30 3376 H 319.952 0.788641 -3.72237 0
M  V30 3377 H 319.464 -1.03602 -3.74016 0
M  V30 3378 H 317.565 1.41237 -3.44794 0
M  V30 3379 H 317.678 0.0899596 -4.79016 0
M  V30 3380 H 316.042 0.144536 -2.5429 0
M  V30 3381 H 316.825 -1.42244 -3.12444 0
M  V30 3382 N 319.27 1.56325 -0.20005 0
M  V30 3383 C 320.547 1.89484 0.48529 0
M  V30 3384 C 320.927 1.1143 1.79294 0
M  V30 3385 O 320.275 0.216919 2.27468 0
M  V30 3386 C 320.485 3.41923 0.699243 0
M  V30 3387 C 321.833 4.12256 1.01638 0
M  V30 3388 O 322.857 3.47402 0.786792 0
M  V30 3389 O 321.716 5.26887 1.45095 0
M  V30 3390 H 318.81 0.787144 0.253639 0
M  V30 3391 H 321.356 1.67985 -0.240633 0
M  V30 3392 H 320.128 3.90658 -0.224008 0
M  V30 3393 H 319.751 3.69131 1.47744 0
M  V30 3394 N 320.748 -0.0735177 1.57428 0
M  V30 3395 C 321.678 -1.0879 2.06608 0
M  V30 3396 C 322.659 -1.40473 0.959237 0
M  V30 3397 O 323.844 -1.5013 1.23185 0
M  V30 3398 C 320.974 -2.40183 2.50857 0
M  V30 3399 C 319.928 -2.22858 3.65402 0
M  V30 3400 C 319.254 -3.59619 3.957 0
M  V30 3401 C 320.554 -1.65123 4.95511 0
M  V30 3402 H 322.248 -0.678673 2.91607 0
M  V30 3403 H 319.794 -0.325013 1.40284 0
M  V30 3404 H 321.747 -3.11437 2.83874 0
M  V30 3405 H 320.471 -2.83083 1.62885 0
M  V30 3406 H 319.13 -1.54045 3.32664 0
M  V30 3407 H 318.778 -4.00086 3.04861 0
M  V30 3408 H 318.478 -3.48866 4.72828 0
M  V30 3409 H 320.002 -4.32306 4.31212 0
M  V30 3410 H 321.416 -2.26241 5.26771 0
M  V30 3411 H 319.813 -1.65071 5.7695 0
M  V30 3412 H 320.883 -0.612559 4.81015 0
M  V30 3413 N 322.226 -1.5378 -0.344866 0
M  V30 3414 C 323.474 -1.70625 -1.08311 0
M  V30 3415 C 323.795 -0.471447 -1.89215 0
M  V30 3416 O 323.065 0.514616 -1.8902 0
M  V30 3417 H 321.645 -0.629058 -0.402859 0
M  V30 3418 H 324.307 -1.9103 -0.386459 0
M  V30 3419 H 323.403 -2.57656 -1.76124 0
M  V30 3420 N 323.704 0.605807 -1.45491 0
M  V30 3421 C 324.932 1.39136 -1.5313 0
M  V30 3422 C 325.347 1.88082 -0.164507 0
M  V30 3423 O 324.704 1.62316 0.834247 0
M  V30 3424 C 324.755 2.59463 -2.51716 0
M  V30 3425 O 324.476 2.12551 -3.83084 0
M  V30 3426 C 325.977 3.52301 -2.6907 0
M  V30 3427 H 323.197 0.425849 -0.51855 0
M  V30 3428 H 325.741 0.73865 -1.90694 0
M  V30 3429 H 323.896 3.20772 -2.17219 0
M  V30 3430 H 324.31 2.90744 -4.36541 0
M  V30 3431 H 325.784 4.33271 -3.42024 0
M  V30 3432 H 326.261 4.02757 -1.75167 0
M  V30 3433 H 326.867 2.96845 -3.04571 0
M  V30 3434 N 325.182 1.32811 0.848464 0
M  V30 3435 C 326.459 1.14334 1.58704 0
M  V30 3436 C 326.839 -0.293948 2.09043 0
M  V30 3437 O 326.187 -1.29153 1.88499 0
M  V30 3438 C 326.397 2.17626 2.72837 0
M  V30 3439 C 327.745 2.51282 3.42261 0
M  V30 3440 O 328.769 2.16219 2.83068 0
M  V30 3441 O 327.628 3.11413 4.49093 0
M  V30 3442 H 324.722 0.441601 0.699226 0
M  V30 3443 H 327.268 1.44362 0.892053 0
M  V30 3444 H 326.04 3.14211 2.3321 0
M  V30 3445 H 325.663 1.88628 3.50008 0
M  V30 3446 N 326.66 -1.06551 1.16123 0
M  V30 3447 C 327.607 -2.13961 0.865414 0
M  V30 3448 C 328.577 -1.65066 -0.185055 0
M  V30 3449 O 329.762 -1.90732 -0.05083 0
M  V30 3450 C 326.902 -3.43113 0.369776 0
M  V30 3451 C 326.015 -4.05756 1.48276 0
M  V30 3452 C 325.15 -5.22773 0.942414 0
M  V30 3453 C 324.189 -5.77395 2.03179 0
M  V30 3454 N 323.326 -6.85731 1.50721 0
M  V30 3455 H 328.166 -2.38605 1.78527 0
M  V30 3456 H 325.703 -1.17072 0.890646 0
M  V30 3457 H 327.661 -4.17151 0.0640643 0
M  V30 3458 H 326.291 -3.18695 -0.513143 0
M  V30 3459 H 325.343 -3.29292 1.9045 0
M  V30 3460 H 326.655 -4.42351 2.30493 0
M  V30 3461 H 325.809 -6.03827 0.589729 0
M  V30 3462 H 324.548 -4.87618 0.0895191 0
M  V30 3463 H 323.553 -4.94981 2.3932 0
M  V30 3464 H 324.778 -6.14603 2.8886 0
M  V30 3465 H 322.724 -6.52499 0.676811 0
M  V30 3466 H 322.641 -7.21254 2.26557 0
M  V30 3467 H 323.909 -7.7047 1.18303 0
M  V30 3468 N 328.138 -0.959301 -1.25041 0
M  V30 3469 C 329.415 -0.533805 -1.88175 0
M  V30 3470 C 329.795 0.988994 -1.865 0
M  V30 3471 O 329.143 1.85677 -1.33177 0
M  V30 3472 C 329.353 -1.11575 -3.30684 0
M  V30 3473 C 330.701 -1.19548 -4.07423 0
M  V30 3474 O 331.725 -1.06765 -3.39823 0
M  V30 3475 O 330.584 -1.39656 -5.28354 0
M  V30 3476 H 327.678 -0.176772 -0.807887 0
M  V30 3477 H 330.224 -1.05303 -1.33076 0
M  V30 3478 H 328.996 -2.15884 -3.26358 0
M  V30 3479 H 328.619 -0.580059 -3.93346 0
M  V30 3480 N 329.616 1.39756 -0.72842 0
M  V30 3481 C 330.563 2.30647 -0.0841519 0
M  V30 3482 C 331.533 1.48869 0.7367 0
M  V30 3483 O 332.718 1.77574 0.698015 0
M  V30 3484 C 329.858 3.35165 0.822091 0
M  V30 3485 C 328.971 4.31999 -0.0106663 0
M  V30 3486 C 328.106 5.23585 0.896241 0
M  V30 3487 C 327.145 6.12072 0.0583381 0
M  V30 3488 N 326.282 6.96035 0.920818 0
M  V30 3489 H 331.122 2.85173 -0.864891 0
M  V30 3490 H 328.659 1.40422 -0.438179 0
M  V30 3491 H 330.617 3.94345 1.36189 0
M  V30 3492 H 329.247 2.8211 1.56888 0
M  V30 3493 H 328.299 3.74492 -0.66781 0
M  V30 3494 H 329.611 4.9443 -0.658825 0
M  V30 3495 H 328.765 5.87759 1.50412 0
M  V30 3496 H 327.504 4.61459 1.57819 0
M  V30 3497 H 326.509 5.46916 -0.562389 0
M  V30 3498 H 327.734 6.76261 -0.6203 0
M  V30 3499 H 325.68 6.36485 1.58818 0
M  V30 3500 H 325.597 7.55284 0.32899 0
M  V30 3501 H 326.865 7.64646 1.51447 0
M  V30 3502 N 331.094 0.475555 1.50254 0
M  V30 3503 C 332.004 -0.321501 2.32387 0
M  V30 3504 C 333.02 -0.991755 1.42969 0
M  V30 3505 O 334.196 -0.978747 1.76018 0
M  V30 3506 C 331.261 -1.38667 3.17762 0
M  V30 3507 C 330.322 -0.732538 4.23004 0
M  V30 3508 C 329.555 -1.74695 5.04299 0
M  V30 3509 O 329.778 -2.97399 4.86734 0
M  V30 3510 O 328.712 -1.31631 5.8733 0
M  V30 3511 H 332.538 0.350071 3.01676 0
M  V30 3512 H 330.123 0.237321 1.47503 0
M  V30 3513 H 332.005 -2.00354 3.70724 0
M  V30 3514 H 330.68 -2.04163 2.51196 0
M  V30 3515 H 329.587 -0.0765902 3.74022 0
M  V30 3516 H 330.92 -0.120452 4.92053 0
M  V30 3517 N 332.573 -1.56217 0.208337 0
M  V30 3518 C 333.505 -2.1695 -0.739276 0
M  V30 3519 C 334.518 -1.13492 -1.1672 0
M  V30 3520 O 335.707 -1.40529 -1.10063 0
M  V30 3521 C 332.807 -2.72755 -2.01142 0
M  V30 3522 C 331.98 -4.0125 -1.74118 0
M  V30 3523 C 331.039 -4.41749 -2.85909 0
M  V30 3524 O 330.065 -5.08912 -2.54946 0
M  V30 3525 N 331.267 -4.06342 -4.14568 0
M  V30 3526 H 334.032 -2.98893 -0.219837 0
M  V30 3527 H 331.593 -1.61878 0.0268445 0
M  V30 3528 H 333.585 -2.96826 -2.75094 0
M  V30 3529 H 332.155 -1.95191 -2.4417 0
M  V30 3530 H 331.375 -3.85173 -0.838775 0
M  V30 3531 H 332.663 -4.851 -1.53477 0
M  V30 3532 H 332.061 -3.52345 -4.42571 0
M  V30 3533 H 330.618 -4.35335 -4.85105 0
M  V30 3534 N 334.051 0.0651679 -1.57465 0
M  V30 3535 C 335.297 0.758912 -1.88712 0
M  V30 3536 C 335.652 1.7485 -0.802819 0
M  V30 3537 O 334.945 1.90632 0.192359 0
M  V30 3538 C 335.139 1.50081 -3.24362 0
M  V30 3539 C 334.968 0.584579 -4.45884 0
M  V30 3540 C 333.738 0.219039 -5.04825 0
M  V30 3541 C 335.936 -0.121559 -5.14156 0
M  V30 3542 N 333.918 -0.702222 -6.09871 0
M  V30 3543 C 335.289 -0.899767 -6.13436 0
M  V30 3544 C 337.344 -0.192331 -4.97528 0
M  V30 3545 C 336.047 -1.74218 -6.97883 0
M  V30 3546 C 338.073 -1.02174 -5.82507 0
M  V30 3547 C 337.435 -1.78798 -6.8133 0
M  V30 3548 H 333.534 0.25293 -0.739967 0
M  V30 3549 H 336.118 0.0201744 -1.9469 0
M  V30 3550 H 334.289 2.21023 -3.1938 0
M  V30 3551 H 336.021 2.14409 -3.43236 0
M  V30 3552 H 332.776 0.57336 -4.70117 0
M  V30 3553 H 333.2 -1.15629 -6.67052 0
M  V30 3554 H 337.842 0.385741 -4.21037 0
M  V30 3555 H 335.56 -2.3312 -7.73745 0
M  V30 3556 H 339.146 -1.07957 -5.71696 0
M  V30 3557 H 338.026 -2.41942 -7.45945 0
M  V30 3558 N 335.529 1.53961 0.336706 0
M  V30 3559 C 336.476 1.82428 1.41381 0
M  V30 3560 C 337.446 0.670444 1.51968 0
M  V30 3561 O 338.631 0.915565 1.67398 0
M  V30 3562 C 335.771 2.04564 2.77934 0
M  V30 3563 C 334.884 3.32267 2.76084 0
M  V30 3564 C 334.019 3.44434 4.04399 0
M  V30 3565 C 333.058 4.66061 3.96804 0
M  V30 3566 N 332.195 4.75224 5.16823 0
M  V30 3567 H 337.035 2.74324 1.16405 0
M  V30 3568 H 334.572 1.35869 0.563752 0
M  V30 3569 H 336.53 2.15388 3.57301 0
M  V30 3570 H 335.16 1.15974 3.01247 0
M  V30 3571 H 334.212 3.3025 1.88784 0
M  V30 3572 H 335.524 4.21733 2.66351 0
M  V30 3573 H 334.678 3.54728 4.92192 0
M  V30 3574 H 333.417 2.53037 4.16921 0
M  V30 3575 H 332.422 4.55838 3.07396 0
M  V30 3576 H 333.647 5.58829 3.85858 0
M  V30 3577 H 331.593 3.86739 5.29876 0
M  V30 3578 H 331.51 5.58636 5.09374 0
M  V30 3579 H 332.778 4.89835 6.06367 0
M  V30 3580 N 337.007 -0.598083 1.45811 0
M  V30 3581 C 337.917 -1.73632 1.57763 0
M  V30 3582 C 338.933 -1.67763 0.461676 0
M  V30 3583 O 340.109 -1.87949 0.723685 0
M  V30 3584 C 337.174 -3.10114 1.55018 0
M  V30 3585 C 336.235 -3.27364 2.77726 0
M  V30 3586 C 335.468 -4.57334 2.75102 0
M  V30 3587 O 335.691 -5.40258 1.8297 0
M  V30 3588 O 334.625 -4.77502 3.66437 0
M  V30 3589 H 338.451 -1.66498 2.53992 0
M  V30 3590 H 336.036 -0.763308 1.28429 0
M  V30 3591 H 337.918 -3.9141 1.56129 0
M  V30 3592 H 336.593 -3.17718 0.619431 0
M  V30 3593 H 335.5 -2.45619 2.82174 0
M  V30 3594 H 336.833 -3.24641 3.69958 0
M  V30 3595 N 338.485 -1.33259 -0.841409 0
M  V30 3596 C 339.731 -1.24757 -1.59886 0
M  V30 3597 C 340.064 0.186913 -1.93298 0
M  V30 3598 O 339.339 1.12757 -1.5848 0
M  V30 3599 C 339.622 -2.12036 -2.91055 0
M  V30 3600 C 339.475 -3.63929 -2.6434 0
M  V30 3601 C 340.794 -1.9916 -3.92458 0
M  V30 3602 H 337.913 -0.454542 -0.580138 0
M  V30 3603 H 340.555 -1.63335 -0.970647 0
M  V30 3604 H 338.705 -1.79265 -3.44669 0
M  V30 3605 H 340.377 -4.06978 -2.17178 0
M  V30 3606 H 338.62 -3.85935 -1.98082 0
M  V30 3607 H 339.291 -4.20341 -3.57796 0
M  V30 3608 H 341.767 -2.27895 -3.48143 0
M  V30 3609 H 340.643 -2.62484 -4.82072 0
M  V30 3610 H 340.904 -0.963082 -4.31482 0
M  V30 3611 N 339.963 1.05934 -1.16686 0
M  V30 3612 C 340.913 2.11764 -0.844978 0
M  V30 3613 C 341.897 1.59922 0.177178 0
M  V30 3614 O 343.089 1.76983 -0.0241768 0
M  V30 3615 C 340.218 3.41493 -0.351812 0
M  V30 3616 C 339.304 4.00152 -1.40496 0
M  V30 3617 N 339.695 4.32874 -2.61636 0
M  V30 3618 C 337.993 4.278 -1.26106 0
M  V30 3619 C 338.694 4.79552 -3.29249 0
M  V30 3620 N 337.67 4.79211 -2.56628 0
M  V30 3621 H 341.472 2.34916 -1.76612 0
M  V30 3622 H 338.986 1.23511 -1.05446 0
M  V30 3623 H 340.983 4.16773 -0.102796 0
M  V30 3624 H 339.643 3.19778 0.56322 0
M  V30 3625 H 340.654 4.23109 -2.98663 0
M  V30 3626 H 337.331 4.15511 -0.407081 0
M  V30 3627 H 338.721 5.14045 -4.32675 0
M  V30 3628 N 341.441 0.965919 1.2453 0
M  V30 3629 C 342.388 0.49402 2.25451 0
M  V30 3630 C 343.358 -0.45948 1.59618 0
M  V30 3631 O 344.543 -0.370238 1.87173 0
M  V30 3632 C 341.683 -0.211359 3.44452 0
M  V30 3633 C 340.796 0.7807 4.24887 0
M  V30 3634 C 339.931 0.0516105 5.31175 0
M  V30 3635 C 338.97 1.03385 6.03306 0
M  V30 3636 N 338.107 0.334887 7.01301 0
M  V30 3637 H 342.947 1.35946 2.65184 0
M  V30 3638 H 340.484 0.681515 1.3036 0
M  V30 3639 H 342.442 -0.637 4.12308 0
M  V30 3640 H 341.072 -1.04077 3.05562 0
M  V30 3641 H 340.124 1.32479 3.56586 0
M  V30 3642 H 341.436 1.52978 4.74762 0
M  V30 3643 H 340.59 -0.432114 6.05159 0
M  V30 3644 H 339.329 -0.730179 4.82203 0
M  V30 3645 H 338.334 1.52847 5.28127 0
M  V30 3646 H 339.559 1.81606 6.54367 0
M  V30 3647 H 337.505 -0.427959 6.54603 0
M  V30 3648 H 337.422 1.02287 7.49048 0
M  V30 3649 H 338.69 -0.126928 7.79397 0
M  V30 3650 N 342.919 -1.39368 0.735821 0
M  V30 3651 C 343.851 -2.2913 0.0567723 0
M  V30 3652 C 344.864 -1.46859 -0.702589 0
M  V30 3653 O 346.053 -1.69925 -0.546616 0
M  V30 3654 C 343.153 -3.25492 -0.943823 0
M  V30 3655 C 342.326 -4.36709 -0.24581 0
M  V30 3656 C 341.385 -5.13376 -1.15463 0
M  V30 3657 O 340.411 -5.65683 -0.631803 0
M  V30 3658 N 341.613 -5.24656 -2.48427 0
M  V30 3659 H 344.378 -2.88047 0.827582 0
M  V30 3660 H 341.939 -1.50957 0.585112 0
M  V30 3661 H 343.931 -3.73657 -1.55443 0
M  V30 3662 H 342.501 -2.676 -1.61583 0
M  V30 3663 H 341.721 -3.9041 0.545286 0
M  V30 3664 H 343.009 -5.08244 0.237891 0
M  V30 3665 H 342.407 -4.83679 -2.93379 0
M  V30 3666 H 340.964 -5.76258 -3.04582 0
M  V30 3667 N 344.397 -0.483516 -1.5 0
M  V30 3668 C 345.643 0.0672592 -2.02688 0
M  V30 3669 C 345.976 1.38247 -1.36387 0
M  V30 3670 O 345.251 1.88131 -0.493675 0
M  V30 3671 C 345.534 0.238109 -3.59312 0
M  V30 3672 C 345.387 -1.099 -4.36168 0
M  V30 3673 C 346.706 0.986916 -4.28892 0
M  V30 3674 H 343.825 0.0229696 -0.736642 0
M  V30 3675 H 346.467 -0.631527 -1.79197 0
M  V30 3676 H 344.617 0.8333 -3.79458 0
M  V30 3677 H 346.289 -1.73172 -4.27562 0
M  V30 3678 H 344.532 -1.69261 -3.99416 0
M  V30 3679 H 345.203 -0.932954 -5.44059 0
M  V30 3680 H 347.679 0.482302 -4.13295 0
M  V30 3681 H 346.555 1.07527 -5.38265 0
M  V30 3682 H 346.816 2.0265 -3.92919 0
M  V30 3683 N 345.875 1.56104 -0.216619 0
M  V30 3684 C 347.121 1.98466 0.417033 0
M  V30 3685 C 347.454 1.10403 1.59765 0
M  V30 3686 O 346.729 0.160632 1.93836 0
M  V30 3687 C 347.012 3.49769 0.85637 0
M  V30 3688 C 346.865 4.48606 -0.327546 0
M  V30 3689 C 348.184 4.05339 1.7143 0
M  V30 3690 H 345.303 0.721551 0.150112 0
M  V30 3691 H 347.945 1.87423 -0.311864 0
M  V30 3692 H 346.095 3.5931 1.47745 0
M  V30 3693 H 347.767 4.5108 -0.965618 0
M  V30 3694 H 346.01 4.22682 -0.975805 0
M  V30 3695 H 346.681 5.51995 0.0227149 0
M  V30 3696 H 349.157 3.98712 1.19031 0
M  V30 3697 H 348.033 5.11533 1.99061 0
M  V30 3698 H 348.294 3.51918 2.67593 0
M  V30 3699 N 347.353 -0.0568162 1.57498 0
M  V30 3700 C 348.263 -1.08346 2.08083 0
M  V30 3701 C 349.279 -1.41439 1.01346 0
M  V30 3702 O 350.455 -1.51316 1.32912 0
M  V30 3703 C 347.52 -2.37352 2.52715 0
M  V30 3704 C 346.581 -2.11093 3.73816 0
M  V30 3705 C 345.814 -3.33949 4.1631 0
M  V30 3706 O 346.037 -4.43622 3.58547 0
M  V30 3707 O 344.971 -3.21279 5.08983 0
M  V30 3708 H 348.797 -0.683667 2.95905 0
M  V30 3709 H 346.382 -0.271965 1.46904 0
M  V30 3710 H 348.264 -3.13246 2.81877 0
M  V30 3711 H 346.939 -2.76681 1.68016 0
M  V30 3712 H 345.846 -1.32856 3.49714 0
M  V30 3713 H 347.179 -1.76637 4.59413 0
M  V30 3714 N 348.832 -1.54138 -0.328536 0
M  V30 3715 C 350.057 -1.76378 -1.09112 0
M  V30 3716 C 350.482 -0.508596 -1.81094 0
M  V30 3717 O 349.84 0.539598 -1.73084 0
M  V30 3718 C 349.888 -2.95358 -2.06872 0
M  V30 3719 O 348.992 -2.66556 -3.14677 0
M  V30 3720 H 348.333 -0.584614 -0.314838 0
M  V30 3721 H 350.863 -2.01146 -0.374348 0
M  V30 3722 H 350.873 -3.22566 -2.4983 0
M  V30 3723 H 349.548 -3.86385 -1.5388 0
M  V30 3724 H 348.125 -2.50282 -2.7643 0
M  V30 3725 N 350.31 0.590341 -1.46126 0
M  V30 3726 C 351.273 1.68194 -1.55703 0
M  V30 3727 C 352.273 1.54808 -0.434868 0
M  V30 3728 O 353.463 1.59564 -0.698928 0
M  V30 3729 C 350.595 3.07575 -1.47005 0
M  V30 3730 H 351.788 1.61064 -2.52979 0
M  V30 3731 H 349.341 0.807541 -1.33823 0
M  V30 3732 H 350.076 3.20268 -0.509785 0
M  V30 3733 H 349.861 3.187 -2.28414 0
M  V30 3734 H 351.351 3.87055 -1.56776 0
M  V30 3735 N 351.788 1.33704 0.83433 0
M  V30 3736 C 353.018 1.28281 1.6195 0
M  V30 3737 C 353.426 -0.147603 1.88623 0
M  V30 3738 O 352.769 -1.1016 1.47005 0
M  V30 3739 C 352.831 1.99386 2.99141 0
M  V30 3740 C 352.495 3.48681 2.95416 0
M  V30 3741 C 353.492 4.438 2.70809 0
M  V30 3742 C 351.177 3.90925 3.15409 0
M  V30 3743 C 353.171 5.79138 2.66229 0
M  V30 3744 C 350.858 5.26366 3.10454 0
M  V30 3745 C 351.856 6.20284 2.85895 0
M  V30 3746 O 351.544 7.53245 2.80852 0
M  V30 3747 H 351.276 0.44315 0.510484 0
M  V30 3748 H 353.83 1.76711 1.04702 0
M  V30 3749 H 352.06 1.45554 3.58261 0
M  V30 3750 H 353.749 1.87403 3.60049 0
M  V30 3751 H 354.515 4.12485 2.5511 0
M  V30 3752 H 350.394 3.18229 3.33543 0
M  V30 3753 H 353.938 6.52416 2.4698 0
M  V30 3754 H 349.835 5.57304 3.25703 0
M  V30 3755 H 350.603 7.62846 2.96661 0
M  V30 3756 N 353.266 -1.05314 1.17247 0
M  V30 3757 C 354.176 -2.16538 0.90268 0
M  V30 3758 C 355.192 -1.73523 -0.128707 0
M  V30 3759 O 356.368 -2.01337 0.0502701 0
M  V30 3760 C 353.433 -3.44167 0.418356 0
M  V30 3761 C 352.494 -4.01635 1.51618 0
M  V30 3762 C 351.727 -5.23171 1.05487 0
M  V30 3763 O 351.95 -5.70327 -0.0914715 0
M  V30 3764 O 350.884 -5.72848 1.8474 0
M  V30 3765 H 354.71 -2.42145 1.83302 0
M  V30 3766 H 352.295 -1.15037 0.953246 0
M  V30 3767 H 354.177 -4.21112 0.155726 0
M  V30 3768 H 352.852 -3.20063 -0.48385 0
M  V30 3769 H 351.759 -3.26135 1.83268 0
M  V30 3770 H 353.092 -4.30053 2.39405 0
M  V30 3771 N 354.744 -0.972509 -1.24016 0
M  V30 3772 C 355.99 -0.637978 -1.92504 0
M  V30 3773 C 356.323 0.825383 -1.75787 0
M  V30 3774 O 355.598 1.59442 -1.11393 0
M  V30 3775 C 355.881 -1.01942 -3.45369 0
M  V30 3776 C 355.734 -2.53983 -3.71231 0
M  V30 3777 C 357.053 -0.55751 -4.36555 0
M  V30 3778 H 354.172 -0.233248 -0.699117 0
M  V30 3779 H 356.814 -1.21238 -1.46292 0
M  V30 3780 H 354.964 -0.530656 -3.84859 0
M  V30 3781 H 356.636 -3.10374 -3.41271 0
M  V30 3782 H 354.879 -2.96968 -3.16216 0
M  V30 3783 H 355.55 -2.75723 -4.78206 0
M  V30 3784 H 358.026 -0.977029 -4.04467 0
M  V30 3785 H 356.902 -0.85292 -5.42233 0
M  V30 3786 H 357.163 0.542328 -4.38761 0
M  V30 3787 N 356.222 1.38976 -0.743202 0
M  V30 3788 C 357.471 1.99581 -0.291592 0
M  V30 3789 C 357.784 1.59656 1.13001 0
M  V30 3790 O 358.99 2.13157 1.68156 0
M  V30 3791 C 357.446 3.56813 -0.470391 0
M  V30 3792 C 357.054 4.05695 -1.90041 0
M  V30 3793 C 358.798 4.24423 -0.0809709 0
M  V30 3794 C 356.705 5.5553 -2.02832 0
M  V30 3795 H 355.635 0.746615 -0.105272 0
M  V30 3796 H 358.286 1.58872 -0.918258 0
M  V30 3797 H 356.668 3.95359 0.225299 0
M  V30 3798 H 357.842 3.78464 -2.62872 0
M  V30 3799 H 356.157 3.50775 -2.24379 0
M  V30 3800 H 358.754 5.34474 -0.155445 0
M  V30 3801 H 359.097 4.04962 0.96497 0
M  V30 3802 H 359.63 3.9108 -0.728124 0
M  V30 3803 H 356.369 5.79881 -3.05643 0
M  V30 3804 H 355.889 5.84537 -1.34448 0
M  V30 3805 H 357.568 6.21069 -1.81335 0
M  V30 3806 N 357.7 0.491464 1.49741 0
M  V30 3807 C 358.647 -0.292027 2.28945 0
M  V30 3808 C 359.617 -0.968973 1.34908 0
M  V30 3809 O 360.802 -0.97748 1.6386 0
M  V30 3810 C 357.942 -1.35617 3.17336 0
M  V30 3811 C 357.055 -0.691957 4.26422 0
M  V30 3812 C 356.19 -1.73572 5.02042 0
M  V30 3813 C 355.229 -1.05286 6.02977 0
M  V30 3814 N 354.366 -2.0404 6.71798 0
M  V30 3815 H 359.206 0.389654 2.95442 0
M  V30 3816 H 356.743 0.204003 1.45679 0
M  V30 3817 H 358.701 -1.98502 3.66951 0
M  V30 3818 H 357.331 -2.00674 2.52844 0
M  V30 3819 H 356.383 0.0499523 3.80367 0
M  V30 3820 H 357.695 -0.153946 4.98562 0
M  V30 3821 H 356.849 -2.43987 5.55478 0
M  V30 3822 H 355.588 -2.30757 4.29654 0
M  V30 3823 H 354.593 -0.334446 5.48782 0
M  V30 3824 H 355.818 -0.487636 6.77347 0
M  V30 3825 H 353.764 -2.60205 6.02187 0
M  V30 3826 H 353.681 -1.55279 7.39881 0
M  V30 3827 H 354.949 -2.73772 7.29842 0
M  V30 3828 N 359.178 -1.55987 0.224894 0
M  V30 3829 C 360.108 -2.23426 -0.678457 0
M  V30 3830 C 361.089 -1.20709 -1.19847 0
M  V30 3831 O 362.274 -1.49304 -1.24186 0
M  V30 3832 C 359.404 -2.91676 -1.88527 0
M  V30 3833 C 358.358 -4.00893 -1.49896 0
M  V30 3834 C 357.684 -4.56455 -2.78483 0
M  V30 3835 C 358.984 -5.17769 -0.686461 0
M  V30 3836 H 360.678 -2.99175 -0.116173 0
M  V30 3837 H 358.224 -1.43897 -0.054436 0
M  V30 3838 H 360.177 -3.37547 -2.5227 0
M  V30 3839 H 358.901 -2.1338 -2.47258 0
M  V30 3840 H 357.56 -3.55758 -0.884985 0
M  V30 3841 H 357.208 -3.74886 -3.35365 0
M  V30 3842 H 356.908 -5.30169 -2.53368 0
M  V30 3843 H 358.432 -5.05047 -3.43162 0
M  V30 3844 H 359.846 -5.60001 -1.22767 0
M  V30 3845 H 358.243 -5.97735 -0.532259 0
M  V30 3846 H 359.313 -4.83932 0.306196 0
M  V30 3847 N 360.656 0.0484629 -1.57525 0
M  V30 3848 C 361.603 1.05504 -2.05275 0
M  V30 3849 C 362.573 1.37084 -0.937927 0
M  V30 3850 O 363.758 1.47754 -1.2072 0
M  V30 3851 C 360.898 2.35676 -2.52093 0
M  V30 3852 C 360.011 2.10423 -3.77288 0
M  V30 3853 C 359.146 3.34327 -4.12794 0
M  V30 3854 C 358.185 3.04542 -5.30962 0
M  V30 3855 N 357.322 4.20841 -5.61994 0
M  V30 3856 H 362.162 0.640885 -2.91027 0
M  V30 3857 H 359.699 0.304854 -1.43906 0
M  V30 3858 H 361.657 3.11709 -2.77297 0
M  V30 3859 H 360.287 2.7485 -1.69285 0
M  V30 3860 H 359.339 1.24976 -3.59284 0
M  V30 3861 H 360.651 1.84438 -4.63448 0
M  V30 3862 H 359.805 4.1874 -4.39024 0
M  V30 3863 H 358.544 3.63408 -3.25247 0
M  V30 3864 H 357.549 2.18528 -5.04505 0
M  V30 3865 H 358.774 2.76758 -6.20146 0
M  V30 3866 H 356.72 4.4991 -4.77406 0
M  V30 3867 H 356.637 3.98212 -6.42622 0
M  V30 3868 H 357.905 5.06184 -5.92789 0
M  V30 3869 N 362.134 1.5431 0.320358 0
M  V30 3870 C 363.382 1.72327 1.05583 0
M  V30 3871 C 363.703 0.50149 1.88441 0
M  V30 3872 O 362.973 -0.48448 1.89815 0
M  V30 3873 H 361.553 0.635387 0.3928 0
M  V30 3874 H 364.215 1.91621 0.356019 0
M  V30 3875 H 363.311 2.60426 1.72003 0
M  V30 3876 N 363.613 -0.582584 1.46437 0
M  V30 3877 C 364.843 -1.36484 1.55099 0
M  V30 3878 C 365.251 -1.88233 0.191056 0
M  V30 3879 O 364.594 -1.6429 -0.821858 0
M  V30 3880 C 364.656 -2.588 2.49525 0
M  V30 3881 C 364.32 -2.28517 3.95764 0
M  V30 3882 C 365.317 -1.87346 4.84972 0
M  V30 3883 C 363.002 -2.40658 4.40896 0
M  V30 3884 C 364.996 -1.5871 6.17325 0
M  V30 3885 C 362.683 -2.11635 5.73284 0
M  V30 3886 C 363.681 -1.70725 6.61318 0
M  V30 3887 O 363.369 -1.42057 7.91249 0
M  V30 3888 H 363.101 -0.423297 0.527063 0
M  V30 3889 H 365.655 -0.715188 1.92547 0
M  V30 3890 H 363.885 -3.26571 2.07095 0
M  V30 3891 H 365.574 -3.20868 2.48593 0
M  V30 3892 H 366.34 -1.77481 4.5136 0
M  V30 3893 H 362.219 -2.71463 3.72598 0
M  V30 3894 H 365.763 -1.26704 6.85997 0
M  V30 3895 H 361.66 -2.21124 6.06444 0
M  V30 3896 H 362.428 -1.55901 8.03515 0
M  V30 3897 N 365.091 -1.34144 -0.827227 0
M  V30 3898 C 366.319 -1.29325 -1.61501 0
M  V30 3899 C 366.734 0.13354 -1.88327 0
M  V30 3900 O 366.091 1.0793 -1.47164 0
M  V30 3901 C 366.142 -2.07746 -2.95844 0
M  V30 3902 O 365.863 -3.4486 -2.70191 0
M  V30 3903 C 367.364 -2.10273 -3.90256 0
M  V30 3904 H 364.584 -0.445069 -0.50215 0
M  V30 3905 H 367.128 -1.76693 -1.02955 0
M  V30 3906 H 365.283 -1.6403 -3.5096 0
M  V30 3907 H 365.697 -3.85345 -3.55822 0
M  V30 3908 H 367.171 -2.69575 -4.81698 0
M  V30 3909 H 367.648 -1.096 -4.25305 0
M  V30 3910 H 368.254 -2.54059 -3.41078 0
M  V30 3911 N 366.569 1.04691 -1.17803 0
M  V30 3912 C 367.794 1.81984 -0.994813 0
M  V30 3913 C 368.219 1.82586 0.452112 0
M  V30 3914 O 367.577 1.23854 1.324 0
M  V30 3915 C 367.625 3.2575 -1.54659 0
M  V30 3916 O 366.729 4.05267 -0.763728 0
M  V30 3917 H 366.07 0.562483 -0.352857 0
M  V30 3918 H 368.6 1.3189 -1.56417 0
M  V30 3919 H 368.61 3.76541 -1.57102 0
M  V30 3920 H 367.285 3.24627 -2.59981 0
M  V30 3921 H 365.862 3.63972 -0.811108 0
M  V30 3922 N 368.047 0.979072 1.23499 0
M  V30 3923 C 369.293 0.6578 1.9247 0
M  V30 3924 C 369.648 -0.799746 1.74991 0
M  V30 3925 O 368.941 -1.56922 1.09937 0
M  V30 3926 C 369.135 0.981932 3.43646 0
M  V30 3927 C 368.964 2.46944 3.75831 0
M  V30 3928 C 367.734 3.13119 3.96591 0
M  V30 3929 C 369.932 3.45006 3.81412 0
M  V30 3930 N 367.914 4.51489 4.15969 0
M  V30 3931 C 369.285 4.68778 4.05768 0
M  V30 3932 C 371.34 3.39505 3.64198 0
M  V30 3933 C 370.043 5.87723 4.14697 0
M  V30 3934 C 372.069 4.57814 3.7438 0
M  V30 3935 C 371.431 5.80381 3.99171 0
M  V30 3936 H 367.53 0.291746 0.72554 0
M  V30 3937 H 370.114 1.25626 1.48749 0
M  V30 3938 H 368.285 0.412179 3.86207 0
M  V30 3939 H 370.017 0.618068 3.99953 0
M  V30 3940 H 366.772 2.63619 3.93449 0
M  V30 3941 H 367.196 5.23221 4.29615 0
M  V30 3942 H 371.838 2.45773 3.44029 0
M  V30 3943 H 369.556 6.81874 4.33675 0
M  V30 3944 H 373.142 4.55132 3.62417 0
M  V30 3945 H 372.022 6.70398 4.06861 0
M  V30 3946 N 369.525 -1.3858 0.750561 0
M  V30 3947 C 370.488 -2.28836 0.129152 0
M  V30 3948 C 371.488 -1.47045 -0.650714 0
M  V30 3949 O 372.678 -1.6753 -0.477428 0
M  V30 3950 C 369.81 -3.30751 -0.825622 0
M  V30 3951 H 371.003 -2.85294 0.924516 0
M  V30 3952 H 368.556 -1.47489 0.517376 0
M  V30 3953 H 369.291 -2.79378 -1.64677 0
M  V30 3954 H 369.076 -3.91177 -0.268852 0
M  V30 3955 H 370.566 -3.98249 -1.2565 0
M  V30 3956 N 371.003 -0.499398 -1.49478 0
M  V30 3957 C 372.252 0.0475259 -2.01644 0
M  V30 3958 C 372.565 1.38195 -1.38425 0
M  V30 3959 O 373.771 2.01547 -1.8191 0
M  V30 3960 C 372.227 0.135164 -3.59646 0
M  V30 3961 C 371.835 -1.19252 -4.31837 0
M  V30 3962 C 373.579 0.632538 -4.19761 0
M  V30 3963 C 371.486 -1.06713 -5.81693 0
M  V30 3964 H 370.416 0.0215349 -0.753692 0
M  V30 3965 H 373.067 -0.638577 -1.7203 0
M  V30 3966 H 371.449 0.885681 -3.85969 0
M  V30 3967 H 372.623 -1.9562 -4.17216 0
M  V30 3968 H 370.938 -1.62321 -3.83459 0
M  V30 3969 H 373.535 0.743833 -5.29501 0
M  V30 3970 H 373.878 1.63098 -3.83021 0
M  V30 3971 H 374.411 -0.0613987 -3.97753 0
M  V30 3972 H 371.15 -2.03979 -6.22955 0
M  V30 3973 H 370.67 -0.344307 -5.98811 0
M  V30 3974 H 372.349 -0.745208 -6.42694 0
M  V30 3975 N 372.481 1.55866 -0.233164 0
M  V30 3976 C 373.729 1.9821 0.394593 0
M  V30 3977 C 374.05 1.12234 1.59463 0
M  V30 3978 O 373.32 0.201981 1.94856 0
M  V30 3979 H 371.9 0.732034 0.148778 0
M  V30 3980 H 374.562 1.92107 -0.32876 0
M  V30 3981 H 373.658 3.03845 0.713063 0
M  V30 3982 N 373.959 -0.0401083 1.57549 0
M  V30 3983 C 374.889 -1.04384 2.08869 0
M  V30 3984 C 375.87 -1.38407 0.988817 0
M  V30 3985 O 377.055 -1.47483 1.26342 0
M  V30 3986 C 374.185 -2.34808 2.55895 0
M  V30 3987 C 373.139 -2.15057 3.70047 0
M  V30 3988 C 372.465 -3.51145 4.03239 0
M  V30 3989 C 373.765 -1.54576 4.98902 0
M  V30 3990 H 375.459 -0.616666 2.92981 0
M  V30 3991 H 373.005 -0.295184 1.40942 0
M  V30 3992 H 374.958 -3.05346 2.90417 0
M  V30 3993 H 373.682 -2.79565 1.68853 0
M  V30 3994 H 372.341 -1.46954 3.35857 0
M  V30 3995 H 371.989 -3.93529 3.13279 0
M  V30 3996 H 371.689 -3.38758 4.80122 0
M  V30 3997 H 373.213 -4.23062 4.40285 0
M  V30 3998 H 374.627 -2.15017 5.31451 0
M  V30 3999 H 373.024 -1.52796 5.80322 0
M  V30 4000 H 374.094 -0.51039 4.82206 0
M  V30 4001 N 375.437 -1.54477 -0.31217 0
M  V30 4002 C 376.662 -1.77526 -1.07235 0
M  V30 4003 C 377.087 -0.527775 -1.80544 0
M  V30 4004 O 376.445 0.52121 -1.73646 0
M  V30 4005 C 376.493 -2.97535 -2.03728 0
M  V30 4006 O 375.597 -2.69878 -3.11833 0
M  V30 4007 H 374.938 -0.58792 -0.30862 0
M  V30 4008 H 377.468 -2.01532 -0.352993 0
M  V30 4009 H 377.478 -3.25198 -2.46395 0
M  V30 4010 H 376.153 -3.87996 -1.49774 0
M  V30 4011 H 374.73 -2.53199 -2.7376 0
M  V30 4012 N 376.915 0.57481 -1.46744 0
M  V30 4013 C 378.161 1.3347 -1.52688 0
M  V30 4014 C 378.494 1.93353 -0.181229 0
M  V30 4015 O 377.769 1.76912 0.808237 0
M  V30 4016 C 378.052 2.45811 -2.63152 0
M  V30 4017 C 377.905 1.90912 -4.07275 0
M  V30 4018 C 379.224 3.47822 -2.69644 0
M  V30 4019 H 376.343 0.483935 -0.555856 0
M  V30 4020 H 378.985 0.644968 -1.78718 0
M  V30 4021 H 377.135 3.04646 -2.41088 0
M  V30 4022 H 378.807 1.36473 -4.4065 0
M  V30 4023 H 377.05 1.21691 -4.16382 0
M  V30 4024 H 377.721 2.72042 -4.80309 0
M  V30 4025 H 380.197 2.9888 -2.895 0
M  V30 4026 H 379.073 4.23876 -3.48742 0
M  V30 4027 H 379.334 4.05555 -1.76005 0
M  V30 4028 N 378.394 1.34581 0.820102 0
M  V30 4029 C 379.357 1.2628 1.91275 0
M  V30 4030 C 380.357 0.177344 1.59819 0
M  V30 4031 O 381.547 0.430156 1.68806 0
M  V30 4032 C 378.679 0.950327 3.27386 0
M  V30 4033 H 379.872 2.23421 2.00057 0
M  V30 4034 H 377.425 1.1891 1.0144 0
M  V30 4035 H 378.16 -0.0177938 3.24295 0
M  V30 4036 H 377.945 1.73549 3.51601 0
M  V30 4037 H 379.435 0.917492 4.07396 0
M  V30 4038 N 379.872 -1.04064 1.18357 0
M  V30 4039 C 381.149 -1.74252 0.888581 0
M  V30 4040 C 381.529 -2.02138 -0.60856 0
M  V30 4041 O 380.877 -1.66656 -1.56327 0
M  V30 4042 C 381.087 -3.0277 1.73584 0
M  V30 4043 C 382.435 -3.76506 1.96286 0
M  V30 4044 O 383.459 -3.12668 1.70637 0
M  V30 4045 O 382.318 -4.91243 2.39464 0
M  V30 4046 H 379.412 -0.758271 0.330082 0
M  V30 4047 H 381.958 -1.1013 1.2911 0
M  V30 4048 H 380.73 -2.78299 2.75073 0
M  V30 4049 H 380.353 -3.74631 1.33183 0
M  V30 4050 N 381.35 -0.985608 -1.22978 0
M  V30 4051 C 382.28 -0.549649 -2.26939 0
M  V30 4052 C 383.261 0.419803 -1.64838 0
M  V30 4053 O 384.446 0.31203 -1.91677 0
M  V30 4054 C 381.576 0.143652 -3.47003 0
M  V30 4055 C 380.53 -0.743606 -4.21491 0
M  V30 4056 C 379.856 0.0822027 -5.34637 0
M  V30 4057 C 381.156 -2.03694 -4.80943 0
M  V30 4058 H 382.85 -1.41862 -2.63658 0
M  V30 4059 H 380.396 -0.683571 -1.26741 0
M  V30 4060 H 382.349 0.459985 -4.18882 0
M  V30 4061 H 381.073 1.04711 -3.09359 0
M  V30 4062 H 379.732 -1.04347 -3.51436 0
M  V30 4063 H 379.38 0.986359 -4.93234 0
M  V30 4064 H 379.08 -0.508377 -5.85397 0
M  V30 4065 H 380.604 0.392797 -6.09335 0
M  V30 4066 H 382.018 -1.78504 -5.44802 0
M  V30 4067 H 380.415 -2.57573 -5.42011 0
M  V30 4068 H 381.485 -2.72042 -4.01399 0
M  V30 4069 N 382.828 1.3818 -0.7579 0
M  V30 4070 C 383.791 2.28764 -0.141286 0
M  V30 4071 C 384.791 1.47388 0.642907 0
M  V30 4072 O 385.981 1.67781 0.468536 0
M  V30 4073 C 383.113 3.31184 0.808069 0
M  V30 4074 H 384.306 2.848 -0.939633 0
M  V30 4075 H 381.859 1.47212 -0.525191 0
M  V30 4076 H 382.594 2.80247 1.63193 0
M  V30 4077 H 382.379 3.91314 0.248104 0
M  V30 4078 H 383.869 3.98909 1.23536 0
M  V30 4079 N 384.306 0.507319 1.49211 0
M  V30 4080 C 385.216 -0.272136 2.33016 0
M  V30 4081 C 386.232 -0.961206 1.45041 0
M  V30 4082 O 387.408 -0.941191 1.78055 0
M  V30 4083 C 384.473 -1.31895 3.20631 0
M  V30 4084 C 383.534 -0.642648 4.24463 0
M  V30 4085 C 382.767 -1.63959 5.07891 0
M  V30 4086 O 382.99 -2.87007 4.92933 0
M  V30 4087 O 381.924 -1.19143 5.8999 0
M  V30 4088 H 385.75 0.413982 3.00865 0
M  V30 4089 H 383.335 0.268556 1.46966 0
M  V30 4090 H 385.217 -1.92446 3.7489 0
M  V30 4091 H 383.892 -1.98788 2.5547 0
M  V30 4092 H 382.799 0.00276252 3.741 0
M  V30 4093 H 384.132 -0.0160534 4.92197 0
M  V30 4094 N 385.784 -1.5574 0.241426 0
M  V30 4095 C 387.009 -2.0366 -0.392111 0
M  V30 4096 C 387.434 -1.11969 -1.51144 0
M  V30 4097 O 386.792 -0.111594 -1.80956 0
M  V30 4098 C 386.84 -3.49638 -0.882371 0
M  V30 4099 O 385.944 -3.6108 -1.99235 0
M  V30 4100 H 385.285 -0.658379 -0.0862122 0
M  V30 4101 H 387.815 -2.01302 0.365881 0
M  V30 4102 H 387.825 -3.90351 -1.18702 0
M  V30 4103 H 386.5 -4.15852 -0.0632361 0
M  V30 4104 H 385.077 -3.32262 -1.69282 0
M  V30 4105 N 387.262 0.0317525 -1.57568 0
M  V30 4106 C 388.511 0.722131 -1.8833 0
M  V30 4107 C 388.824 1.76664 -0.839587 0
M  V30 4108 O 390.03 2.50942 -1.03635 0
M  V30 4109 C 388.486 1.33544 -3.34207 0
M  V30 4110 C 388.094 0.327415 -4.46802 0
M  V30 4111 C 389.838 2.00585 -3.7412 0
M  V30 4112 C 387.745 0.948915 -5.83738 0
M  V30 4113 H 386.675 0.273466 -0.702661 0
M  V30 4114 H 389.326 -0.0235811 -1.83485 0
M  V30 4115 H 387.708 2.13077 -3.33788 0
M  V30 4116 H 388.882 -0.441006 -4.58685 0
M  V30 4117 H 387.197 -0.240758 -4.15703 0
M  V30 4118 H 389.794 2.47932 -4.73744 0
M  V30 4119 H 390.137 2.82285 -3.05975 0
M  V30 4120 H 390.67 1.27831 -3.76702 0
M  V30 4121 H 387.409 0.171387 -6.55276 0
M  V30 4122 H 386.929 1.68724 -5.7558 0
M  V30 4123 H 388.608 1.45705 -6.3038 0
M  V30 4124 N 388.74 1.54641 0.303973 0
M  V30 4125 C 389.673 1.80263 1.3993 0
M  V30 4126 C 390.651 0.653657 1.48883 0
M  V30 4127 O 391.835 0.893284 1.6599 0
M  V30 4128 C 388.962 1.9367 2.77866 0
M  V30 4129 C 388.008 3.16078 2.86351 0
M  V30 4130 S 388.841 4.74219 2.4875 0
M  V30 4131 C 389.997 4.90558 3.88721 0
M  V30 4132 H 390.23 2.72886 1.17986 0
M  V30 4133 H 387.763 1.46014 0.501918 0
M  V30 4134 H 389.721 2.0208 3.57315 0
M  V30 4135 H 388.382 1.01991 2.9708 0
M  V30 4136 H 387.575 3.22252 3.87517 0
M  V30 4137 H 387.177 3.06099 2.14893 0
M  V30 4138 H 389.469 4.74398 4.83687 0
M  V30 4139 H 390.412 5.92651 3.87518 0
M  V30 4140 H 390.82 4.18728 3.78585 0
M  V30 4141 N 390.218 -0.567019 1.47046 0
M  V30 4142 C 391.165 -1.67489 1.58796 0
M  V30 4143 C 392.135 -1.60399 0.43144 0
M  V30 4144 O 393.32 -1.79378 0.650233 0
M  V30 4145 C 390.46 -3.05821 1.59899 0
M  V30 4146 C 389.573 -3.2342 2.86397 0
M  V30 4147 C 388.708 -4.52093 2.789 0
M  V30 4148 C 387.747 -4.6309 4.00267 0
M  V30 4149 N 386.884 -5.83106 3.91064 0
M  V30 4150 H 391.724 -1.56785 2.53422 0
M  V30 4151 H 389.261 -0.763896 1.2571 0
M  V30 4152 H 391.219 -3.8591 1.58522 0
M  V30 4153 H 389.849 -3.15384 0.687929 0
M  V30 4154 H 388.901 -2.3683 2.97684 0
M  V30 4155 H 390.213 -3.27412 3.76301 0
M  V30 4156 H 389.367 -5.4043 2.75718 0
M  V30 4157 H 388.106 -4.50565 1.86662 0
M  V30 4158 H 387.111 -3.73168 4.03765 0
M  V30 4159 H 388.336 -4.66386 4.93621 0
M  V30 4160 H 386.282 -5.82546 3.01623 0
M  V30 4161 H 386.199 -5.88434 4.74638 0
M  V30 4162 H 387.467 -6.73831 3.91882 0
M  V30 4163 N 391.696 -1.35014 -0.812953 0
M  V30 4164 C 392.644 -1.27435 -1.94585 0
M  V30 4165 C 393.638 -0.170494 -1.6854 0
M  V30 4166 O 394.844 -0.336085 -1.76835 0
M  V30 4167 H 391.219 -0.396144 -0.639198 0
M  V30 4168 H 393.19 -2.23158 -1.98098 0
M  V30 4169 C 391.939 -1.05677 -3.31252 0
M  V30 4170 H 391.262 -1.89853 -3.51846 0
M  V30 4171 H 392.702 -1.04413 -4.10943 0
M  V30 4172 C 391.161 0.239615 -3.36047 0
M  V30 4173 O 391.691 1.23759 -3.8216 0
M  V30 4174 N 389.897 0.276186 -2.89285 0
M  V30 4175 H 389.444 -0.53653 -2.51951 0
M  V30 4176 H 389.402 1.14332 -2.92875 0
M  V30 4177 N 393.175 1.03435 -1.18907 0
M  V30 4178 C 394.105 2.13503 -0.945448 0
M  V30 4179 C 395.086 1.69682 0.119189 0
M  V30 4180 O 396.271 1.94169 -0.034707 0
M  V30 4181 C 393.401 3.44004 -0.477316 0
M  V30 4182 C 392.355 4.0148 -1.48316 0
M  V30 4183 C 391.681 5.27537 -0.872311 0
M  V30 4184 C 392.981 4.36921 -2.86177 0
M  V30 4185 H 394.675 2.34141 -1.86597 0
M  V30 4186 H 392.221 1.12523 -0.898584 0
M  V30 4187 H 394.174 4.20372 -0.294204 0
M  V30 4188 H 392.898 3.23072 0.478786 0
M  V30 4189 H 391.557 3.27201 -1.65332 0
M  V30 4190 H 391.205 5.02917 0.0911752 0
M  V30 4191 H 390.905 5.66954 -1.54393 0
M  V30 4192 H 392.429 6.06576 -0.699871 0
M  V30 4193 H 393.843 5.04248 -2.72776 0
M  V30 4194 H 392.24 4.87405 -3.50081 0
M  V30 4195 H 393.31 3.46466 -3.39248 0
M  V30 4196 N 394.653 0.992116 1.22453 0
M  V30 4197 C 396.069 0.702713 1.43297 0
M  V30 4198 C 396.269 -0.726909 1.87932 0
M  V30 4199 O 395.325 -1.49792 2.0327 0
M  V30 4200 C 396.638 1.70762 2.47509 0
M  V30 4201 C 398.186 1.72298 2.61309 0
M  V30 4202 C 398.661 2.71649 3.68742 0
M  V30 4203 N 400.152 2.70239 3.76199 0
M  V30 4204 C 400.887 3.43778 4.58917 0
M  V30 4205 N 400.383 4.26914 5.45633 0
M  V30 4206 N 402.176 3.32487 4.5322 0
M  V30 4207 H 394.327 1.91543 0.917871 0
M  V30 4208 H 396.59 0.826031 0.465162 0
M  V30 4209 H 396.296 2.73059 2.21657 0
M  V30 4210 H 396.17 1.49985 3.46099 0
M  V30 4211 H 398.557 0.706989 2.86506 0
M  V30 4212 H 398.638 1.97143 1.62997 0
M  V30 4213 H 398.282 3.73397 3.44292 0
M  V30 4214 H 398.212 2.44074 4.66622 0
M  V30 4215 H 400.703 2.09912 3.14237 0
M  V30 4216 H 401.016 4.79855 6.05771 0
M  V30 4217 H 399.361 4.31002 5.45218 0
M  V30 4218 H 402.552 2.6698 3.84499 0
M  V30 4219 H 402.725 3.90058 5.17454 0
M  V30 4220 N 396.131 -1.37776 0.765217 0
M  V30 4221 C 397.547 -1.53297 0.444108 0
M  V30 4222 C 397.747 -1.72515 -1.04119 0
M  V30 4223 O 396.803 -1.74278 -1.82711 0
M  V30 4224 C 398.116 -2.73328 1.25349 0
M  V30 4225 C 399.664 -2.87185 1.24473 0
M  V30 4226 C 400.139 -4.10191 2.03733 0
M  V30 4227 N 401.63 -4.17291 2.01053 0
M  V30 4228 C 402.365 -5.11488 2.59166 0
M  V30 4229 N 401.861 -6.11285 3.26041 0
M  V30 4230 N 403.654 -5.03924 2.49032 0
M  V30 4231 H 395.805 -1.23552 1.72768 0
M  V30 4232 H 398.068 -0.601103 0.733062 0
M  V30 4233 H 397.774 -2.6557 2.30577 0
M  V30 4234 H 397.648 -3.66834 0.87823 0
M  V30 4235 H 400.035 -2.94418 0.20047 0
M  V30 4236 H 400.116 -1.94657 1.65959 0
M  V30 4237 H 399.76 -4.0372 3.08176 0
M  V30 4238 H 399.69 -5.01821 1.59633 0
M  V30 4239 H 402.181 -3.45825 1.5236 0
M  V30 4240 H 402.494 -6.79678 3.67774 0
M  V30 4241 H 400.839 -6.11583 3.30138 0
M  V30 4242 H 404.03 -4.24902 1.96407 0
M  V30 4243 H 404.203 -5.77152 2.94617 0
M  V30 4244 N 397.609 -0.515225 -1.4894 0
M  V30 4245 C 398.855 0.0242508 -2.02785 0
M  V30 4246 C 399.188 1.35323 -1.39289 0
M  V30 4247 O 398.463 1.87041 -0.533469 0
M  V30 4248 C 398.746 0.16184 -3.59736 0
M  V30 4249 C 398.599 -1.19127 -4.33738 0
M  V30 4250 C 399.918 0.895719 -4.30888 0
M  V30 4251 H 397.037 0.00733914 -0.736963 0
M  V30 4252 H 399.679 -0.669395 -1.77818 0
M  V30 4253 H 397.829 0.752624 -3.8114 0
M  V30 4254 H 399.501 -1.82202 -4.23792 0
M  V30 4255 H 397.744 -1.77695 -3.95736 0
M  V30 4256 H 398.415 -1.04815 -5.41957 0
M  V30 4257 H 400.891 0.394528 -4.14225 0
M  V30 4258 H 399.767 0.960859 -5.40425 0
M  V30 4259 H 400.028 1.9427 -3.97129 0
M  V30 4260 N 399.087 1.5561 -0.249682 0
M  V30 4261 C 400.037 2.18157 0.662673 0
M  V30 4262 C 401.021 1.1383 1.13717 0
M  V30 4263 O 402.213 1.39731 1.08648 0
M  V30 4264 C 399.342 2.88672 1.85805 0
M  V30 4265 C 398.428 4.00258 1.40193 0
M  V30 4266 N 398.819 5.01473 0.660213 0
M  V30 4267 C 397.117 4.12864 1.68698 0
M  V30 4268 C 397.818 5.80155 0.423695 0
M  V30 4269 N 396.794 5.34533 0.988721 0
M  V30 4270 H 400.596 2.93769 0.0878688 0
M  V30 4271 H 398.11 1.62316 -0.0521183 0
M  V30 4272 H 400.107 3.31912 2.5227 0
M  V30 4273 H 398.767 2.14564 2.43705 0
M  V30 4274 H 399.778 5.16971 0.310047 0
M  V30 4275 H 396.455 3.4993 2.27717 0
M  V30 4276 H 397.845 6.71688 -0.168616 0
M  V30 4277 N 400.565 -0.0233959 1.57583 0
M  V30 4278 C 401.976 -0.56927 1.77809 0
M  V30 4279 C 402.327 -1.75284 0.881472 0
M  V30 4280 O 401.452 -2.1626 0.0777805 0
M  V30 4281 C 402.047 -1.03949 3.22459 0
M  V30 4282 C 400.606 -1.53084 3.43864 0
M  V30 4283 C 399.753 -0.471454 2.73263 0
M  V30 4284 H 402.704 0.202825 1.57399 0
M  V30 4285 H 402.725 -1.90661 3.29285 0
M  V30 4286 H 402.237 -0.177865 3.87692 0
M  V30 4287 H 400.338 -2.41414 2.83814 0
M  V30 4288 H 400.451 -1.57443 4.52491 0
M  V30 4289 H 398.815 -0.927788 2.37201 0
M  V30 4290 H 399.598 0.380808 3.41181 0
M  V30 4291 N 402.043 -1.548 -0.295768 0
M  V30 4292 C 403.289 -1.74588 -1.03184 0
M  V30 4293 C 403.622 -0.532962 -1.86744 0
M  V30 4294 O 402.897 0.469872 -1.88739 0
M  V30 4295 C 403.18 -3.03791 -1.93347 0
M  V30 4296 C 403.033 -4.35392 -1.12933 0
M  V30 4297 C 404.352 -3.28892 -2.92435 0
M  V30 4298 H 401.471 -0.635221 -0.373715 0
M  V30 4299 H 404.113 -1.87519 -0.30606 0
M  V30 4300 H 402.263 -2.92898 -2.55232 0
M  V30 4301 H 403.935 -4.58211 -0.532943 0
M  V30 4302 H 402.178 -4.31642 -0.432168 0
M  V30 4303 H 402.849 -5.22074 -1.79284 0
M  V30 4304 H 405.325 -3.39429 -2.4068 0
M  V30 4305 H 404.201 -4.20603 -3.52682 0
M  V30 4306 H 404.462 -2.47437 -3.6637 0
M  V30 4307 N 403.521 0.559213 -1.47345 0
M  V30 4308 C 404.746 1.34676 -1.57725 0
M  V30 4309 C 405.171 1.86723 -0.227164 0
M  V30 4310 O 404.529 1.6286 0.796642 0
M  V30 4311 C 404.577 2.49399 -2.60447 0
M  V30 4312 O 403.681 3.51567 -2.15578 0
M  V30 4313 H 403.022 0.400115 -0.52991 0
M  V30 4314 H 405.552 0.676009 -1.93109 0
M  V30 4315 H 405.562 2.95996 -2.80803 0
M  V30 4316 H 404.237 2.10873 -3.58477 0
M  V30 4317 H 402.814 3.11289 -2.05313 0
M  V30 4318 N 404.999 1.35443 0.805782 0
M  V30 4319 C 406.227 1.31878 1.59423 0
M  V30 4320 C 406.642 -0.103562 1.88516 0
M  V30 4321 O 405.999 -1.05575 1.48863 0
M  V30 4322 C 406.05 2.12426 2.92502 0
M  V30 4323 O 405.771 3.49115 2.6467 0
M  V30 4324 C 407.272 2.16455 3.86862 0
M  V30 4325 H 404.492 0.453002 0.495005 0
M  V30 4326 H 407.036 1.78309 1.00131 0
M  V30 4327 H 405.191 1.69593 3.48306 0
M  V30 4328 H 405.605 3.90957 3.49647 0
M  V30 4329 H 407.079 2.77204 4.77349 0
M  V30 4330 H 407.556 1.16352 4.23508 0
M  V30 4331 H 408.162 2.59453 3.36993 0
M  V30 4332 N 406.477 -1.02803 1.19454 0
M  V30 4333 C 407.41 -2.107 0.876396 0
M  V30 4334 C 408.388 -1.61741 -0.166897 0
M  V30 4335 O 409.572 -1.88451 -0.0430195 0
M  V30 4336 C 406.699 -3.37262 0.311758 0
M  V30 4337 C 405.745 -4.05093 1.33424 0
M  V30 4338 S 406.578 -4.50498 2.89503 0
M  V30 4339 C 407.734 -5.80277 2.34584 0
M  V30 4340 H 407.967 -2.37362 1.79016 0
M  V30 4341 H 405.5 -1.15755 1.02177 0
M  V30 4342 H 407.458 -4.10499 -0.00748752 0
M  V30 4343 H 406.119 -3.08693 -0.58032 0
M  V30 4344 H 405.312 -4.9611 0.888302 0
M  V30 4345 H 404.914 -3.3803 1.60037 0
M  V30 4346 H 407.206 -6.54873 1.73633 0
M  V30 4347 H 408.149 -6.29651 3.23952 0
M  V30 4348 H 408.557 -5.3599 1.77131 0
M  V30 4349 N 407.956 -0.998596 -1.21925 0
M  V30 4350 C 409.205 -0.673085 -1.90138 0
M  V30 4351 C 409.518 0.79895 -1.78539 0
M  V30 4352 O 410.724 1.23628 -2.4172 0
M  V30 4353 C 409.18 -1.15339 -3.40918 0
M  V30 4354 C 408.788 -2.65106 -3.61141 0
M  V30 4355 C 410.532 -0.902476 -4.14796 0
M  V30 4356 C 408.439 -3.0671 -5.05651 0
M  V30 4357 H 407.369 -0.248057 -0.712028 0
M  V30 4358 H 410.02 -1.20891 -1.38049 0
M  V30 4359 H 408.402 -0.545658 -3.92223 0
M  V30 4360 H 409.576 -3.31274 -3.20304 0
M  V30 4361 H 407.891 -2.88142 -3.00605 0
M  V30 4362 H 410.488 -1.18895 -5.21314 0
M  V30 4363 H 410.831 0.161349 -4.15987 0
M  V30 4364 H 411.364 -1.47269 -3.69536 0
M  V30 4365 H 408.103 -4.12292 -5.09603 0
M  V30 4366 H 407.623 -2.45249 -5.47369 0
M  V30 4367 H 409.302 -2.9833 -5.74115 0
M  V30 4368 N 409.434 1.37368 -0.772513 0
M  V30 4369 C 410.381 2.30262 -0.157488 0
M  V30 4370 C 411.351 1.51137 0.688965 0
M  V30 4371 O 412.536 1.79704 0.641168 0
M  V30 4372 C 409.676 3.37611 0.715045 0
M  V30 4373 C 408.789 4.31746 -0.148098 0
M  V30 4374 C 407.924 5.26171 0.729213 0
M  V30 4375 C 406.963 6.11948 -0.136418 0
M  V30 4376 N 406.1 6.98613 0.698914 0
M  V30 4377 H 410.94 2.82277 -0.955179 0
M  V30 4378 H 408.477 1.38957 -0.482631 0
M  V30 4379 H 410.435 3.98479 1.23575 0
M  V30 4380 H 409.065 2.86959 1.47833 0
M  V30 4381 H 408.117 3.72178 -0.786613 0
M  V30 4382 H 409.429 4.92084 -0.81579 0
M  V30 4383 H 408.583 5.92247 1.31637 0
M  V30 4384 H 407.322 4.66246 1.43059 0
M  V30 4385 H 406.327 5.4485 -0.736102 0
M  V30 4386 H 407.552 6.73945 -0.835134 0
M  V30 4387 H 405.498 6.41215 1.38489 0
M  V30 4388 H 405.415 7.55948 0.0885358 0
M  V30 4389 H 406.683 7.69077 1.27044 0
M  V30 4390 N 410.912 0.523116 1.48665 0
M  V30 4391 C 412.16 -0.0134497 2.02096 0
M  V30 4392 C 412.481 -1.35418 1.40311 0
M  V30 4393 O 411.751 -1.87543 0.566074 0
M  V30 4394 H 410.331 -0.00795915 0.746958 0
M  V30 4395 H 412.993 0.685388 1.82451 0
M  V30 4396 H 412.089 -0.126849 3.11842 0
M  V30 4397 N 412.39 -1.55475 0.257931 0
M  V30 4398 C 413.32 -2.24815 -0.630912 0
M  V30 4399 C 414.301 -1.23224 -1.17259 0
M  V30 4400 O 415.486 -1.51904 -1.20991 0
M  V30 4401 C 412.616 -2.95609 -1.82298 0
M  V30 4402 C 411.57 -4.03982 -1.41359 0
M  V30 4403 C 410.896 -4.6226 -2.68738 0
M  V30 4404 C 412.196 -5.19109 -0.57648 0
M  V30 4405 H 413.89 -2.99354 -0.0526878 0
M  V30 4406 H 411.436 -1.4398 -0.023901 0
M  V30 4407 H 413.389 -3.42822 -2.45054 0
M  V30 4408 H 412.113 -2.18577 -2.42676 0
M  V30 4409 H 410.772 -3.57555 -0.809324 0
M  V30 4410 H 410.42 -3.81915 -3.27338 0
M  V30 4411 H 410.12 -5.35424 -2.42065 0
M  V30 4412 H 411.644 -5.12212 -3.32372 0
M  V30 4413 H 413.058 -5.62479 -1.10861 0
M  V30 4414 H 411.455 -5.98729 -0.405351 0
M  V30 4415 H 412.525 -4.83174 0.408776 0
M  V30 4416 N 413.868 0.0150385 -1.57593 0
M  V30 4417 C 415.098 0.713359 -1.93894 0
M  V30 4418 C 415.506 1.68663 -0.857289 0
M  V30 4419 O 414.849 1.82876 0.173788 0
M  V30 4420 C 414.911 1.51348 -3.26089 0
M  V30 4421 C 414.575 0.703451 -4.51554 0
M  V30 4422 C 415.572 -0.00237924 -5.199 0
M  V30 4423 C 413.257 0.653854 -4.98026 0
M  V30 4424 C 415.251 -0.746955 -6.33008 0
M  V30 4425 C 412.938 -0.0944578 -6.11027 0
M  V30 4426 C 413.936 -0.793609 -6.78374 0
M  V30 4427 O 413.624 -1.52974 -7.89211 0
M  V30 4428 H 413.356 0.204637 -0.644282 0
M  V30 4429 H 415.91 -0.0276411 -2.05381 0
M  V30 4430 H 414.14 2.29862 -3.10967 0
M  V30 4431 H 415.829 2.09572 -3.47612 0
M  V30 4432 H 416.595 0.0268803 -4.84993 0
M  V30 4433 H 412.474 1.18756 -4.45441 0
M  V30 4434 H 416.018 -1.2932 -6.85509 0
M  V30 4435 H 411.915 -0.125591 -6.45378 0
M  V30 4436 H 412.683 -1.44488 -8.05646 0
M  V30 4437 N 415.346 1.54954 0.287554 0
M  V30 4438 C 416.594 1.74528 1.01904 0
M  V30 4439 C 416.915 0.541349 1.87335 0
M  V30 4440 O 416.185 -0.444108 1.908 0
M  V30 4441 H 414.765 0.643576 0.379235 0
M  V30 4442 H 417.427 1.92333 0.315294 0
M  V30 4443 H 416.523 2.64015 1.6644 0
M  V30 4444 N 416.824 -0.551391 1.4764 0
M  V30 4445 C 418.073 -1.30467 1.53822 0
M  V30 4446 C 418.386 -1.94495 0.207661 0
M  V30 4447 O 419.592 -2.71099 0.147533 0
M  V30 4448 C 418.048 -2.36616 2.71184 0
M  V30 4449 C 417.656 -1.78754 4.10793 0
M  V30 4450 C 419.4 -3.13088 2.86663 0
M  V30 4451 C 417.307 -2.82717 5.19447 0
M  V30 4452 H 416.237 -0.490584 0.572576 0
M  V30 4453 H 418.888 -0.58494 1.73927 0
M  V30 4454 H 417.27 -3.11529 2.4447 0
M  V30 4455 H 418.444 -1.10173 4.47435 0
M  V30 4456 H 416.759 -1.14846 4.00249 0
M  V30 4457 H 419.356 -3.90736 3.65007 0
M  V30 4458 H 419.699 -3.67635 1.95321 0
M  V30 4459 H 420.232 -2.45288 3.13175 0
M  V30 4460 H 416.971 -2.33018 6.12685 0
M  V30 4461 H 416.491 -3.4969 4.87316 0
M  V30 4462 H 418.17 -3.46102 5.46646 0
M  V30 4463 N 418.302 -1.35869 -0.798587 0
M  V30 4464 C 419.249 -1.29446 -1.91082 0
M  V30 4465 C 420.219 -0.16487 -1.6528 0
M  V30 4466 O 421.404 -0.349888 -1.87564 0
M  V30 4467 C 418.544 -1.0804 -3.27752 0
M  V30 4468 C 417.657 -2.29993 -3.65687 0
M  V30 4469 C 416.792 -2.01673 -4.91428 0
M  V30 4470 C 415.831 -3.19636 -5.22015 0
M  V30 4471 N 414.968 -2.91039 -6.38937 0
M  V30 4472 H 419.808 -2.24553 -1.95907 0
M  V30 4473 H 417.345 -1.11615 -0.958148 0
M  V30 4474 H 419.303 -0.936586 -4.06551 0
M  V30 4475 H 417.933 -0.16592 -3.22373 0
M  V30 4476 H 416.985 -2.55211 -2.82085 0
M  V30 4477 H 418.297 -3.18052 -3.84245 0
M  V30 4478 H 417.451 -1.84168 -5.78072 0
M  V30 4479 H 416.19 -1.10911 -4.74921 0
M  V30 4480 H 415.195 -3.37709 -4.33858 0
M  V30 4481 H 416.42 -4.11211 -5.40447 0
M  V30 4482 H 414.366 -2.0288 -6.2384 0
M  V30 4483 H 414.283 -3.72635 -6.57784 0
M  V30 4484 H 415.551 -2.77093 -7.28587 0
M  V30 4485 N 419.78 1.02168 -1.19998 0
M  V30 4486 C 421.057 1.72816 -0.916191 0
M  V30 4487 C 421.437 2.03081 0.576325 0
M  V30 4488 O 420.785 1.69122 1.53656 0
M  V30 4489 C 420.995 2.9997 -1.78378 0
M  V30 4490 C 422.343 3.73336 -2.02251 0
M  V30 4491 O 423.367 3.09914 -1.75589 0
M  V30 4492 O 422.226 4.87371 -2.47249 0
M  V30 4493 H 419.32 0.752924 -0.342103 0
M  V30 4494 H 421.866 1.08062 -1.30846 0
M  V30 4495 H 420.638 2.73888 -2.79466 0
M  V30 4496 H 420.261 3.72464 -1.39126 0
M  V30 4497 N 421.258 1.00505 1.21394 0
M  V30 4498 C 422.535 0.603277 1.86064 0
M  V30 4499 C 422.915 -0.919095 1.90042 0
M  V30 4500 O 422.263 -1.80607 1.39977 0
M  V30 4501 C 422.473 1.23772 3.26315 0
M  V30 4502 C 423.821 1.34586 4.02705 0
M  V30 4503 O 424.845 1.19304 3.35626 0
M  V30 4504 O 423.704 1.59169 5.22807 0
M  V30 4505 H 420.798 0.206634 0.800769 0
M  V30 4506 H 423.344 1.1017 1.29076 0
M  V30 4507 H 422.116 2.27848 3.18121 0
M  V30 4508 H 421.739 0.725648 3.90922 0
M  V30 4509 N 422.737 -1.36956 0.779787 0
M  V30 4510 C 423.983 -1.99787 0.348281 0
M  V30 4511 C 424.316 -1.61756 -1.07465 0
M  V30 4512 O 423.591 -0.867639 -1.74075 0
M  V30 4513 C 423.874 -3.56597 0.50104 0
M  V30 4514 C 423.727 -4.04513 1.96697 0
M  V30 4515 C 425.046 -4.40008 -0.0898097 0
M  V30 4516 H 422.165 -0.725796 0.128022 0
M  V30 4517 H 424.807 -1.62514 0.984331 0
M  V30 4518 H 422.957 -3.88479 -0.0404347 0
M  V30 4519 H 424.629 -3.83161 2.56876 0
M  V30 4520 H 422.872 -3.56408 2.47297 0
M  V30 4521 H 423.543 -5.1352 2.02486 0
M  V30 4522 H 426.019 -4.14431 0.372293 0
M  V30 4523 H 424.895 -5.4888 0.0471605 0
M  V30 4524 H 425.156 -4.26035 -1.18096 0
M  V30 4525 N 424.215 -0.530993 -1.48385 0
M  V30 4526 C 425.462 0.0027373 -2.025 0
M  V30 4527 C 425.79 1.34186 -1.40799 0
M  V30 4528 O 425.045 1.88 -0.543544 0
M  V30 4529 C 425.344 0.172742 -3.56982 0
M  V30 4530 C 425.01 -1.09215 -4.37473 0
M  V30 4531 C 423.672 -1.43881 -4.59186 0
M  V30 4532 C 426.024 -1.93153 -4.84088 0
M  V30 4533 C 423.352 -2.62381 -5.2476 0
M  V30 4534 C 425.704 -3.10833 -5.50968 0
M  V30 4535 C 424.368 -3.45843 -5.70919 0
M  V30 4536 H 423.638 0.00100165 -0.740999 0
M  V30 4537 H 426.285 -0.697219 -1.78357 0
M  V30 4538 H 424.59 0.955473 -3.79971 0
M  V30 4539 H 426.287 0.600642 -3.96476 0
M  V30 4540 H 422.877 -0.812177 -4.20834 0
M  V30 4541 H 427.061 -1.67683 -4.67115 0
M  V30 4542 H 422.317 -2.89707 -5.38405 0
M  V30 4543 H 426.491 -3.7618 -5.86056 0
M  V30 4544 H 424.118 -4.37764 -6.21503 0
M  V30 4545 N 425.693 1.55336 -0.266172 0
M  V30 4546 C 426.623 2.25146 0.618981 0
M  V30 4547 C 427.604 1.23845 1.16604 0
M  V30 4548 O 428.789 1.52544 1.20183 0
M  V30 4549 C 425.919 2.96572 1.80728 0
M  V30 4550 C 424.873 4.04726 1.39215 0
M  V30 4551 C 424.199 4.63678 2.66283 0
M  V30 4552 C 425.499 5.19407 0.548942 0
M  V30 4553 H 427.193 2.99377 0.0368116 0
M  V30 4554 H 424.739 1.43991 0.0162651 0
M  V30 4555 H 426.692 3.44116 2.43232 0
M  V30 4556 H 425.416 2.19861 2.41514 0
M  V30 4557 H 424.075 3.57979 0.790351 0
M  V30 4558 H 423.723 3.83646 3.25308 0
M  V30 4559 H 423.423 5.367 2.39222 0
M  V30 4560 H 424.947 5.13967 3.29651 0
M  V30 4561 H 426.361 5.63059 1.07876 0
M  V30 4562 H 424.758 5.98936 0.373593 0
M  V30 4563 H 425.828 4.8295 -0.434394 0
M  V30 4564 N 427.171 -0.0066808 1.57599 0
M  V30 4565 C 428.396 -0.707738 1.94951 0
M  V30 4566 C 428.821 -1.66882 0.867868 0
M  V30 4567 O 428.179 -1.80457 -0.17458 0
M  V30 4568 C 428.227 -1.42162 3.31394 0
M  V30 4569 O 427.331 -2.53578 3.25226 0
M  V30 4570 H 426.672 -0.188752 0.636607 0
M  V30 4571 H 429.202 0.0445193 2.04552 0
M  V30 4572 H 429.212 -1.78655 3.66806 0
M  V30 4573 H 427.887 -0.716903 4.09675 0
M  V30 4574 H 426.464 -2.19463 3.01481 0
M  V30 4575 N 428.649 -1.55105 -0.279332 0
M  V30 4576 C 429.895 -1.75672 -1.01327 0
M  V30 4577 C 430.228 -0.552739 -1.86168 0
M  V30 4578 O 429.503 0.449827 -1.89227 0
M  V30 4579 C 429.786 -3.05825 -1.90114 0
M  V30 4580 C 429.639 -4.36565 -1.08309 0
M  V30 4581 C 430.958 -3.31975 -2.8893 0
M  V30 4582 H 428.077 -0.639149 -0.366957 0
M  V30 4583 H 430.719 -1.87833 -0.286154 0
M  V30 4584 H 428.869 -2.95588 -2.52111 0
M  V30 4585 H 430.541 -4.58751 -0.484314 0
M  V30 4586 H 428.784 -4.32076 -0.386362 0
M  V30 4587 H 429.455 -5.23946 -1.73737 0
M  V30 4588 H 431.931 -3.41963 -2.37067 0
M  V30 4589 H 430.807 -4.2432 -3.48201 0
M  V30 4590 H 431.068 -2.51309 -3.63725 0
M  V30 4591 N 430.127 0.543554 -1.4793 0
M  V30 4592 C 431.538 1.12561 -1.48953 0
M  V30 4593 C 431.889 1.94578 -0.251754 0
M  V30 4594 O 431.014 2.0665 0.642255 0
M  V30 4595 C 431.609 2.04801 -2.69892 0
M  V30 4596 C 430.168 2.58251 -2.73831 0
M  V30 4597 C 429.315 1.34918 -2.42265 0
M  V30 4598 H 432.266 0.32947 -1.55242 0
M  V30 4599 H 432.287 2.88886 -2.47639 0
M  V30 4600 H 431.799 1.4508 -3.59963 0
M  V30 4601 H 429.9 3.21732 -1.87934 0
M  V30 4602 H 430.013 2.98312 -3.74895 0
M  V30 4603 H 428.377 1.66046 -1.93134 0
M  V30 4604 H 429.16 0.769693 -3.3456 0
M  V30 4605 N 431.605 1.3629 0.791371 0
M  V30 4606 C 432.845 1.31792 1.56238 0
M  V30 4607 C 433.209 -0.102237 1.91728 0
M  V30 4608 O 434.41 -0.271759 2.67423 0
M  V30 4609 C 432.681 2.21303 2.80642 0
M  V30 4610 S 434.24 2.34468 3.70904 0
M  V30 4611 H 431.058 0.468141 0.535131 0
M  V30 4612 H 433.66 1.71841 0.932246 0
M  V30 4613 H 432.364 3.23439 2.52617 0
M  V30 4614 H 431.895 1.82266 3.4863 0
M  V30 4615 H 433.91 1.54074 4.71673 0
M  V30 4616 N 433.083 -1.0153 1.20538 0
M  V30 4617 C 434.332 -1.74558 1.01057 0
M  V30 4618 C 434.645 -1.90168 -0.457756 0
M  V30 4619 O 435.851 -2.60301 -0.771722 0
M  V30 4620 C 434.307 -3.13963 1.75941 0
M  V30 4621 C 433.915 -3.06361 3.26875 0
M  V30 4622 C 435.659 -3.91191 1.64832 0
M  V30 4623 C 433.566 -4.40782 3.94291 0
M  V30 4624 H 432.496 -0.654417 0.374505 0
M  V30 4625 H 435.147 -1.13521 1.44171 0
M  V30 4626 H 433.529 -3.75549 1.25614 0
M  V30 4627 H 434.703 -2.54074 3.84425 0
M  V30 4628 H 433.018 -2.42625 3.38411 0
M  V30 4629 H 435.615 -4.90644 2.12539 0
M  V30 4630 H 435.958 -4.11884 0.604745 0
M  V30 4631 H 436.491 -3.36236 2.12579 0
M  V30 4632 H 433.23 -4.25292 4.98805 0
M  V30 4633 H 432.75 -4.9307 3.41529 0
M  V30 4634 H 434.429 -5.09621 3.98617 0
M  V30 4635 N 434.561 -1.01147 -1.20859 0
M  V30 4636 C 435.491 -0.597663 -2.25722 0
M  V30 4637 C 436.472 0.384744 -1.65692 0
M  V30 4638 O 437.657 0.271303 -1.92296 0
M  V30 4639 C 434.787 0.0700149 -3.47229 0
M  V30 4640 C 433.741 -0.832843 -4.19819 0
M  V30 4641 C 433.067 -0.0312202 -5.34691 0
M  V30 4642 C 434.367 -2.1385 -4.76514 0
M  V30 4643 H 436.061 -1.47423 -2.60589 0
M  V30 4644 H 433.607 -0.710301 -1.25263 0
M  V30 4645 H 435.56 0.37103 -4.19763 0
M  V30 4646 H 434.284 0.981259 -3.11511 0
M  V30 4647 H 432.943 -1.11778 -3.49144 0
M  V30 4648 H 432.591 0.881515 -4.95215 0
M  V30 4649 H 432.291 -0.632434 -5.84187 0
M  V30 4650 H 433.815 0.26346 -6.10031 0
M  V30 4651 H 435.229 -1.9002 -5.40893 0
M  V30 4652 H 433.626 -2.69012 -5.36426 0
M  V30 4653 H 434.696 -2.80495 -3.95538 0
M  V30 4654 N 436.039 1.36541 -0.78704 0
M  V30 4655 C 437.287 1.98911 -0.357633 0
M  V30 4656 C 437.608 1.62778 1.07371 0
M  V30 4657 O 436.878 0.900612 1.73971 0
M  V30 4658 H 435.458 0.735734 -0.129246 0
M  V30 4659 H 438.12 1.66776 -1.00855 0
M  V30 4660 H 437.216 3.08874 -0.447549 0
M  V30 4661 N 437.518 0.538854 1.48102 0
M  V30 4662 C 438.45 -0.256278 2.27763 0
M  V30 4663 C 439.463 -0.89633 1.35904 0
M  V30 4664 O 440.652 -0.773275 1.60881 0
M  V30 4665 C 437.752 -1.37896 3.09577 0
M  V30 4666 C 436.925 -0.839159 4.29275 0
M  V30 4667 C 435.984 -1.84405 4.9283 0
M  V30 4668 O 435.01 -1.39746 5.51779 0
M  V30 4669 N 436.212 -3.17666 4.85869 0
M  V30 4670 H 438.977 0.426968 2.96643 0
M  V30 4671 H 436.538 0.373747 1.57527 0
M  V30 4672 H 438.53 -2.04955 3.48963 0
M  V30 4673 H 437.1 -1.96572 2.4306 0
M  V30 4674 H 436.32 0.00769287 3.94199 0
M  V30 4675 H 437.608 -0.457548 5.06739 0
M  V30 4676 H 437.006 -3.56609 4.39143 0
M  V30 4677 H 435.563 -3.80334 5.29329 0
M  V30 4678 N 438.996 -1.55193 0.274407 0
M  V30 4679 C 439.944 -2.23924 -0.629362 0
M  V30 4680 C 440.938 -1.23602 -1.1584 0
M  V30 4681 O 442.144 -1.41535 -1.11211 0
M  V30 4682 H 438.519 -0.718637 -0.221507 0
M  V30 4683 H 440.49 -2.98388 -0.0268322 0
M  V30 4684 C 439.239 -2.97329 -1.80252 0
M  V30 4685 H 438.562 -3.74313 -1.40462 0
M  V30 4686 H 440.002 -3.48743 -2.41152 0
M  V30 4687 C 438.461 -2.0276 -2.69054 0
M  V30 4688 O 438.991 -1.57836 -3.69392 0
M  V30 4689 N 437.197 -1.69275 -2.36208 0
M  V30 4690 H 436.744 -2.06004 -1.54661 0
M  V30 4691 H 436.702 -1.06271 -2.95895 0
M  V30 4692 N 440.474 -0.00167713 -1.576 0
M  V30 4693 C 441.722 0.681471 -1.90264 0
M  V30 4694 C 442.043 1.7422 -0.875924 0
M  V30 4695 O 441.313 1.95709 0.0864412 0
M  V30 4696 H 439.893 0.254696 -0.702239 0
M  V30 4697 H 442.555 -0.0429996 -1.94853 0
M  V30 4698 H 441.651 1.15166 -2.90075 0
M  V30 4699 N 441.952 1.55251 0.271103 0
M  V30 4700 C 443.201 1.75151 1.00025 0
M  V30 4701 C 443.514 0.561041 1.87381 0
M  V30 4702 O 444.72 0.642506 2.63788 0
M  V30 4703 C 443.176 3.09999 1.82835 0
M  V30 4704 C 442.784 4.3662 1.00336 0
M  V30 4705 C 444.528 3.39249 2.55168 0
M  V30 4706 C 442.435 5.62506 1.82595 0
M  V30 4707 H 441.365 0.652877 0.377183 0
M  V30 4708 H 444.016 1.81708 0.255843 0
M  V30 4709 H 442.398 2.97485 2.61378 0
M  V30 4710 H 443.572 4.60055 0.261959 0
M  V30 4711 H 441.887 4.14527 0.394486 0
M  V30 4712 H 444.484 4.3051 3.1712 0
M  V30 4713 H 444.827 2.59467 3.2555 0
M  V30 4714 H 445.36 3.52869 1.83653 0
M  V30 4715 H 442.099 6.45041 1.16631 0
M  V30 4716 H 441.619 5.43211 2.54327 0
M  V30 4717 H 443.298 6.00875 2.39913 0
M  V30 4718 N 443.43 -0.535701 1.48216 0
M  V30 4719 C 444.655 -1.32149 1.59848 0
M  V30 4720 C 445.08 -1.86338 0.256842 0
M  V30 4721 O 444.438 -1.64107 -0.770632 0
M  V30 4722 C 444.486 -2.45224 2.64381 0
M  V30 4723 O 443.59 -3.48093 2.21144 0
M  V30 4724 H 442.931 -0.391634 0.536208 0
M  V30 4725 H 445.461 -0.645202 1.94161 0
M  V30 4726 H 445.471 -2.91491 2.85476 0
M  V30 4727 H 444.146 -2.05143 3.61786 0
M  V30 4728 H 442.723 -3.07984 2.10239 0
M  V30 4729 N 444.908 -1.36708 -0.784132 0
M  V30 4730 C 446.185 -1.21776 -1.53069 0
M  V30 4731 C 446.565 0.193876 -2.10208 0
M  V30 4732 O 445.913 1.20012 -1.94446 0
M  V30 4733 C 446.123 -2.30395 -2.62143 0
M  V30 4734 C 447.471 -2.67325 -3.29882 0
M  V30 4735 O 448.495 -2.29478 -2.7243 0
M  V30 4736 O 447.354 -3.32485 -4.33724 0
M  V30 4737 H 444.448 -0.474459 -0.677361 0
M  V30 4738 H 446.994 -1.48454 -0.82216 0
M  V30 4739 H 445.766 -3.2498 -2.17953 0
M  V30 4740 H 445.389 -2.05112 -3.40609 0
M  V30 4741 N 446.386 1.0089 -1.21074 0
M  V30 4742 C 447.316 2.1145 -0.990523 0
M  V30 4743 C 448.297 1.69897 0.0831699 0
M  V30 4744 O 449.482 1.94052 -0.0758853 0
M  V30 4745 C 446.612 3.42914 -0.550177 0
M  V30 4746 C 445.566 3.98244 -1.56799 0
M  V30 4747 C 444.892 5.25568 -0.984013 0
M  V30 4748 C 446.192 4.30752 -2.95381 0
M  V30 4749 H 447.886 2.3013 -1.91521 0
M  V30 4750 H 445.432 1.10592 -0.92225 0
M  V30 4751 H 447.385 4.19653 -0.383305 0
M  V30 4752 H 446.109 3.24014 0.41015 0
M  V30 4753 H 444.768 3.23621 -1.72236 0
M  V30 4754 H 444.416 5.02998 -0.0155216 0
M  V30 4755 H 444.116 5.63551 -1.66384 0
M  V30 4756 H 445.64 6.04955 -0.828378 0
M  V30 4757 H 447.054 4.98349 -2.8341 0
M  V30 4758 H 445.451 4.79869 -3.60341 0
M  V30 4759 H 446.521 3.39192 -3.46521 0
M  V30 4760 N 447.864 1.01787 1.20321 0
M  V30 4761 C 449.11 0.708985 1.90003 0
M  V30 4762 C 449.443 -0.759572 1.78729 0
M  V30 4763 O 448.718 -1.55198 1.17234 0
M  V30 4764 C 449.001 1.1469 3.41348 0
M  V30 4765 C 448.854 2.67586 3.61549 0
M  V30 4766 C 450.173 0.71915 4.34185 0
M  V30 4767 H 447.292 0.259034 0.689978 0
M  V30 4768 H 449.934 1.26584 1.41692 0
M  V30 4769 H 448.084 0.673128 3.82624 0
M  V30 4770 H 449.756 3.22826 3.29517 0
M  V30 4771 H 447.999 3.085 3.04976 0
M  V30 4772 H 448.67 2.93281 4.67643 0
M  V30 4773 H 451.146 1.12647 4.00562 0
M  V30 4774 H 450.022 1.05358 5.38694 0
M  V30 4775 H 450.283 -0.379111 4.40472 0
M  V30 4776 N 449.342 -1.36122 0.79427 0
M  V30 4777 C 450.289 -2.29982 0.194101 0
M  V30 4778 C 451.259 -1.52214 -0.664833 0
M  V30 4779 O 452.444 -1.80702 -0.612498 0
M  V30 4780 C 449.584 -3.38706 -0.661244 0
M  V30 4781 C 448.697 -4.31456 0.216766 0
M  V30 4782 C 447.832 -5.27265 -0.645411 0
M  V30 4783 C 446.871 -6.11653 0.233756 0
M  V30 4784 N 446.008 -6.99636 -0.587682 0
M  V30 4785 H 450.848 -2.80722 0.999965 0
M  V30 4786 H 448.385 -1.38172 0.504677 0
M  V30 4787 H 450.343 -4.00394 -1.17219 0
M  V30 4788 H 448.973 -2.89274 -1.43249 0
M  V30 4789 H 448.025 -3.7088 0.845724 0
M  V30 4790 H 449.337 -4.90724 0.893973 0
M  V30 4791 H 448.491 -5.94266 -1.22198 0
M  V30 4792 H 447.23 -4.68463 -1.35623 0
M  V30 4793 H 446.235 -5.4361 0.82269 0
M  V30 4794 H 447.46 -6.72531 0.942247 0
M  V30 4795 H 445.406 -6.43337 -1.2827 0
M  V30 4796 H 445.323 -7.55993 0.0317402 0
M  V30 4797 H 446.591 -7.71001 -1.14792 0
M  V30 4798 N 450.82 -0.546701 -1.47814 0
M  V30 4799 C 452.066 -0.0187684 -2.02791 0
M  V30 4800 C 452.399 1.32338 -1.42128 0
M  V30 4801 O 451.674 1.85867 -0.573023 0
M  V30 4802 C 451.957 0.0854985 -3.59998 0
M  V30 4803 C 451.81 -1.283 -4.31114 0
M  V30 4804 C 453.129 0.80412 -4.32691 0
M  V30 4805 H 450.248 -0.0082946 -0.736953 0
M  V30 4806 H 452.89 -0.706962 -1.76358 0
M  V30 4807 H 451.04 0.671609 -3.82651 0
M  V30 4808 H 452.712 -1.91151 -4.19832 0
M  V30 4809 H 450.955 -1.86049 -3.91878 0
M  V30 4810 H 451.626 -1.16287 -5.39612 0
M  V30 4811 H 454.102 0.306576 -4.14969 0
M  V30 4812 H 452.978 0.846011 -5.42341 0
M  V30 4813 H 453.239 1.85802 -4.01161 0
M  V30 4814 N 452.299 1.55045 -0.282633 0
M  V30 4815 C 453.527 2.04168 0.33512 0
M  V30 4816 C 453.942 1.16071 1.48906 0
M  V30 4817 O 453.299 0.182391 1.81586 0
M  V30 4818 C 453.35 3.52332 0.808957 0
M  V30 4819 O 453.071 4.37078 -0.299038 0
M  V30 4820 C 454.572 4.17375 1.49375 0
M  V30 4821 H 451.792 0.666744 0.0754543 0
M  V30 4822 H 454.336 2.00205 -0.416918 0
M  V30 4823 H 452.491 3.56715 1.51106 0
M  V30 4824 H 452.905 5.24458 0.0665514 0
M  V30 4825 H 454.379 5.22627 1.77664 0
M  V30 4826 H 454.856 3.65999 2.42778 0
M  V30 4827 H 455.462 4.17016 0.835305 0
M  V30 4828 N 453.777 0.010035 1.57597 0
M  V30 4829 C 454.707 -0.976857 2.12084 0
M  V30 4830 C 455.688 -1.35191 1.03235 0
M  V30 4831 O 456.873 -1.43389 1.3097 0
M  V30 4832 C 454.003 -2.26548 2.63236 0
M  V30 4833 C 452.957 -2.03175 3.76701 0
M  V30 4834 C 452.283 -3.38138 4.14206 0
M  V30 4835 C 453.583 -1.38625 5.03568 0
M  V30 4836 H 455.277 -0.523145 2.94794 0
M  V30 4837 H 452.823 -0.250195 1.4181 0
M  V30 4838 H 454.776 -2.95952 2.99984 0
M  V30 4839 H 453.5 -2.74051 1.77661 0
M  V30 4840 H 452.159 -1.36195 3.40362 0
M  V30 4841 H 451.807 -3.83363 3.25641 0
M  V30 4842 H 451.507 -3.23312 4.90656 0
M  V30 4843 H 453.031 -4.08841 4.53521 0
M  V30 4844 H 454.445 -1.98 5.38023 0
M  V30 4845 H 452.842 -1.34256 5.84889 0
M  V30 4846 H 453.912 -0.356722 4.83586 0
M  V30 4847 N 455.255 -1.55392 -0.262866 0
M  V30 4848 C 456.483 -1.80513 -1.01108 0
M  V30 4849 C 456.898 -0.583533 -1.79556 0
M  V30 4850 O 456.255 0.447585 -1.76926 0
M  V30 4851 C 456.306 -3.03648 -1.96164 0
M  V30 4852 O 456.027 -4.2109 -1.20893 0
M  V30 4853 C 457.528 -3.41448 -2.82715 0
M  V30 4854 H 454.748 -0.601079 -0.298236 0
M  V30 4855 H 457.292 -2.02425 -0.290582 0
M  V30 4856 H 455.447 -2.83832 -2.63663 0
M  V30 4857 H 455.861 -4.90771 -1.85051 0
M  V30 4858 H 457.335 -4.30751 -3.45192 0
M  V30 4859 H 457.812 -2.61308 -3.53008 0
M  V30 4860 H 458.418 -3.63559 -2.20693 0
M  V30 4861 N 456.733 0.527833 -1.48498 0
M  V30 4862 C 457.958 1.313 -1.60546 0
M  V30 4863 C 458.383 1.86199 -0.26672 0
M  V30 4864 O 457.741 1.64513 0.761918 0
M  V30 4865 C 457.789 2.43818 -2.65678 0
M  V30 4866 O 456.893 3.46916 -2.22987 0
M  V30 4867 H 456.234 0.388784 -0.538277 0
M  V30 4868 H 458.764 0.634896 -1.945 0
M  V30 4869 H 458.774 2.89973 -2.87018 0
M  V30 4870 H 457.449 2.03222 -3.62869 0
M  V30 4871 H 456.026 3.06864 -2.11869 0
M  V30 4872 N 458.211 1.37122 0.776871 0
M  V30 4873 C 459.121 1.34651 1.9211 0
M  V30 4874 C 460.137 0.246824 1.7224 0
M  V30 4875 O 461.313 0.48134 1.95563 0
M  V30 4876 C 458.378 1.14748 3.2716 0
M  V30 4877 C 457.439 2.34308 3.5972 0
M  V30 4878 C 456.672 2.15345 4.88326 0
M  V30 4879 O 456.895 1.13507 5.58992 0
M  V30 4880 O 455.829 3.03414 5.1983 0
M  V30 4881 H 459.655 2.31013 1.97146 0
M  V30 4882 H 457.24 1.17799 0.918901 0
M  V30 4883 H 459.122 1.05616 4.0795 0
M  V30 4884 H 457.797 0.214562 3.22988 0
M  V30 4885 H 456.704 2.49011 2.79185 0
M  V30 4886 H 458.037 3.26149 3.68629 0
M  V30 4887 N 459.689 -1.00246 1.21608 0
M  V30 4888 C 460.599 -2.12515 0.993709 0
M  V30 4889 C 461.615 -1.73913 -0.0549939 0
M  V30 4890 O 462.791 -2.00943 0.135619 0
M  V30 4891 C 459.856 -3.42083 0.563953 0
M  V30 4892 C 458.917 -3.94843 1.68516 0
M  V30 4893 C 458.15 -5.18226 1.27582 0
M  V30 4894 O 458.373 -5.70201 0.150506 0
M  V30 4895 O 457.307 -5.64497 2.0887 0
M  V30 4896 H 461.133 -2.34152 1.93407 0
M  V30 4897 H 458.718 -1.10891 1.00118 0
M  V30 4898 H 460.6 -4.20073 0.334194 0
M  V30 4899 H 459.275 -3.21828 -0.347665 0
M  V30 4900 H 458.182 -3.18068 1.96935 0
M  V30 4901 H 459.515 -4.19512 2.5743 0
M  V30 4902 N 461.167 -1.02423 -1.1978 0
M  V30 4903 C 462.077 -0.610919 -2.26506 0
M  V30 4904 C 463.093 0.355152 -1.70337 0
M  V30 4905 O 464.269 0.214195 -2.00258 0
M  V30 4906 C 461.334 0.0365921 -3.46681 0
M  V30 4907 C 460.395 -0.976389 -4.18049 0
M  V30 4908 C 459.628 -0.359683 -5.32487 0
M  V30 4909 O 459.851 0.838601 -5.64202 0
M  V30 4910 O 458.785 -1.08022 -5.92127 0
M  V30 4911 H 462.611 -1.49965 -2.64091 0
M  V30 4912 H 460.196 -0.794156 -1.26545 0
M  V30 4913 H 462.078 0.39786 -4.19518 0
M  V30 4914 H 460.753 0.899398 -3.10954 0
M  V30 4915 H 459.66 -1.38916 -3.47352 0
M  V30 4916 H 460.993 -1.80941 -4.57735 0
M  V30 4917 N 462.645 1.35699 -0.801477 0
M  V30 4918 C 463.608 2.28199 -0.213994 0
M  V30 4919 C 464.608 1.49359 0.595691 0
M  V30 4920 O 465.798 1.69186 0.414921 0
M  V30 4921 C 462.93 3.33587 0.702297 0
M  V30 4922 H 464.123 2.81666 -1.02976 0
M  V30 4923 H 461.676 1.45467 -0.571759 0
M  V30 4924 H 462.411 2.85297 1.54195 0
M  V30 4925 H 462.196 3.91906 0.123484 0
M  V30 4926 H 463.686 4.02638 1.10783 0
M  V30 4927 N 464.123 0.554532 1.47522 0
M  V30 4928 C 465.539 0.214107 1.58157 0
M  V30 4929 C 465.739 -1.28331 1.55349 0
M  V30 4930 O 464.795 -2.06329 1.45549 0
M  V30 4931 C 466.108 0.838391 2.88776 0
M  V30 4932 C 467.656 0.809374 3.02354 0
M  V30 4933 C 468.131 1.41268 4.35669 0
M  V30 4934 N 469.622 1.37574 4.42298 0
M  V30 4935 C 470.357 1.8122 5.4401 0
M  V30 4936 N 469.853 2.3271 6.52547 0
M  V30 4937 N 471.646 1.72307 5.35039 0
M  V30 4938 H 463.797 1.52744 1.4759 0
M  V30 4939 H 466.06 0.636812 0.702264 0
M  V30 4940 H 465.766 1.89065 2.96559 0
M  V30 4941 H 465.64 0.329847 3.75755 0
M  V30 4942 H 468.027 -0.234187 2.94169 0
M  V30 4943 H 468.108 1.35565 2.16924 0
M  V30 4944 H 467.752 2.45529 4.4461 0
M  V30 4945 H 467.682 0.841871 5.19827 0
M  V30 4946 H 470.173 0.999081 3.64454 0
M  V30 4947 H 470.486 2.63944 7.26329 0
M  V30 4948 H 468.831 2.36719 6.53444 0
M  V30 4949 H 472.022 1.3186 4.49144 0
M  V30 4950 H 472.195 2.06641 6.14169 0
M  V30 4951 N 465.601 -1.54893 0.290851 0
M  V30 4952 C 466.531 -2.26103 -0.583084 0
M  V30 4953 C 467.512 -1.25684 -1.14619 0
M  V30 4954 O 468.697 -1.54436 -1.17741 0
M  V30 4955 C 465.827 -2.99409 -1.75987 0
M  V30 4956 C 464.781 -4.0689 -1.32758 0
M  V30 4957 C 464.107 -4.67856 -2.58872 0
M  V30 4958 C 465.407 -5.20215 -0.46624 0
M  V30 4959 H 467.101 -2.99398 0.0108214 0
M  V30 4960 H 464.647 -1.43998 0.00664468 0
M  V30 4961 H 466.6 -3.47943 -2.37727 0
M  V30 4962 H 465.324 -2.23675 -2.37985 0
M  V30 4963 H 463.983 -3.59191 -0.733299 0
M  V30 4964 H 463.631 -3.88772 -3.19163 0
M  V30 4965 H 463.331 -5.40438 -2.30653 0
M  V30 4966 H 464.855 -5.19147 -3.21433 0
M  V30 4967 H 466.269 -5.64704 -0.989047 0
M  V30 4968 H 464.666 -5.99455 -0.27826 0
M  V30 4969 H 465.736 -4.82198 0.511173 0
M  V30 4970 N 467.08 -0.0183926 -1.57589 0
M  V30 4971 C 468.027 0.967022 -2.09565 0
M  V30 4972 C 468.997 1.32983 -0.995225 0
M  V30 4973 O 470.182 1.42501 -1.26878 0
M  V30 4974 C 467.322 2.24772 -2.61861 0
M  V30 4975 C 466.435 1.94232 -3.85873 0
M  V30 4976 C 465.57 3.16518 -4.26603 0
M  V30 4977 C 464.609 2.81748 -5.43401 0
M  V30 4978 N 463.746 3.96626 -5.79338 0
M  V30 4979 H 468.586 0.516874 -2.93483 0
M  V30 4980 H 466.123 0.243544 -1.4507 0
M  V30 4981 H 468.081 2.99667 -2.90268 0
M  V30 4982 H 466.711 2.67423 -1.8079 0
M  V30 4983 H 465.763 1.09625 -3.64262 0
M  V30 4984 H 467.075 1.64616 -4.70853 0
M  V30 4985 H 466.229 3.99743 -4.56389 0
M  V30 4986 H 464.968 3.49286 -3.40368 0
M  V30 4987 H 463.973 1.96933 -5.1332 0
M  V30 4988 H 465.198 2.50207 -6.31327 0
M  V30 4989 H 463.144 4.29257 -4.96059 0
M  V30 4990 H 463.061 3.70598 -6.58933 0
M  V30 4991 H 464.329 4.80586 -6.13724 0
M  V30 4992 N 468.558 1.5553 0.254621 0
M  V30 4993 C 469.505 1.89666 1.31512 0
M  V30 4994 C 470.475 0.750057 1.482 0
M  V30 4995 O 471.66 1.00301 1.62309 0
M  V30 4996 C 468.8 2.19009 2.667 0
M  V30 4997 C 467.913 3.46435 2.58083 0
M  V30 4998 C 467.048 3.65386 3.85573 0
M  V30 4999 C 466.087 4.8644 3.71541 0
M  V30 5000 N 465.224 5.01952 4.90906 0
M  V30 5001 H 470.064 2.80109 1.017 0
M  V30 5002 H 467.601 1.38666 0.490938 0
M  V30 5003 H 469.559 2.34025 3.45381 0
M  V30 5004 H 468.189 1.31779 2.94676 0
M  V30 5005 H 467.241 3.39792 1.71013 0
M  V30 5006 H 468.553 4.35258 2.43622 0
M  V30 5007 H 467.707 3.80319 4.72697 0
M  V30 5008 H 466.446 2.74781 4.02922 0
M  V30 5009 H 465.451 4.71491 2.82801 0
M  V30 5010 H 466.676 5.78497 3.55694 0
M  V30 5011 H 464.622 4.14283 5.08631 0
M  V30 5012 H 464.539 5.84851 4.79046 0
M  V30 5013 H 465.807 5.21289 5.7955 0
M  V30 5014 N 470.036 -0.519951 1.48776 0
M  V30 5015 C 471.261 -1.30447 1.6124 0
M  V30 5016 C 471.686 -1.86055 0.276591 0
M  V30 5017 O 471.044 -1.64915 -0.753183 0
M  V30 5018 C 471.092 -2.42406 2.66967 0
M  V30 5019 O 470.196 -3.45728 2.24824 0
M  V30 5020 H 469.537 -0.385924 0.540332 0
M  V30 5021 H 472.067 -0.624572 1.94834 0
M  V30 5022 H 472.077 -2.88447 2.88552 0
M  V30 5023 H 470.752 -2.01294 3.63941 0
M  V30 5024 H 469.329 -3.05737 2.13494 0
M  V30 5025 N 471.514 -1.37532 -0.769588 0
M  V30 5026 C 472.477 -1.33292 -1.86456 0
M  V30 5027 C 473.477 -0.236537 -1.59051 0
M  V30 5028 O 474.667 -0.492511 -1.67093 0
M  V30 5029 C 471.799 -1.07118 -3.23633 0
M  V30 5030 H 472.992 -2.30692 -1.91628 0
M  V30 5031 H 470.545 -1.22593 -0.969572 0
M  V30 5032 H 471.28 -0.102578 -3.24138 0
M  V30 5033 H 471.065 -1.86479 -3.44917 0
M  V30 5034 H 472.555 -1.06806 -4.03711 0
M  V30 5035 N 472.992 0.995999 -1.22138 0
M  V30 5036 C 474.269 1.70834 -0.952642 0
M  V30 5037 C 474.649 2.04257 0.533119 0
M  V30 5038 O 473.997 1.72343 1.50034 0
M  V30 5039 C 474.207 2.96119 -1.84701 0
M  V30 5040 C 475.555 3.68962 -2.10124 0
M  V30 5041 O 476.579 3.0612 -1.82124 0
M  V30 5042 O 475.438 4.82017 -2.57531 0
M  V30 5043 H 472.532 0.745498 -0.357997 0
M  V30 5044 H 475.078 1.05262 -1.33109 0
M  V30 5045 H 473.85 2.67898 -2.85213 0
M  V30 5046 H 473.473 3.6943 -1.46995 0
M  V30 5047 N 474.47 1.03057 1.19235 0
M  V30 5048 C 475.698 0.747697 1.92917 0
M  V30 5049 C 476.113 -0.69372 1.75593 0
M  V30 5050 O 475.47 -1.47191 1.07894 0
M  V30 5051 C 475.521 1.09159 3.44625 0
M  V30 5052 O 475.242 2.47641 3.61394 0
M  V30 5053 C 476.743 0.831763 4.35427 0
M  V30 5054 H 473.963 0.273453 0.612751 0
M  V30 5055 H 476.507 1.37552 1.51327 0
M  V30 5056 H 474.662 0.508919 3.84043 0
M  V30 5057 H 475.076 2.60499 4.55237 0
M  V30 5058 H 476.55 1.12233 5.4047 0
M  V30 5059 H 477.027 -0.233769 4.38577 0
M  V30 5060 H 477.633 1.39725 4.01693 0
M  V30 5061 N 475.948 -1.35272 0.808662 0
M  V30 5062 C 476.878 -2.32315 0.234981 0
M  V30 5063 C 477.859 -1.57572 -0.64071 0
M  V30 5064 O 479.044 -1.8563 -0.570551 0
M  V30 5065 C 476.174 -3.41801 -0.615601 0
M  V30 5066 C 475.128 -4.27694 0.161767 0
M  V30 5067 C 474.454 -5.28519 -0.810649 0
M  V30 5068 C 475.754 -5.04231 1.36193 0
M  V30 5069 H 477.448 -2.80543 1.04575 0
M  V30 5070 H 474.994 -1.3488 0.504315 0
M  V30 5071 H 476.947 -4.08693 -1.02702 0
M  V30 5072 H 475.671 -2.92186 -1.45928 0
M  V30 5073 H 474.33 -3.62384 0.554382 0
M  V30 5074 H 473.978 -4.75171 -1.64988 0
M  V30 5075 H 473.678 -5.8686 -0.294822 0
M  V30 5076 H 475.202 -5.98283 -1.22023 0
M  V30 5077 H 476.616 -5.64058 1.02528 0
M  V30 5078 H 475.013 -5.72077 1.81239 0
M  V30 5079 H 476.083 -4.34753 2.14751 0
M  V30 5080 N 477.426 -0.562348 -1.47226 0
M  V30 5081 C 478.672 -0.0485293 -2.03342 0
M  V30 5082 C 479.027 1.28898 -1.42839 0
M  V30 5083 O 478.32 1.82719 -0.576563 0
M  V30 5084 C 478.514 0.0969817 -3.57268 0
M  V30 5085 C 478.343 -1.22487 -4.32697 0
M  V30 5086 C 477.113 -1.79357 -4.72397 0
M  V30 5087 C 479.311 -2.14332 -4.67511 0
M  V30 5088 N 477.293 -3.05493 -5.32491 0
M  V30 5089 C 478.664 -3.25049 -5.27961 0
M  V30 5090 C 480.719 -2.14263 -4.4944 0
M  V30 5091 C 479.422 -4.35804 -5.72248 0
M  V30 5092 C 481.448 -3.24033 -4.94729 0
M  V30 5093 C 480.81 -4.3347 -5.55233 0
M  V30 5094 H 476.909 -0.0600464 -0.779691 0
M  V30 5095 H 479.493 -0.750769 -1.79643 0
M  V30 5096 H 477.664 0.768353 -3.80724 0
M  V30 5097 H 479.396 0.613333 -4.00025 0
M  V30 5098 H 476.151 -1.33093 -4.54514 0
M  V30 5099 H 476.575 -3.698 -5.67077 0
M  V30 5100 H 481.217 -1.30935 -4.02015 0
M  V30 5101 H 478.935 -5.19888 -6.18661 0
M  V30 5102 H 482.521 -3.25073 -4.82513 0
M  V30 5103 H 481.401 -5.17008 -5.89638 0
M  V30 5104 N 478.904 1.54736 -0.299062 0
M  V30 5105 C 480.152 1.99706 0.31017 0
M  V30 5106 C 480.473 1.18896 1.54559 0
M  V30 5107 O 479.743 0.284445 1.93824 0
M  V30 5108 H 478.323 0.737686 0.117596 0
M  V30 5109 H 480.985 1.9054 -0.409943 0
M  V30 5110 H 480.081 3.06596 0.58355 0
M  V30 5111 N 480.382 0.0267497 1.57577 0
M  V30 5112 C 481.631 -0.651736 1.9088 0
M  V30 5113 C 481.944 -1.73427 0.904576 0
M  V30 5114 O 483.15 -2.46923 1.12877 0
M  V30 5115 C 481.606 -1.21048 3.38933 0
M  V30 5116 C 481.214 -0.161362 4.47709 0
M  V30 5117 C 482.958 -1.86562 3.81307 0
M  V30 5118 C 480.865 -0.731611 5.86857 0
M  V30 5119 H 479.795 -0.247198 0.712326 0
M  V30 5120 H 482.446 0.0916641 1.83271 0
M  V30 5121 H 480.828 -2.00542 3.41466 0
M  V30 5122 H 482.002 0.61094 4.56732 0
M  V30 5123 H 480.317 0.394877 4.14523 0
M  V30 5124 H 482.914 -2.30178 4.8262 0
M  V30 5125 H 483.257 -2.70735 3.16241 0
M  V30 5126 H 483.79 -1.13762 3.81186 0
M  V30 5127 H 480.529 0.0719329 6.55461 0
M  V30 5128 H 480.049 -1.47245 5.81445 0
M  V30 5129 H 481.728 -1.22208 6.35354 0
M  V30 5130 N 481.861 -1.55662 -0.24637 0
M  V30 5131 C 482.793 -1.86811 -1.32794 0
M  V30 5132 C 483.806 -0.754413 -1.44265 0
M  V30 5133 O 484.995 -1.03253 -1.45606 0
M  V30 5134 C 482.095 -2.0397 -2.70646 0
M  V30 5135 C 481.268 -3.34832 -2.81436 0
M  V30 5136 C 480.327 -3.41727 -4.00136 0
M  V30 5137 O 479.353 -4.14934 -3.89639 0
M  V30 5138 N 480.555 -2.71058 -5.1333 0
M  V30 5139 H 483.32 -2.80174 -1.06409 0
M  V30 5140 H 480.881 -1.55906 -0.43647 0
M  V30 5141 H 482.873 -2.05924 -3.48393 0
M  V30 5142 H 481.443 -1.1735 -2.89738 0
M  V30 5143 H 480.663 -3.4519 -1.90361 0
M  V30 5144 H 481.951 -4.21085 -2.85595 0
M  V30 5145 H 481.349 -2.11314 -5.2475 0
M  V30 5146 H 479.906 -2.78704 -5.89209 0
M  V30 5147 N 483.339 0.512053 -1.4905 0
M  V30 5148 C 484.286 1.6148 -1.64902 0
M  V30 5149 C 485.256 1.58687 -0.490673 0
M  V30 5150 O 486.441 1.76842 -0.71636 0
M  V30 5151 C 483.581 2.99676 -1.71139 0
M  V30 5152 C 482.694 3.12568 -2.98203 0
M  V30 5153 C 481.829 4.4143 -2.95487 0
M  V30 5154 C 480.868 4.47916 -4.17179 0
M  V30 5155 N 480.005 5.68191 -4.12437 0
M  V30 5156 H 484.845 1.47271 -2.59066 0
M  V30 5157 H 482.382 0.716713 -1.28459 0
M  V30 5158 H 484.34 3.79761 -1.72736 0
M  V30 5159 H 482.97 3.12614 -0.804508 0
M  V30 5160 H 482.022 2.25618 -3.06269 0
M  V30 5161 H 483.334 3.1322 -3.88194 0
M  V30 5162 H 482.488 5.29825 -2.95585 0
M  V30 5163 H 481.227 4.43326 -2.03256 0
M  V30 5164 H 480.232 3.57925 -4.17337 0
M  V30 5165 H 481.457 4.47744 -5.1059 0
M  V30 5166 H 479.403 5.7095 -3.23036 0
M  V30 5167 H 479.32 5.70413 -4.96151 0
M  V30 5168 H 480.588 6.58823 -4.16621 0
M  V30 5169 N 484.817 1.37938 0.762283 0
M  V30 5170 C 485.727 1.36681 1.90671 0
M  V30 5171 C 486.743 0.265078 1.71969 0
M  V30 5172 O 487.919 0.502055 1.95042 0
M  V30 5173 C 484.984 1.18211 3.25925 0
M  V30 5174 C 484.045 2.3811 3.57214 0
M  V30 5175 C 483.278 2.20512 4.86014 0
M  V30 5176 O 483.501 1.19429 5.57757 0
M  V30 5177 O 482.435 3.08911 5.16583 0
M  V30 5178 H 486.261 2.33091 1.94685 0
M  V30 5179 H 483.846 1.18767 0.906356 0
M  V30 5180 H 485.728 1.09937 4.06807 0
M  V30 5181 H 484.403 0.248807 3.22742 0
M  V30 5182 H 483.31 2.51958 2.76529 0
M  V30 5183 H 484.643 3.30041 3.65149 0
M  V30 5184 N 486.295 -0.989507 1.22664 0
M  V30 5185 C 487.225 -2.09847 1.02404 0
M  V30 5186 C 488.206 -1.70007 -0.0561303 0
M  V30 5187 O 489.391 -1.93906 0.106748 0
M  V30 5188 C 486.521 -3.41996 0.604663 0
M  V30 5189 C 485.475 -3.95699 1.63115 0
M  V30 5190 C 484.801 -5.23936 1.0675 0
M  V30 5191 C 486.101 -4.25999 3.02196 0
M  V30 5192 H 487.795 -2.27054 1.95158 0
M  V30 5193 H 485.341 -1.09111 0.939727 0
M  V30 5194 H 487.294 -4.1899 0.45002 0
M  V30 5195 H 486.018 -3.24626 -0.35855 0
M  V30 5196 H 484.677 -3.2084 1.77362 0
M  V30 5197 H 484.325 -5.02909 0.0955422 0
M  V30 5198 H 484.025 -5.60833 1.75328 0
M  V30 5199 H 485.549 -6.0356 0.924516 0
M  V30 5200 H 486.963 -4.93777 2.91303 0
M  V30 5201 H 485.36 -4.74076 3.67929 0
M  V30 5202 H 486.43 -3.33636 3.51873 0
M  V30 5203 N 487.773 -1.03688 -1.18687 0
M  V30 5204 C 488.705 -0.582696 -2.21669 0
M  V30 5205 C 489.718 0.345656 -1.59088 0
M  V30 5206 O 490.907 0.140776 -1.77944 0
M  V30 5207 C 488.007 0.169204 -3.38477 0
M  V30 5208 C 487.18 -0.766079 -4.30639 0
M  V30 5209 C 486.239 -0.0581541 -5.26168 0
M  V30 5210 O 485.265 -0.687346 -5.65035 0
M  V30 5211 N 486.467 1.20981 -5.67753 0
M  V30 5212 H 489.232 -1.46843 -2.61261 0
M  V30 5213 H 486.793 -0.916896 -1.33434 0
M  V30 5214 H 488.785 0.652543 -3.99405 0
M  V30 5215 H 487.355 0.956435 -2.97609 0
M  V30 5216 H 486.575 -1.42935 -3.67373 0
M  V30 5217 H 487.863 -1.40146 -4.89118 0
M  V30 5218 H 487.261 1.74159 -5.38224 0
M  V30 5219 H 485.818 1.6375 -6.30896 0
M  V30 5220 N 489.251 1.34841 -0.815825 0
M  V30 5221 C 490.498 1.98499 -0.400535 0
M  V30 5222 C 490.826 1.64699 1.03463 0
M  V30 5223 O 490.081 0.907006 1.73412 0
M  V30 5224 C 490.38 3.53273 -0.541541 0
M  V30 5225 C 490.046 4.06966 -1.94138 0
M  V30 5226 C 488.708 4.21341 -2.32433 0
M  V30 5227 C 491.06 4.35933 -2.85677 0
M  V30 5228 C 488.388 4.62007 -3.61617 0
M  V30 5229 C 490.74 4.78042 -4.14317 0
M  V30 5230 C 489.404 4.90622 -4.52599 0
M  V30 5231 H 488.674 0.72636 -0.146566 0
M  V30 5232 H 491.321 1.60902 -1.0384 0
M  V30 5233 H 489.626 3.91387 0.179741 0
M  V30 5234 H 491.323 4.00497 -0.20085 0
M  V30 5235 H 487.913 3.96235 -1.63388 0
M  V30 5236 H 492.097 4.24372 -2.57337 0
M  V30 5237 H 487.353 4.69937 -3.91113 0
M  V30 5238 H 491.527 4.99415 -4.85342 0
M  V30 5239 H 489.154 5.2189 -5.52752 0
M  V30 5240 O 490.768 0.711044 1.45005 0
M  V30 5241 H 491.459 0.254759 1.92017 0
M  V30 END ATOM
M  V30 BEGIN BOND
M  V30 END BOND
M  V30 END CTAB
M  END
$$$$
